MODEL        1
REMARK 921   NORMALIZED FREE ENERGY PREDICTED BY IDOCK:   -5.08 KCAL/MOL
REMARK 922        TOTAL FREE ENERGY PREDICTED BY IDOCK:   -7.19 KCAL/MOL
REMARK 923 INTER-LIGAND FREE ENERGY PREDICTED BY IDOCK:   -6.57 KCAL/MOL
REMARK 924 INTRA-LIGAND FREE ENERGY PREDICTED BY IDOCK:   -0.62 KCAL/MOL
REMARK 927      BINDING AFFINITY PREDICTED BY RF-SCORE:    0.00 PKD
ROOT
ATOM      1  N   CYS A   1     -11.174  15.730  64.218  1.00  0.00    -0.852 NA 
ATOM      2  H2  CYS A   1     -10.484  16.376  64.601  1.00  0.00     0.000 HD 
ATOM      3  CA  CYS A   1     -11.239  14.482  65.044  1.00  0.00    -0.382 C  
ATOM      4  H1  CYS A   1     -10.999  15.570  63.225  1.00  0.00     0.000 HD 
ATOM      5  O   CYS A   1     -12.588  13.901  63.163  1.00  0.00    -0.775 OA 
ATOM      6  C   CYS A   1     -12.345  13.589  64.462  1.00  0.00    -0.355 C  
ATOM      7  OXT CYS A   1     -12.928  12.700  65.061  1.00  0.00    -0.812 OA 
ENDROOT
BRANCH   3   8
ATOM      8  CB  CYS A   1     -11.503  14.722  66.538  1.00  0.00    -0.327 C  
BRANCH   8   9
ATOM      9  SG  CYS A   1     -10.151  14.045  67.570  1.00  0.00    -0.239 SA 
BRANCH   9  10
ATOM     10  SG  CYS A   1     -10.119  15.368  69.147  1.00  0.00    -0.249 SA 
BRANCH  10  11
ATOM     11  CB  CYS A   1     -10.931  16.835  68.419  1.00  0.00    -0.325 C  
BRANCH  11  12
ATOM     12  CA  CYS A   1      -9.931  17.976  68.182  1.00  0.00    -0.353 C  
ATOM     13  N   CYS A   1     -10.155  19.151  69.086  1.00  0.00    -0.539 NA 
ATOM     14  C   CYS A   1     -10.116  18.445  66.738  1.00  0.00    -0.373 C  
ATOM     15  H2  CYS A   1     -10.153  18.862  70.065  1.00  0.00     0.000 HD 
ATOM     16  H1  CYS A   1      -9.491  19.908  68.928  1.00  0.00     0.000 HD 
ATOM     17  OXT CYS A   1      -9.727  17.847  65.749  1.00  0.00    -0.527 OA 
ATOM     18  O   CYS A   1     -10.824  19.605  66.681  1.00  0.00    -0.462 OA 
ENDBRANCH  11  12
ENDBRANCH  10  11
ENDBRANCH   9  10
ENDBRANCH   8   9
ENDBRANCH   3   8
TORSDOF 5
ENDMDL
MODEL        2
REMARK 921   NORMALIZED FREE ENERGY PREDICTED BY IDOCK:   -5.05 KCAL/MOL
REMARK 922        TOTAL FREE ENERGY PREDICTED BY IDOCK:   -7.14 KCAL/MOL
REMARK 923 INTER-LIGAND FREE ENERGY PREDICTED BY IDOCK:   -6.86 KCAL/MOL
REMARK 924 INTRA-LIGAND FREE ENERGY PREDICTED BY IDOCK:   -0.28 KCAL/MOL
REMARK 927      BINDING AFFINITY PREDICTED BY RF-SCORE:    0.00 PKD
ROOT
ATOM      1  N   CYS A   1     -11.641  16.173  63.923  1.00  0.00    -1.469 NA 
ATOM      2  H2  CYS A   1     -11.089  17.020  64.067  1.00  0.00     0.000 HD 
ATOM      3  CA  CYS A   1     -11.066  15.036  64.711  1.00  0.00    -0.376 C  
ATOM      4  H1  CYS A   1     -11.748  15.984  62.926  1.00  0.00     0.000 HD 
ATOM      5  O   CYS A   1     -12.704  13.933  63.368  1.00  0.00    -0.806 OA 
ATOM      6  C   CYS A   1     -11.982  13.818  64.512  1.00  0.00    -0.427 C  
ATOM      7  OXT CYS A   1     -12.052  12.855  65.259  1.00  0.00    -0.397 OA 
ENDROOT
BRANCH   3   8
ATOM      8  CB  CYS A   1     -10.904  15.319  66.211  1.00  0.00    -0.312 C  
BRANCH   8   9
ATOM      9  SG  CYS A   1      -9.143  15.545  66.658  1.00  0.00    -0.304 SA 
BRANCH   9  10
ATOM     10  SG  CYS A   1      -9.278  16.144  68.623  1.00  0.00    -0.231 SA 
BRANCH  10  11
ATOM     11  CB  CYS A   1     -11.087  16.137  68.891  1.00  0.00    -0.347 C  
BRANCH  11  12
ATOM     12  CA  CYS A   1     -11.505  15.057  69.899  1.00  0.00    -0.289 C  
ATOM     13  N   CYS A   1     -12.464  14.058  69.326  1.00  0.00    -0.453 NA 
ATOM     14  C   CYS A   1     -12.199  15.770  71.061  1.00  0.00    -0.418 C  
ATOM     15  H2  CYS A   1     -12.087  13.637  68.477  1.00  0.00     0.000 HD 
ATOM     16  H1  CYS A   1     -12.742  13.341  69.996  1.00  0.00     0.000 HD 
ATOM     17  OXT CYS A   1     -11.634  16.415  71.928  1.00  0.00    -0.450 OA 
ATOM     18  O   CYS A   1     -13.551  15.641  70.985  1.00  0.00    -0.588 OA 
ENDBRANCH  11  12
ENDBRANCH  10  11
ENDBRANCH   9  10
ENDBRANCH   8   9
ENDBRANCH   3   8
TORSDOF 5
ENDMDL
MODEL        3
REMARK 921   NORMALIZED FREE ENERGY PREDICTED BY IDOCK:   -4.98 KCAL/MOL
REMARK 922        TOTAL FREE ENERGY PREDICTED BY IDOCK:   -7.06 KCAL/MOL
REMARK 923 INTER-LIGAND FREE ENERGY PREDICTED BY IDOCK:   -6.19 KCAL/MOL
REMARK 924 INTRA-LIGAND FREE ENERGY PREDICTED BY IDOCK:   -0.86 KCAL/MOL
REMARK 927      BINDING AFFINITY PREDICTED BY RF-SCORE:    0.00 PKD
ROOT
ATOM      1  N   CYS A   1      -9.372  18.146  66.224  1.00  0.00    -0.457 NA 
ATOM      2  H2  CYS A   1      -9.331  17.206  65.830  1.00  0.00     0.000 HD 
ATOM      3  CA  CYS A   1     -10.082  18.128  67.543  1.00  0.00    -0.349 C  
ATOM      4  H1  CYS A   1      -9.760  18.800  65.544  1.00  0.00     0.000 HD 
ATOM      5  O   CYS A   1      -9.856  20.470  67.131  1.00  0.00    -0.454 OA 
ATOM      6  C   CYS A   1     -10.043  19.553  68.116  1.00  0.00    -0.429 C  
ATOM      7  OXT CYS A   1     -10.178  19.848  69.293  1.00  0.00    -0.374 OA 
ENDROOT
BRANCH   3   8
ATOM      8  CB  CYS A   1      -9.498  17.145  68.567  1.00  0.00    -0.282 C  
BRANCH   8   9
ATOM      9  SG  CYS A   1     -10.788  16.023  69.222  1.00  0.00    -0.327 SA 
BRANCH   9  10
ATOM     10  SG  CYS A   1     -10.450  14.308  68.135  1.00  0.00    -0.251 SA 
BRANCH  10  11
ATOM     11  CB  CYS A   1     -11.614  14.516  66.740  1.00  0.00    -0.376 C  
BRANCH  11  12
ATOM     12  CA  CYS A   1     -10.881  14.549  65.392  1.00  0.00    -0.354 C  
ATOM     13  N   CYS A   1      -9.522  15.175  65.477  1.00  0.00    -0.410 NA 
ATOM     14  C   CYS A   1     -11.731  15.387  64.436  1.00  0.00    -0.258 C  
ATOM     15  H2  CYS A   1      -8.953  14.716  66.190  1.00  0.00     0.000 HD 
ATOM     16  H1  CYS A   1      -9.035  15.197  64.581  1.00  0.00     0.000 HD 
ATOM     17  OXT CYS A   1     -12.767  15.017  63.907  1.00  0.00    -0.775 OA 
ATOM     18  O   CYS A   1     -11.216  16.636  64.280  1.00  0.00    -1.098 OA 
ENDBRANCH  11  12
ENDBRANCH  10  11
ENDBRANCH   9  10
ENDBRANCH   8   9
ENDBRANCH   3   8
TORSDOF 5
ENDMDL
MODEL        4
REMARK 921   NORMALIZED FREE ENERGY PREDICTED BY IDOCK:   -4.96 KCAL/MOL
REMARK 922        TOTAL FREE ENERGY PREDICTED BY IDOCK:   -7.02 KCAL/MOL
REMARK 923 INTER-LIGAND FREE ENERGY PREDICTED BY IDOCK:   -6.84 KCAL/MOL
REMARK 924 INTRA-LIGAND FREE ENERGY PREDICTED BY IDOCK:   -0.19 KCAL/MOL
REMARK 927      BINDING AFFINITY PREDICTED BY RF-SCORE:    0.00 PKD
ROOT
ATOM      1  N   CYS A   1     -11.825  16.483  71.498  1.00  0.00    -0.616 NA 
ATOM      2  H2  CYS A   1     -11.685  16.967  70.611  1.00  0.00     0.000 HD 
ATOM      3  CA  CYS A   1     -12.935  15.483  71.377  1.00  0.00    -0.483 C  
ATOM      4  H1  CYS A   1     -11.944  17.156  72.256  1.00  0.00     0.000 HD 
ATOM      5  O   CYS A   1     -12.510  15.473  73.727  1.00  0.00    -0.494 OA 
ATOM      6  C   CYS A   1     -13.043  14.738  72.717  1.00  0.00    -0.474 C  
ATOM      7  OXT CYS A   1     -13.553  13.641  72.879  1.00  0.00    -0.665 OA 
ENDROOT
BRANCH   3   8
ATOM      8  CB  CYS A   1     -12.757  14.470  70.237  1.00  0.00    -0.272 C  
BRANCH   8   9
ATOM      9  SG  CYS A   1     -11.367  14.939  69.142  1.00  0.00    -0.311 SA 
BRANCH   9  10
ATOM     10  SG  CYS A   1     -11.341  13.379  67.799  1.00  0.00    -0.312 SA 
BRANCH  10  11
ATOM     11  CB  CYS A   1     -12.086  14.151  66.318  1.00  0.00    -0.442 C  
BRANCH  11  12
ATOM     12  CA  CYS A   1     -11.043  14.382  65.215  1.00  0.00    -0.342 C  
ATOM     13  N   CYS A   1      -9.633  14.214  65.696  1.00  0.00    -0.533 NA 
ATOM     14  C   CYS A   1     -11.211  15.823  64.731  1.00  0.00    -0.366 C  
ATOM     15  H2  CYS A   1      -9.504  13.301  66.133  1.00  0.00     0.000 HD 
ATOM     16  H1  CYS A   1      -8.941  14.368  64.963  1.00  0.00     0.000 HD 
ATOM     17  OXT CYS A   1     -12.114  16.224  64.014  1.00  0.00    -0.928 OA 
ATOM     18  O   CYS A   1     -10.247  16.634  65.243  1.00  0.00    -0.600 OA 
ENDBRANCH  11  12
ENDBRANCH  10  11
ENDBRANCH   9  10
ENDBRANCH   8   9
ENDBRANCH   3   8
TORSDOF 5
ENDMDL
MODEL        5
REMARK 921   NORMALIZED FREE ENERGY PREDICTED BY IDOCK:   -4.94 KCAL/MOL
REMARK 922        TOTAL FREE ENERGY PREDICTED BY IDOCK:   -7.00 KCAL/MOL
REMARK 923 INTER-LIGAND FREE ENERGY PREDICTED BY IDOCK:   -6.89 KCAL/MOL
REMARK 924 INTRA-LIGAND FREE ENERGY PREDICTED BY IDOCK:   -0.12 KCAL/MOL
REMARK 927      BINDING AFFINITY PREDICTED BY RF-SCORE:    0.00 PKD
ROOT
ATOM      1  N   CYS A   1     -14.283  15.426  70.861  1.00  0.00    -0.857 NA 
ATOM      2  H2  CYS A   1     -14.488  14.998  69.958  1.00  0.00     0.000 HD 
ATOM      3  CA  CYS A   1     -13.622  14.436  71.771  1.00  0.00    -0.395 C  
ATOM      4  H1  CYS A   1     -15.123  15.859  71.247  1.00  0.00     0.000 HD 
ATOM      5  O   CYS A   1     -14.054  16.260  73.250  1.00  0.00    -0.434 OA 
ATOM      6  C   CYS A   1     -13.274  15.162  73.079  1.00  0.00    -0.503 C  
ATOM      7  OXT CYS A   1     -12.426  14.807  73.883  1.00  0.00    -0.491 OA 
ENDROOT
BRANCH   3   8
ATOM      8  CB  CYS A   1     -12.359  13.784  71.191  1.00  0.00    -0.345 C  
BRANCH   8   9
ATOM      9  SG  CYS A   1     -11.661  14.784  69.825  1.00  0.00    -0.330 SA 
BRANCH   9  10
ATOM     10  SG  CYS A   1     -11.904  13.527  68.213  1.00  0.00    -0.352 SA 
BRANCH  10  11
ATOM     11  CB  CYS A   1     -11.368  14.593  66.827  1.00  0.00    -0.356 C  
BRANCH  11  12
ATOM     12  CA  CYS A   1     -10.984  13.764  65.592  1.00  0.00    -0.288 C  
ATOM     13  N   CYS A   1     -10.060  14.491  64.662  1.00  0.00    -0.594 NA 
ATOM     14  C   CYS A   1     -12.277  13.459  64.834  1.00  0.00    -0.408 C  
ATOM     15  H2  CYS A   1      -9.228  14.815  65.156  1.00  0.00     0.000 HD 
ATOM     16  H1  CYS A   1      -9.805  13.940  63.842  1.00  0.00     0.000 HD 
ATOM     17  OXT CYS A   1     -13.114  12.638  65.173  1.00  0.00    -0.726 OA 
ATOM     18  O   CYS A   1     -12.414  14.262  63.745  1.00  0.00    -0.810 OA 
ENDBRANCH  11  12
ENDBRANCH  10  11
ENDBRANCH   9  10
ENDBRANCH   8   9
ENDBRANCH   3   8
TORSDOF 5
ENDMDL
MODEL        6
REMARK 921   NORMALIZED FREE ENERGY PREDICTED BY IDOCK:   -4.94 KCAL/MOL
REMARK 922        TOTAL FREE ENERGY PREDICTED BY IDOCK:   -7.00 KCAL/MOL
REMARK 923 INTER-LIGAND FREE ENERGY PREDICTED BY IDOCK:   -6.45 KCAL/MOL
REMARK 924 INTRA-LIGAND FREE ENERGY PREDICTED BY IDOCK:   -0.55 KCAL/MOL
REMARK 927      BINDING AFFINITY PREDICTED BY RF-SCORE:    0.00 PKD
ROOT
ATOM      1  N   CYS A   1     -12.616  14.719  63.600  1.00  0.00    -0.960 NA 
ATOM      2  H2  CYS A   1     -13.216  13.900  63.501  1.00  0.00     0.000 HD 
ATOM      3  CA  CYS A   1     -11.766  14.597  64.828  1.00  0.00    -0.428 C  
ATOM      4  H1  CYS A   1     -13.171  15.574  63.554  1.00  0.00     0.000 HD 
ATOM      5  O   CYS A   1     -11.347  16.850  64.154  1.00  0.00    -1.208 OA 
ATOM      6  C   CYS A   1     -10.836  15.820  64.878  1.00  0.00    -0.413 C  
ATOM      7  OXT CYS A   1      -9.785  15.887  65.494  1.00  0.00    -0.376 OA 
ENDROOT
BRANCH   3   8
ATOM      8  CB  CYS A   1     -10.930  13.312  64.897  1.00  0.00    -0.330 C  
BRANCH   8   9
ATOM      9  SG  CYS A   1     -11.356  12.321  66.376  1.00  0.00    -0.370 SA 
BRANCH   9  10
ATOM     10  SG  CYS A   1      -9.691  12.583  67.557  1.00  0.00    -0.201 SA 
BRANCH  10  11
ATOM     11  CB  CYS A   1     -10.163  14.046  68.547  1.00  0.00    -0.237 C  
BRANCH  11  12
ATOM     12  CA  CYS A   1     -11.687  14.156  68.703  1.00  0.00    -0.350 C  
ATOM     13  N   CYS A   1     -12.175  15.573  68.720  1.00  0.00    -0.584 NA 
ATOM     14  C   CYS A   1     -12.050  13.512  70.042  1.00  0.00    -0.341 C  
ATOM     15  H2  CYS A   1     -11.856  16.077  67.891  1.00  0.00     0.000 HD 
ATOM     16  H1  CYS A   1     -13.187  15.646  68.823  1.00  0.00     0.000 HD 
ATOM     17  OXT CYS A   1     -12.076  12.313  70.262  1.00  0.00    -0.341 OA 
ATOM     18  O   CYS A   1     -12.298  14.453  70.993  1.00  0.00    -0.312 OA 
ENDBRANCH  11  12
ENDBRANCH  10  11
ENDBRANCH   9  10
ENDBRANCH   8   9
ENDBRANCH   3   8
TORSDOF 5
ENDMDL
MODEL        7
REMARK 921   NORMALIZED FREE ENERGY PREDICTED BY IDOCK:   -4.94 KCAL/MOL
REMARK 922        TOTAL FREE ENERGY PREDICTED BY IDOCK:   -7.00 KCAL/MOL
REMARK 923 INTER-LIGAND FREE ENERGY PREDICTED BY IDOCK:   -6.40 KCAL/MOL
REMARK 924 INTRA-LIGAND FREE ENERGY PREDICTED BY IDOCK:   -0.60 KCAL/MOL
REMARK 927      BINDING AFFINITY PREDICTED BY RF-SCORE:    0.00 PKD
ROOT
ATOM      1  N   CYS A   1     -10.421  18.319  65.803  1.00  0.00    -0.617 NA 
ATOM      2  H2  CYS A   1     -10.914  17.545  65.357  1.00  0.00     0.000 HD 
ATOM      3  CA  CYS A   1     -10.862  18.469  67.227  1.00  0.00    -0.282 C  
ATOM      4  H1  CYS A   1     -10.509  19.167  65.243  1.00  0.00     0.000 HD 
ATOM      5  O   CYS A   1      -9.537  20.429  66.910  1.00  0.00    -0.411 OA 
ATOM      6  C   CYS A   1     -10.031  19.595  67.860  1.00  0.00    -0.411 C  
ATOM      7  OXT CYS A   1      -9.842  19.751  69.056  1.00  0.00    -0.404 OA 
ENDROOT
BRANCH   3   8
ATOM      8  CB  CYS A   1     -10.729  17.193  68.071  1.00  0.00    -0.372 C  
BRANCH   8   9
ATOM      9  SG  CYS A   1      -9.253  16.225  67.586  1.00  0.00    -0.206 SA 
BRANCH   9  10
ATOM     10  SG  CYS A   1     -10.076  14.390  67.147  1.00  0.00    -0.256 SA 
BRANCH  10  11
ATOM     11  CB  CYS A   1     -11.482  14.858  66.077  1.00  0.00    -0.275 C  
BRANCH  11  12
ATOM     12  CA  CYS A   1     -11.076  14.909  64.597  1.00  0.00    -0.323 C  
ATOM     13  N   CYS A   1     -11.638  16.095  63.874  1.00  0.00    -1.469 NA 
ATOM     14  C   CYS A   1     -11.626  13.644  63.935  1.00  0.00    -0.255 C  
ATOM     15  H2  CYS A   1     -11.389  16.963  64.350  1.00  0.00     0.000 HD 
ATOM     16  H1  CYS A   1     -11.368  16.128  62.891  1.00  0.00     0.000 HD 
ATOM     17  OXT CYS A   1     -11.161  12.524  64.064  1.00  0.00    -0.343 OA 
ATOM     18  O   CYS A   1     -12.747  13.911  63.212  1.00  0.00    -0.775 OA 
ENDBRANCH  11  12
ENDBRANCH  10  11
ENDBRANCH   9  10
ENDBRANCH   8   9
ENDBRANCH   3   8
TORSDOF 5
ENDMDL
MODEL        8
REMARK 921   NORMALIZED FREE ENERGY PREDICTED BY IDOCK:   -4.91 KCAL/MOL
REMARK 922        TOTAL FREE ENERGY PREDICTED BY IDOCK:   -6.97 KCAL/MOL
REMARK 923 INTER-LIGAND FREE ENERGY PREDICTED BY IDOCK:   -6.97 KCAL/MOL
REMARK 924 INTRA-LIGAND FREE ENERGY PREDICTED BY IDOCK:    0.01 KCAL/MOL
REMARK 927      BINDING AFFINITY PREDICTED BY RF-SCORE:    0.00 PKD
ROOT
ATOM      1  N   CYS A   1     -11.825  16.234  71.567  1.00  0.00    -0.649 NA 
ATOM      2  H2  CYS A   1     -11.380  16.651  70.749  1.00  0.00     0.000 HD 
ATOM      3  CA  CYS A   1     -12.797  15.173  71.150  1.00  0.00    -0.401 C  
ATOM      4  H1  CYS A   1     -12.222  16.959  72.164  1.00  0.00     0.000 HD 
ATOM      5  O   CYS A   1     -13.256  15.376  73.484  1.00  0.00    -0.478 OA 
ATOM      6  C   CYS A   1     -13.373  14.536  72.424  1.00  0.00    -0.433 C  
ATOM      7  OXT CYS A   1     -13.888  13.432  72.493  1.00  0.00    -0.668 OA 
ENDROOT
BRANCH   3   8
ATOM      8  CB  CYS A   1     -12.200  14.081  70.251  1.00  0.00    -0.361 C  
BRANCH   8   9
ATOM      9  SG  CYS A   1     -11.540  14.786  68.696  1.00  0.00    -0.326 SA 
BRANCH   9  10
ATOM     10  SG  CYS A   1     -11.604  13.162  67.433  1.00  0.00    -0.374 SA 
BRANCH  10  11
ATOM     11  CB  CYS A   1     -12.592  13.813  66.040  1.00  0.00    -0.408 C  
BRANCH  11  12
ATOM     12  CA  CYS A   1     -11.819  13.741  64.715  1.00  0.00    -0.391 C  
ATOM     13  N   CYS A   1     -12.398  14.621  63.649  1.00  0.00    -1.089 NA 
ATOM     14  C   CYS A   1     -11.892  12.293  64.228  1.00  0.00    -0.403 C  
ATOM     15  H2  CYS A   1     -12.474  15.585  63.974  1.00  0.00     0.000 HD 
ATOM     16  H1  CYS A   1     -11.884  14.572  62.769  1.00  0.00     0.000 HD 
ATOM     17  OXT CYS A   1     -11.257  11.361  64.694  1.00  0.00    -0.258 OA 
ATOM     18  O   CYS A   1     -12.804  12.151  63.229  1.00  0.00    -0.735 OA 
ENDBRANCH  11  12
ENDBRANCH  10  11
ENDBRANCH   9  10
ENDBRANCH   8   9
ENDBRANCH   3   8
TORSDOF 5
ENDMDL
MODEL        9
REMARK 921   NORMALIZED FREE ENERGY PREDICTED BY IDOCK:   -4.89 KCAL/MOL
REMARK 922        TOTAL FREE ENERGY PREDICTED BY IDOCK:   -6.94 KCAL/MOL
REMARK 923 INTER-LIGAND FREE ENERGY PREDICTED BY IDOCK:   -6.78 KCAL/MOL
REMARK 924 INTRA-LIGAND FREE ENERGY PREDICTED BY IDOCK:   -0.16 KCAL/MOL
REMARK 927      BINDING AFFINITY PREDICTED BY RF-SCORE:    0.00 PKD
ROOT
ATOM      1  N   CYS A   1     -12.051  12.301  65.822  1.00  0.00    -0.603 NA 
ATOM      2  H2  CYS A   1     -12.004  11.952  66.779  1.00  0.00     0.000 HD 
ATOM      3  CA  CYS A   1     -12.385  13.762  65.815  1.00  0.00    -0.486 C  
ATOM      4  H1  CYS A   1     -12.679  11.722  65.263  1.00  0.00     0.000 HD 
ATOM      5  O   CYS A   1     -12.554  13.203  63.500  1.00  0.00    -0.722 OA 
ATOM      6  C   CYS A   1     -12.366  14.240  64.355  1.00  0.00    -0.391 C  
ATOM      7  OXT CYS A   1     -12.222  15.396  63.990  1.00  0.00    -0.629 OA 
ENDROOT
BRANCH   3   8
ATOM      8  CB  CYS A   1     -11.441  14.633  66.655  1.00  0.00    -0.357 C  
BRANCH   8   9
ATOM      9  SG  CYS A   1     -11.228  13.951  68.340  1.00  0.00    -0.282 SA 
BRANCH   9  10
ATOM     10  SG  CYS A   1     -11.781  15.546  69.517  1.00  0.00    -0.383 SA 
BRANCH  10  11
ATOM     11  CB  CYS A   1     -11.589  14.854  71.198  1.00  0.00    -0.298 C  
BRANCH  11  12
ATOM     12  CA  CYS A   1     -12.947  14.516  71.830  1.00  0.00    -0.341 C  
ATOM     13  N   CYS A   1     -14.106  15.093  71.074  1.00  0.00    -0.726 NA 
ATOM     14  C   CYS A   1     -12.951  15.115  73.237  1.00  0.00    -0.528 C  
ATOM     15  H2  CYS A   1     -14.079  14.809  70.095  1.00  0.00     0.000 HD 
ATOM     16  H1  CYS A   1     -15.008  14.869  71.495  1.00  0.00     0.000 HD 
ATOM     17  OXT CYS A   1     -12.349  14.662  74.196  1.00  0.00    -0.482 OA 
ATOM     18  O   CYS A   1     -13.677  16.264  73.284  1.00  0.00    -0.549 OA 
ENDBRANCH  11  12
ENDBRANCH  10  11
ENDBRANCH   9  10
ENDBRANCH   8   9
ENDBRANCH   3   8
TORSDOF 5
ENDMDL
MODEL       10
REMARK 921   NORMALIZED FREE ENERGY PREDICTED BY IDOCK:   -4.87 KCAL/MOL
REMARK 922        TOTAL FREE ENERGY PREDICTED BY IDOCK:   -6.91 KCAL/MOL
REMARK 923 INTER-LIGAND FREE ENERGY PREDICTED BY IDOCK:   -6.72 KCAL/MOL
REMARK 924 INTRA-LIGAND FREE ENERGY PREDICTED BY IDOCK:   -0.18 KCAL/MOL
REMARK 927      BINDING AFFINITY PREDICTED BY RF-SCORE:    0.00 PKD
ROOT
ATOM      1  N   CYS A   1     -11.747  13.139  70.230  1.00  0.00    -0.541 NA 
ATOM      2  H2  CYS A   1     -10.889  13.004  69.693  1.00  0.00     0.000 HD 
ATOM      3  CA  CYS A   1     -11.915  14.583  70.591  1.00  0.00    -0.319 C  
ATOM      4  H1  CYS A   1     -11.772  12.499  71.024  1.00  0.00     0.000 HD 
ATOM      5  O   CYS A   1     -13.645  13.546  71.869  1.00  0.00    -0.406 OA 
ATOM      6  C   CYS A   1     -13.256  14.729  71.328  1.00  0.00    -0.382 C  
ATOM      7  OXT CYS A   1     -13.893  15.763  71.442  1.00  0.00    -0.522 OA 
ENDROOT
BRANCH   3   8
ATOM      8  CB  CYS A   1     -11.877  15.546  69.396  1.00  0.00    -0.374 C  
BRANCH   8   9
ATOM      9  SG  CYS A   1     -10.182  16.173  69.103  1.00  0.00    -0.273 SA 
BRANCH   9  10
ATOM     10  SG  CYS A   1     -10.274  16.731  67.123  1.00  0.00    -0.298 SA 
BRANCH  10  11
ATOM     11  CB  CYS A   1     -11.013  15.247  66.352  1.00  0.00    -0.299 C  
BRANCH  11  12
ATOM     12  CA  CYS A   1     -10.789  15.226  64.834  1.00  0.00    -0.425 C  
ATOM     13  N   CYS A   1     -11.429  16.385  64.130  1.00  0.00    -1.441 NA 
ATOM     14  C   CYS A   1     -11.421  13.939  64.301  1.00  0.00    -0.318 C  
ATOM     15  H2  CYS A   1     -11.120  17.271  64.532  1.00  0.00     0.000 HD 
ATOM     16  H1  CYS A   1     -11.280  16.371  63.121  1.00  0.00     0.000 HD 
ATOM     17  OXT CYS A   1     -10.949  12.821  64.424  1.00  0.00    -0.319 OA 
ATOM     18  O   CYS A   1     -12.620  14.185  63.707  1.00  0.00    -0.804 OA 
ENDBRANCH  11  12
ENDBRANCH  10  11
ENDBRANCH   9  10
ENDBRANCH   8   9
ENDBRANCH   3   8
TORSDOF 5
ENDMDL
MODEL       11
REMARK 921   NORMALIZED FREE ENERGY PREDICTED BY IDOCK:   -4.84 KCAL/MOL
REMARK 922        TOTAL FREE ENERGY PREDICTED BY IDOCK:   -6.86 KCAL/MOL
REMARK 923 INTER-LIGAND FREE ENERGY PREDICTED BY IDOCK:   -6.21 KCAL/MOL
REMARK 924 INTRA-LIGAND FREE ENERGY PREDICTED BY IDOCK:   -0.65 KCAL/MOL
REMARK 927      BINDING AFFINITY PREDICTED BY RF-SCORE:    0.00 PKD
ROOT
ATOM      1  N   CYS A   1     -10.063  13.697  64.338  1.00  0.00    -0.748 NA 
ATOM      2  H2  CYS A   1      -9.059  13.526  64.412  1.00  0.00     0.000 HD 
ATOM      3  CA  CYS A   1     -10.744  12.531  63.689  1.00  0.00    -0.430 C  
ATOM      4  H1  CYS A   1     -10.238  14.594  63.885  1.00  0.00     0.000 HD 
ATOM      5  O   CYS A   1     -12.498  14.149  63.770  1.00  0.00    -0.791 OA 
ATOM      6  C   CYS A   1     -12.254  12.816  63.677  1.00  0.00    -0.512 C  
ATOM      7  OXT CYS A   1     -13.133  11.976  63.579  1.00  0.00    -0.764 OA 
ENDROOT
BRANCH   3   8
ATOM      8  CB  CYS A   1     -10.480  11.180  64.370  1.00  0.00    -0.353 C  
BRANCH   8   9
ATOM      9  SG  CYS A   1      -9.566  11.395  65.941  1.00  0.00    -0.233 SA 
BRANCH   9  10
ATOM     10  SG  CYS A   1     -11.031  11.023  67.338  1.00  0.00    -0.297 SA 
BRANCH  10  11
ATOM     11  CB  CYS A   1     -11.762  12.683  67.563  1.00  0.00    -0.368 C  
BRANCH  11  12
ATOM     12  CA  CYS A   1     -10.722  13.697  68.060  1.00  0.00    -0.247 C  
ATOM     13  N   CYS A   1     -10.667  13.797  69.555  1.00  0.00    -0.446 NA 
ATOM     14  C   CYS A   1     -11.124  15.065  67.506  1.00  0.00    -0.317 C  
ATOM     15  H2  CYS A   1     -10.512  12.881  69.976  1.00  0.00     0.000 HD 
ATOM     16  H1  CYS A   1      -9.975  14.471  69.885  1.00  0.00     0.000 HD 
ATOM     17  OXT CYS A   1     -10.979  15.426  66.350  1.00  0.00    -0.322 OA 
ATOM     18  O   CYS A   1     -11.721  15.829  68.460  1.00  0.00    -0.383 OA 
ENDBRANCH  11  12
ENDBRANCH  10  11
ENDBRANCH   9  10
ENDBRANCH   8   9
ENDBRANCH   3   8
TORSDOF 5
ENDMDL
MODEL       12
REMARK 921   NORMALIZED FREE ENERGY PREDICTED BY IDOCK:   -4.83 KCAL/MOL
REMARK 922        TOTAL FREE ENERGY PREDICTED BY IDOCK:   -6.86 KCAL/MOL
REMARK 923 INTER-LIGAND FREE ENERGY PREDICTED BY IDOCK:   -6.28 KCAL/MOL
REMARK 924 INTRA-LIGAND FREE ENERGY PREDICTED BY IDOCK:   -0.58 KCAL/MOL
REMARK 927      BINDING AFFINITY PREDICTED BY RF-SCORE:    0.00 PKD
ROOT
ATOM      1  N   CYS A   1     -10.368  18.837  68.021  1.00  0.00    -0.389 NA 
ATOM      2  H2  CYS A   1     -10.103  18.550  68.963  1.00  0.00     0.000 HD 
ATOM      3  CA  CYS A   1     -10.161  17.712  67.054  1.00  0.00    -0.332 C  
ATOM      4  H1  CYS A   1      -9.894  19.704  67.767  1.00  0.00     0.000 HD 
ATOM      5  O   CYS A   1     -10.647  19.537  65.594  1.00  0.00    -0.486 OA 
ATOM      6  C   CYS A   1     -10.648  18.182  65.675  1.00  0.00    -0.094 C  
ATOM      7  OXT CYS A   1     -10.979  17.453  64.754  1.00  0.00    -0.964 OA 
ENDROOT
BRANCH   3   8
ATOM      8  CB  CYS A   1     -10.874  16.407  67.436  1.00  0.00    -0.219 C  
BRANCH   8   9
ATOM      9  SG  CYS A   1      -9.697  15.177  68.107  1.00  0.00    -0.220 SA 
BRANCH   9  10
ATOM     10  SG  CYS A   1      -9.672  13.756  66.617  1.00  0.00    -0.295 SA 
BRANCH  10  11
ATOM     11  CB  CYS A   1     -11.351  13.928  65.912  1.00  0.00    -0.313 C  
BRANCH  11  12
ATOM     12  CA  CYS A   1     -11.321  13.936  64.377  1.00  0.00    -0.341 C  
ATOM     13  N   CYS A   1     -12.319  14.880  63.776  1.00  0.00    -1.071 NA 
ATOM     14  C   CYS A   1     -11.666  12.521  63.911  1.00  0.00    -0.452 C  
ATOM     15  H2  CYS A   1     -12.198  15.823  64.148  1.00  0.00     0.000 HD 
ATOM     16  H1  CYS A   1     -12.299  14.885  62.756  1.00  0.00     0.000 HD 
ATOM     17  OXT CYS A   1     -10.913  11.562  63.958  1.00  0.00    -0.354 OA 
ATOM     18  O   CYS A   1     -12.953  12.441  63.477  1.00  0.00    -0.750 OA 
ENDBRANCH  11  12
ENDBRANCH  10  11
ENDBRANCH   9  10
ENDBRANCH   8   9
ENDBRANCH   3   8
TORSDOF 5
ENDMDL
MODEL       13
REMARK 921   NORMALIZED FREE ENERGY PREDICTED BY IDOCK:   -4.81 KCAL/MOL
REMARK 922        TOTAL FREE ENERGY PREDICTED BY IDOCK:   -6.84 KCAL/MOL
REMARK 923 INTER-LIGAND FREE ENERGY PREDICTED BY IDOCK:   -6.59 KCAL/MOL
REMARK 924 INTRA-LIGAND FREE ENERGY PREDICTED BY IDOCK:   -0.25 KCAL/MOL
REMARK 927      BINDING AFFINITY PREDICTED BY RF-SCORE:    0.00 PKD
ROOT
ATOM      1  N   CYS A   1     -12.191  10.599  68.943  1.00  0.00    -0.793 NA 
ATOM      2  H2  CYS A   1     -11.610  10.848  68.142  1.00  0.00     0.000 HD 
ATOM      3  CA  CYS A   1     -12.007  11.591  70.050  1.00  0.00    -0.357 C  
ATOM      4  H1  CYS A   1     -12.026   9.629  69.214  1.00  0.00     0.000 HD 
ATOM      5  O   CYS A   1     -13.301   9.891  71.117  1.00  0.00    -0.380 OA 
ATOM      6  C   CYS A   1     -12.961  11.204  71.191  1.00  0.00    -0.296 C  
ATOM      7  OXT CYS A   1     -13.358  11.953  72.069  1.00  0.00    -0.487 OA 
ENDROOT
BRANCH   3   8
ATOM      8  CB  CYS A   1     -12.256  13.051  69.644  1.00  0.00    -0.158 C  
BRANCH   8   9
ATOM      9  SG  CYS A   1     -10.863  13.713  68.658  1.00  0.00    -0.266 SA 
BRANCH   9  10
ATOM     10  SG  CYS A   1     -11.753  14.033  66.830  1.00  0.00    -0.427 SA 
BRANCH  10  11
ATOM     11  CB  CYS A   1     -11.447  12.442  65.983  1.00  0.00    -0.382 C  
BRANCH  11  12
ATOM     12  CA  CYS A   1     -10.993  12.652  64.531  1.00  0.00    -0.332 C  
ATOM     13  N   CYS A   1     -10.248  13.937  64.328  1.00  0.00    -0.703 NA 
ATOM     14  C   CYS A   1     -12.253  12.691  63.666  1.00  0.00    -0.536 C  
ATOM     15  H2  CYS A   1      -9.458  14.005  64.971  1.00  0.00     0.000 HD 
ATOM     16  H1  CYS A   1      -9.947  14.076  63.364  1.00  0.00     0.000 HD 
ATOM     17  OXT CYS A   1     -12.925  11.721  63.356  1.00  0.00    -0.646 OA 
ATOM     18  O   CYS A   1     -12.575  13.966  63.316  1.00  0.00    -0.824 OA 
ENDBRANCH  11  12
ENDBRANCH  10  11
ENDBRANCH   9  10
ENDBRANCH   8   9
ENDBRANCH   3   8
TORSDOF 5
ENDMDL
MODEL       14
REMARK 921   NORMALIZED FREE ENERGY PREDICTED BY IDOCK:   -4.76 KCAL/MOL
REMARK 922        TOTAL FREE ENERGY PREDICTED BY IDOCK:   -6.77 KCAL/MOL
REMARK 923 INTER-LIGAND FREE ENERGY PREDICTED BY IDOCK:   -6.61 KCAL/MOL
REMARK 924 INTRA-LIGAND FREE ENERGY PREDICTED BY IDOCK:   -0.16 KCAL/MOL
REMARK 927      BINDING AFFINITY PREDICTED BY RF-SCORE:    0.00 PKD
ROOT
ATOM      1  N   CYS A   1     -10.552  15.612  64.995  1.00  0.00    -0.456 NA 
ATOM      2  H2  CYS A   1      -9.634  15.869  65.360  1.00  0.00     0.000 HD 
ATOM      3  CA  CYS A   1     -10.828  14.162  65.248  1.00  0.00    -0.349 C  
ATOM      4  H1  CYS A   1     -10.636  15.893  64.017  1.00  0.00     0.000 HD 
ATOM      5  O   CYS A   1     -12.639  14.770  63.815  1.00  0.00    -0.806 OA 
ATOM      6  C   CYS A   1     -12.248  13.860  64.744  1.00  0.00    -0.415 C  
ATOM      7  OXT CYS A   1     -12.943  12.923  65.103  1.00  0.00    -0.758 OA 
ENDROOT
BRANCH   3   8
ATOM      8  CB  CYS A   1     -10.702  13.739  66.719  1.00  0.00    -0.276 C  
BRANCH   8   9
ATOM      9  SG  CYS A   1     -11.623  14.875  67.820  1.00  0.00    -0.306 SA 
BRANCH   9  10
ATOM     10  SG  CYS A   1     -11.868  13.724  69.508  1.00  0.00    -0.354 SA 
BRANCH  10  11
ATOM     11  CB  CYS A   1     -13.026  14.743  70.489  1.00  0.00    -0.286 C  
BRANCH  11  12
ATOM     12  CA  CYS A   1     -12.907  14.449  71.991  1.00  0.00    -0.343 C  
ATOM     13  N   CYS A   1     -14.098  13.726  72.544  1.00  0.00    -0.730 NA 
ATOM     14  C   CYS A   1     -12.794  15.796  72.707  1.00  0.00    -0.472 C  
ATOM     15  H2  CYS A   1     -14.281  12.870  72.019  1.00  0.00     0.000 HD 
ATOM     16  H1  CYS A   1     -14.018  13.531  73.542  1.00  0.00     0.000 HD 
ATOM     17  OXT CYS A   1     -11.799  16.500  72.727  1.00  0.00    -0.539 OA 
ATOM     18  O   CYS A   1     -13.973  16.148  73.288  1.00  0.00    -0.515 OA 
ENDBRANCH  11  12
ENDBRANCH  10  11
ENDBRANCH   9  10
ENDBRANCH   8   9
ENDBRANCH   3   8
TORSDOF 5
ENDMDL
MODEL       15
REMARK 921   NORMALIZED FREE ENERGY PREDICTED BY IDOCK:   -4.74 KCAL/MOL
REMARK 922        TOTAL FREE ENERGY PREDICTED BY IDOCK:   -6.74 KCAL/MOL
REMARK 923 INTER-LIGAND FREE ENERGY PREDICTED BY IDOCK:   -6.25 KCAL/MOL
REMARK 924 INTRA-LIGAND FREE ENERGY PREDICTED BY IDOCK:   -0.49 KCAL/MOL
REMARK 927      BINDING AFFINITY PREDICTED BY RF-SCORE:    0.00 PKD
ROOT
ATOM      1  N   CYS A   1     -10.017  13.164  63.828  1.00  0.00    -0.673 NA 
ATOM      2  H2  CYS A   1      -9.061  12.858  64.008  1.00  0.00     0.000 HD 
ATOM      3  CA  CYS A   1     -10.990  12.093  64.214  1.00  0.00    -0.339 C  
ATOM      4  H1  CYS A   1     -10.110  13.491  62.866  1.00  0.00     0.000 HD 
ATOM      5  O   CYS A   1     -12.399  13.661  63.092  1.00  0.00    -0.729 OA 
ATOM      6  C   CYS A   1     -12.408  12.643  63.991  1.00  0.00    -0.443 C  
ATOM      7  OXT CYS A   1     -13.423  12.224  64.523  1.00  0.00    -0.686 OA 
ENDROOT
BRANCH   3   8
ATOM      8  CB  CYS A   1     -10.852  11.600  65.662  1.00  0.00    -0.276 C  
BRANCH   8   9
ATOM      9  SG  CYS A   1     -11.267  12.922  66.858  1.00  0.00    -0.306 SA 
BRANCH   9  10
ATOM     10  SG  CYS A   1      -9.405  13.652  67.346  1.00  0.00    -0.237 SA 
BRANCH  10  11
ATOM     11  CB  CYS A   1      -9.279  15.112  66.254  1.00  0.00    -0.301 C  
BRANCH  11  12
ATOM     12  CA  CYS A   1     -10.631  15.826  66.105  1.00  0.00    -0.313 C  
ATOM     13  N   CYS A   1     -11.072  15.955  64.678  1.00  0.00    -0.753 NA 
ATOM     14  C   CYS A   1     -10.463  17.233  66.680  1.00  0.00    -0.257 C  
ATOM     15  H2  CYS A   1     -11.088  15.044  64.218  1.00  0.00     0.000 HD 
ATOM     16  H1  CYS A   1     -11.970  16.429  64.579  1.00  0.00     0.000 HD 
ATOM     17  OXT CYS A   1     -10.408  17.505  67.868  1.00  0.00    -0.336 OA 
ATOM     18  O   CYS A   1     -10.330  18.159  65.693  1.00  0.00    -0.603 OA 
ENDBRANCH  11  12
ENDBRANCH  10  11
ENDBRANCH   9  10
ENDBRANCH   8   9
ENDBRANCH   3   8
TORSDOF 5
ENDMDL
MODEL       16
REMARK 921   NORMALIZED FREE ENERGY PREDICTED BY IDOCK:   -4.74 KCAL/MOL
REMARK 922        TOTAL FREE ENERGY PREDICTED BY IDOCK:   -6.74 KCAL/MOL
REMARK 923 INTER-LIGAND FREE ENERGY PREDICTED BY IDOCK:   -6.66 KCAL/MOL
REMARK 924 INTRA-LIGAND FREE ENERGY PREDICTED BY IDOCK:   -0.07 KCAL/MOL
REMARK 927      BINDING AFFINITY PREDICTED BY RF-SCORE:    0.00 PKD
ROOT
ATOM      1  N   CYS A   1     -12.473  12.143  71.294  1.00  0.00    -0.258 NA 
ATOM      2  H2  CYS A   1     -11.665  11.707  70.848  1.00  0.00     0.000 HD 
ATOM      3  CA  CYS A   1     -12.439  13.628  71.101  1.00  0.00    -0.359 C  
ATOM      4  H1  CYS A   1     -12.544  11.845  72.267  1.00  0.00     0.000 HD 
ATOM      5  O   CYS A   1     -14.227  13.371  72.662  1.00  0.00    -0.747 OA 
ATOM      6  C   CYS A   1     -13.715  14.212  71.727  1.00  0.00    -0.408 C  
ATOM      7  OXT CYS A   1     -14.208  15.293  71.451  1.00  0.00    -0.504 OA 
ENDROOT
BRANCH   3   8
ATOM      8  CB  CYS A   1     -12.331  14.077  69.637  1.00  0.00    -0.260 C  
BRANCH   8   9
ATOM      9  SG  CYS A   1     -11.369  12.878  68.643  1.00  0.00    -0.311 SA 
BRANCH   9  10
ATOM     10  SG  CYS A   1     -11.735  13.528  66.724  1.00  0.00    -0.413 SA 
BRANCH  10  11
ATOM     11  CB  CYS A   1     -11.341  12.036  65.744  1.00  0.00    -0.331 C  
BRANCH  11  12
ATOM     12  CA  CYS A   1     -10.986  12.390  64.292  1.00  0.00    -0.351 C  
ATOM     13  N   CYS A   1     -10.048  13.554  64.184  1.00  0.00    -0.761 NA 
ATOM     14  C   CYS A   1     -12.291  12.764  63.588  1.00  0.00    -0.463 C  
ATOM     15  H2  CYS A   1      -9.205  13.394  64.737  1.00  0.00     0.000 HD 
ATOM     16  H1  CYS A   1      -9.812  13.788  63.220  1.00  0.00     0.000 HD 
ATOM     17  OXT CYS A   1     -13.147  11.974  63.226  1.00  0.00    -0.701 OA 
ATOM     18  O   CYS A   1     -12.412  14.112  63.453  1.00  0.00    -0.797 OA 
ENDBRANCH  11  12
ENDBRANCH  10  11
ENDBRANCH   9  10
ENDBRANCH   8   9
ENDBRANCH   3   8
TORSDOF 5
ENDMDL
MODEL       17
REMARK 921   NORMALIZED FREE ENERGY PREDICTED BY IDOCK:   -4.73 KCAL/MOL
REMARK 922        TOTAL FREE ENERGY PREDICTED BY IDOCK:   -6.73 KCAL/MOL
REMARK 923 INTER-LIGAND FREE ENERGY PREDICTED BY IDOCK:   -6.54 KCAL/MOL
REMARK 924 INTRA-LIGAND FREE ENERGY PREDICTED BY IDOCK:   -0.19 KCAL/MOL
REMARK 927      BINDING AFFINITY PREDICTED BY RF-SCORE:    0.00 PKD
ROOT
ATOM      1  N   CYS A   1     -12.909  14.144  65.005  1.00  0.00    -0.713 NA 
ATOM      2  H2  CYS A   1     -12.769  15.031  65.488  1.00  0.00     0.000 HD 
ATOM      3  CA  CYS A   1     -11.589  13.514  64.679  1.00  0.00    -0.368 C  
ATOM      4  H1  CYS A   1     -13.526  14.270  64.202  1.00  0.00     0.000 HD 
ATOM      5  O   CYS A   1     -13.114  12.117  63.485  1.00  0.00    -0.785 OA 
ATOM      6  C   CYS A   1     -11.868  12.152  64.024  1.00  0.00    -0.434 C  
ATOM      7  OXT CYS A   1     -11.083  11.220  63.965  1.00  0.00    -0.372 OA 
ENDROOT
BRANCH   3   8
ATOM      8  CB  CYS A   1     -10.660  13.324  65.886  1.00  0.00    -0.281 C  
BRANCH   8   9
ATOM      9  SG  CYS A   1     -11.173  14.377  67.293  1.00  0.00    -0.337 SA 
BRANCH   9  10
ATOM     10  SG  CYS A   1     -11.781  12.975  68.672  1.00  0.00    -0.329 SA 
BRANCH  10  11
ATOM     11  CB  CYS A   1     -11.836  13.965  70.209  1.00  0.00    -0.290 C  
BRANCH  11  12
ATOM     12  CA  CYS A   1     -13.268  14.096  70.746  1.00  0.00    -0.152 C  
ATOM     13  N   CYS A   1     -13.690  15.520  70.951  1.00  0.00    -0.844 NA 
ATOM     14  C   CYS A   1     -13.308  13.389  72.102  1.00  0.00    -0.520 C  
ATOM     15  H2  CYS A   1     -13.571  16.062  70.095  1.00  0.00     0.000 HD 
ATOM     16  H1  CYS A   1     -14.641  15.607  71.309  1.00  0.00     0.000 HD 
ATOM     17  OXT CYS A   1     -13.317  12.180  72.265  1.00  0.00    -0.500 OA 
ATOM     18  O   CYS A   1     -13.279  14.282  73.128  1.00  0.00    -0.616 OA 
ENDBRANCH  11  12
ENDBRANCH  10  11
ENDBRANCH   9  10
ENDBRANCH   8   9
ENDBRANCH   3   8
TORSDOF 5
ENDMDL
MODEL       18
REMARK 921   NORMALIZED FREE ENERGY PREDICTED BY IDOCK:   -4.73 KCAL/MOL
REMARK 922        TOTAL FREE ENERGY PREDICTED BY IDOCK:   -6.72 KCAL/MOL
REMARK 923 INTER-LIGAND FREE ENERGY PREDICTED BY IDOCK:   -6.59 KCAL/MOL
REMARK 924 INTRA-LIGAND FREE ENERGY PREDICTED BY IDOCK:   -0.14 KCAL/MOL
REMARK 927      BINDING AFFINITY PREDICTED BY RF-SCORE:    0.00 PKD
ROOT
ATOM      1  N   CYS A   1     -12.398  14.148  63.140  1.00  0.00    -1.046 NA 
ATOM      2  H2  CYS A   1     -11.916  14.860  62.592  1.00  0.00     0.000 HD 
ATOM      3  CA  CYS A   1     -11.564  13.738  64.315  1.00  0.00    -0.369 C  
ATOM      4  H1  CYS A   1     -12.691  13.376  62.541  1.00  0.00     0.000 HD 
ATOM      5  O   CYS A   1     -13.327  12.129  64.373  1.00  0.00    -0.740 OA 
ATOM      6  C   CYS A   1     -12.376  12.725  65.137  1.00  0.00    -0.496 C  
ATOM      7  OXT CYS A   1     -12.195  12.461  66.315  1.00  0.00    -0.620 OA 
ENDROOT
BRANCH   3   8
ATOM      8  CB  CYS A   1     -11.124  14.899  65.218  1.00  0.00    -0.378 C  
BRANCH   8   9
ATOM      9  SG  CYS A   1      -9.573  14.501  66.105  1.00  0.00    -0.269 SA 
BRANCH   9  10
ATOM     10  SG  CYS A   1      -9.565  15.916  67.600  1.00  0.00    -0.222 SA 
BRANCH  10  11
ATOM     11  CB  CYS A   1      -9.315  17.458  66.652  1.00  0.00    -0.265 C  
BRANCH  11  12
ATOM     12  CA  CYS A   1     -10.532  18.388  66.752  1.00  0.00    -0.385 C  
ATOM     13  N   CYS A   1     -10.867  19.059  65.454  1.00  0.00    -0.484 NA 
ATOM     14  C   CYS A   1     -10.188  19.474  67.773  1.00  0.00    -0.429 C  
ATOM     15  H2  CYS A   1     -10.994  18.371  64.711  1.00  0.00     0.000 HD 
ATOM     16  H1  CYS A   1     -11.676  19.677  65.521  1.00  0.00     0.000 HD 
ATOM     17  OXT CYS A   1     -10.160  19.318  68.982  1.00  0.00    -0.415 OA 
ATOM     18  O   CYS A   1      -9.861  20.644  67.161  1.00  0.00    -0.469 OA 
ENDBRANCH  11  12
ENDBRANCH  10  11
ENDBRANCH   9  10
ENDBRANCH   8   9
ENDBRANCH   3   8
TORSDOF 5
ENDMDL
MODEL       19
REMARK 921   NORMALIZED FREE ENERGY PREDICTED BY IDOCK:   -4.69 KCAL/MOL
REMARK 922        TOTAL FREE ENERGY PREDICTED BY IDOCK:   -6.68 KCAL/MOL
REMARK 923 INTER-LIGAND FREE ENERGY PREDICTED BY IDOCK:   -6.13 KCAL/MOL
REMARK 924 INTRA-LIGAND FREE ENERGY PREDICTED BY IDOCK:   -0.55 KCAL/MOL
REMARK 927      BINDING AFFINITY PREDICTED BY RF-SCORE:    0.00 PKD
ROOT
ATOM      1  N   CYS A   1     -10.678  15.343  64.456  1.00  0.00    -0.635 NA 
ATOM      2  H2  CYS A   1      -9.764  15.683  64.757  1.00  0.00     0.000 HD 
ATOM      3  CA  CYS A   1     -10.821  13.885  64.771  1.00  0.00    -0.419 C  
ATOM      4  H1  CYS A   1     -10.841  15.581  63.478  1.00  0.00     0.000 HD 
ATOM      5  O   CYS A   1     -12.755  14.297  63.433  1.00  0.00    -0.733 OA 
ATOM      6  C   CYS A   1     -12.239  13.454  64.364  1.00  0.00    -0.389 C  
ATOM      7  OXT CYS A   1     -12.833  12.478  64.793  1.00  0.00    -0.755 OA 
ENDROOT
BRANCH   3   8
ATOM      8  CB  CYS A   1     -10.575  13.525  66.243  1.00  0.00    -0.288 C  
BRANCH   8   9
ATOM      9  SG  CYS A   1     -11.445  14.681  67.365  1.00  0.00    -0.377 SA 
BRANCH   9  10
ATOM     10  SG  CYS A   1      -9.904  15.882  68.013  1.00  0.00    -0.219 SA 
BRANCH  10  11
ATOM     11  CB  CYS A   1     -10.578  17.552  67.703  1.00  0.00    -0.355 C  
BRANCH  11  12
ATOM     12  CA  CYS A   1      -9.946  18.196  66.460  1.00  0.00    -0.374 C  
ATOM     13  N   CYS A   1      -8.863  17.357  65.851  1.00  0.00    -0.534 NA 
ATOM     14  C   CYS A   1      -9.328  19.522  66.904  1.00  0.00    -0.346 C  
ATOM     15  H2  CYS A   1      -9.204  16.418  65.642  1.00  0.00     0.000 HD 
ATOM     16  H1  CYS A   1      -8.444  17.785  65.026  1.00  0.00     0.000 HD 
ATOM     17  OXT CYS A   1      -9.952  20.539  67.160  1.00  0.00    -0.452 OA 
ATOM     18  O   CYS A   1      -7.977  19.421  67.032  1.00  0.00    -0.253 OA 
ENDBRANCH  11  12
ENDBRANCH  10  11
ENDBRANCH   9  10
ENDBRANCH   8   9
ENDBRANCH   3   8
TORSDOF 5
ENDMDL
MODEL       20
REMARK 921   NORMALIZED FREE ENERGY PREDICTED BY IDOCK:   -4.69 KCAL/MOL
REMARK 922        TOTAL FREE ENERGY PREDICTED BY IDOCK:   -6.67 KCAL/MOL
REMARK 923 INTER-LIGAND FREE ENERGY PREDICTED BY IDOCK:   -6.50 KCAL/MOL
REMARK 924 INTRA-LIGAND FREE ENERGY PREDICTED BY IDOCK:   -0.17 KCAL/MOL
REMARK 927      BINDING AFFINITY PREDICTED BY RF-SCORE:    0.00 PKD
ROOT
ATOM      1  N   CYS A   1     -12.436  14.575  63.481  1.00  0.00    -1.063 NA 
ATOM      2  H2  CYS A   1     -12.889  13.664  63.405  1.00  0.00     0.000 HD 
ATOM      3  CA  CYS A   1     -11.638  14.656  64.746  1.00  0.00    -0.418 C  
ATOM      4  H1  CYS A   1     -13.120  15.323  63.365  1.00  0.00     0.000 HD 
ATOM      5  O   CYS A   1     -11.558  16.911  63.963  1.00  0.00    -1.123 OA 
ATOM      6  C   CYS A   1     -10.923  16.016  64.764  1.00  0.00    -0.356 C  
ATOM      7  OXT CYS A   1      -9.928  16.286  65.417  1.00  0.00    -0.514 OA 
ENDROOT
BRANCH   3   8
ATOM      8  CB  CYS A   1     -10.609  13.531  64.922  1.00  0.00    -0.397 C  
BRANCH   8   9
ATOM      9  SG  CYS A   1     -11.313  12.127  65.862  1.00  0.00    -0.354 SA 
BRANCH   9  10
ATOM     10  SG  CYS A   1     -11.195  12.812  67.800  1.00  0.00    -0.294 SA 
BRANCH  10  11
ATOM     11  CB  CYS A   1     -10.135  11.543  68.579  1.00  0.00    -0.207 C  
BRANCH  11  12
ATOM     12  CA  CYS A   1     -10.913  10.249  68.859  1.00  0.00    -0.238 C  
ATOM     13  N   CYS A   1     -12.377  10.481  69.084  1.00  0.00    -0.749 NA 
ATOM     14  C   CYS A   1     -10.328   9.638  70.133  1.00  0.00    -0.266 C  
ATOM     15  H2  CYS A   1     -12.788  10.992  68.302  1.00  0.00     0.000 HD 
ATOM     16  H1  CYS A   1     -12.893   9.622  69.269  1.00  0.00     0.000 HD 
ATOM     17  OXT CYS A   1      -9.259   9.055  70.208  1.00  0.00    -0.171 OA 
ATOM     18  O   CYS A   1     -11.131   9.867  71.207  1.00  0.00    -0.351 OA 
ENDBRANCH  11  12
ENDBRANCH  10  11
ENDBRANCH   9  10
ENDBRANCH   8   9
ENDBRANCH   3   8
TORSDOF 5
ENDMDL
MODEL       21
REMARK 921   NORMALIZED FREE ENERGY PREDICTED BY IDOCK:   -4.67 KCAL/MOL
REMARK 922        TOTAL FREE ENERGY PREDICTED BY IDOCK:   -6.65 KCAL/MOL
REMARK 923 INTER-LIGAND FREE ENERGY PREDICTED BY IDOCK:   -6.47 KCAL/MOL
REMARK 924 INTRA-LIGAND FREE ENERGY PREDICTED BY IDOCK:   -0.18 KCAL/MOL
REMARK 927      BINDING AFFINITY PREDICTED BY RF-SCORE:    0.00 PKD
ROOT
ATOM      1  N   CYS A   1     -12.505  14.057  63.319  1.00  0.00    -1.112 NA 
ATOM      2  H2  CYS A   1     -12.846  13.097  63.257  1.00  0.00     0.000 HD 
ATOM      3  CA  CYS A   1     -11.593  14.212  64.496  1.00  0.00    -0.389 C  
ATOM      4  H1  CYS A   1     -13.286  14.713  63.300  1.00  0.00     0.000 HD 
ATOM      5  O   CYS A   1     -11.881  16.475  63.791  1.00  0.00    -1.011 OA 
ATOM      6  C   CYS A   1     -11.056  15.652  64.489  1.00  0.00    -0.286 C  
ATOM      7  OXT CYS A   1     -10.039  16.032  65.045  1.00  0.00    -0.463 OA 
ENDROOT
BRANCH   3   8
ATOM      8  CB  CYS A   1     -10.417  13.224  64.525  1.00  0.00    -0.415 C  
BRANCH   8   9
ATOM      9  SG  CYS A   1      -9.919  12.832  66.242  1.00  0.00    -0.267 SA 
BRANCH   9  10
ATOM     10  SG  CYS A   1     -11.742  12.628  67.176  1.00  0.00    -0.340 SA 
BRANCH  10  11
ATOM     11  CB  CYS A   1     -11.933  14.259  67.979  1.00  0.00    -0.318 C  
BRANCH  11  12
ATOM     12  CA  CYS A   1     -11.211  14.311  69.333  1.00  0.00    -0.273 C  
ATOM     13  N   CYS A   1     -11.787  13.365  70.343  1.00  0.00    -0.527 NA 
ATOM     14  C   CYS A   1     -11.365  15.734  69.872  1.00  0.00    -0.349 C  
ATOM     15  H2  CYS A   1     -11.809  12.413  69.979  1.00  0.00     0.000 HD 
ATOM     16  H1  CYS A   1     -11.307  13.401  71.242  1.00  0.00     0.000 HD 
ATOM     17  OXT CYS A   1     -10.755  16.710  69.466  1.00  0.00    -0.316 OA 
ATOM     18  O   CYS A   1     -12.316  15.796  70.842  1.00  0.00    -0.405 OA 
ENDBRANCH  11  12
ENDBRANCH  10  11
ENDBRANCH   9  10
ENDBRANCH   8   9
ENDBRANCH   3   8
TORSDOF 5
ENDMDL
MODEL       22
REMARK 921   NORMALIZED FREE ENERGY PREDICTED BY IDOCK:   -4.62 KCAL/MOL
REMARK 922        TOTAL FREE ENERGY PREDICTED BY IDOCK:   -6.58 KCAL/MOL
REMARK 923 INTER-LIGAND FREE ENERGY PREDICTED BY IDOCK:   -5.91 KCAL/MOL
REMARK 924 INTRA-LIGAND FREE ENERGY PREDICTED BY IDOCK:   -0.68 KCAL/MOL
REMARK 927      BINDING AFFINITY PREDICTED BY RF-SCORE:    0.00 PKD
ROOT
ATOM      1  N   CYS A   1     -13.073  14.026  65.305  1.00  0.00    -0.765 NA 
ATOM      2  H2  CYS A   1     -13.034  14.966  65.698  1.00  0.00     0.000 HD 
ATOM      3  CA  CYS A   1     -11.988  13.838  64.289  1.00  0.00    -0.443 C  
ATOM      4  H1  CYS A   1     -14.012  13.823  64.961  1.00  0.00     0.000 HD 
ATOM      5  O   CYS A   1     -13.288  11.857  63.997  1.00  0.00    -0.646 OA 
ATOM      6  C   CYS A   1     -12.054  12.385  63.794  1.00  0.00    -0.529 C  
ATOM      7  OXT CYS A   1     -11.138  11.773  63.268  1.00  0.00    -0.359 OA 
ENDROOT
BRANCH   3   8
ATOM      8  CB  CYS A   1     -10.574  14.143  64.806  1.00  0.00    -0.418 C  
BRANCH   8   9
ATOM      9  SG  CYS A   1     -10.522  15.742  65.695  1.00  0.00    -0.403 SA 
BRANCH   9  10
ATOM     10  SG  CYS A   1      -9.109  15.373  67.146  1.00  0.00    -0.233 SA 
BRANCH  10  11
ATOM     11  CB  CYS A   1      -9.641  13.743  67.779  1.00  0.00    -0.219 C  
BRANCH  11  12
ATOM     12  CA  CYS A   1     -11.051  13.803  68.384  1.00  0.00    -0.263 C  
ATOM     13  N   CYS A   1     -11.055  14.220  69.824  1.00  0.00    -0.426 NA 
ATOM     14  C   CYS A   1     -11.641  12.395  68.295  1.00  0.00    -0.333 C  
ATOM     15  H2  CYS A   1     -10.567  15.108  69.947  1.00  0.00     0.000 HD 
ATOM     16  H1  CYS A   1     -11.992  14.260  70.225  1.00  0.00     0.000 HD 
ATOM     17  OXT CYS A   1     -12.059  11.871  67.276  1.00  0.00    -0.582 OA 
ATOM     18  O   CYS A   1     -11.598  11.763  69.498  1.00  0.00    -0.287 OA 
ENDBRANCH  11  12
ENDBRANCH  10  11
ENDBRANCH   9  10
ENDBRANCH   8   9
ENDBRANCH   3   8
TORSDOF 5
ENDMDL
MODEL       23
REMARK 921   NORMALIZED FREE ENERGY PREDICTED BY IDOCK:   -4.59 KCAL/MOL
REMARK 922        TOTAL FREE ENERGY PREDICTED BY IDOCK:   -6.55 KCAL/MOL
REMARK 923 INTER-LIGAND FREE ENERGY PREDICTED BY IDOCK:   -6.27 KCAL/MOL
REMARK 924 INTRA-LIGAND FREE ENERGY PREDICTED BY IDOCK:   -0.28 KCAL/MOL
REMARK 927      BINDING AFFINITY PREDICTED BY RF-SCORE:    0.00 PKD
ROOT
ATOM      1  N   CYS A   1     -11.397  16.236  64.057  1.00  0.00    -1.475 NA 
ATOM      2  H2  CYS A   1     -10.740  16.974  64.310  1.00  0.00     0.000 HD 
ATOM      3  CA  CYS A   1     -11.085  14.978  64.809  1.00  0.00    -0.376 C  
ATOM      4  H1  CYS A   1     -11.432  16.124  63.043  1.00  0.00     0.000 HD 
ATOM      5  O   CYS A   1     -12.729  14.229  63.248  1.00  0.00    -0.665 OA 
ATOM      6  C   CYS A   1     -12.152  13.935  64.442  1.00  0.00    -0.443 C  
ATOM      7  OXT CYS A   1     -12.443  12.955  65.108  1.00  0.00    -0.472 OA 
ENDROOT
BRANCH   3   8
ATOM      8  CB  CYS A   1     -11.032  15.146  66.334  1.00  0.00    -0.329 C  
BRANCH   8   9
ATOM      9  SG  CYS A   1      -9.337  15.537  66.902  1.00  0.00    -0.248 SA 
BRANCH   9  10
ATOM     10  SG  CYS A   1      -9.659  17.178  68.103  1.00  0.00    -0.280 SA 
BRANCH  10  11
ATOM     11  CB  CYS A   1      -9.557  18.548  66.897  1.00  0.00    -0.307 C  
BRANCH  11  12
ATOM     12  CA  CYS A   1      -8.275  19.372  67.085  1.00  0.00    -0.271 C  
ATOM     13  N   CYS A   1      -8.493  20.845  66.909  1.00  0.00    -0.562 NA 
ATOM     14  C   CYS A   1      -7.281  18.909  66.019  1.00  0.00    -0.263 C  
ATOM     15  H2  CYS A   1      -9.235  21.179  67.525  1.00  0.00     0.000 HD 
ATOM     16  H1  CYS A   1      -7.641  21.392  67.034  1.00  0.00     0.000 HD 
ATOM     17  OXT CYS A   1      -6.656  17.861  66.047  1.00  0.00    -0.236 OA 
ATOM     18  O   CYS A   1      -7.209  19.795  64.989  1.00  0.00    -0.342 OA 
ENDBRANCH  11  12
ENDBRANCH  10  11
ENDBRANCH   9  10
ENDBRANCH   8   9
ENDBRANCH   3   8
TORSDOF 5
ENDMDL
MODEL       24
REMARK 921   NORMALIZED FREE ENERGY PREDICTED BY IDOCK:   -4.58 KCAL/MOL
REMARK 922        TOTAL FREE ENERGY PREDICTED BY IDOCK:   -6.53 KCAL/MOL
REMARK 923 INTER-LIGAND FREE ENERGY PREDICTED BY IDOCK:   -6.17 KCAL/MOL
REMARK 924 INTRA-LIGAND FREE ENERGY PREDICTED BY IDOCK:   -0.36 KCAL/MOL
REMARK 927      BINDING AFFINITY PREDICTED BY RF-SCORE:    0.00 PKD
ROOT
ATOM      1  N   CYS A   1     -11.314  16.439  63.914  1.00  0.00    -1.535 NA 
ATOM      2  H2  CYS A   1     -11.703  15.625  63.436  1.00  0.00     0.000 HD 
ATOM      3  CA  CYS A   1     -10.952  16.092  65.326  1.00  0.00    -0.299 C  
ATOM      4  H1  CYS A   1     -11.942  17.238  63.824  1.00  0.00     0.000 HD 
ATOM      5  O   CYS A   1     -10.677  18.464  65.312  1.00  0.00    -0.594 OA 
ATOM      6  C   CYS A   1     -10.306  17.332  65.963  1.00  0.00    -0.305 C  
ATOM      7  OXT CYS A   1      -9.570  17.326  66.937  1.00  0.00    -0.251 OA 
ENDROOT
BRANCH   3   8
ATOM      8  CB  CYS A   1     -10.007  14.890  65.463  1.00  0.00    -0.358 C  
BRANCH   8   9
ATOM      9  SG  CYS A   1     -10.755  13.372  64.764  1.00  0.00    -0.410 SA 
BRANCH   9  10
ATOM     10  SG  CYS A   1     -10.715  12.097  66.380  1.00  0.00    -0.267 SA 
BRANCH  10  11
ATOM     11  CB  CYS A   1     -11.903  12.899  67.516  1.00  0.00    -0.351 C  
BRANCH  11  12
ATOM     12  CA  CYS A   1     -11.242  13.280  68.849  1.00  0.00    -0.277 C  
ATOM     13  N   CYS A   1     -11.443  12.249  69.919  1.00  0.00    -0.510 NA 
ATOM     14  C   CYS A   1     -11.890  14.584  69.317  1.00  0.00    -0.323 C  
ATOM     15  H2  CYS A   1     -11.127  11.332  69.605  1.00  0.00     0.000 HD 
ATOM     16  H1  CYS A   1     -11.004  12.503  70.804  1.00  0.00     0.000 HD 
ATOM     17  OXT CYS A   1     -11.667  15.688  68.847  1.00  0.00    -0.364 OA 
ATOM     18  O   CYS A   1     -12.799  14.359  70.303  1.00  0.00    -0.327 OA 
ENDBRANCH  11  12
ENDBRANCH  10  11
ENDBRANCH   9  10
ENDBRANCH   8   9
ENDBRANCH   3   8
TORSDOF 5
ENDMDL
MODEL       25
REMARK 921   NORMALIZED FREE ENERGY PREDICTED BY IDOCK:   -4.57 KCAL/MOL
REMARK 922        TOTAL FREE ENERGY PREDICTED BY IDOCK:   -6.52 KCAL/MOL
REMARK 923 INTER-LIGAND FREE ENERGY PREDICTED BY IDOCK:   -6.33 KCAL/MOL
REMARK 924 INTRA-LIGAND FREE ENERGY PREDICTED BY IDOCK:   -0.19 KCAL/MOL
REMARK 927      BINDING AFFINITY PREDICTED BY RF-SCORE:    0.00 PKD
ROOT
ATOM      1  N   CYS A   1     -12.443  14.281  63.473  1.00  0.00    -1.102 NA 
ATOM      2  H2  CYS A   1     -12.822  13.337  63.403  1.00  0.00     0.000 HD 
ATOM      3  CA  CYS A   1     -11.594  14.415  64.700  1.00  0.00    -0.409 C  
ATOM      4  H1  CYS A   1     -13.193  14.970  63.401  1.00  0.00     0.000 HD 
ATOM      5  O   CYS A   1     -11.742  16.677  63.950  1.00  0.00    -1.153 OA 
ATOM      6  C   CYS A   1     -10.996  15.831  64.704  1.00  0.00    -0.314 C  
ATOM      7  OXT CYS A   1      -9.996  16.175  65.313  1.00  0.00    -0.487 OA 
ENDROOT
BRANCH   3   8
ATOM      8  CB  CYS A   1     -10.466  13.379  64.808  1.00  0.00    -0.403 C  
BRANCH   8   9
ATOM      9  SG  CYS A   1     -11.018  11.889  65.718  1.00  0.00    -0.308 SA 
BRANCH   9  10
ATOM     10  SG  CYS A   1     -11.107  12.583  67.654  1.00  0.00    -0.274 SA 
BRANCH  10  11
ATOM     11  CB  CYS A   1     -11.870  11.166  68.522  1.00  0.00    -0.260 C  
BRANCH  11  12
ATOM     12  CA  CYS A   1     -11.318  11.012  69.946  1.00  0.00    -0.287 C  
ATOM     13  N   CYS A   1     -11.209   9.581  70.382  1.00  0.00    -0.257 NA 
ATOM     14  C   CYS A   1     -12.293  11.722  70.887  1.00  0.00    -0.320 C  
ATOM     15  H2  CYS A   1     -10.657   9.040  69.716  1.00  0.00     0.000 HD 
ATOM     16  H1  CYS A   1     -10.842   9.479  71.328  1.00  0.00     0.000 HD 
ATOM     17  OXT CYS A   1     -12.391  12.931  71.016  1.00  0.00    -0.351 OA 
ATOM     18  O   CYS A   1     -13.088  10.832  71.540  1.00  0.00    -0.406 OA 
ENDBRANCH  11  12
ENDBRANCH  10  11
ENDBRANCH   9  10
ENDBRANCH   8   9
ENDBRANCH   3   8
TORSDOF 5
ENDMDL
MODEL       26
REMARK 921   NORMALIZED FREE ENERGY PREDICTED BY IDOCK:   -4.56 KCAL/MOL
REMARK 922        TOTAL FREE ENERGY PREDICTED BY IDOCK:   -6.51 KCAL/MOL
REMARK 923 INTER-LIGAND FREE ENERGY PREDICTED BY IDOCK:   -6.19 KCAL/MOL
REMARK 924 INTRA-LIGAND FREE ENERGY PREDICTED BY IDOCK:   -0.33 KCAL/MOL
REMARK 927      BINDING AFFINITY PREDICTED BY RF-SCORE:    0.00 PKD
ROOT
ATOM      1  N   CYS A   1     -12.553  14.549  63.703  1.00  0.00    -0.992 NA 
ATOM      2  H2  CYS A   1     -13.031  13.649  63.651  1.00  0.00     0.000 HD 
ATOM      3  CA  CYS A   1     -11.685  14.609  64.923  1.00  0.00    -0.403 C  
ATOM      4  H1  CYS A   1     -13.225  15.313  63.625  1.00  0.00     0.000 HD 
ATOM      5  O   CYS A   1     -11.596  16.863  64.138  1.00  0.00    -1.091 OA 
ATOM      6  C   CYS A   1     -10.938  15.952  64.901  1.00  0.00    -0.411 C  
ATOM      7  OXT CYS A   1      -9.903  16.197  65.499  1.00  0.00    -0.458 OA 
ENDROOT
BRANCH   3   8
ATOM      8  CB  CYS A   1     -10.674  13.460  65.041  1.00  0.00    -0.343 C  
BRANCH   8   9
ATOM      9  SG  CYS A   1     -11.024  12.138  63.824  1.00  0.00    -0.473 SA 
BRANCH   9  10
ATOM     10  SG  CYS A   1      -9.895  10.580  64.554  1.00  0.00    -0.343 SA 
BRANCH  10  11
ATOM     11  CB  CYS A   1      -9.269  11.277  66.124  1.00  0.00    -0.206 C  
BRANCH  11  12
ATOM     12  CA  CYS A   1      -9.853  10.545  67.341  1.00  0.00    -0.174 C  
ATOM     13  N   CYS A   1     -10.645   9.327  66.969  1.00  0.00    -0.227 NA 
ATOM     14  C   CYS A   1     -10.790  11.524  68.049  1.00  0.00    -0.213 C  
ATOM     15  H2  CYS A   1     -10.090   8.693  66.394  1.00  0.00     0.000 HD 
ATOM     16  H1  CYS A   1     -11.033   8.841  67.778  1.00  0.00     0.000 HD 
ATOM     17  OXT CYS A   1     -10.433  12.465  68.739  1.00  0.00    -0.218 OA 
ATOM     18  O   CYS A   1     -12.093  11.249  67.775  1.00  0.00    -0.631 OA 
ENDBRANCH  11  12
ENDBRANCH  10  11
ENDBRANCH   9  10
ENDBRANCH   8   9
ENDBRANCH   3   8
TORSDOF 5
ENDMDL
MODEL       27
REMARK 921   NORMALIZED FREE ENERGY PREDICTED BY IDOCK:   -4.54 KCAL/MOL
REMARK 922        TOTAL FREE ENERGY PREDICTED BY IDOCK:   -6.48 KCAL/MOL
REMARK 923 INTER-LIGAND FREE ENERGY PREDICTED BY IDOCK:   -5.92 KCAL/MOL
REMARK 924 INTRA-LIGAND FREE ENERGY PREDICTED BY IDOCK:   -0.56 KCAL/MOL
REMARK 927      BINDING AFFINITY PREDICTED BY RF-SCORE:    0.00 PKD
ROOT
ATOM      1  N   CYS A   1     -11.170  15.963  64.296  1.00  0.00    -0.942 NA 
ATOM      2  H2  CYS A   1     -10.464  16.604  64.659  1.00  0.00     0.000 HD 
ATOM      3  CA  CYS A   1     -11.222  14.717  65.126  1.00  0.00    -0.382 C  
ATOM      4  H1  CYS A   1     -11.024  15.801  63.299  1.00  0.00     0.000 HD 
ATOM      5  O   CYS A   1     -12.628  14.145  63.283  1.00  0.00    -0.766 OA 
ATOM      6  C   CYS A   1     -12.351  13.833  64.576  1.00  0.00    -0.358 C  
ATOM      7  OXT CYS A   1     -12.924  12.949  65.192  1.00  0.00    -0.758 OA 
ENDROOT
BRANCH   3   8
ATOM      8  CB  CYS A   1     -11.442  14.961  66.626  1.00  0.00    -0.296 C  
BRANCH   8   9
ATOM      9  SG  CYS A   1      -9.984  14.445  67.605  1.00  0.00    -0.226 SA 
BRANCH   9  10
ATOM     10  SG  CYS A   1      -9.566  12.597  66.800  1.00  0.00    -0.246 SA 
BRANCH  10  11
ATOM     11  CB  CYS A   1      -9.596  11.529  68.283  1.00  0.00    -0.189 C  
BRANCH  11  12
ATOM     12  CA  CYS A   1     -10.923  10.767  68.406  1.00  0.00    -0.248 C  
ATOM     13  N   CYS A   1     -12.026  11.374  67.591  1.00  0.00    -0.626 NA 
ATOM     14  C   CYS A   1     -11.338  10.816  69.877  1.00  0.00    -0.311 C  
ATOM     15  H2  CYS A   1     -11.747  11.465  66.613  1.00  0.00     0.000 HD 
ATOM     16  H1  CYS A   1     -12.907  10.867  67.673  1.00  0.00     0.000 HD 
ATOM     17  OXT CYS A   1     -10.833  10.158  70.772  1.00  0.00    -0.307 OA 
ATOM     18  O   CYS A   1     -12.319  11.735  70.085  1.00  0.00    -0.262 OA 
ENDBRANCH  11  12
ENDBRANCH  10  11
ENDBRANCH   9  10
ENDBRANCH   8   9
ENDBRANCH   3   8
TORSDOF 5
ENDMDL
MODEL       28
REMARK 921   NORMALIZED FREE ENERGY PREDICTED BY IDOCK:   -4.51 KCAL/MOL
REMARK 922        TOTAL FREE ENERGY PREDICTED BY IDOCK:   -6.45 KCAL/MOL
REMARK 923 INTER-LIGAND FREE ENERGY PREDICTED BY IDOCK:   -5.84 KCAL/MOL
REMARK 924 INTRA-LIGAND FREE ENERGY PREDICTED BY IDOCK:   -0.60 KCAL/MOL
REMARK 927      BINDING AFFINITY PREDICTED BY RF-SCORE:    0.00 PKD
ROOT
ATOM      1  N   CYS A   1     -11.692  11.822  67.760  1.00  0.00    -0.536 NA 
ATOM      2  H2  CYS A   1     -11.234  12.196  66.928  1.00  0.00     0.000 HD 
ATOM      3  CA  CYS A   1     -11.393  12.680  68.951  1.00  0.00    -0.297 C  
ATOM      4  H1  CYS A   1     -11.459  10.836  67.881  1.00  0.00     0.000 HD 
ATOM      5  O   CYS A   1     -12.473  10.800  69.952  1.00  0.00    -0.322 OA 
ATOM      6  C   CYS A   1     -12.170  12.109  70.148  1.00  0.00    -0.231 C  
ATOM      7  OXT CYS A   1     -12.468  12.725  71.158  1.00  0.00    -0.352 OA 
ENDROOT
BRANCH   3   8
ATOM      8  CB  CYS A   1     -11.743  14.163  68.770  1.00  0.00    -0.345 C  
BRANCH   8   9
ATOM      9  SG  CYS A   1     -10.413  15.244  69.415  1.00  0.00    -0.264 SA 
BRANCH   9  10
ATOM     10  SG  CYS A   1      -9.718  16.133  67.694  1.00  0.00    -0.234 SA 
BRANCH  10  11
ATOM     11  CB  CYS A   1     -11.156  15.963  66.579  1.00  0.00    -0.028 C  
BRANCH  11  12
ATOM     12  CA  CYS A   1     -10.725  15.619  65.147  1.00  0.00    -0.443 C  
ATOM     13  N   CYS A   1     -11.104  16.672  64.150  1.00  0.00    -1.305 NA 
ATOM     14  C   CYS A   1     -11.437  14.321  64.761  1.00  0.00    -0.393 C  
ATOM     15  H2  CYS A   1     -10.742  17.585  64.430  1.00  0.00     0.000 HD 
ATOM     16  H1  CYS A   1     -10.816  16.443  63.198  1.00  0.00     0.000 HD 
ATOM     17  OXT CYS A   1     -11.136  13.208  65.160  1.00  0.00    -0.280 OA 
ATOM     18  O   CYS A   1     -12.498  14.562  63.944  1.00  0.00    -0.814 OA 
ENDBRANCH  11  12
ENDBRANCH  10  11
ENDBRANCH   9  10
ENDBRANCH   8   9
ENDBRANCH   3   8
TORSDOF 5
ENDMDL
MODEL       29
REMARK 921   NORMALIZED FREE ENERGY PREDICTED BY IDOCK:   -4.50 KCAL/MOL
REMARK 922        TOTAL FREE ENERGY PREDICTED BY IDOCK:   -6.44 KCAL/MOL
REMARK 923 INTER-LIGAND FREE ENERGY PREDICTED BY IDOCK:   -6.19 KCAL/MOL
REMARK 924 INTRA-LIGAND FREE ENERGY PREDICTED BY IDOCK:   -0.25 KCAL/MOL
REMARK 927      BINDING AFFINITY PREDICTED BY RF-SCORE:    0.00 PKD
ROOT
ATOM      1  N   CYS A   1     -12.054  13.978  63.790  1.00  0.00    -0.857 NA 
ATOM      2  H2  CYS A   1     -12.426  13.028  63.819  1.00  0.00     0.000 HD 
ATOM      3  CA  CYS A   1     -11.872  14.510  65.179  1.00  0.00    -0.374 C  
ATOM      4  H1  CYS A   1     -12.627  14.566  63.185  1.00  0.00     0.000 HD 
ATOM      5  O   CYS A   1     -11.479  16.453  63.848  1.00  0.00    -1.063 OA 
ATOM      6  C   CYS A   1     -11.240  15.906  65.068  1.00  0.00    -0.290 C  
ATOM      7  OXT CYS A   1     -10.620  16.476  65.951  1.00  0.00    -0.325 OA 
ENDROOT
BRANCH   3   8
ATOM      8  CB  CYS A   1     -11.009  13.625  66.090  1.00  0.00    -0.284 C  
BRANCH   8   9
ATOM      9  SG  CYS A   1     -11.931  13.113  67.587  1.00  0.00    -0.256 SA 
BRANCH   9  10
ATOM     10  SG  CYS A   1     -11.083  14.306  69.035  1.00  0.00    -0.267 SA 
BRANCH  10  11
ATOM     11  CB  CYS A   1     -11.810  13.610  70.562  1.00  0.00    -0.203 C  
BRANCH  11  12
ATOM     12  CA  CYS A   1     -13.282  14.016  70.724  1.00  0.00    -0.110 C  
ATOM     13  N   CYS A   1     -13.529  15.462  70.413  1.00  0.00    -0.754 NA 
ATOM     14  C   CYS A   1     -13.658  13.774  72.187  1.00  0.00    -0.519 C  
ATOM     15  H2  CYS A   1     -13.187  15.697  69.481  1.00  0.00     0.000 HD 
ATOM     16  H1  CYS A   1     -14.507  15.731  70.521  1.00  0.00     0.000 HD 
ATOM     17  OXT CYS A   1     -13.865  12.681  72.687  1.00  0.00    -0.425 OA 
ATOM     18  O   CYS A   1     -13.686  14.937  72.891  1.00  0.00    -0.462 OA 
ENDBRANCH  11  12
ENDBRANCH  10  11
ENDBRANCH   9  10
ENDBRANCH   8   9
ENDBRANCH   3   8
TORSDOF 5
ENDMDL
MODEL       30
REMARK 921   NORMALIZED FREE ENERGY PREDICTED BY IDOCK:   -4.50 KCAL/MOL
REMARK 922        TOTAL FREE ENERGY PREDICTED BY IDOCK:   -6.43 KCAL/MOL
REMARK 923 INTER-LIGAND FREE ENERGY PREDICTED BY IDOCK:   -6.17 KCAL/MOL
REMARK 924 INTRA-LIGAND FREE ENERGY PREDICTED BY IDOCK:   -0.26 KCAL/MOL
REMARK 927      BINDING AFFINITY PREDICTED BY RF-SCORE:    0.00 PKD
ROOT
ATOM      1  N   CYS A   1     -10.036  12.690  63.481  1.00  0.00    -0.683 NA 
ATOM      2  H2  CYS A   1      -9.037  12.892  63.533  1.00  0.00     0.000 HD 
ATOM      3  CA  CYS A   1     -10.730  13.162  64.721  1.00  0.00    -0.364 C  
ATOM      4  H1  CYS A   1     -10.187  11.705  63.261  1.00  0.00     0.000 HD 
ATOM      5  O   CYS A   1     -12.453  11.921  63.629  1.00  0.00    -0.508 OA 
ATOM      6  C   CYS A   1     -12.234  12.898  64.547  1.00  0.00    -0.426 C  
ATOM      7  OXT CYS A   1     -13.128  13.463  65.155  1.00  0.00    -0.724 OA 
ENDROOT
BRANCH   3   8
ATOM      8  CB  CYS A   1     -10.502  14.644  65.052  1.00  0.00    -0.421 C  
BRANCH   8   9
ATOM      9  SG  CYS A   1      -9.688  14.845  66.679  1.00  0.00    -0.275 SA 
BRANCH   9  10
ATOM     10  SG  CYS A   1     -11.156  14.202  67.970  1.00  0.00    -0.278 SA 
BRANCH  10  11
ATOM     11  CB  CYS A   1     -11.721  15.778  68.705  1.00  0.00    -0.378 C  
BRANCH  11  12
ATOM     12  CA  CYS A   1     -11.555  15.783  70.232  1.00  0.00    -0.365 C  
ATOM     13  N   CYS A   1     -10.353  15.015  70.693  1.00  0.00    -0.469 NA 
ATOM     14  C   CYS A   1     -12.799  15.118  70.823  1.00  0.00    -0.416 C  
ATOM     15  H2  CYS A   1      -9.507  15.352  70.234  1.00  0.00     0.000 HD 
ATOM     16  H1  CYS A   1     -10.243  15.018  71.707  1.00  0.00     0.000 HD 
ATOM     17  OXT CYS A   1     -13.901  15.635  70.903  1.00  0.00    -0.516 OA 
ATOM     18  O   CYS A   1     -12.542  13.840  71.211  1.00  0.00    -0.342 OA 
ENDBRANCH  11  12
ENDBRANCH  10  11
ENDBRANCH   9  10
ENDBRANCH   8   9
ENDBRANCH   3   8
TORSDOF 5
ENDMDL
MODEL       31
REMARK 921   NORMALIZED FREE ENERGY PREDICTED BY IDOCK:   -4.48 KCAL/MOL
REMARK 922        TOTAL FREE ENERGY PREDICTED BY IDOCK:   -6.41 KCAL/MOL
REMARK 923 INTER-LIGAND FREE ENERGY PREDICTED BY IDOCK:   -5.80 KCAL/MOL
REMARK 924 INTRA-LIGAND FREE ENERGY PREDICTED BY IDOCK:   -0.60 KCAL/MOL
REMARK 927      BINDING AFFINITY PREDICTED BY RF-SCORE:    0.00 PKD
ROOT
ATOM      1  N   CYS A   1     -10.083  13.546  64.230  1.00  0.00    -0.771 NA 
ATOM      2  H2  CYS A   1      -9.089  13.352  64.353  1.00  0.00     0.000 HD 
ATOM      3  CA  CYS A   1     -10.758  12.397  63.546  1.00  0.00    -0.430 C  
ATOM      4  H1  CYS A   1     -10.215  14.447  63.770  1.00  0.00     0.000 HD 
ATOM      5  O   CYS A   1     -12.476  14.055  63.541  1.00  0.00    -0.826 OA 
ATOM      6  C   CYS A   1     -12.258  12.717  63.459  1.00  0.00    -0.525 C  
ATOM      7  OXT CYS A   1     -13.151  11.898  63.316  1.00  0.00    -0.674 OA 
ENDROOT
BRANCH   3   8
ATOM      8  CB  CYS A   1     -10.560  11.040  64.238  1.00  0.00    -0.331 C  
BRANCH   8   9
ATOM      9  SG  CYS A   1      -8.799  10.752  64.645  1.00  0.00    -0.095 SA 
BRANCH   9  10
ATOM     10  SG  CYS A   1      -8.933   9.841  66.486  1.00  0.00    -0.153 SA 
BRANCH  10  11
ATOM     11  CB  CYS A   1     -10.717  10.003  66.853  1.00  0.00    -0.140 C  
BRANCH  11  12
ATOM     12  CA  CYS A   1     -10.966  10.924  68.056  1.00  0.00    -0.265 C  
ATOM     13  N   CYS A   1     -12.289  10.680  68.717  1.00  0.00    -0.784 NA 
ATOM     14  C   CYS A   1     -10.953  12.362  67.534  1.00  0.00    -0.252 C  
ATOM     15  H2  CYS A   1     -12.388   9.700  68.983  1.00  0.00     0.000 HD 
ATOM     16  H1  CYS A   1     -12.454  11.292  69.517  1.00  0.00     0.000 HD 
ATOM     17  OXT CYS A   1      -9.955  12.985  67.214  1.00  0.00    -0.227 OA 
ATOM     18  O   CYS A   1     -12.215  12.857  67.416  1.00  0.00    -0.330 OA 
ENDBRANCH  11  12
ENDBRANCH  10  11
ENDBRANCH   9  10
ENDBRANCH   8   9
ENDBRANCH   3   8
TORSDOF 5
ENDMDL
MODEL       32
REMARK 921   NORMALIZED FREE ENERGY PREDICTED BY IDOCK:   -4.48 KCAL/MOL
REMARK 922        TOTAL FREE ENERGY PREDICTED BY IDOCK:   -6.40 KCAL/MOL
REMARK 923 INTER-LIGAND FREE ENERGY PREDICTED BY IDOCK:   -6.14 KCAL/MOL
REMARK 924 INTRA-LIGAND FREE ENERGY PREDICTED BY IDOCK:   -0.25 KCAL/MOL
REMARK 927      BINDING AFFINITY PREDICTED BY RF-SCORE:    0.00 PKD
ROOT
ATOM      1  N   CYS A   1     -10.020  12.783  63.590  1.00  0.00    -0.715 NA 
ATOM      2  H2  CYS A   1      -9.082  12.416  63.749  1.00  0.00     0.000 HD 
ATOM      3  CA  CYS A   1     -11.033  11.967  64.333  1.00  0.00    -0.333 C  
ATOM      4  H1  CYS A   1     -10.202  12.872  62.589  1.00  0.00     0.000 HD 
ATOM      5  O   CYS A   1     -12.418  13.371  62.986  1.00  0.00    -0.667 OA 
ATOM      6  C   CYS A   1     -12.410  12.614  64.114  1.00  0.00    -0.436 C  
ATOM      7  OXT CYS A   1     -13.385  12.467  64.833  1.00  0.00    -0.702 OA 
ENDROOT
BRANCH   3   8
ATOM      8  CB  CYS A   1     -10.761  11.833  65.838  1.00  0.00    -0.282 C  
BRANCH   8   9
ATOM      9  SG  CYS A   1     -10.015  13.361  66.518  1.00  0.00    -0.291 SA 
BRANCH   9  10
ATOM     10  SG  CYS A   1     -11.673  14.381  67.186  1.00  0.00    -0.403 SA 
BRANCH  10  11
ATOM     11  CB  CYS A   1     -10.966  16.019  67.586  1.00  0.00    -0.284 C  
BRANCH  11  12
ATOM     12  CA  CYS A   1      -9.866  16.418  66.592  1.00  0.00    -0.261 C  
ATOM     13  N   CYS A   1      -8.795  17.265  67.212  1.00  0.00    -0.219 NA 
ATOM     14  C   CYS A   1     -10.534  17.233  65.484  1.00  0.00    -0.122 C  
ATOM     15  H2  CYS A   1      -8.396  16.806  68.031  1.00  0.00     0.000 HD 
ATOM     16  H1  CYS A   1      -8.064  17.530  66.551  1.00  0.00     0.000 HD 
ATOM     17  OXT CYS A   1     -11.226  16.772  64.591  1.00  0.00    -0.835 OA 
ATOM     18  O   CYS A   1     -10.305  18.565  65.641  1.00  0.00    -0.594 OA 
ENDBRANCH  11  12
ENDBRANCH  10  11
ENDBRANCH   9  10
ENDBRANCH   8   9
ENDBRANCH   3   8
TORSDOF 5
ENDMDL
MODEL       33
REMARK 921   NORMALIZED FREE ENERGY PREDICTED BY IDOCK:   -4.47 KCAL/MOL
REMARK 922        TOTAL FREE ENERGY PREDICTED BY IDOCK:   -6.39 KCAL/MOL
REMARK 923 INTER-LIGAND FREE ENERGY PREDICTED BY IDOCK:   -6.07 KCAL/MOL
REMARK 924 INTRA-LIGAND FREE ENERGY PREDICTED BY IDOCK:   -0.31 KCAL/MOL
REMARK 927      BINDING AFFINITY PREDICTED BY RF-SCORE:    0.00 PKD
ROOT
ATOM      1  N   CYS A   1     -10.232  13.826  64.298  1.00  0.00    -0.737 NA 
ATOM      2  H2  CYS A   1      -9.249  13.745  64.561  1.00  0.00     0.000 HD 
ATOM      3  CA  CYS A   1     -10.765  12.497  63.858  1.00  0.00    -0.437 C  
ATOM      4  H1  CYS A   1     -10.357  14.577  63.618  1.00  0.00     0.000 HD 
ATOM      5  O   CYS A   1     -12.555  13.967  63.277  1.00  0.00    -0.801 OA 
ATOM      6  C   CYS A   1     -12.261  12.670  63.551  1.00  0.00    -0.547 C  
ATOM      7  OXT CYS A   1     -13.089  11.774  63.530  1.00  0.00    -0.617 OA 
ENDROOT
BRANCH   3   8
ATOM      8  CB  CYS A   1     -10.577  11.367  64.880  1.00  0.00    -0.307 C  
BRANCH   8   9
ATOM      9  SG  CYS A   1     -11.337  11.792  66.490  1.00  0.00    -0.244 SA 
BRANCH   9  10
ATOM     10  SG  CYS A   1      -9.682  12.177  67.652  1.00  0.00    -0.193 SA 
BRANCH  10  11
ATOM     11  CB  CYS A   1     -10.190  13.696  68.532  1.00  0.00    -0.234 C  
BRANCH  11  12
ATOM     12  CA  CYS A   1     -11.715  13.774  68.694  1.00  0.00    -0.356 C  
ATOM     13  N   CYS A   1     -12.244  15.174  68.607  1.00  0.00    -0.597 NA 
ATOM     14  C   CYS A   1     -12.051  13.224  70.081  1.00  0.00    -0.333 C  
ATOM     15  H2  CYS A   1     -11.946  15.623  67.740  1.00  0.00     0.000 HD 
ATOM     16  H1  CYS A   1     -13.257  15.225  68.714  1.00  0.00     0.000 HD 
ATOM     17  OXT CYS A   1     -12.040  12.044  70.391  1.00  0.00    -0.351 OA 
ATOM     18  O   CYS A   1     -12.319  14.227  70.960  1.00  0.00    -0.317 OA 
ENDBRANCH  11  12
ENDBRANCH  10  11
ENDBRANCH   9  10
ENDBRANCH   8   9
ENDBRANCH   3   8
TORSDOF 5
ENDMDL
MODEL       34
REMARK 921   NORMALIZED FREE ENERGY PREDICTED BY IDOCK:   -4.46 KCAL/MOL
REMARK 922        TOTAL FREE ENERGY PREDICTED BY IDOCK:   -6.38 KCAL/MOL
REMARK 923 INTER-LIGAND FREE ENERGY PREDICTED BY IDOCK:   -6.00 KCAL/MOL
REMARK 924 INTRA-LIGAND FREE ENERGY PREDICTED BY IDOCK:   -0.38 KCAL/MOL
REMARK 927      BINDING AFFINITY PREDICTED BY RF-SCORE:    0.00 PKD
ROOT
ATOM      1  N   CYS A   1      -8.255  18.559  68.393  1.00  0.00    -0.320 NA 
ATOM      2  H2  CYS A   1      -8.097  17.891  69.147  1.00  0.00     0.000 HD 
ATOM      3  CA  CYS A   1      -9.260  18.022  67.421  1.00  0.00    -0.253 C  
ATOM      4  H1  CYS A   1      -7.368  18.837  67.972  1.00  0.00     0.000 HD 
ATOM      5  O   CYS A   1      -8.465  19.966  66.287  1.00  0.00    -0.348 OA 
ATOM      6  C   CYS A   1      -9.510  19.102  66.357  1.00  0.00    -0.354 C  
ATOM      7  OXT CYS A   1     -10.498  19.181  65.645  1.00  0.00    -0.534 OA 
ENDROOT
BRANCH   3   8
ATOM      8  CB  CYS A   1     -10.596  17.603  68.053  1.00  0.00    -0.376 C  
BRANCH   8   9
ATOM      9  SG  CYS A   1     -10.938  15.827  67.771  1.00  0.00    -0.295 SA 
BRANCH   9  10
ATOM     10  SG  CYS A   1      -9.433  15.308  66.466  1.00  0.00    -0.305 SA 
BRANCH  10  11
ATOM     11  CB  CYS A   1     -10.257  14.046  65.431  1.00  0.00    -0.347 C  
BRANCH  11  12
ATOM     12  CA  CYS A   1     -11.784  14.199  65.460  1.00  0.00    -0.344 C  
ATOM     13  N   CYS A   1     -12.503  12.891  65.599  1.00  0.00    -0.574 NA 
ATOM     14  C   CYS A   1     -12.199  14.831  64.130  1.00  0.00    -0.295 C  
ATOM     15  H2  CYS A   1     -12.173  12.379  66.418  1.00  0.00     0.000 HD 
ATOM     16  H1  CYS A   1     -13.518  12.994  65.618  1.00  0.00     0.000 HD 
ATOM     17  OXT CYS A   1     -12.049  16.004  63.831  1.00  0.00    -0.880 OA 
ATOM     18  O   CYS A   1     -12.720  13.903  63.282  1.00  0.00    -0.775 OA 
ENDBRANCH  11  12
ENDBRANCH  10  11
ENDBRANCH   9  10
ENDBRANCH   8   9
ENDBRANCH   3   8
TORSDOF 5
ENDMDL
MODEL       35
REMARK 921   NORMALIZED FREE ENERGY PREDICTED BY IDOCK:   -4.45 KCAL/MOL
REMARK 922        TOTAL FREE ENERGY PREDICTED BY IDOCK:   -6.37 KCAL/MOL
REMARK 923 INTER-LIGAND FREE ENERGY PREDICTED BY IDOCK:   -6.07 KCAL/MOL
REMARK 924 INTRA-LIGAND FREE ENERGY PREDICTED BY IDOCK:   -0.30 KCAL/MOL
REMARK 927      BINDING AFFINITY PREDICTED BY RF-SCORE:    0.00 PKD
ROOT
ATOM      1  N   CYS A   1     -11.931  12.065  66.779  1.00  0.00    -0.610 NA 
ATOM      2  H2  CYS A   1     -11.557  11.921  67.717  1.00  0.00     0.000 HD 
ATOM      3  CA  CYS A   1     -12.327  13.497  66.588  1.00  0.00    -0.297 C  
ATOM      4  H1  CYS A   1     -12.674  11.392  66.586  1.00  0.00     0.000 HD 
ATOM      5  O   CYS A   1     -13.208  12.471  64.620  1.00  0.00    -0.848 OA 
ATOM      6  C   CYS A   1     -12.809  13.661  65.138  1.00  0.00    -0.329 C  
ATOM      7  OXT CYS A   1     -12.854  14.713  64.521  1.00  0.00    -0.579 OA 
ENDROOT
BRANCH   3   8
ATOM      8  CB  CYS A   1     -11.210  14.509  66.878  1.00  0.00    -0.336 C  
BRANCH   8   9
ATOM      9  SG  CYS A   1     -11.546  15.450  68.412  1.00  0.00    -0.319 SA 
BRANCH   9  10
ATOM     10  SG  CYS A   1      -9.740  16.378  68.744  1.00  0.00    -0.260 SA 
BRANCH  10  11
ATOM     11  CB  CYS A   1     -10.170  18.136  68.480  1.00  0.00    -0.384 C  
BRANCH  11  12
ATOM     12  CA  CYS A   1      -9.309  18.770  67.379  1.00  0.00    -0.286 C  
ATOM     13  N   CYS A   1      -8.950  20.198  67.665  1.00  0.00    -0.330 NA 
ATOM     14  C   CYS A   1     -10.128  18.735  66.089  1.00  0.00    -0.384 C  
ATOM     15  H2  CYS A   1      -8.499  20.284  68.576  1.00  0.00     0.000 HD 
ATOM     16  H1  CYS A   1      -8.377  20.619  66.933  1.00  0.00     0.000 HD 
ATOM     17  OXT CYS A   1     -10.330  17.741  65.410  1.00  0.00    -0.602 OA 
ATOM     18  O   CYS A   1     -10.659  19.955  65.805  1.00  0.00    -0.507 OA 
ENDBRANCH  11  12
ENDBRANCH  10  11
ENDBRANCH   9  10
ENDBRANCH   8   9
ENDBRANCH   3   8
TORSDOF 5
ENDMDL
MODEL       36
REMARK 921   NORMALIZED FREE ENERGY PREDICTED BY IDOCK:   -4.44 KCAL/MOL
REMARK 922        TOTAL FREE ENERGY PREDICTED BY IDOCK:   -6.36 KCAL/MOL
REMARK 923 INTER-LIGAND FREE ENERGY PREDICTED BY IDOCK:   -6.21 KCAL/MOL
REMARK 924 INTRA-LIGAND FREE ENERGY PREDICTED BY IDOCK:   -0.15 KCAL/MOL
REMARK 927      BINDING AFFINITY PREDICTED BY RF-SCORE:    0.00 PKD
ROOT
ATOM      1  N   CYS A   1     -11.934   8.815  70.308  1.00  0.00    -0.451 NA 
ATOM      2  H2  CYS A   1     -11.269   8.552  69.580  1.00  0.00     0.000 HD 
ATOM      3  CA  CYS A   1     -11.852  10.284  70.586  1.00  0.00    -0.347 C  
ATOM      4  H1  CYS A   1     -11.814   8.222  71.130  1.00  0.00     0.000 HD 
ATOM      5  O   CYS A   1     -13.277   9.527  72.345  1.00  0.00    -0.431 OA 
ATOM      6  C   CYS A   1     -12.925  10.626  71.630  1.00  0.00    -0.477 C  
ATOM      7  OXT CYS A   1     -13.400  11.734  71.823  1.00  0.00    -0.407 OA 
ENDROOT
BRANCH   3   8
ATOM      8  CB  CYS A   1     -12.033  11.176  69.349  1.00  0.00    -0.349 C  
BRANCH   8   9
ATOM      9  SG  CYS A   1     -10.803  10.776  68.054  1.00  0.00    -0.278 SA 
BRANCH   9  10
ATOM     10  SG  CYS A   1     -10.035  12.633  67.610  1.00  0.00    -0.221 SA 
BRANCH  10  11
ATOM     11  CB  CYS A   1     -11.297  13.293  66.463  1.00  0.00    -0.322 C  
BRANCH  11  12
ATOM     12  CA  CYS A   1     -11.020  12.870  65.013  1.00  0.00    -0.297 C  
ATOM     13  N   CYS A   1     -10.123  13.825  64.284  1.00  0.00    -0.734 NA 
ATOM     14  C   CYS A   1     -12.367  12.836  64.288  1.00  0.00    -0.416 C  
ATOM     15  H2  CYS A   1      -9.251  13.966  64.795  1.00  0.00     0.000 HD 
ATOM     16  H1  CYS A   1      -9.940  13.543  63.321  1.00  0.00     0.000 HD 
ATOM     17  OXT CYS A   1     -13.215  11.968  64.420  1.00  0.00    -0.669 OA 
ATOM     18  O   CYS A   1     -12.535  13.934  63.503  1.00  0.00    -0.810 OA 
ENDBRANCH  11  12
ENDBRANCH  10  11
ENDBRANCH   9  10
ENDBRANCH   8   9
ENDBRANCH   3   8
TORSDOF 5
ENDMDL
MODEL       37
REMARK 921   NORMALIZED FREE ENERGY PREDICTED BY IDOCK:   -4.42 KCAL/MOL
REMARK 922        TOTAL FREE ENERGY PREDICTED BY IDOCK:   -6.33 KCAL/MOL
REMARK 923 INTER-LIGAND FREE ENERGY PREDICTED BY IDOCK:   -6.08 KCAL/MOL
REMARK 924 INTRA-LIGAND FREE ENERGY PREDICTED BY IDOCK:   -0.25 KCAL/MOL
REMARK 927      BINDING AFFINITY PREDICTED BY RF-SCORE:    0.00 PKD
ROOT
ATOM      1  N   CYS A   1     -12.968  15.897  70.342  1.00  0.00    -0.710 NA 
ATOM      2  H2  CYS A   1     -12.668  16.020  69.375  1.00  0.00     0.000 HD 
ATOM      3  CA  CYS A   1     -13.350  14.470  70.592  1.00  0.00    -0.093 C  
ATOM      4  H1  CYS A   1     -13.692  16.575  70.579  1.00  0.00     0.000 HD 
ATOM      5  O   CYS A   1     -14.072  15.537  72.602  1.00  0.00    -0.540 OA 
ATOM      6  C   CYS A   1     -13.717  14.336  72.078  1.00  0.00    -0.450 C  
ATOM      7  OXT CYS A   1     -13.716  13.296  72.718  1.00  0.00    -0.669 OA 
ENDROOT
BRANCH   3   8
ATOM      8  CB  CYS A   1     -12.261  13.448  70.236  1.00  0.00    -0.335 C  
BRANCH   8   9
ATOM      9  SG  CYS A   1     -11.026  14.164  69.090  1.00  0.00    -0.228 SA 
BRANCH   9  10
ATOM     10  SG  CYS A   1     -11.874  13.775  67.256  1.00  0.00    -0.403 SA 
BRANCH  10  11
ATOM     11  CB  CYS A   1     -10.689  14.579  66.119  1.00  0.00    -0.310 C  
BRANCH  11  12
ATOM     12  CA  CYS A   1     -11.157  15.985  65.715  1.00  0.00    -0.032 C  
ATOM     13  N   CYS A   1     -11.045  16.240  64.242  1.00  0.00    -1.192 NA 
ATOM     14  C   CYS A   1     -10.258  16.986  66.441  1.00  0.00    -0.326 C  
ATOM     15  H2  CYS A   1     -11.540  15.523  63.710  1.00  0.00     0.000 HD 
ATOM     16  H1  CYS A   1     -11.356  17.173  63.974  1.00  0.00     0.000 HD 
ATOM     17  OXT CYS A   1     -10.327  17.263  67.627  1.00  0.00    -0.324 OA 
ATOM     18  O   CYS A   1      -9.319  17.506  65.605  1.00  0.00    -0.467 OA 
ENDBRANCH  11  12
ENDBRANCH  10  11
ENDBRANCH   9  10
ENDBRANCH   8   9
ENDBRANCH   3   8
TORSDOF 5
ENDMDL
MODEL       38
REMARK 921   NORMALIZED FREE ENERGY PREDICTED BY IDOCK:   -4.40 KCAL/MOL
REMARK 922        TOTAL FREE ENERGY PREDICTED BY IDOCK:   -6.30 KCAL/MOL
REMARK 923 INTER-LIGAND FREE ENERGY PREDICTED BY IDOCK:   -6.03 KCAL/MOL
REMARK 924 INTRA-LIGAND FREE ENERGY PREDICTED BY IDOCK:   -0.27 KCAL/MOL
REMARK 927      BINDING AFFINITY PREDICTED BY RF-SCORE:    0.00 PKD
ROOT
ATOM      1  N   CYS A   1     -13.176  13.958  65.298  1.00  0.00    -0.721 NA 
ATOM      2  H2  CYS A   1     -13.232  14.798  65.874  1.00  0.00     0.000 HD 
ATOM      3  CA  CYS A   1     -11.973  14.015  64.407  1.00  0.00    -0.454 C  
ATOM      4  H1  CYS A   1     -14.057  13.805  64.807  1.00  0.00     0.000 HD 
ATOM      5  O   CYS A   1     -13.124  12.102  63.562  1.00  0.00    -0.785 OA 
ATOM      6  C   CYS A   1     -11.904  12.695  63.625  1.00  0.00    -0.530 C  
ATOM      7  OXT CYS A   1     -10.903  12.231  63.103  1.00  0.00    -0.377 OA 
ENDROOT
BRANCH   3   8
ATOM      8  CB  CYS A   1     -10.646  14.246  65.145  1.00  0.00    -0.406 C  
BRANCH   8   9
ATOM      9  SG  CYS A   1     -10.839  14.010  66.950  1.00  0.00    -0.293 SA 
BRANCH   9  10
ATOM     10  SG  CYS A   1     -10.312  15.862  67.679  1.00  0.00    -0.287 SA 
BRANCH  10  11
ATOM     11  CB  CYS A   1      -9.741  16.709  66.163  1.00  0.00    -0.303 C  
BRANCH  11  12
ATOM     12  CA  CYS A   1      -9.282  18.145  66.456  1.00  0.00    -0.281 C  
ATOM     13  N   CYS A   1      -8.825  18.338  67.871  1.00  0.00    -0.264 NA 
ATOM     14  C   CYS A   1     -10.483  19.061  66.215  1.00  0.00    -0.457 C  
ATOM     15  H2  CYS A   1      -8.096  17.666  68.113  1.00  0.00     0.000 HD 
ATOM     16  H1  CYS A   1      -8.520  19.292  68.065  1.00  0.00     0.000 HD 
ATOM     17  OXT CYS A   1     -10.914  19.382  65.120  1.00  0.00    -0.430 OA 
ATOM     18  O   CYS A   1     -11.057  19.443  67.388  1.00  0.00    -0.445 OA 
ENDBRANCH  11  12
ENDBRANCH  10  11
ENDBRANCH   9  10
ENDBRANCH   8   9
ENDBRANCH   3   8
TORSDOF 5
ENDMDL
MODEL       39
REMARK 921   NORMALIZED FREE ENERGY PREDICTED BY IDOCK:   -4.37 KCAL/MOL
REMARK 922        TOTAL FREE ENERGY PREDICTED BY IDOCK:   -6.26 KCAL/MOL
REMARK 923 INTER-LIGAND FREE ENERGY PREDICTED BY IDOCK:   -5.75 KCAL/MOL
REMARK 924 INTRA-LIGAND FREE ENERGY PREDICTED BY IDOCK:   -0.51 KCAL/MOL
REMARK 927      BINDING AFFINITY PREDICTED BY RF-SCORE:    0.00 PKD
ROOT
ATOM      1  N   CYS A   1     -12.884  12.621  65.067  1.00  0.00    -0.816 NA 
ATOM      2  H2  CYS A   1     -13.099  11.926  65.782  1.00  0.00     0.000 HD 
ATOM      3  CA  CYS A   1     -12.309  13.854  65.693  1.00  0.00    -0.482 C  
ATOM      4  H1  CYS A   1     -13.700  12.788  64.477  1.00  0.00     0.000 HD 
ATOM      5  O   CYS A   1     -12.648  14.556  63.436  1.00  0.00    -0.673 OA 
ATOM      6  C   CYS A   1     -11.939  14.827  64.562  1.00  0.00    -0.440 C  
ATOM      7  OXT CYS A   1     -11.134  15.740  64.648  1.00  0.00    -0.445 OA 
ENDROOT
BRANCH   3   8
ATOM      8  CB  CYS A   1     -11.082  13.604  66.580  1.00  0.00    -0.305 C  
BRANCH   8   9
ATOM      9  SG  CYS A   1     -11.380  14.154  68.300  1.00  0.00    -0.310 SA 
BRANCH   9  10
ATOM     10  SG  CYS A   1      -9.914  15.577  68.551  1.00  0.00    -0.213 SA 
BRANCH  10  11
ATOM     11  CB  CYS A   1     -10.742  17.080  67.920  1.00  0.00    -0.348 C  
BRANCH  11  12
ATOM     12  CA  CYS A   1      -9.787  17.943  67.083  1.00  0.00    -0.308 C  
ATOM     13  N   CYS A   1      -9.005  17.150  66.080  1.00  0.00    -0.520 NA 
ATOM     14  C   CYS A   1      -8.798  18.591  68.052  1.00  0.00    -0.298 C  
ATOM     15  H2  CYS A   1      -9.627  16.608  65.479  1.00  0.00     0.000 HD 
ATOM     16  H1  CYS A   1      -8.371  17.724  65.524  1.00  0.00     0.000 HD 
ATOM     17  OXT CYS A   1      -9.051  19.524  68.796  1.00  0.00    -0.368 OA 
ATOM     18  O   CYS A   1      -7.593  17.961  68.026  1.00  0.00    -0.225 OA 
ENDBRANCH  11  12
ENDBRANCH  10  11
ENDBRANCH   9  10
ENDBRANCH   8   9
ENDBRANCH   3   8
TORSDOF 5
ENDMDL
MODEL       40
REMARK 921   NORMALIZED FREE ENERGY PREDICTED BY IDOCK:   -4.36 KCAL/MOL
REMARK 922        TOTAL FREE ENERGY PREDICTED BY IDOCK:   -6.25 KCAL/MOL
REMARK 923 INTER-LIGAND FREE ENERGY PREDICTED BY IDOCK:   -6.15 KCAL/MOL
REMARK 924 INTRA-LIGAND FREE ENERGY PREDICTED BY IDOCK:   -0.10 KCAL/MOL
REMARK 927      BINDING AFFINITY PREDICTED BY RF-SCORE:    0.00 PKD
ROOT
ATOM      1  N   CYS A   1     -13.838   8.608  73.076  1.00  0.00    -0.959 NA 
ATOM      2  H2  CYS A   1     -14.756   9.037  72.952  1.00  0.00     0.000 HD 
ATOM      3  CA  CYS A   1     -12.884   9.105  72.034  1.00  0.00    -0.408 C  
ATOM      4  H1  CYS A   1     -13.924   7.592  73.120  1.00  0.00     0.000 HD 
ATOM      5  O   CYS A   1     -11.632   7.347  73.055  1.00  0.00    -0.223 OA 
ATOM      6  C   CYS A   1     -11.509   8.483  72.321  1.00  0.00    -0.375 C  
ATOM      7  OXT CYS A   1     -10.438   8.922  71.936  1.00  0.00    -0.326 OA 
ENDROOT
BRANCH   3   8
ATOM      8  CB  CYS A   1     -12.755  10.633  71.967  1.00  0.00    -0.185 C  
BRANCH   8   9
ATOM      9  SG  CYS A   1     -12.223  11.184  70.304  1.00  0.00    -0.352 SA 
BRANCH   9  10
ATOM     10  SG  CYS A   1     -12.647  13.197  70.369  1.00  0.00    -0.041 SA 
BRANCH  10  11
ATOM     11  CB  CYS A   1     -13.240  13.398  72.086  1.00  0.00    -0.462 C  
BRANCH  11  12
ATOM     12  CA  CYS A   1     -13.747  14.823  72.347  1.00  0.00    -0.471 C  
ATOM     13  N   CYS A   1     -13.950  15.614  71.089  1.00  0.00    -0.726 NA 
ATOM     14  C   CYS A   1     -12.686  15.534  73.189  1.00  0.00    -0.478 C  
ATOM     15  H2  CYS A   1     -14.567  15.119  70.444  1.00  0.00     0.000 HD 
ATOM     16  H1  CYS A   1     -14.287  16.561  71.263  1.00  0.00     0.000 HD 
ATOM     17  OXT CYS A   1     -12.490  15.345  74.378  1.00  0.00    -0.615 OA 
ATOM     18  O   CYS A   1     -11.937  16.380  72.431  1.00  0.00    -0.530 OA 
ENDBRANCH  11  12
ENDBRANCH  10  11
ENDBRANCH   9  10
ENDBRANCH   8   9
ENDBRANCH   3   8
TORSDOF 5
ENDMDL
MODEL       41
REMARK 921   NORMALIZED FREE ENERGY PREDICTED BY IDOCK:   -4.36 KCAL/MOL
REMARK 922        TOTAL FREE ENERGY PREDICTED BY IDOCK:   -6.25 KCAL/MOL
REMARK 923 INTER-LIGAND FREE ENERGY PREDICTED BY IDOCK:   -5.97 KCAL/MOL
REMARK 924 INTRA-LIGAND FREE ENERGY PREDICTED BY IDOCK:   -0.28 KCAL/MOL
REMARK 927      BINDING AFFINITY PREDICTED BY RF-SCORE:    0.00 PKD
ROOT
ATOM      1  N   CYS A   1      -7.901  18.120  67.965  1.00  0.00    -0.254 NA 
ATOM      2  H2  CYS A   1      -7.597  17.485  68.703  1.00  0.00     0.000 HD 
ATOM      3  CA  CYS A   1      -9.093  17.559  67.252  1.00  0.00    -0.239 C  
ATOM      4  H1  CYS A   1      -7.118  18.358  67.356  1.00  0.00     0.000 HD 
ATOM      5  O   CYS A   1      -8.528  19.429  65.879  1.00  0.00    -0.433 OA 
ATOM      6  C   CYS A   1      -9.546  18.593  66.209  1.00  0.00    -0.283 C  
ATOM      7  OXT CYS A   1     -10.659  18.660  65.714  1.00  0.00    -0.567 OA 
ENDROOT
BRANCH   3   8
ATOM      8  CB  CYS A   1     -10.272  17.201  68.168  1.00  0.00    -0.332 C  
BRANCH   8   9
ATOM      9  SG  CYS A   1     -10.783  15.458  67.943  1.00  0.00    -0.294 SA 
BRANCH   9  10
ATOM     10  SG  CYS A   1      -9.904  14.986  66.143  1.00  0.00    -0.320 SA 
BRANCH  10  11
ATOM     11  CB  CYS A   1     -11.344  14.975  65.017  1.00  0.00    -0.394 C  
BRANCH  11  12
ATOM     12  CA  CYS A   1     -11.483  13.629  64.290  1.00  0.00    -0.366 C  
ATOM     13  N   CYS A   1     -12.266  13.729  63.016  1.00  0.00    -0.977 NA 
ATOM     14  C   CYS A   1     -12.228  12.683  65.233  1.00  0.00    -0.475 C  
ATOM     15  H2  CYS A   1     -11.867  14.437  62.398  1.00  0.00     0.000 HD 
ATOM     16  H1  CYS A   1     -12.358  12.835  62.533  1.00  0.00     0.000 HD 
ATOM     17  OXT CYS A   1     -11.745  12.145  66.216  1.00  0.00    -0.473 OA 
ATOM     18  O   CYS A   1     -13.532  12.547  64.870  1.00  0.00    -0.564 OA 
ENDBRANCH  11  12
ENDBRANCH  10  11
ENDBRANCH   9  10
ENDBRANCH   8   9
ENDBRANCH   3   8
TORSDOF 5
ENDMDL
MODEL       42
REMARK 921   NORMALIZED FREE ENERGY PREDICTED BY IDOCK:   -4.35 KCAL/MOL
REMARK 922        TOTAL FREE ENERGY PREDICTED BY IDOCK:   -6.23 KCAL/MOL
REMARK 923 INTER-LIGAND FREE ENERGY PREDICTED BY IDOCK:   -6.12 KCAL/MOL
REMARK 924 INTRA-LIGAND FREE ENERGY PREDICTED BY IDOCK:   -0.11 KCAL/MOL
REMARK 927      BINDING AFFINITY PREDICTED BY RF-SCORE:    0.00 PKD
ROOT
ATOM      1  N   CYS A   1     -13.113  13.879  65.202  1.00  0.00    -0.764 NA 
ATOM      2  H2  CYS A   1     -13.202  14.719  65.774  1.00  0.00     0.000 HD 
ATOM      3  CA  CYS A   1     -11.832  13.911  64.425  1.00  0.00    -0.429 C  
ATOM      4  H1  CYS A   1     -13.949  13.747  64.632  1.00  0.00     0.000 HD 
ATOM      5  O   CYS A   1     -12.945  12.026  63.471  1.00  0.00    -0.774 OA 
ATOM      6  C   CYS A   1     -11.723  12.591  63.646  1.00  0.00    -0.515 C  
ATOM      7  OXT CYS A   1     -10.689  12.105  63.216  1.00  0.00    -0.421 OA 
ENDROOT
BRANCH   3   8
ATOM      8  CB  CYS A   1     -10.574  14.111  65.281  1.00  0.00    -0.373 C  
BRANCH   8   9
ATOM      9  SG  CYS A   1     -10.970  14.946  66.861  1.00  0.00    -0.330 SA 
BRANCH   9  10
ATOM     10  SG  CYS A   1      -9.978  16.738  66.654  1.00  0.00    -0.306 SA 
BRANCH  10  11
ATOM     11  CB  CYS A   1     -10.138  17.448  68.330  1.00  0.00    -0.347 C  
BRANCH  11  12
ATOM     12  CA  CYS A   1     -10.100  18.983  68.301  1.00  0.00    -0.396 C  
ATOM     13  N   CYS A   1     -10.874  19.568  67.158  1.00  0.00    -0.486 NA 
ATOM     14  C   CYS A   1      -8.635  19.394  68.143  1.00  0.00    -0.336 C  
ATOM     15  H2  CYS A   1     -11.836  19.227  67.159  1.00  0.00     0.000 HD 
ATOM     16  H1  CYS A   1     -10.848  20.587  67.139  1.00  0.00     0.000 HD 
ATOM     17  OXT CYS A   1      -7.794  19.352  69.025  1.00  0.00    -0.357 OA 
ATOM     18  O   CYS A   1      -8.362  19.773  66.865  1.00  0.00    -0.286 OA 
ENDBRANCH  11  12
ENDBRANCH  10  11
ENDBRANCH   9  10
ENDBRANCH   8   9
ENDBRANCH   3   8
TORSDOF 5
ENDMDL
MODEL       43
REMARK 921   NORMALIZED FREE ENERGY PREDICTED BY IDOCK:   -4.35 KCAL/MOL
REMARK 922        TOTAL FREE ENERGY PREDICTED BY IDOCK:   -6.23 KCAL/MOL
REMARK 923 INTER-LIGAND FREE ENERGY PREDICTED BY IDOCK:   -6.05 KCAL/MOL
REMARK 924 INTRA-LIGAND FREE ENERGY PREDICTED BY IDOCK:   -0.18 KCAL/MOL
REMARK 927      BINDING AFFINITY PREDICTED BY RF-SCORE:    0.00 PKD
ROOT
ATOM      1  N   CYS A   1     -10.988   9.173  69.541  1.00  0.00    -0.386 NA 
ATOM      2  H2  CYS A   1     -10.464   9.400  68.695  1.00  0.00     0.000 HD 
ATOM      3  CA  CYS A   1     -11.436  10.426  70.229  1.00  0.00    -0.325 C  
ATOM      4  H1  CYS A   1     -10.451   8.536  70.130  1.00  0.00     0.000 HD 
ATOM      5  O   CYS A   1     -11.984   8.751  71.840  1.00  0.00    -0.317 OA 
ATOM      6  C   CYS A   1     -12.280  10.017  71.446  1.00  0.00    -0.416 C  
ATOM      7  OXT CYS A   1     -13.097  10.724  72.013  1.00  0.00    -0.483 OA 
ENDROOT
BRANCH   3   8
ATOM      8  CB  CYS A   1     -12.243  11.385  69.342  1.00  0.00    -0.221 C  
BRANCH   8   9
ATOM      9  SG  CYS A   1     -11.408  11.669  67.738  1.00  0.00    -0.292 SA 
BRANCH   9  10
ATOM     10  SG  CYS A   1     -11.780  13.668  67.415  1.00  0.00    -0.396 SA 
BRANCH  10  11
ATOM     11  CB  CYS A   1     -12.215  13.683  65.639  1.00  0.00    -0.454 C  
BRANCH  11  12
ATOM     12  CA  CYS A   1     -11.063  14.224  64.779  1.00  0.00    -0.391 C  
ATOM     13  N   CYS A   1      -9.721  14.067  65.429  1.00  0.00    -0.561 NA 
ATOM     14  C   CYS A   1     -11.319  15.718  64.572  1.00  0.00    -0.316 C  
ATOM     15  H2  CYS A   1      -9.555  13.095  65.690  1.00  0.00     0.000 HD 
ATOM     16  H1  CYS A   1      -8.957  14.427  64.857  1.00  0.00     0.000 HD 
ATOM     17  OXT CYS A   1     -12.154  16.191  63.819  1.00  0.00    -0.946 OA 
ATOM     18  O   CYS A   1     -10.525  16.473  65.379  1.00  0.00    -0.543 OA 
ENDBRANCH  11  12
ENDBRANCH  10  11
ENDBRANCH   9  10
ENDBRANCH   8   9
ENDBRANCH   3   8
TORSDOF 5
ENDMDL
MODEL       44
REMARK 921   NORMALIZED FREE ENERGY PREDICTED BY IDOCK:   -4.34 KCAL/MOL
REMARK 922        TOTAL FREE ENERGY PREDICTED BY IDOCK:   -6.22 KCAL/MOL
REMARK 923 INTER-LIGAND FREE ENERGY PREDICTED BY IDOCK:   -6.11 KCAL/MOL
REMARK 924 INTRA-LIGAND FREE ENERGY PREDICTED BY IDOCK:   -0.11 KCAL/MOL
REMARK 927      BINDING AFFINITY PREDICTED BY RF-SCORE:    0.00 PKD
ROOT
ATOM      1  N   CYS A   1     -11.497  16.218  63.863  1.00  0.00    -1.539 NA 
ATOM      2  H2  CYS A   1     -10.912  17.048  63.966  1.00  0.00     0.000 HD 
ATOM      3  CA  CYS A   1     -11.029  15.131  64.781  1.00  0.00    -0.377 C  
ATOM      4  H1  CYS A   1     -11.558  15.946  62.882  1.00  0.00     0.000 HD 
ATOM      5  O   CYS A   1     -12.642  13.989  63.442  1.00  0.00    -0.845 OA 
ATOM      6  C   CYS A   1     -11.993  13.944  64.634  1.00  0.00    -0.419 C  
ATOM      7  OXT CYS A   1     -12.157  13.057  65.456  1.00  0.00    -0.400 OA 
ENDROOT
BRANCH   3   8
ATOM      8  CB  CYS A   1     -10.937  15.541  66.258  1.00  0.00    -0.242 C  
BRANCH   8   9
ATOM      9  SG  CYS A   1     -10.122  17.169  66.447  1.00  0.00    -0.326 SA 
BRANCH   9  10
ATOM     10  SG  CYS A   1      -8.132  16.668  66.279  1.00  0.00    -0.253 SA 
BRANCH  10  11
ATOM     11  CB  CYS A   1      -7.336  18.313  66.236  1.00  0.00    -0.260 C  
BRANCH  11  12
ATOM     12  CA  CYS A   1      -7.199  18.913  67.643  1.00  0.00    -0.219 C  
ATOM     13  N   CYS A   1      -7.671  17.988  68.724  1.00  0.00    -0.289 NA 
ATOM     14  C   CYS A   1      -8.067  20.172  67.683  1.00  0.00    -0.298 C  
ATOM     15  H2  CYS A   1      -7.196  17.087  68.664  1.00  0.00     0.000 HD 
ATOM     16  H1  CYS A   1      -7.580  18.387  69.658  1.00  0.00     0.000 HD 
ATOM     17  OXT CYS A   1      -7.785  21.238  67.160  1.00  0.00    -0.329 OA 
ATOM     18  O   CYS A   1      -9.237  19.947  68.340  1.00  0.00    -0.315 OA 
ENDBRANCH  11  12
ENDBRANCH  10  11
ENDBRANCH   9  10
ENDBRANCH   8   9
ENDBRANCH   3   8
TORSDOF 5
ENDMDL
MODEL       45
REMARK 921   NORMALIZED FREE ENERGY PREDICTED BY IDOCK:   -4.34 KCAL/MOL
REMARK 922        TOTAL FREE ENERGY PREDICTED BY IDOCK:   -6.22 KCAL/MOL
REMARK 923 INTER-LIGAND FREE ENERGY PREDICTED BY IDOCK:   -5.69 KCAL/MOL
REMARK 924 INTRA-LIGAND FREE ENERGY PREDICTED BY IDOCK:   -0.54 KCAL/MOL
REMARK 927      BINDING AFFINITY PREDICTED BY RF-SCORE:    0.00 PKD
ROOT
ATOM      1  N   CYS A   1      -9.991  13.346  65.200  1.00  0.00    -0.538 NA 
ATOM      2  H2  CYS A   1      -9.433  13.656  65.996  1.00  0.00     0.000 HD 
ATOM      3  CA  CYS A   1     -11.321  12.834  65.664  1.00  0.00    -0.319 C  
ATOM      4  H1  CYS A   1      -9.461  12.688  64.629  1.00  0.00     0.000 HD 
ATOM      5  O   CYS A   1     -11.326  12.214  63.358  1.00  0.00    -0.424 OA 
ATOM      6  C   CYS A   1     -12.138  12.457  64.419  1.00  0.00    -0.426 C  
ATOM      7  OXT CYS A   1     -13.354  12.362  64.371  1.00  0.00    -0.789 OA 
ENDROOT
BRANCH   3   8
ATOM      8  CB  CYS A   1     -12.119  13.824  66.524  1.00  0.00    -0.443 C  
BRANCH   8   9
ATOM      9  SG  CYS A   1     -11.666  13.684  68.292  1.00  0.00    -0.379 SA 
BRANCH   9  10
ATOM     10  SG  CYS A   1     -11.592  15.659  68.868  1.00  0.00    -0.386 SA 
BRANCH  10  11
ATOM     11  CB  CYS A   1      -9.807  16.023  68.720  1.00  0.00    -0.223 C  
BRANCH  11  12
ATOM     12  CA  CYS A   1      -9.547  17.203  67.772  1.00  0.00    -0.256 C  
ATOM     13  N   CYS A   1     -10.771  18.029  67.514  1.00  0.00    -0.388 NA 
ATOM     14  C   CYS A   1      -9.081  16.616  66.439  1.00  0.00    -0.292 C  
ATOM     15  H2  CYS A   1     -11.185  18.350  68.390  1.00  0.00     0.000 HD 
ATOM     16  H1  CYS A   1     -10.598  18.813  66.884  1.00  0.00     0.000 HD 
ATOM     17  OXT CYS A   1      -7.974  16.151  66.224  1.00  0.00    -0.271 OA 
ATOM     18  O   CYS A   1     -10.080  16.627  65.515  1.00  0.00    -0.553 OA 
ENDBRANCH  11  12
ENDBRANCH  10  11
ENDBRANCH   9  10
ENDBRANCH   8   9
ENDBRANCH   3   8
TORSDOF 5
ENDMDL
MODEL       46
REMARK 921   NORMALIZED FREE ENERGY PREDICTED BY IDOCK:   -4.33 KCAL/MOL
REMARK 922        TOTAL FREE ENERGY PREDICTED BY IDOCK:   -6.21 KCAL/MOL
REMARK 923 INTER-LIGAND FREE ENERGY PREDICTED BY IDOCK:   -5.96 KCAL/MOL
REMARK 924 INTRA-LIGAND FREE ENERGY PREDICTED BY IDOCK:   -0.26 KCAL/MOL
REMARK 927      BINDING AFFINITY PREDICTED BY RF-SCORE:    0.00 PKD
ROOT
ATOM      1  N   CYS A   1     -10.036  12.872  63.737  1.00  0.00    -0.740 NA 
ATOM      2  H2  CYS A   1      -9.055  12.702  63.960  1.00  0.00     0.000 HD 
ATOM      3  CA  CYS A   1     -10.835  13.037  64.993  1.00  0.00    -0.308 C  
ATOM      4  H1  CYS A   1     -10.386  12.151  63.106  1.00  0.00     0.000 HD 
ATOM      5  O   CYS A   1     -12.543  12.937  63.327  1.00  0.00    -0.685 OA 
ATOM      6  C   CYS A   1     -12.282  13.364  64.589  1.00  0.00    -0.407 C  
ATOM      7  OXT CYS A   1     -13.108  13.915  65.298  1.00  0.00    -0.777 OA 
ENDROOT
BRANCH   3   8
ATOM      8  CB  CYS A   1     -10.309  14.121  65.944  1.00  0.00    -0.316 C  
BRANCH   8   9
ATOM      9  SG  CYS A   1      -9.916  13.427  67.592  1.00  0.00    -0.234 SA 
BRANCH   9  10
ATOM     10  SG  CYS A   1     -10.820  11.580  67.500  1.00  0.00    -0.253 SA 
BRANCH  10  11
ATOM     11  CB  CYS A   1     -12.031  11.690  68.866  1.00  0.00    -0.292 C  
BRANCH  11  12
ATOM     12  CA  CYS A   1     -11.612  10.827  70.065  1.00  0.00    -0.334 C  
ATOM     13  N   CYS A   1     -11.376   9.392  69.701  1.00  0.00    -0.435 NA 
ATOM     14  C   CYS A   1     -12.756  10.878  71.079  1.00  0.00    -0.407 C  
ATOM     15  H2  CYS A   1     -10.698   9.316  68.942  1.00  0.00     0.000 HD 
ATOM     16  H1  CYS A   1     -11.098   8.819  70.498  1.00  0.00     0.000 HD 
ATOM     17  OXT CYS A   1     -13.012  11.826  71.802  1.00  0.00    -0.423 OA 
ATOM     18  O   CYS A   1     -13.500   9.740  71.044  1.00  0.00    -0.347 OA 
ENDBRANCH  11  12
ENDBRANCH  10  11
ENDBRANCH   9  10
ENDBRANCH   8   9
ENDBRANCH   3   8
TORSDOF 5
ENDMDL
MODEL       47
REMARK 921   NORMALIZED FREE ENERGY PREDICTED BY IDOCK:   -4.33 KCAL/MOL
REMARK 922        TOTAL FREE ENERGY PREDICTED BY IDOCK:   -6.21 KCAL/MOL
REMARK 923 INTER-LIGAND FREE ENERGY PREDICTED BY IDOCK:   -5.51 KCAL/MOL
REMARK 924 INTRA-LIGAND FREE ENERGY PREDICTED BY IDOCK:   -0.71 KCAL/MOL
REMARK 927      BINDING AFFINITY PREDICTED BY RF-SCORE:    0.00 PKD
ROOT
ATOM      1  N   CYS A   1     -10.399  15.892  69.329  1.00  0.00    -0.230 NA 
ATOM      2  H2  CYS A   1      -9.910  15.879  68.433  1.00  0.00     0.000 HD 
ATOM      3  CA  CYS A   1     -11.709  15.173  69.220  1.00  0.00    -0.329 C  
ATOM      4  H1  CYS A   1     -10.469  16.847  69.681  1.00  0.00     0.000 HD 
ATOM      5  O   CYS A   1     -11.866  16.167  71.386  1.00  0.00    -0.441 OA 
ATOM      6  C   CYS A   1     -12.355  15.163  70.614  1.00  0.00    -0.368 C  
ATOM      7  OXT CYS A   1     -13.211  14.379  70.992  1.00  0.00    -0.360 OA 
ENDROOT
BRANCH   3   8
ATOM      8  CB  CYS A   1     -11.603  13.736  68.690  1.00  0.00    -0.334 C  
BRANCH   8   9
ATOM      9  SG  CYS A   1     -11.850  13.677  66.877  1.00  0.00    -0.419 SA 
BRANCH   9  10
ATOM     10  SG  CYS A   1      -9.912  13.657  66.186  1.00  0.00    -0.299 SA 
BRANCH  10  11
ATOM     11  CB  CYS A   1      -9.727  15.361  65.549  1.00  0.00    -0.283 C  
BRANCH  11  12
ATOM     12  CA  CYS A   1     -11.080  16.080  65.453  1.00  0.00    -0.155 C  
ATOM     13  N   CYS A   1     -11.631  16.110  64.059  1.00  0.00    -1.417 NA 
ATOM     14  C   CYS A   1     -10.858  17.523  65.908  1.00  0.00     0.014 C  
ATOM     15  H2  CYS A   1     -11.690  15.169  63.670  1.00  0.00     0.000 HD 
ATOM     16  H1  CYS A   1     -12.530  16.588  63.996  1.00  0.00     0.000 HD 
ATOM     17  OXT CYS A   1     -10.707  17.880  67.065  1.00  0.00    -0.319 OA 
ATOM     18  O   CYS A   1     -10.796  18.373  64.848  1.00  0.00    -0.565 OA 
ENDBRANCH  11  12
ENDBRANCH  10  11
ENDBRANCH   9  10
ENDBRANCH   8   9
ENDBRANCH   3   8
TORSDOF 5
ENDMDL
MODEL       48
REMARK 921   NORMALIZED FREE ENERGY PREDICTED BY IDOCK:   -4.32 KCAL/MOL
REMARK 922        TOTAL FREE ENERGY PREDICTED BY IDOCK:   -6.20 KCAL/MOL
REMARK 923 INTER-LIGAND FREE ENERGY PREDICTED BY IDOCK:   -5.84 KCAL/MOL
REMARK 924 INTRA-LIGAND FREE ENERGY PREDICTED BY IDOCK:   -0.36 KCAL/MOL
REMARK 927      BINDING AFFINITY PREDICTED BY RF-SCORE:    0.00 PKD
ROOT
ATOM      1  N   CYS A   1     -11.895  10.499  69.231  1.00  0.00    -0.493 NA 
ATOM      2  H2  CYS A   1     -11.387  10.172  68.409  1.00  0.00     0.000 HD 
ATOM      3  CA  CYS A   1     -11.413  11.857  69.638  1.00  0.00    -0.266 C  
ATOM      4  H1  CYS A   1     -11.860   9.798  69.972  1.00  0.00     0.000 HD 
ATOM      5  O   CYS A   1     -12.826  11.263  71.469  1.00  0.00    -0.416 OA 
ATOM      6  C   CYS A   1     -12.268  12.322  70.828  1.00  0.00    -0.260 C  
ATOM      7  OXT CYS A   1     -12.422  13.479  71.181  1.00  0.00    -0.354 OA 
ENDROOT
BRANCH   3   8
ATOM      8  CB  CYS A   1     -11.467  12.912  68.523  1.00  0.00    -0.310 C  
BRANCH   8   9
ATOM      9  SG  CYS A   1     -11.819  12.145  66.899  1.00  0.00    -0.100 SA 
BRANCH   9  10
ATOM     10  SG  CYS A   1     -10.004  12.321  65.944  1.00  0.00    -0.254 SA 
BRANCH  10  11
ATOM     11  CB  CYS A   1     -10.462  13.266  64.447  1.00  0.00    -0.404 C  
BRANCH  11  12
ATOM     12  CA  CYS A   1     -11.770  14.045  64.647  1.00  0.00    -0.405 C  
ATOM     13  N   CYS A   1     -12.637  14.060  63.424  1.00  0.00    -1.030 NA 
ATOM     14  C   CYS A   1     -11.389  15.488  64.978  1.00  0.00    -0.299 C  
ATOM     15  H2  CYS A   1     -12.824  13.111  63.098  1.00  0.00     0.000 HD 
ATOM     16  H1  CYS A   1     -13.505  14.578  63.557  1.00  0.00     0.000 HD 
ATOM     17  OXT CYS A   1     -10.952  15.872  66.050  1.00  0.00    -0.261 OA 
ATOM     18  O   CYS A   1     -11.549  16.303  63.900  1.00  0.00    -0.987 OA 
ENDBRANCH  11  12
ENDBRANCH  10  11
ENDBRANCH   9  10
ENDBRANCH   8   9
ENDBRANCH   3   8
TORSDOF 5
ENDMDL
MODEL       49
REMARK 921   NORMALIZED FREE ENERGY PREDICTED BY IDOCK:   -4.27 KCAL/MOL
REMARK 922        TOTAL FREE ENERGY PREDICTED BY IDOCK:   -6.14 KCAL/MOL
REMARK 923 INTER-LIGAND FREE ENERGY PREDICTED BY IDOCK:   -5.87 KCAL/MOL
REMARK 924 INTRA-LIGAND FREE ENERGY PREDICTED BY IDOCK:   -0.26 KCAL/MOL
REMARK 927      BINDING AFFINITY PREDICTED BY RF-SCORE:    0.00 PKD
ROOT
ATOM      1  N   CYS A   1     -11.903  13.260  69.897  1.00  0.00    -0.401 NA 
ATOM      2  H2  CYS A   1     -11.493  13.750  69.101  1.00  0.00     0.000 HD 
ATOM      3  CA  CYS A   1     -12.023  11.796  69.604  1.00  0.00    -0.312 C  
ATOM      4  H1  CYS A   1     -12.775  13.708  70.178  1.00  0.00     0.000 HD 
ATOM      5  O   CYS A   1     -13.236  11.994  71.651  1.00  0.00    -0.410 OA 
ATOM      6  C   CYS A   1     -12.573  11.109  70.864  1.00  0.00    -0.386 C  
ATOM      7  OXT CYS A   1     -12.458   9.924  71.132  1.00  0.00    -0.320 OA 
ENDROOT
BRANCH   3   8
ATOM      8  CB  CYS A   1     -10.710  11.122  69.181  1.00  0.00    -0.221 C  
BRANCH   8   9
ATOM      9  SG  CYS A   1     -10.623  10.918  67.364  1.00  0.00    -0.260 SA 
BRANCH   9  10
ATOM     10  SG  CYS A   1     -10.067  12.802  66.751  1.00  0.00    -0.240 SA 
BRANCH  10  11
ATOM     11  CB  CYS A   1     -11.585  13.386  65.917  1.00  0.00    -0.342 C  
BRANCH  11  12
ATOM     12  CA  CYS A   1     -11.370  13.559  64.406  1.00  0.00    -0.382 C  
ATOM     13  N   CYS A   1     -12.291  14.571  63.795  1.00  0.00    -1.087 NA 
ATOM     14  C   CYS A   1     -11.650  12.205  63.753  1.00  0.00    -0.470 C  
ATOM     15  H2  CYS A   1     -12.220  15.467  64.278  1.00  0.00     0.000 HD 
ATOM     16  H1  CYS A   1     -12.148  14.686  62.791  1.00  0.00     0.000 HD 
ATOM     17  OXT CYS A   1     -10.905  11.240  63.786  1.00  0.00    -0.381 OA 
ATOM     18  O   CYS A   1     -12.874  12.185  63.160  1.00  0.00    -0.662 OA 
ENDBRANCH  11  12
ENDBRANCH  10  11
ENDBRANCH   9  10
ENDBRANCH   8   9
ENDBRANCH   3   8
TORSDOF 5
ENDMDL
MODEL       50
REMARK 921   NORMALIZED FREE ENERGY PREDICTED BY IDOCK:   -4.25 KCAL/MOL
REMARK 922        TOTAL FREE ENERGY PREDICTED BY IDOCK:   -6.10 KCAL/MOL
REMARK 923 INTER-LIGAND FREE ENERGY PREDICTED BY IDOCK:   -5.93 KCAL/MOL
REMARK 924 INTRA-LIGAND FREE ENERGY PREDICTED BY IDOCK:   -0.18 KCAL/MOL
REMARK 927      BINDING AFFINITY PREDICTED BY RF-SCORE:    0.00 PKD
ROOT
ATOM      1  N   CYS A   1      -8.750  17.182  66.079  1.00  0.00    -0.524 NA 
ATOM      2  H2  CYS A   1      -8.998  16.193  66.028  1.00  0.00     0.000 HD 
ATOM      3  CA  CYS A   1      -9.976  18.019  66.275  1.00  0.00    -0.337 C  
ATOM      4  H1  CYS A   1      -8.182  17.447  65.275  1.00  0.00     0.000 HD 
ATOM      5  O   CYS A   1      -8.307  19.674  65.859  1.00  0.00    -0.390 OA 
ATOM      6  C   CYS A   1      -9.528  19.482  66.420  1.00  0.00    -0.386 C  
ATOM      7  OXT CYS A   1     -10.175  20.372  66.947  1.00  0.00    -0.419 OA 
ENDROOT
BRANCH   3   8
ATOM      8  CB  CYS A   1     -10.832  17.620  67.486  1.00  0.00    -0.199 C  
BRANCH   8   9
ATOM      9  SG  CYS A   1      -9.789  17.240  68.942  1.00  0.00    -0.259 SA 
BRANCH   9  10
ATOM     10  SG  CYS A   1     -10.645  15.502  69.635  1.00  0.00    -0.303 SA 
BRANCH  10  11
ATOM     11  CB  CYS A   1     -11.478  16.078  71.157  1.00  0.00    -0.419 C  
BRANCH  11  12
ATOM     12  CA  CYS A   1     -12.564  15.094  71.615  1.00  0.00    -0.351 C  
ATOM     13  N   CYS A   1     -13.845  15.235  70.850  1.00  0.00    -0.766 NA 
ATOM     14  C   CYS A   1     -12.853  15.395  73.087  1.00  0.00    -0.493 C  
ATOM     15  H2  CYS A   1     -13.681  15.154  69.847  1.00  0.00     0.000 HD 
ATOM     16  H1  CYS A   1     -14.566  14.581  71.156  1.00  0.00     0.000 HD 
ATOM     17  OXT CYS A   1     -12.130  15.093  74.022  1.00  0.00    -0.566 OA 
ATOM     18  O   CYS A   1     -14.009  16.098  73.231  1.00  0.00    -0.515 OA 
ENDBRANCH  11  12
ENDBRANCH  10  11
ENDBRANCH   9  10
ENDBRANCH   8   9
ENDBRANCH   3   8
TORSDOF 5
ENDMDL
MODEL       51
REMARK 921   NORMALIZED FREE ENERGY PREDICTED BY IDOCK:   -4.23 KCAL/MOL
REMARK 922        TOTAL FREE ENERGY PREDICTED BY IDOCK:   -6.08 KCAL/MOL
REMARK 923 INTER-LIGAND FREE ENERGY PREDICTED BY IDOCK:   -5.70 KCAL/MOL
REMARK 924 INTRA-LIGAND FREE ENERGY PREDICTED BY IDOCK:   -0.38 KCAL/MOL
REMARK 927      BINDING AFFINITY PREDICTED BY RF-SCORE:    0.00 PKD
ROOT
ATOM      1  N   CYS A   1     -12.383  12.994  70.925  1.00  0.00    -0.400 NA 
ATOM      2  H2  CYS A   1     -11.535  12.862  70.372  1.00  0.00     0.000 HD 
ATOM      3  CA  CYS A   1     -12.462  14.401  71.434  1.00  0.00    -0.359 C  
ATOM      4  H1  CYS A   1     -12.448  12.279  71.650  1.00  0.00     0.000 HD 
ATOM      5  O   CYS A   1     -14.253  13.347  72.609  1.00  0.00    -0.747 OA 
ATOM      6  C   CYS A   1     -13.791  14.553  72.190  1.00  0.00    -0.477 C  
ATOM      7  OXT CYS A   1     -14.362  15.607  72.413  1.00  0.00    -0.546 OA 
ENDROOT
BRANCH   3   8
ATOM      8  CB  CYS A   1     -12.363  15.477  70.344  1.00  0.00    -0.413 C  
BRANCH   8   9
ATOM      9  SG  CYS A   1     -10.637  15.685  69.769  1.00  0.00    -0.325 SA 
BRANCH   9  10
ATOM     10  SG  CYS A   1     -10.900  16.039  67.758  1.00  0.00    -0.306 SA 
BRANCH  10  11
ATOM     11  CB  CYS A   1     -10.434  14.426  67.033  1.00  0.00    -0.268 C  
BRANCH  11  12
ATOM     12  CA  CYS A   1     -11.272  13.280  67.617  1.00  0.00    -0.280 C  
ATOM     13  N   CYS A   1     -10.519  12.451  68.614  1.00  0.00    -0.293 NA 
ATOM     14  C   CYS A   1     -11.672  12.374  66.452  1.00  0.00    -0.391 C  
ATOM     15  H2  CYS A   1     -10.134  13.036  69.357  1.00  0.00     0.000 HD 
ATOM     16  H1  CYS A   1     -11.076  11.690  69.002  1.00  0.00     0.000 HD 
ATOM     17  OXT CYS A   1     -12.530  12.630  65.624  1.00  0.00    -0.622 OA 
ATOM     18  O   CYS A   1     -10.908  11.249  66.414  1.00  0.00    -0.271 OA 
ENDBRANCH  11  12
ENDBRANCH  10  11
ENDBRANCH   9  10
ENDBRANCH   8   9
ENDBRANCH   3   8
TORSDOF 5
ENDMDL
MODEL       52
REMARK 921   NORMALIZED FREE ENERGY PREDICTED BY IDOCK:   -4.19 KCAL/MOL
REMARK 922        TOTAL FREE ENERGY PREDICTED BY IDOCK:   -6.03 KCAL/MOL
REMARK 923 INTER-LIGAND FREE ENERGY PREDICTED BY IDOCK:   -5.48 KCAL/MOL
REMARK 924 INTRA-LIGAND FREE ENERGY PREDICTED BY IDOCK:   -0.55 KCAL/MOL
REMARK 927      BINDING AFFINITY PREDICTED BY RF-SCORE:    0.00 PKD
ROOT
ATOM      1  N   CYS A   1     -11.906  12.111  65.094  1.00  0.00    -0.337 NA 
ATOM      2  H2  CYS A   1     -12.437  12.834  65.581  1.00  0.00     0.000 HD 
ATOM      3  CA  CYS A   1     -10.741  11.670  65.925  1.00  0.00    -0.278 C  
ATOM      4  H1  CYS A   1     -11.660  12.424  64.154  1.00  0.00     0.000 HD 
ATOM      5  O   CYS A   1     -10.305  10.584  63.843  1.00  0.00    -0.262 OA 
ATOM      6  C   CYS A   1     -10.031  10.534  65.172  1.00  0.00    -0.309 C  
ATOM      7  OXT CYS A   1      -9.298   9.699  65.677  1.00  0.00    -0.198 OA 
ENDROOT
BRANCH   3   8
ATOM      8  CB  CYS A   1     -11.111  11.199  67.339  1.00  0.00    -0.307 C  
BRANCH   8   9
ATOM      9  SG  CYS A   1     -11.740  12.583  68.358  1.00  0.00    -0.315 SA 
BRANCH   9  10
ATOM     10  SG  CYS A   1     -10.271  14.002  68.098  1.00  0.00    -0.249 SA 
BRANCH  10  11
ATOM     11  CB  CYS A   1     -11.088  15.179  66.962  1.00  0.00    -0.328 C  
BRANCH  11  12
ATOM     12  CA  CYS A   1     -10.344  15.282  65.623  1.00  0.00    -0.366 C  
ATOM     13  N   CYS A   1      -9.285  16.344  65.619  1.00  0.00    -0.438 NA 
ATOM     14  C   CYS A   1     -11.381  15.641  64.558  1.00  0.00    -0.320 C  
ATOM     15  H2  CYS A   1      -8.631  16.207  66.390  1.00  0.00     0.000 HD 
ATOM     16  H1  CYS A   1      -8.792  16.411  64.729  1.00  0.00     0.000 HD 
ATOM     17  OXT CYS A   1     -12.201  14.870  64.086  1.00  0.00    -0.567 OA 
ATOM     18  O   CYS A   1     -11.315  16.958  64.226  1.00  0.00    -1.202 OA 
ENDBRANCH  11  12
ENDBRANCH  10  11
ENDBRANCH   9  10
ENDBRANCH   8   9
ENDBRANCH   3   8
TORSDOF 5
ENDMDL
MODEL       53
REMARK 921   NORMALIZED FREE ENERGY PREDICTED BY IDOCK:   -4.19 KCAL/MOL
REMARK 922        TOTAL FREE ENERGY PREDICTED BY IDOCK:   -6.03 KCAL/MOL
REMARK 923 INTER-LIGAND FREE ENERGY PREDICTED BY IDOCK:   -6.08 KCAL/MOL
REMARK 924 INTRA-LIGAND FREE ENERGY PREDICTED BY IDOCK:    0.05 KCAL/MOL
REMARK 927      BINDING AFFINITY PREDICTED BY RF-SCORE:    0.00 PKD
ROOT
ATOM      1  N   CYS A   1     -11.546  12.601  70.189  1.00  0.00    -0.543 NA 
ATOM      2  H2  CYS A   1     -11.038  13.086  69.450  1.00  0.00     0.000 HD 
ATOM      3  CA  CYS A   1     -11.942  11.229  69.737  1.00  0.00    -0.360 C  
ATOM      4  H1  CYS A   1     -12.320  13.175  70.524  1.00  0.00     0.000 HD 
ATOM      5  O   CYS A   1     -13.126  11.432  71.801  1.00  0.00    -0.480 OA 
ATOM      6  C   CYS A   1     -12.633  10.527  70.916  1.00  0.00    -0.398 C  
ATOM      7  OXT CYS A   1     -12.753   9.320  71.051  1.00  0.00    -0.270 OA 
ENDROOT
BRANCH   3   8
ATOM      8  CB  CYS A   1     -10.778  10.364  69.233  1.00  0.00    -0.237 C  
BRANCH   8   9
ATOM      9  SG  CYS A   1     -10.670  10.393  67.406  1.00  0.00    -0.278 SA 
BRANCH   9  10
ATOM     10  SG  CYS A   1     -10.552  12.411  67.020  1.00  0.00    -0.228 SA 
BRANCH  10  11
ATOM     11  CB  CYS A   1     -10.453  12.436  65.195  1.00  0.00    -0.292 C  
BRANCH  11  12
ATOM     12  CA  CYS A   1     -11.818  12.155  64.550  1.00  0.00    -0.343 C  
ATOM     13  N   CYS A   1     -11.709  11.624  63.152  1.00  0.00    -0.881 NA 
ATOM     14  C   CYS A   1     -12.574  13.484  64.496  1.00  0.00    -0.206 C  
ATOM     15  H2  CYS A   1     -11.115  10.795  63.123  1.00  0.00     0.000 HD 
ATOM     16  H1  CYS A   1     -12.616  11.437  62.725  1.00  0.00     0.000 HD 
ATOM     17  OXT CYS A   1     -13.095  14.035  65.450  1.00  0.00    -0.763 OA 
ATOM     18  O   CYS A   1     -12.552  14.015  63.244  1.00  0.00    -0.801 OA 
ENDBRANCH  11  12
ENDBRANCH  10  11
ENDBRANCH   9  10
ENDBRANCH   8   9
ENDBRANCH   3   8
TORSDOF 5
ENDMDL
MODEL       54
REMARK 921   NORMALIZED FREE ENERGY PREDICTED BY IDOCK:   -4.17 KCAL/MOL
REMARK 922        TOTAL FREE ENERGY PREDICTED BY IDOCK:   -6.01 KCAL/MOL
REMARK 923 INTER-LIGAND FREE ENERGY PREDICTED BY IDOCK:   -5.41 KCAL/MOL
REMARK 924 INTRA-LIGAND FREE ENERGY PREDICTED BY IDOCK:   -0.60 KCAL/MOL
REMARK 927      BINDING AFFINITY PREDICTED BY RF-SCORE:    0.00 PKD
ROOT
ATOM      1  N   CYS A   1     -11.602  15.798  63.993  1.00  0.00    -1.004 NA 
ATOM      2  H2  CYS A   1     -11.012  16.576  64.291  1.00  0.00     0.000 HD 
ATOM      3  CA  CYS A   1     -11.419  14.625  64.907  1.00  0.00    -0.401 C  
ATOM      4  H1  CYS A   1     -11.447  15.592  63.006  1.00  0.00     0.000 HD 
ATOM      5  O   CYS A   1     -12.737  13.686  63.151  1.00  0.00    -0.737 OA 
ATOM      6  C   CYS A   1     -12.386  13.521  64.452  1.00  0.00    -0.337 C  
ATOM      7  OXT CYS A   1     -12.784  12.598  65.144  1.00  0.00    -0.646 OA 
ENDROOT
BRANCH   3   8
ATOM      8  CB  CYS A   1     -11.652  14.934  66.393  1.00  0.00    -0.238 C  
BRANCH   8   9
ATOM      9  SG  CYS A   1     -10.113  15.508  67.201  1.00  0.00    -0.258 SA 
BRANCH   9  10
ATOM     10  SG  CYS A   1      -8.934  13.823  67.113  1.00  0.00    -0.237 SA 
BRANCH  10  11
ATOM     11  CB  CYS A   1      -9.841  12.675  68.210  1.00  0.00    -0.227 C  
BRANCH  11  12
ATOM     12  CA  CYS A   1     -10.453  11.506  67.424  1.00  0.00    -0.209 C  
ATOM     13  N   CYS A   1     -11.895  11.266  67.756  1.00  0.00    -0.638 NA 
ATOM     14  C   CYS A   1      -9.664  10.250  67.798  1.00  0.00    -0.156 C  
ATOM     15  H2  CYS A   1     -12.444  12.117  67.629  1.00  0.00     0.000 HD 
ATOM     16  H1  CYS A   1     -12.300  10.489  67.234  1.00  0.00     0.000 HD 
ATOM     17  OXT CYS A   1      -8.542   9.980  67.401  1.00  0.00    -0.125 OA 
ATOM     18  O   CYS A   1     -10.351   9.478  68.682  1.00  0.00    -0.192 OA 
ENDBRANCH  11  12
ENDBRANCH  10  11
ENDBRANCH   9  10
ENDBRANCH   8   9
ENDBRANCH   3   8
TORSDOF 5
ENDMDL
MODEL       55
REMARK 921   NORMALIZED FREE ENERGY PREDICTED BY IDOCK:   -4.11 KCAL/MOL
REMARK 922        TOTAL FREE ENERGY PREDICTED BY IDOCK:   -5.93 KCAL/MOL
REMARK 923 INTER-LIGAND FREE ENERGY PREDICTED BY IDOCK:   -5.62 KCAL/MOL
REMARK 924 INTRA-LIGAND FREE ENERGY PREDICTED BY IDOCK:   -0.30 KCAL/MOL
REMARK 927      BINDING AFFINITY PREDICTED BY RF-SCORE:    0.00 PKD
ROOT
ATOM      1  N   CYS A   1      -9.351  15.050  69.670  1.00  0.00    -0.450 NA 
ATOM      2  H2  CYS A   1     -10.318  14.827  69.433  1.00  0.00     0.000 HD 
ATOM      3  CA  CYS A   1      -8.816  16.101  68.745  1.00  0.00    -0.233 C  
ATOM      4  H1  CYS A   1      -8.790  14.199  69.711  1.00  0.00     0.000 HD 
ATOM      5  O   CYS A   1      -6.851  15.430  69.923  1.00  0.00    -0.173 OA 
ATOM      6  C   CYS A   1      -7.390  16.445  69.201  1.00  0.00    -0.225 C  
ATOM      7  OXT CYS A   1      -6.793  17.479  68.943  1.00  0.00    -0.225 OA 
ENDROOT
BRANCH   3   8
ATOM      8  CB  CYS A   1      -9.661  17.382  68.683  1.00  0.00    -0.295 C  
BRANCH   8   9
ATOM      9  SG  CYS A   1     -10.360  17.637  67.011  1.00  0.00    -0.311 SA 
BRANCH   9  10
ATOM     10  SG  CYS A   1      -9.719  15.950  66.021  1.00  0.00    -0.363 SA 
BRANCH  10  11
ATOM     11  CB  CYS A   1     -11.232  14.924  66.018  1.00  0.00    -0.327 C  
BRANCH  11  12
ATOM     12  CA  CYS A   1     -11.434  14.217  64.670  1.00  0.00    -0.387 C  
ATOM     13  N   CYS A   1     -12.453  14.890  63.800  1.00  0.00    -1.062 NA 
ATOM     14  C   CYS A   1     -11.927  12.801  64.972  1.00  0.00    -0.412 C  
ATOM     15  H2  CYS A   1     -12.222  15.874  63.664  1.00  0.00     0.000 HD 
ATOM     16  H1  CYS A   1     -12.586  14.420  62.905  1.00  0.00     0.000 HD 
ATOM     17  OXT CYS A   1     -11.234  11.888  65.390  1.00  0.00    -0.317 OA 
ATOM     18  O   CYS A   1     -13.267  12.689  64.765  1.00  0.00    -0.846 OA 
ENDBRANCH  11  12
ENDBRANCH  10  11
ENDBRANCH   9  10
ENDBRANCH   8   9
ENDBRANCH   3   8
TORSDOF 5
ENDMDL
MODEL       56
REMARK 921   NORMALIZED FREE ENERGY PREDICTED BY IDOCK:   -4.10 KCAL/MOL
REMARK 922        TOTAL FREE ENERGY PREDICTED BY IDOCK:   -5.91 KCAL/MOL
REMARK 923 INTER-LIGAND FREE ENERGY PREDICTED BY IDOCK:   -5.66 KCAL/MOL
REMARK 924 INTRA-LIGAND FREE ENERGY PREDICTED BY IDOCK:   -0.25 KCAL/MOL
REMARK 927      BINDING AFFINITY PREDICTED BY RF-SCORE:    0.00 PKD
ROOT
ATOM      1  N   CYS A   1      -9.760  12.104  64.637  1.00  0.00    -0.455 NA 
ATOM      2  H2  CYS A   1      -8.938  11.898  65.206  1.00  0.00     0.000 HD 
ATOM      3  CA  CYS A   1     -10.992  12.132  65.489  1.00  0.00    -0.301 C  
ATOM      4  H1  CYS A   1      -9.811  11.466  63.842  1.00  0.00     0.000 HD 
ATOM      5  O   CYS A   1     -11.909  12.245  63.288  1.00  0.00    -0.448 OA 
ATOM      6  C   CYS A   1     -12.176  12.520  64.591  1.00  0.00    -0.453 C  
ATOM      7  OXT CYS A   1     -13.232  12.995  64.976  1.00  0.00    -0.739 OA 
ENDROOT
BRANCH   3   8
ATOM      8  CB  CYS A   1     -10.915  13.092  66.685  1.00  0.00    -0.283 C  
BRANCH   8   9
ATOM      9  SG  CYS A   1      -9.553  14.298  66.484  1.00  0.00    -0.298 SA 
BRANCH   9  10
ATOM     10  SG  CYS A   1     -10.526  15.898  65.629  1.00  0.00    -0.405 SA 
BRANCH  10  11
ATOM     11  CB  CYS A   1      -9.604  17.313  66.331  1.00  0.00    -0.274 C  
BRANCH  11  12
ATOM     12  CA  CYS A   1     -10.529  18.504  66.620  1.00  0.00    -0.398 C  
ATOM     13  N   CYS A   1     -10.584  19.492  65.494  1.00  0.00    -0.477 NA 
ATOM     14  C   CYS A   1      -9.973  19.218  67.853  1.00  0.00    -0.368 C  
ATOM     15  H2  CYS A   1     -10.843  19.033  64.620  1.00  0.00     0.000 HD 
ATOM     16  H1  CYS A   1     -11.199  20.283  65.687  1.00  0.00     0.000 HD 
ATOM     17  OXT CYS A   1     -10.067  18.817  69.001  1.00  0.00    -0.393 OA 
ATOM     18  O   CYS A   1      -9.302  20.350  67.508  1.00  0.00    -0.372 OA 
ENDBRANCH  11  12
ENDBRANCH  10  11
ENDBRANCH   9  10
ENDBRANCH   8   9
ENDBRANCH   3   8
TORSDOF 5
ENDMDL
MODEL       57
REMARK 921   NORMALIZED FREE ENERGY PREDICTED BY IDOCK:   -4.06 KCAL/MOL
REMARK 922        TOTAL FREE ENERGY PREDICTED BY IDOCK:   -5.87 KCAL/MOL
REMARK 923 INTER-LIGAND FREE ENERGY PREDICTED BY IDOCK:   -5.70 KCAL/MOL
REMARK 924 INTRA-LIGAND FREE ENERGY PREDICTED BY IDOCK:   -0.16 KCAL/MOL
REMARK 927      BINDING AFFINITY PREDICTED BY RF-SCORE:    0.00 PKD
ROOT
ATOM      1  N   CYS A   1      -7.598  17.214  68.721  1.00  0.00    -0.254 NA 
ATOM      2  H2  CYS A   1      -7.396  16.263  68.410  1.00  0.00     0.000 HD 
ATOM      3  CA  CYS A   1      -8.667  17.827  67.869  1.00  0.00    -0.251 C  
ATOM      4  H1  CYS A   1      -6.737  17.759  68.776  1.00  0.00     0.000 HD 
ATOM      5  O   CYS A   1      -7.930  19.694  69.162  1.00  0.00    -0.313 OA 
ATOM      6  C   CYS A   1      -8.975  19.222  68.435  1.00  0.00    -0.352 C  
ATOM      7  OXT CYS A   1     -10.006  19.849  68.252  1.00  0.00    -0.408 OA 
ENDROOT
BRANCH   3   8
ATOM      8  CB  CYS A   1      -9.962  17.007  67.787  1.00  0.00    -0.280 C  
BRANCH   8   9
ATOM      9  SG  CYS A   1     -10.086  16.118  66.191  1.00  0.00    -0.358 SA 
BRANCH   9  10
ATOM     10  SG  CYS A   1     -11.622  14.799  66.559  1.00  0.00    -0.249 SA 
BRANCH  10  11
ATOM     11  CB  CYS A   1     -11.079  13.325  65.623  1.00  0.00    -0.282 C  
BRANCH  11  12
ATOM     12  CA  CYS A   1     -11.308  13.497  64.114  1.00  0.00    -0.340 C  
ATOM     13  N   CYS A   1     -12.428  14.440  63.794  1.00  0.00    -1.058 NA 
ATOM     14  C   CYS A   1     -11.670  12.121  63.553  1.00  0.00    -0.490 C  
ATOM     15  H2  CYS A   1     -12.283  15.344  64.245  1.00  0.00     0.000 HD 
ATOM     16  H1  CYS A   1     -12.579  14.554  62.791  1.00  0.00     0.000 HD 
ATOM     17  OXT CYS A   1     -10.884  11.207  63.369  1.00  0.00    -0.335 OA 
ATOM     18  O   CYS A   1     -13.008  12.014  63.327  1.00  0.00    -0.736 OA 
ENDBRANCH  11  12
ENDBRANCH  10  11
ENDBRANCH   9  10
ENDBRANCH   8   9
ENDBRANCH   3   8
TORSDOF 5
ENDMDL
MODEL       58
REMARK 921   NORMALIZED FREE ENERGY PREDICTED BY IDOCK:   -4.04 KCAL/MOL
REMARK 922        TOTAL FREE ENERGY PREDICTED BY IDOCK:   -5.84 KCAL/MOL
REMARK 923 INTER-LIGAND FREE ENERGY PREDICTED BY IDOCK:   -5.64 KCAL/MOL
REMARK 924 INTRA-LIGAND FREE ENERGY PREDICTED BY IDOCK:   -0.19 KCAL/MOL
REMARK 927      BINDING AFFINITY PREDICTED BY RF-SCORE:    0.00 PKD
ROOT
ATOM      1  N   CYS A   1     -11.334  16.348  63.883  1.00  0.00    -1.535 NA 
ATOM      2  H2  CYS A   1     -10.707  17.144  63.999  1.00  0.00     0.000 HD 
ATOM      3  CA  CYS A   1     -11.002  15.273  64.872  1.00  0.00    -0.430 C  
ATOM      4  H1  CYS A   1     -11.340  16.040  62.910  1.00  0.00     0.000 HD 
ATOM      5  O   CYS A   1     -12.582  14.175  63.458  1.00  0.00    -0.834 OA 
ATOM      6  C   CYS A   1     -12.025  14.140  64.696  1.00  0.00    -0.445 C  
ATOM      7  OXT CYS A   1     -12.303  13.299  65.535  1.00  0.00    -0.435 OA 
ENDROOT
BRANCH   3   8
ATOM      8  CB  CYS A   1     -10.992  15.736  66.336  1.00  0.00    -0.159 C  
BRANCH   8   9
ATOM      9  SG  CYS A   1     -10.269  17.409  66.499  1.00  0.00    -0.317 SA 
BRANCH   9  10
ATOM     10  SG  CYS A   1      -8.262  17.030  66.247  1.00  0.00    -0.258 SA 
BRANCH  10  11
ATOM     11  CB  CYS A   1      -7.514  18.610  66.783  1.00  0.00    -0.225 C  
BRANCH  11  12
ATOM     12  CA  CYS A   1      -6.028  18.444  67.131  1.00  0.00    -0.153 C  
ATOM     13  N   CYS A   1      -5.377  17.310  66.398  1.00  0.00    -0.271 NA 
ATOM     14  C   CYS A   1      -5.945  18.152  68.630  1.00  0.00    -0.196 C  
ATOM     15  H2  CYS A   1      -5.507  17.405  65.391  1.00  0.00     0.000 HD 
ATOM     16  H1  CYS A   1      -4.390  17.200  66.630  1.00  0.00     0.000 HD 
ATOM     17  OXT CYS A   1      -6.100  18.975  69.517  1.00  0.00    -0.248 OA 
ATOM     18  O   CYS A   1      -5.725  16.830  68.866  1.00  0.00    -0.139 OA 
ENDBRANCH  11  12
ENDBRANCH  10  11
ENDBRANCH   9  10
ENDBRANCH   8   9
ENDBRANCH   3   8
TORSDOF 5
ENDMDL
MODEL       59
REMARK 921   NORMALIZED FREE ENERGY PREDICTED BY IDOCK:   -4.03 KCAL/MOL
REMARK 922        TOTAL FREE ENERGY PREDICTED BY IDOCK:   -5.83 KCAL/MOL
REMARK 923 INTER-LIGAND FREE ENERGY PREDICTED BY IDOCK:   -5.43 KCAL/MOL
REMARK 924 INTRA-LIGAND FREE ENERGY PREDICTED BY IDOCK:   -0.40 KCAL/MOL
REMARK 927      BINDING AFFINITY PREDICTED BY RF-SCORE:    0.00 PKD
ROOT
ATOM      1  N   CYS A   1     -11.988  11.667  69.343  1.00  0.00    -0.323 NA 
ATOM      2  H2  CYS A   1     -11.368  11.568  68.539  1.00  0.00     0.000 HD 
ATOM      3  CA  CYS A   1     -11.829  13.022  69.962  1.00  0.00    -0.285 C  
ATOM      4  H1  CYS A   1     -11.856  10.889  69.991  1.00  0.00     0.000 HD 
ATOM      5  O   CYS A   1     -13.206  11.904  71.561  1.00  0.00    -0.358 OA 
ATOM      6  C   CYS A   1     -12.840  13.133  71.114  1.00  0.00    -0.264 C  
ATOM      7  OXT CYS A   1     -13.257  14.175  71.594  1.00  0.00    -0.319 OA 
ENDROOT
BRANCH   3   8
ATOM      8  CB  CYS A   1     -12.027  14.192  68.989  1.00  0.00    -0.340 C  
BRANCH   8   9
ATOM      9  SG  CYS A   1     -11.771  13.666  67.254  1.00  0.00    -0.397 SA 
BRANCH   9  10
ATOM     10  SG  CYS A   1      -9.719  13.719  67.094  1.00  0.00    -0.251 SA 
BRANCH  10  11
ATOM     11  CB  CYS A   1      -9.474  15.095  65.916  1.00  0.00    -0.299 C  
BRANCH  11  12
ATOM     12  CA  CYS A   1     -10.720  15.987  65.819  1.00  0.00    -0.301 C  
ATOM     13  N   CYS A   1     -11.057  16.374  64.410  1.00  0.00    -1.145 NA 
ATOM     14  C   CYS A   1     -10.423  17.265  66.605  1.00  0.00    -0.257 C  
ATOM     15  H2  CYS A   1     -11.153  15.547  63.819  1.00  0.00     0.000 HD 
ATOM     16  H1  CYS A   1     -11.885  16.966  64.346  1.00  0.00     0.000 HD 
ATOM     17  OXT CYS A   1     -10.407  17.355  67.821  1.00  0.00    -0.328 OA 
ATOM     18  O   CYS A   1     -10.123  18.299  65.774  1.00  0.00    -0.560 OA 
ENDBRANCH  11  12
ENDBRANCH  10  11
ENDBRANCH   9  10
ENDBRANCH   8   9
ENDBRANCH   3   8
TORSDOF 5
ENDMDL
MODEL       60
REMARK 921   NORMALIZED FREE ENERGY PREDICTED BY IDOCK:   -4.02 KCAL/MOL
REMARK 922        TOTAL FREE ENERGY PREDICTED BY IDOCK:   -5.82 KCAL/MOL
REMARK 923 INTER-LIGAND FREE ENERGY PREDICTED BY IDOCK:   -5.60 KCAL/MOL
REMARK 924 INTRA-LIGAND FREE ENERGY PREDICTED BY IDOCK:   -0.21 KCAL/MOL
REMARK 927      BINDING AFFINITY PREDICTED BY RF-SCORE:    0.00 PKD
ROOT
ATOM      1  N   CYS A   1     -10.118  13.589  64.205  1.00  0.00    -0.761 NA 
ATOM      2  H2  CYS A   1      -9.127  13.412  64.371  1.00  0.00     0.000 HD 
ATOM      3  CA  CYS A   1     -10.774  12.377  63.617  1.00  0.00    -0.455 C  
ATOM      4  H1  CYS A   1     -10.241  14.442  63.658  1.00  0.00     0.000 HD 
ATOM      5  O   CYS A   1     -12.494  14.020  63.413  1.00  0.00    -0.826 OA 
ATOM      6  C   CYS A   1     -12.272  12.681  63.464  1.00  0.00    -0.547 C  
ATOM      7  OXT CYS A   1     -13.159  11.848  63.377  1.00  0.00    -0.710 OA 
ENDROOT
BRANCH   3   8
ATOM      8  CB  CYS A   1     -10.590  11.093  64.439  1.00  0.00    -0.343 C  
BRANCH   8   9
ATOM      9  SG  CYS A   1     -10.873  11.398  66.222  1.00  0.00    -0.233 SA 
BRANCH   9  10
ATOM     10  SG  CYS A   1      -9.428  10.217  67.089  1.00  0.00    -0.162 SA 
BRANCH  10  11
ATOM     11  CB  CYS A   1     -10.437   8.909  67.872  1.00  0.00    -0.223 C  
BRANCH  11  12
ATOM     12  CA  CYS A   1     -10.180   7.536  67.234  1.00  0.00    -0.267 C  
ATOM     13  N   CYS A   1     -11.439   6.838  66.817  1.00  0.00    -0.653 NA 
ATOM     14  C   CYS A   1      -9.484   6.672  68.286  1.00  0.00    -0.123 C  
ATOM     15  H2  CYS A   1     -11.996   7.429  66.198  1.00  0.00     0.000 HD 
ATOM     16  H1  CYS A   1     -11.268   5.926  66.392  1.00  0.00     0.000 HD 
ATOM     17  OXT CYS A   1      -8.315   6.778  68.622  1.00  0.00    -0.119 OA 
ATOM     18  O   CYS A   1     -10.349   5.789  68.853  1.00  0.00    -0.183 OA 
ENDBRANCH  11  12
ENDBRANCH  10  11
ENDBRANCH   9  10
ENDBRANCH   8   9
ENDBRANCH   3   8
TORSDOF 5
ENDMDL
MODEL       61
REMARK 921   NORMALIZED FREE ENERGY PREDICTED BY IDOCK:   -4.00 KCAL/MOL
REMARK 922        TOTAL FREE ENERGY PREDICTED BY IDOCK:   -5.78 KCAL/MOL
REMARK 923 INTER-LIGAND FREE ENERGY PREDICTED BY IDOCK:   -5.49 KCAL/MOL
REMARK 924 INTRA-LIGAND FREE ENERGY PREDICTED BY IDOCK:   -0.29 KCAL/MOL
REMARK 927      BINDING AFFINITY PREDICTED BY RF-SCORE:    0.00 PKD
ROOT
ATOM      1  N   CYS A   1     -13.167  13.995  65.625  1.00  0.00    -0.664 NA 
ATOM      2  H2  CYS A   1     -13.264  14.257  66.607  1.00  0.00     0.000 HD 
ATOM      3  CA  CYS A   1     -11.851  13.317  65.394  1.00  0.00    -0.359 C  
ATOM      4  H1  CYS A   1     -13.337  14.802  65.024  1.00  0.00     0.000 HD 
ATOM      5  O   CYS A   1     -12.650  13.623  63.165  1.00  0.00    -0.792 OA 
ATOM      6  C   CYS A   1     -11.799  12.882  63.921  1.00  0.00    -0.473 C  
ATOM      7  OXT CYS A   1     -11.083  12.006  63.466  1.00  0.00    -0.409 OA 
ENDROOT
BRANCH   3   8
ATOM      8  CB  CYS A   1     -11.594  12.103  66.299  1.00  0.00    -0.360 C  
BRANCH   8   9
ATOM      9  SG  CYS A   1     -10.549  12.552  67.733  1.00  0.00    -0.224 SA 
BRANCH   9  10
ATOM     10  SG  CYS A   1     -11.944  13.270  69.066  1.00  0.00    -0.244 SA 
BRANCH  10  11
ATOM     11  CB  CYS A   1     -11.794  12.075  70.441  1.00  0.00    -0.212 C  
BRANCH  11  12
ATOM     12  CA  CYS A   1     -11.975  10.629  69.956  1.00  0.00    -0.329 C  
ATOM     13  N   CYS A   1     -13.297  10.040  70.346  1.00  0.00    -0.538 NA 
ATOM     14  C   CYS A   1     -10.872   9.793  70.607  1.00  0.00    -0.329 C  
ATOM     15  H2  CYS A   1     -14.067  10.630  70.027  1.00  0.00     0.000 HD 
ATOM     16  H1  CYS A   1     -13.417   9.079  70.023  1.00  0.00     0.000 HD 
ATOM     17  OXT CYS A   1      -9.698   9.798  70.276  1.00  0.00    -0.248 OA 
ATOM     18  O   CYS A   1     -11.352   9.068  71.653  1.00  0.00    -0.310 OA 
ENDBRANCH  11  12
ENDBRANCH  10  11
ENDBRANCH   9  10
ENDBRANCH   8   9
ENDBRANCH   3   8
TORSDOF 5
ENDMDL
MODEL       62
REMARK 921   NORMALIZED FREE ENERGY PREDICTED BY IDOCK:   -3.96 KCAL/MOL
REMARK 922        TOTAL FREE ENERGY PREDICTED BY IDOCK:   -5.73 KCAL/MOL
REMARK 923 INTER-LIGAND FREE ENERGY PREDICTED BY IDOCK:   -5.53 KCAL/MOL
REMARK 924 INTRA-LIGAND FREE ENERGY PREDICTED BY IDOCK:   -0.20 KCAL/MOL
REMARK 927      BINDING AFFINITY PREDICTED BY RF-SCORE:    0.00 PKD
ROOT
ATOM      1  N   CYS A   1     -11.165   6.215  66.664  1.00  0.00    -0.758 NA 
ATOM      2  H2  CYS A   1     -11.015   6.133  65.658  1.00  0.00     0.000 HD 
ATOM      3  CA  CYS A   1     -10.256   7.254  67.245  1.00  0.00    -0.253 C  
ATOM      4  H1  CYS A   1     -11.098   5.300  67.109  1.00  0.00     0.000 HD 
ATOM      5  O   CYS A   1     -11.185   6.257  69.205  1.00  0.00    -0.372 OA 
ATOM      6  C   CYS A   1     -10.583   7.382  68.741  1.00  0.00    -0.168 C  
ATOM      7  OXT CYS A   1     -10.329   8.348  69.442  1.00  0.00    -0.208 OA 
ENDROOT
BRANCH   3   8
ATOM      8  CB  CYS A   1     -10.356   8.633  66.576  1.00  0.00    -0.166 C  
BRANCH   8   9
ATOM      9  SG  CYS A   1      -8.699   9.305  66.186  1.00  0.00    -0.157 SA 
BRANCH   9  10
ATOM     10  SG  CYS A   1      -9.090  11.318  66.004  1.00  0.00    -0.205 SA 
BRANCH  10  11
ATOM     11  CB  CYS A   1     -10.716  11.307  65.167  1.00  0.00    -0.246 C  
BRANCH  11  12
ATOM     12  CA  CYS A   1     -10.754  12.291  63.990  1.00  0.00    -0.396 C  
ATOM     13  N   CYS A   1      -9.966  13.541  64.244  1.00  0.00    -0.752 NA 
ATOM     14  C   CYS A   1     -12.216  12.685  63.778  1.00  0.00    -0.514 C  
ATOM     15  H2  CYS A   1      -9.004  13.319  64.502  1.00  0.00     0.000 HD 
ATOM     16  H1  CYS A   1      -9.992  14.195  63.461  1.00  0.00     0.000 HD 
ATOM     17  OXT CYS A   1     -13.068  11.979  63.264  1.00  0.00    -0.701 OA 
ATOM     18  O   CYS A   1     -12.475  13.921  64.285  1.00  0.00    -0.638 OA 
ENDBRANCH  11  12
ENDBRANCH  10  11
ENDBRANCH   9  10
ENDBRANCH   8   9
ENDBRANCH   3   8
TORSDOF 5
ENDMDL
MODEL       63
REMARK 921   NORMALIZED FREE ENERGY PREDICTED BY IDOCK:   -3.96 KCAL/MOL
REMARK 922        TOTAL FREE ENERGY PREDICTED BY IDOCK:   -5.73 KCAL/MOL
REMARK 923 INTER-LIGAND FREE ENERGY PREDICTED BY IDOCK:   -5.13 KCAL/MOL
REMARK 924 INTRA-LIGAND FREE ENERGY PREDICTED BY IDOCK:   -0.60 KCAL/MOL
REMARK 927      BINDING AFFINITY PREDICTED BY RF-SCORE:    0.00 PKD
ROOT
ATOM      1  N   CYS A   1     -12.354  14.104  63.258  1.00  0.00    -1.133 NA 
ATOM      2  H2  CYS A   1     -12.779  13.184  63.136  1.00  0.00     0.000 HD 
ATOM      3  CA  CYS A   1     -12.072  14.360  64.707  1.00  0.00    -0.452 C  
ATOM      4  H1  CYS A   1     -12.923  14.820  62.806  1.00  0.00     0.000 HD 
ATOM      5  O   CYS A   1     -11.636  16.495  63.731  1.00  0.00    -1.109 OA 
ATOM      6  C   CYS A   1     -11.368  15.721  64.814  1.00  0.00    -0.314 C  
ATOM      7  OXT CYS A   1     -10.672  16.088  65.747  1.00  0.00    -0.333 OA 
ENDROOT
BRANCH   3   8
ATOM      8  CB  CYS A   1     -11.216  13.282  65.388  1.00  0.00    -0.287 C  
BRANCH   8   9
ATOM      9  SG  CYS A   1     -12.011  12.672  66.920  1.00  0.00    -0.166 SA 
BRANCH   9  10
ATOM     10  SG  CYS A   1     -10.508  12.919  68.305  1.00  0.00    -0.245 SA 
BRANCH  10  11
ATOM     11  CB  CYS A   1      -9.106  13.425  67.246  1.00  0.00    -0.222 C  
BRANCH  11  12
ATOM     12  CA  CYS A   1      -8.235  14.488  67.931  1.00  0.00    -0.153 C  
ATOM     13  N   CYS A   1      -8.037  15.714  67.091  1.00  0.00    -0.194 NA 
ATOM     14  C   CYS A   1      -6.864  13.856  68.179  1.00  0.00    -0.122 C  
ATOM     15  H2  CYS A   1      -8.934  16.108  66.805  1.00  0.00     0.000 HD 
ATOM     16  H1  CYS A   1      -7.458  16.420  67.547  1.00  0.00     0.000 HD 
ATOM     17  OXT CYS A   1      -6.615  13.037  69.048  1.00  0.00    -0.097 OA 
ATOM     18  O   CYS A   1      -5.949  14.284  67.269  1.00  0.00    -0.300 OA 
ENDBRANCH  11  12
ENDBRANCH  10  11
ENDBRANCH   9  10
ENDBRANCH   8   9
ENDBRANCH   3   8
TORSDOF 5
ENDMDL
MODEL       64
REMARK 921   NORMALIZED FREE ENERGY PREDICTED BY IDOCK:   -3.94 KCAL/MOL
REMARK 922        TOTAL FREE ENERGY PREDICTED BY IDOCK:   -5.70 KCAL/MOL
REMARK 923 INTER-LIGAND FREE ENERGY PREDICTED BY IDOCK:   -5.44 KCAL/MOL
REMARK 924 INTRA-LIGAND FREE ENERGY PREDICTED BY IDOCK:   -0.26 KCAL/MOL
REMARK 927      BINDING AFFINITY PREDICTED BY RF-SCORE:    0.00 PKD
ROOT
ATOM      1  N   CYS A   1     -13.182  12.322  64.272  1.00  0.00    -0.761 NA 
ATOM      2  H2  CYS A   1     -13.461  11.369  64.506  1.00  0.00     0.000 HD 
ATOM      3  CA  CYS A   1     -12.248  12.862  65.312  1.00  0.00    -0.476 C  
ATOM      4  H1  CYS A   1     -14.004  12.902  64.102  1.00  0.00     0.000 HD 
ATOM      5  O   CYS A   1     -12.702  14.803  63.997  1.00  0.00    -0.786 OA 
ATOM      6  C   CYS A   1     -11.806  14.264  64.864  1.00  0.00    -0.410 C  
ATOM      7  OXT CYS A   1     -10.800  14.844  65.239  1.00  0.00    -0.334 OA 
ENDROOT
BRANCH   3   8
ATOM      8  CB  CYS A   1     -11.011  11.990  65.569  1.00  0.00    -0.298 C  
BRANCH   8   9
ATOM      9  SG  CYS A   1     -10.862  11.552  67.340  1.00  0.00    -0.263 SA 
BRANCH   9  10
ATOM     10  SG  CYS A   1     -10.168   9.617  67.241  1.00  0.00    -0.249 SA 
BRANCH  10  11
ATOM     11  CB  CYS A   1     -10.656   8.962  68.877  1.00  0.00    -0.165 C  
BRANCH  11  12
ATOM     12  CA  CYS A   1     -10.435   9.997  69.990  1.00  0.00    -0.287 C  
ATOM     13  N   CYS A   1      -9.253   9.683  70.857  1.00  0.00    -0.345 NA 
ATOM     14  C   CYS A   1     -11.686   9.987  70.870  1.00  0.00    -0.374 C  
ATOM     15  H2  CYS A   1      -8.409   9.568  70.294  1.00  0.00     0.000 HD 
ATOM     16  H1  CYS A   1      -9.106  10.371  71.596  1.00  0.00     0.000 HD 
ATOM     17  OXT CYS A   1     -12.760  10.481  70.571  1.00  0.00    -0.338 OA 
ATOM     18  O   CYS A   1     -11.472   9.304  72.027  1.00  0.00    -0.355 OA 
ENDBRANCH  11  12
ENDBRANCH  10  11
ENDBRANCH   9  10
ENDBRANCH   8   9
ENDBRANCH   3   8
TORSDOF 5
ENDMDL
MODEL       65
REMARK 921   NORMALIZED FREE ENERGY PREDICTED BY IDOCK:   -3.92 KCAL/MOL
REMARK 922        TOTAL FREE ENERGY PREDICTED BY IDOCK:   -5.68 KCAL/MOL
REMARK 923 INTER-LIGAND FREE ENERGY PREDICTED BY IDOCK:   -5.59 KCAL/MOL
REMARK 924 INTRA-LIGAND FREE ENERGY PREDICTED BY IDOCK:   -0.09 KCAL/MOL
REMARK 927      BINDING AFFINITY PREDICTED BY RF-SCORE:    0.00 PKD
ROOT
ATOM      1  N   CYS A   1     -10.987  11.512  63.160  1.00  0.00    -0.782 NA 
ATOM      2  H2  CYS A   1     -10.023  11.208  63.022  1.00  0.00     0.000 HD 
ATOM      3  CA  CYS A   1     -11.131  12.215  64.474  1.00  0.00    -0.325 C  
ATOM      4  H1  CYS A   1     -11.628  10.729  63.028  1.00  0.00     0.000 HD 
ATOM      5  O   CYS A   1     -13.404  11.994  63.779  1.00  0.00    -0.681 OA 
ATOM      6  C   CYS A   1     -12.581  12.712  64.585  1.00  0.00    -0.440 C  
ATOM      7  OXT CYS A   1     -12.967  13.616  65.308  1.00  0.00    -0.719 OA 
ENDROOT
BRANCH   3   8
ATOM      8  CB  CYS A   1     -10.166  13.393  64.674  1.00  0.00    -0.315 C  
BRANCH   8   9
ATOM      9  SG  CYS A   1      -9.484  13.414  66.372  1.00  0.00    -0.172 SA 
BRANCH   9  10
ATOM     10  SG  CYS A   1      -9.138  15.422  66.666  1.00  0.00    -0.301 SA 
BRANCH  10  11
ATOM     11  CB  CYS A   1      -9.022  15.517  68.488  1.00  0.00    -0.191 C  
BRANCH  11  12
ATOM     12  CA  CYS A   1     -10.158  16.361  69.084  1.00  0.00    -0.278 C  
ATOM     13  N   CYS A   1     -11.520  15.825  68.759  1.00  0.00    -0.370 NA 
ATOM     14  C   CYS A   1     -10.042  17.762  68.483  1.00  0.00    -0.377 C  
ATOM     15  H2  CYS A   1     -11.604  14.849  69.043  1.00  0.00     0.000 HD 
ATOM     16  H1  CYS A   1     -12.274  16.386  69.155  1.00  0.00     0.000 HD 
ATOM     17  OXT CYS A   1      -9.208  18.595  68.796  1.00  0.00    -0.330 OA 
ATOM     18  O   CYS A   1     -10.964  17.958  67.503  1.00  0.00    -0.304 OA 
ENDBRANCH  11  12
ENDBRANCH  10  11
ENDBRANCH   9  10
ENDBRANCH   8   9
ENDBRANCH   3   8
TORSDOF 5
ENDMDL
MODEL       66
REMARK 921   NORMALIZED FREE ENERGY PREDICTED BY IDOCK:   -3.91 KCAL/MOL
REMARK 922        TOTAL FREE ENERGY PREDICTED BY IDOCK:   -5.67 KCAL/MOL
REMARK 923 INTER-LIGAND FREE ENERGY PREDICTED BY IDOCK:   -5.40 KCAL/MOL
REMARK 924 INTRA-LIGAND FREE ENERGY PREDICTED BY IDOCK:   -0.27 KCAL/MOL
REMARK 927      BINDING AFFINITY PREDICTED BY RF-SCORE:    0.00 PKD
ROOT
ATOM      1  N   CYS A   1     -10.261  14.017  64.439  1.00  0.00    -0.711 NA 
ATOM      2  H2  CYS A   1      -9.290  13.921  64.737  1.00  0.00     0.000 HD 
ATOM      3  CA  CYS A   1     -10.786  12.708  63.935  1.00  0.00    -0.431 C  
ATOM      4  H1  CYS A   1     -10.356  14.791  63.781  1.00  0.00     0.000 HD 
ATOM      5  O   CYS A   1     -12.542  14.210  63.335  1.00  0.00    -0.818 OA 
ATOM      6  C   CYS A   1     -12.267  12.902  63.576  1.00  0.00    -0.512 C  
ATOM      7  OXT CYS A   1     -13.099  12.013  63.493  1.00  0.00    -0.764 OA 
ENDROOT
BRANCH   3   8
ATOM      8  CB  CYS A   1     -10.644  11.542  64.924  1.00  0.00    -0.303 C  
BRANCH   8   9
ATOM      9  SG  CYS A   1      -9.495  10.267  64.289  1.00  0.00    -0.318 SA 
BRANCH   9  10
ATOM     10  SG  CYS A   1      -8.184  10.056  65.861  1.00  0.00    -0.133 SA 
BRANCH  10  11
ATOM     11  CB  CYS A   1      -9.244  10.478  67.289  1.00  0.00    -0.143 C  
BRANCH  11  12
ATOM     12  CA  CYS A   1      -9.621   9.231  68.103  1.00  0.00    -0.143 C  
ATOM     13  N   CYS A   1     -10.989   8.710  67.779  1.00  0.00    -0.487 NA 
ATOM     14  C   CYS A   1      -9.603   9.633  69.578  1.00  0.00    -0.198 C  
ATOM     15  H2  CYS A   1     -11.084   8.534  66.778  1.00  0.00     0.000 HD 
ATOM     16  H1  CYS A   1     -11.239   7.882  68.319  1.00  0.00     0.000 HD 
ATOM     17  OXT CYS A   1      -8.597   9.811  70.246  1.00  0.00    -0.202 OA 
ATOM     18  O   CYS A   1     -10.862   9.821  70.056  1.00  0.00    -0.239 OA 
ENDBRANCH  11  12
ENDBRANCH  10  11
ENDBRANCH   9  10
ENDBRANCH   8   9
ENDBRANCH   3   8
TORSDOF 5
ENDMDL
MODEL       67
REMARK 921   NORMALIZED FREE ENERGY PREDICTED BY IDOCK:   -3.90 KCAL/MOL
REMARK 922        TOTAL FREE ENERGY PREDICTED BY IDOCK:   -5.66 KCAL/MOL
REMARK 923 INTER-LIGAND FREE ENERGY PREDICTED BY IDOCK:   -5.47 KCAL/MOL
REMARK 924 INTRA-LIGAND FREE ENERGY PREDICTED BY IDOCK:   -0.18 KCAL/MOL
REMARK 927      BINDING AFFINITY PREDICTED BY RF-SCORE:    0.00 PKD
ROOT
ATOM      1  N   CYS A   1     -12.028  14.170  67.528  1.00  0.00    -0.468 NA 
ATOM      2  H2  CYS A   1     -11.371  14.170  68.309  1.00  0.00     0.000 HD 
ATOM      3  CA  CYS A   1     -11.590  13.194  66.479  1.00  0.00    -0.356 C  
ATOM      4  H1  CYS A   1     -12.174  15.120  67.186  1.00  0.00     0.000 HD 
ATOM      5  O   CYS A   1     -13.375  14.338  65.380  1.00  0.00    -0.649 OA 
ATOM      6  C   CYS A   1     -12.656  13.186  65.372  1.00  0.00    -0.454 C  
ATOM      7  OXT CYS A   1     -12.837  12.285  64.569  1.00  0.00    -0.654 OA 
ENDROOT
BRANCH   3   8
ATOM      8  CB  CYS A   1     -11.370  11.764  66.993  1.00  0.00    -0.321 C  
BRANCH   8   9
ATOM      9  SG  CYS A   1     -10.261  11.744  68.448  1.00  0.00    -0.207 SA 
BRANCH   9  10
ATOM     10  SG  CYS A   1     -10.789   9.975  69.359  1.00  0.00    -0.247 SA 
BRANCH  10  11
ATOM     11  CB  CYS A   1     -12.064  10.532  70.545  1.00  0.00    -0.345 C  
BRANCH  11  12
ATOM     12  CA  CYS A   1     -12.072   9.669  71.815  1.00  0.00    -0.369 C  
ATOM     13  N   CYS A   1     -10.799   8.902  72.011  1.00  0.00    -0.358 NA 
ATOM     14  C   CYS A   1     -13.215   8.663  71.669  1.00  0.00    -0.346 C  
ATOM     15  H2  CYS A   1      -9.992   9.527  72.001  1.00  0.00     0.000 HD 
ATOM     16  H1  CYS A   1     -10.805   8.329  72.855  1.00  0.00     0.000 HD 
ATOM     17  OXT CYS A   1     -14.400   8.923  71.793  1.00  0.00    -0.352 OA 
ATOM     18  O   CYS A   1     -12.750   7.431  71.330  1.00  0.00    -0.349 OA 
ENDBRANCH  11  12
ENDBRANCH  10  11
ENDBRANCH   9  10
ENDBRANCH   8   9
ENDBRANCH   3   8
TORSDOF 5
ENDMDL
MODEL       68
REMARK 921   NORMALIZED FREE ENERGY PREDICTED BY IDOCK:   -3.90 KCAL/MOL
REMARK 922        TOTAL FREE ENERGY PREDICTED BY IDOCK:   -5.65 KCAL/MOL
REMARK 923 INTER-LIGAND FREE ENERGY PREDICTED BY IDOCK:   -5.42 KCAL/MOL
REMARK 924 INTRA-LIGAND FREE ENERGY PREDICTED BY IDOCK:   -0.23 KCAL/MOL
REMARK 927      BINDING AFFINITY PREDICTED BY RF-SCORE:    0.00 PKD
ROOT
ATOM      1  N   CYS A   1      -7.955  16.915  68.018  1.00  0.00    -0.180 NA 
ATOM      2  H2  CYS A   1      -7.858  16.200  68.740  1.00  0.00     0.000 HD 
ATOM      3  CA  CYS A   1      -9.222  16.708  67.245  1.00  0.00    -0.221 C  
ATOM      4  H1  CYS A   1      -7.113  16.958  67.444  1.00  0.00     0.000 HD 
ATOM      5  O   CYS A   1      -8.133  18.406  65.968  1.00  0.00    -0.466 OA 
ATOM      6  C   CYS A   1      -9.346  17.855  66.231  1.00  0.00    -0.197 C  
ATOM      7  OXT CYS A   1     -10.382  18.227  65.704  1.00  0.00    -0.607 OA 
ENDROOT
BRANCH   3   8
ATOM      8  CB  CYS A   1     -10.490  16.643  68.108  1.00  0.00    -0.321 C  
BRANCH   8   9
ATOM      9  SG  CYS A   1     -11.277  14.993  68.012  1.00  0.00    -0.327 SA 
BRANCH   9  10
ATOM     10  SG  CYS A   1     -10.778  14.396  66.107  1.00  0.00    -0.313 SA 
BRANCH  10  11
ATOM     11  CB  CYS A   1     -11.162  12.609  66.164  1.00  0.00    -0.309 C  
BRANCH  11  12
ATOM     12  CA  CYS A   1     -11.069  11.965  64.773  1.00  0.00    -0.311 C  
ATOM     13  N   CYS A   1      -9.885  12.440  63.985  1.00  0.00    -0.594 NA 
ATOM     14  C   CYS A   1     -12.335  12.355  64.010  1.00  0.00    -0.488 C  
ATOM     15  H2  CYS A   1      -9.020  12.302  64.509  1.00  0.00     0.000 HD 
ATOM     16  H1  CYS A   1      -9.823  12.011  63.061  1.00  0.00     0.000 HD 
ATOM     17  OXT CYS A   1     -13.443  11.881  64.197  1.00  0.00    -0.591 OA 
ATOM     18  O   CYS A   1     -12.088  13.349  63.114  1.00  0.00    -0.493 OA 
ENDBRANCH  11  12
ENDBRANCH  10  11
ENDBRANCH   9  10
ENDBRANCH   8   9
ENDBRANCH   3   8
TORSDOF 5
ENDMDL
MODEL       69
REMARK 921   NORMALIZED FREE ENERGY PREDICTED BY IDOCK:   -3.89 KCAL/MOL
REMARK 922        TOTAL FREE ENERGY PREDICTED BY IDOCK:   -5.65 KCAL/MOL
REMARK 923 INTER-LIGAND FREE ENERGY PREDICTED BY IDOCK:   -5.03 KCAL/MOL
REMARK 924 INTRA-LIGAND FREE ENERGY PREDICTED BY IDOCK:   -0.62 KCAL/MOL
REMARK 927      BINDING AFFINITY PREDICTED BY RF-SCORE:    0.00 PKD
ROOT
ATOM      1  N   CYS A   1     -10.203  12.774  63.472  1.00  0.00    -0.644 NA 
ATOM      2  H2  CYS A   1      -9.200  12.638  63.598  1.00  0.00     0.000 HD 
ATOM      3  CA  CYS A   1     -10.867  13.015  64.793  1.00  0.00    -0.337 C  
ATOM      4  H1  CYS A   1     -10.601  12.005  62.933  1.00  0.00     0.000 HD 
ATOM      5  O   CYS A   1     -12.740  12.768  63.332  1.00  0.00    -0.698 OA 
ATOM      6  C   CYS A   1     -12.356  13.288  64.527  1.00  0.00    -0.368 C  
ATOM      7  OXT CYS A   1     -13.115  13.873  65.281  1.00  0.00    -0.777 OA 
ENDROOT
BRANCH   3   8
ATOM      8  CB  CYS A   1     -10.269  14.172  65.605  1.00  0.00    -0.339 C  
BRANCH   8   9
ATOM      9  SG  CYS A   1      -9.511  13.573  67.159  1.00  0.00    -0.253 SA 
BRANCH   9  10
ATOM     10  SG  CYS A   1     -10.620  11.882  67.546  1.00  0.00    -0.227 SA 
BRANCH  10  11
ATOM     11  CB  CYS A   1      -9.441  10.555  67.109  1.00  0.00    -0.159 C  
BRANCH  11  12
ATOM     12  CA  CYS A   1      -9.996   9.647  66.002  1.00  0.00    -0.274 C  
ATOM     13  N   CYS A   1     -10.366   8.280  66.494  1.00  0.00    -0.423 NA 
ATOM     14  C   CYS A   1      -8.895   9.492  64.951  1.00  0.00    -0.203 C  
ATOM     15  H2  CYS A   1     -11.018   8.340  67.277  1.00  0.00     0.000 HD 
ATOM     16  H1  CYS A   1     -10.735   7.678  65.758  1.00  0.00     0.000 HD 
ATOM     17  OXT CYS A   1      -8.570  10.345  64.142  1.00  0.00    -0.177 OA 
ATOM     18  O   CYS A   1      -8.273   8.287  65.060  1.00  0.00    -0.146 OA 
ENDBRANCH  11  12
ENDBRANCH  10  11
ENDBRANCH   9  10
ENDBRANCH   8   9
ENDBRANCH   3   8
TORSDOF 5
ENDMDL
MODEL       70
REMARK 921   NORMALIZED FREE ENERGY PREDICTED BY IDOCK:   -3.89 KCAL/MOL
REMARK 922        TOTAL FREE ENERGY PREDICTED BY IDOCK:   -5.65 KCAL/MOL
REMARK 923 INTER-LIGAND FREE ENERGY PREDICTED BY IDOCK:   -5.06 KCAL/MOL
REMARK 924 INTRA-LIGAND FREE ENERGY PREDICTED BY IDOCK:   -0.59 KCAL/MOL
REMARK 927      BINDING AFFINITY PREDICTED BY RF-SCORE:    0.00 PKD
ROOT
ATOM      1  N   CYS A   1      -8.403  12.370  66.560  1.00  0.00    -0.402 NA 
ATOM      2  H2  CYS A   1      -8.860  13.097  67.111  1.00  0.00     0.000 HD 
ATOM      3  CA  CYS A   1      -9.047  11.041  66.811  1.00  0.00    -0.162 C  
ATOM      4  H1  CYS A   1      -7.395  12.386  66.717  1.00  0.00     0.000 HD 
ATOM      5  O   CYS A   1      -7.129  10.428  65.529  1.00  0.00    -0.140 OA 
ATOM      6  C   CYS A   1      -8.367  10.009  65.898  1.00  0.00    -0.127 C  
ATOM      7  OXT CYS A   1      -8.846   8.941  65.555  1.00  0.00    -0.178 OA 
ENDROOT
BRANCH   3   8
ATOM      8  CB  CYS A   1     -10.564  11.016  66.576  1.00  0.00    -0.254 C  
BRANCH   8   9
ATOM      9  SG  CYS A   1     -10.996  11.724  64.944  1.00  0.00    -0.284 SA 
BRANCH   9  10
ATOM     10  SG  CYS A   1     -12.464  13.078  65.444  1.00  0.00    -0.410 SA 
BRANCH  10  11
ATOM     11  CB  CYS A   1     -11.482  14.440  66.168  1.00  0.00    -0.357 C  
BRANCH  11  12
ATOM     12  CA  CYS A   1     -10.479  15.014  65.157  1.00  0.00    -0.412 C  
ATOM     13  N   CYS A   1      -9.137  15.302  65.761  1.00  0.00    -0.408 NA 
ATOM     14  C   CYS A   1     -11.061  16.331  64.641  1.00  0.00    -0.246 C  
ATOM     15  H2  CYS A   1      -8.759  14.473  66.220  1.00  0.00     0.000 HD 
ATOM     16  H1  CYS A   1      -8.471  15.683  65.089  1.00  0.00     0.000 HD 
ATOM     17  OXT CYS A   1     -11.979  16.429  63.844  1.00  0.00    -1.023 OA 
ATOM     18  O   CYS A   1     -10.458  17.401  65.225  1.00  0.00    -0.654 OA 
ENDBRANCH  11  12
ENDBRANCH  10  11
ENDBRANCH   9  10
ENDBRANCH   8   9
ENDBRANCH   3   8
TORSDOF 5
ENDMDL
MODEL       71
REMARK 921   NORMALIZED FREE ENERGY PREDICTED BY IDOCK:   -3.89 KCAL/MOL
REMARK 922        TOTAL FREE ENERGY PREDICTED BY IDOCK:   -5.64 KCAL/MOL
REMARK 923 INTER-LIGAND FREE ENERGY PREDICTED BY IDOCK:   -5.40 KCAL/MOL
REMARK 924 INTRA-LIGAND FREE ENERGY PREDICTED BY IDOCK:   -0.25 KCAL/MOL
REMARK 927      BINDING AFFINITY PREDICTED BY RF-SCORE:    0.00 PKD
ROOT
ATOM      1  N   CYS A   1     -11.129  15.332  64.643  1.00  0.00    -0.631 NA 
ATOM      2  H2  CYS A   1     -10.526  15.858  65.276  1.00  0.00     0.000 HD 
ATOM      3  CA  CYS A   1     -11.517  14.023  65.257  1.00  0.00    -0.322 C  
ATOM      4  H1  CYS A   1     -10.696  15.255  63.722  1.00  0.00     0.000 HD 
ATOM      5  O   CYS A   1     -12.327  13.782  63.024  1.00  0.00    -0.661 OA 
ATOM      6  C   CYS A   1     -12.481  13.317  64.291  1.00  0.00    -0.269 C  
ATOM      7  OXT CYS A   1     -13.274  12.441  64.594  1.00  0.00    -0.822 OA 
ENDROOT
BRANCH   3   8
ATOM      8  CB  CYS A   1     -12.169  14.139  66.642  1.00  0.00    -0.418 C  
BRANCH   8   9
ATOM      9  SG  CYS A   1     -11.046  13.541  67.958  1.00  0.00    -0.271 SA 
BRANCH   9  10
ATOM     10  SG  CYS A   1     -10.722  11.590  67.385  1.00  0.00    -0.247 SA 
BRANCH  10  11
ATOM     11  CB  CYS A   1     -10.238  10.813  68.968  1.00  0.00    -0.213 C  
BRANCH  11  12
ATOM     12  CA  CYS A   1     -11.464  10.355  69.771  1.00  0.00    -0.280 C  
ATOM     13  N   CYS A   1     -11.873  11.336  70.829  1.00  0.00    -0.397 NA 
ATOM     14  C   CYS A   1     -11.087   9.043  70.461  1.00  0.00    -0.254 C  
ATOM     15  H2  CYS A   1     -12.026  12.261  70.427  1.00  0.00     0.000 HD 
ATOM     16  H1  CYS A   1     -12.687  11.031  71.362  1.00  0.00     0.000 HD 
ATOM     17  OXT CYS A   1     -10.996   7.959  69.909  1.00  0.00    -0.243 OA 
ATOM     18  O   CYS A   1     -10.809   9.237  71.778  1.00  0.00    -0.368 OA 
ENDBRANCH  11  12
ENDBRANCH  10  11
ENDBRANCH   9  10
ENDBRANCH   8   9
ENDBRANCH   3   8
TORSDOF 5
ENDMDL
MODEL       72
REMARK 921   NORMALIZED FREE ENERGY PREDICTED BY IDOCK:   -3.89 KCAL/MOL
REMARK 922        TOTAL FREE ENERGY PREDICTED BY IDOCK:   -5.64 KCAL/MOL
REMARK 923 INTER-LIGAND FREE ENERGY PREDICTED BY IDOCK:   -5.37 KCAL/MOL
REMARK 924 INTRA-LIGAND FREE ENERGY PREDICTED BY IDOCK:   -0.27 KCAL/MOL
REMARK 927      BINDING AFFINITY PREDICTED BY RF-SCORE:    0.00 PKD
ROOT
ATOM      1  N   CYS A   1     -11.435  16.412  63.831  1.00  0.00    -1.618 NA 
ATOM      2  H2  CYS A   1     -11.951  15.725  63.281  1.00  0.00     0.000 HD 
ATOM      3  CA  CYS A   1     -11.147  15.874  65.200  1.00  0.00    -0.311 C  
ATOM      4  H1  CYS A   1     -11.920  17.309  63.824  1.00  0.00     0.000 HD 
ATOM      5  O   CYS A   1     -10.478  18.157  65.412  1.00  0.00    -0.598 OA 
ATOM      6  C   CYS A   1     -10.307  16.921  65.948  1.00  0.00    -0.315 C  
ATOM      7  OXT CYS A   1      -9.589  16.698  66.909  1.00  0.00    -0.235 OA 
ENDROOT
BRANCH   3   8
ATOM      8  CB  CYS A   1     -10.418  14.523  65.212  1.00  0.00    -0.390 C  
BRANCH   8   9
ATOM      9  SG  CYS A   1     -11.299  13.283  64.194  1.00  0.00    -0.369 SA 
BRANCH   9  10
ATOM     10  SG  CYS A   1     -10.967  11.551  65.256  1.00  0.00    -0.182 SA 
BRANCH  10  11
ATOM     11  CB  CYS A   1     -11.681  11.971  66.886  1.00  0.00    -0.266 C  
BRANCH  11  12
ATOM     12  CA  CYS A   1     -10.663  11.772  68.018  1.00  0.00    -0.208 C  
ATOM     13  N   CYS A   1      -9.271  11.524  67.519  1.00  0.00    -0.164 NA 
ATOM     14  C   CYS A   1     -11.107  10.544  68.814  1.00  0.00    -0.265 C  
ATOM     15  H2  CYS A   1      -8.973  12.268  66.887  1.00  0.00     0.000 HD 
ATOM     16  H1  CYS A   1      -8.595  11.392  68.271  1.00  0.00     0.000 HD 
ATOM     17  OXT CYS A   1     -12.042  10.515  69.598  1.00  0.00    -0.252 OA 
ATOM     18  O   CYS A   1     -10.357   9.453  68.503  1.00  0.00    -0.196 OA 
ENDBRANCH  11  12
ENDBRANCH  10  11
ENDBRANCH   9  10
ENDBRANCH   8   9
ENDBRANCH   3   8
TORSDOF 5
ENDMDL
MODEL       73
REMARK 921   NORMALIZED FREE ENERGY PREDICTED BY IDOCK:   -3.84 KCAL/MOL
REMARK 922        TOTAL FREE ENERGY PREDICTED BY IDOCK:   -5.58 KCAL/MOL
REMARK 923 INTER-LIGAND FREE ENERGY PREDICTED BY IDOCK:   -5.44 KCAL/MOL
REMARK 924 INTRA-LIGAND FREE ENERGY PREDICTED BY IDOCK:   -0.14 KCAL/MOL
REMARK 927      BINDING AFFINITY PREDICTED BY RF-SCORE:    0.00 PKD
ROOT
ATOM      1  N   CYS A   1     -13.125  13.829  65.240  1.00  0.00    -0.744 NA 
ATOM      2  H2  CYS A   1     -13.948  13.316  65.557  1.00  0.00     0.000 HD 
ATOM      3  CA  CYS A   1     -12.134  13.968  66.355  1.00  0.00    -0.455 C  
ATOM      4  H1  CYS A   1     -13.402  14.712  64.809  1.00  0.00     0.000 HD 
ATOM      5  O   CYS A   1     -11.203  15.396  64.682  1.00  0.00    -0.407 OA 
ATOM      6  C   CYS A   1     -10.893  14.680  65.794  1.00  0.00    -0.323 C  
ATOM      7  OXT CYS A   1      -9.773  14.638  66.276  1.00  0.00    -0.276 OA 
ENDROOT
BRANCH   3   8
ATOM      8  CB  CYS A   1     -11.717  12.641  67.004  1.00  0.00    -0.369 C  
BRANCH   8   9
ATOM      9  SG  CYS A   1     -11.651  12.785  68.828  1.00  0.00    -0.330 SA 
BRANCH   9  10
ATOM     10  SG  CYS A   1     -11.259  10.844  69.392  1.00  0.00    -0.297 SA 
BRANCH  10  11
ATOM     11  CB  CYS A   1     -12.686  10.475  70.473  1.00  0.00    -0.305 C  
BRANCH  11  12
ATOM     12  CA  CYS A   1     -12.424   9.246  71.356  1.00  0.00    -0.341 C  
ATOM     13  N   CYS A   1     -12.000   8.040  70.573  1.00  0.00    -0.483 NA 
ATOM     14  C   CYS A   1     -13.736   8.914  72.067  1.00  0.00    -0.459 C  
ATOM     15  H2  CYS A   1     -11.188   8.251  69.991  1.00  0.00     0.000 HD 
ATOM     16  H1  CYS A   1     -11.827   7.224  71.160  1.00  0.00     0.000 HD 
ATOM     17  OXT CYS A   1     -14.205   9.536  73.006  1.00  0.00    -0.219 OA 
ATOM     18  O   CYS A   1     -14.360   7.853  71.487  1.00  0.00    -0.429 OA 
ENDBRANCH  11  12
ENDBRANCH  10  11
ENDBRANCH   9  10
ENDBRANCH   8   9
ENDBRANCH   3   8
TORSDOF 5
ENDMDL
MODEL       74
REMARK 921   NORMALIZED FREE ENERGY PREDICTED BY IDOCK:   -3.83 KCAL/MOL
REMARK 922        TOTAL FREE ENERGY PREDICTED BY IDOCK:   -5.57 KCAL/MOL
REMARK 923 INTER-LIGAND FREE ENERGY PREDICTED BY IDOCK:   -5.04 KCAL/MOL
REMARK 924 INTRA-LIGAND FREE ENERGY PREDICTED BY IDOCK:   -0.53 KCAL/MOL
REMARK 927      BINDING AFFINITY PREDICTED BY RF-SCORE:    0.00 PKD
ROOT
ATOM      1  N   CYS A   1     -10.948  15.589  67.248  1.00  0.00    -0.318 NA 
ATOM      2  H2  CYS A   1     -10.882  14.589  67.057  1.00  0.00     0.000 HD 
ATOM      3  CA  CYS A   1     -10.356  16.376  66.119  1.00  0.00    -0.344 C  
ATOM      4  H1  CYS A   1     -10.552  15.802  68.164  1.00  0.00     0.000 HD 
ATOM      5  O   CYS A   1     -10.722  18.067  67.765  1.00  0.00    -0.410 OA 
ATOM      6  C   CYS A   1     -10.554  17.867  66.433  1.00  0.00    -0.235 C  
ATOM      7  OXT CYS A   1     -10.545  18.771  65.613  1.00  0.00    -0.596 OA 
ENDROOT
BRANCH   3   8
ATOM      8  CB  CYS A   1     -10.950  16.056  64.741  1.00  0.00    -0.356 C  
BRANCH   8   9
ATOM      9  SG  CYS A   1     -11.970  14.537  64.792  1.00  0.00    -0.443 SA 
BRANCH   9  10
ATOM     10  SG  CYS A   1     -10.542  13.062  64.632  1.00  0.00    -0.395 SA 
BRANCH  10  11
ATOM     11  CB  CYS A   1     -11.273  11.725  65.642  1.00  0.00    -0.267 C  
BRANCH  11  12
ATOM     12  CA  CYS A   1     -10.637  11.658  67.038  1.00  0.00    -0.237 C  
ATOM     13  N   CYS A   1     -10.167  10.282  67.403  1.00  0.00    -0.205 NA 
ATOM     14  C   CYS A   1     -11.710  12.076  68.043  1.00  0.00    -0.331 C  
ATOM     15  H2  CYS A   1      -9.531   9.915  66.695  1.00  0.00     0.000 HD 
ATOM     16  H1  CYS A   1      -9.744  10.238  68.331  1.00  0.00     0.000 HD 
ATOM     17  OXT CYS A   1     -12.092  13.220  68.230  1.00  0.00    -0.333 OA 
ATOM     18  O   CYS A   1     -12.238  10.998  68.682  1.00  0.00    -0.571 OA 
ENDBRANCH  11  12
ENDBRANCH  10  11
ENDBRANCH   9  10
ENDBRANCH   8   9
ENDBRANCH   3   8
TORSDOF 5
ENDMDL
MODEL       75
REMARK 921   NORMALIZED FREE ENERGY PREDICTED BY IDOCK:   -3.81 KCAL/MOL
REMARK 922        TOTAL FREE ENERGY PREDICTED BY IDOCK:   -5.54 KCAL/MOL
REMARK 923 INTER-LIGAND FREE ENERGY PREDICTED BY IDOCK:   -4.72 KCAL/MOL
REMARK 924 INTRA-LIGAND FREE ENERGY PREDICTED BY IDOCK:   -0.82 KCAL/MOL
REMARK 927      BINDING AFFINITY PREDICTED BY RF-SCORE:    0.00 PKD
ROOT
ATOM      1  N   CYS A   1     -11.904  14.151  70.948  1.00  0.00    -0.488 NA 
ATOM      2  H2  CYS A   1     -11.431  14.536  70.130  1.00  0.00     0.000 HD 
ATOM      3  CA  CYS A   1     -12.594  12.869  70.598  1.00  0.00    -0.177 C  
ATOM      4  H1  CYS A   1     -12.510  14.855  71.372  1.00  0.00     0.000 HD 
ATOM      5  O   CYS A   1     -13.413  13.287  72.802  1.00  0.00    -0.575 OA 
ATOM      6  C   CYS A   1     -13.218  12.305  71.884  1.00  0.00    -0.376 C  
ATOM      7  OXT CYS A   1     -13.525  11.139  72.071  1.00  0.00    -0.376 OA 
ENDROOT
BRANCH   3   8
ATOM      8  CB  CYS A   1     -11.682  11.810  69.961  1.00  0.00    -0.305 C  
BRANCH   8   9
ATOM      9  SG  CYS A   1     -11.764  11.874  68.134  1.00  0.00    -0.286 SA 
BRANCH   9  10
ATOM     10  SG  CYS A   1     -10.022  12.866  67.666  1.00  0.00    -0.223 SA 
BRANCH  10  11
ATOM     11  CB  CYS A   1     -10.595  14.599  67.565  1.00  0.00    -0.257 C  
BRANCH  11  12
ATOM     12  CA  CYS A   1      -9.673  15.547  68.346  1.00  0.00    -0.203 C  
ATOM     13  N   CYS A   1      -9.178  14.957  69.632  1.00  0.00    -0.446 NA 
ATOM     14  C   CYS A   1     -10.489  16.797  68.679  1.00  0.00    -0.333 C  
ATOM     15  H2  CYS A   1      -8.723  14.059  69.469  1.00  0.00     0.000 HD 
ATOM     16  H1  CYS A   1      -8.566  15.587  70.150  1.00  0.00     0.000 HD 
ATOM     17  OXT CYS A   1     -10.785  17.676  67.886  1.00  0.00    -0.394 OA 
ATOM     18  O   CYS A   1     -10.899  16.790  69.976  1.00  0.00    -0.282 OA 
ENDBRANCH  11  12
ENDBRANCH  10  11
ENDBRANCH   9  10
ENDBRANCH   8   9
ENDBRANCH   3   8
TORSDOF 5
ENDMDL
MODEL       76
REMARK 921   NORMALIZED FREE ENERGY PREDICTED BY IDOCK:   -3.77 KCAL/MOL
REMARK 922        TOTAL FREE ENERGY PREDICTED BY IDOCK:   -5.48 KCAL/MOL
REMARK 923 INTER-LIGAND FREE ENERGY PREDICTED BY IDOCK:   -4.91 KCAL/MOL
REMARK 924 INTRA-LIGAND FREE ENERGY PREDICTED BY IDOCK:   -0.57 KCAL/MOL
REMARK 927      BINDING AFFINITY PREDICTED BY RF-SCORE:    0.00 PKD
ROOT
ATOM      1  N   CYS A   1     -11.727  12.998  63.121  1.00  0.00    -0.830 NA 
ATOM      2  H2  CYS A   1     -11.196  12.660  62.317  1.00  0.00     0.000 HD 
ATOM      3  CA  CYS A   1     -11.534  12.086  64.294  1.00  0.00    -0.361 C  
ATOM      4  H1  CYS A   1     -12.702  13.153  62.863  1.00  0.00     0.000 HD 
ATOM      5  O   CYS A   1     -13.276  13.526  65.065  1.00  0.00    -0.721 OA 
ATOM      6  C   CYS A   1     -12.293  12.689  65.487  1.00  0.00    -0.391 C  
ATOM      7  OXT CYS A   1     -12.074  12.446  66.662  1.00  0.00    -0.592 OA 
ENDROOT
BRANCH   3   8
ATOM      8  CB  CYS A   1     -10.067  11.852  64.683  1.00  0.00    -0.269 C  
BRANCH   8   9
ATOM      9  SG  CYS A   1      -9.851  10.241  65.525  1.00  0.00    -0.294 SA 
BRANCH   9  10
ATOM     10  SG  CYS A   1      -8.863  10.790  67.245  1.00  0.00    -0.133 SA 
BRANCH  10  11
ATOM     11  CB  CYS A   1      -8.551  12.566  66.943  1.00  0.00    -0.158 C  
BRANCH  11  12
ATOM     12  CA  CYS A   1      -8.885  13.417  68.177  1.00  0.00    -0.180 C  
ATOM     13  N   CYS A   1     -10.206  13.065  68.793  1.00  0.00    -0.413 NA 
ATOM     14  C   CYS A   1      -8.949  14.874  67.716  1.00  0.00    -0.177 C  
ATOM     15  H2  CYS A   1     -10.250  12.070  69.014  1.00  0.00     0.000 HD 
ATOM     16  H1  CYS A   1     -10.427  13.630  69.612  1.00  0.00     0.000 HD 
ATOM     17  OXT CYS A   1      -7.984  15.571  67.450  1.00  0.00    -0.153 OA 
ATOM     18  O   CYS A   1     -10.236  15.296  67.585  1.00  0.00    -0.238 OA 
ENDBRANCH  11  12
ENDBRANCH  10  11
ENDBRANCH   9  10
ENDBRANCH   8   9
ENDBRANCH   3   8
TORSDOF 5
ENDMDL
MODEL       77
REMARK 921   NORMALIZED FREE ENERGY PREDICTED BY IDOCK:   -3.76 KCAL/MOL
REMARK 922        TOTAL FREE ENERGY PREDICTED BY IDOCK:   -5.48 KCAL/MOL
REMARK 923 INTER-LIGAND FREE ENERGY PREDICTED BY IDOCK:   -5.23 KCAL/MOL
REMARK 924 INTRA-LIGAND FREE ENERGY PREDICTED BY IDOCK:   -0.25 KCAL/MOL
REMARK 927      BINDING AFFINITY PREDICTED BY RF-SCORE:    0.00 PKD
ROOT
ATOM      1  N   CYS A   1     -14.060  12.994  72.572  1.00  0.00    -0.654 NA 
ATOM      2  H2  CYS A   1     -13.838  12.010  72.721  1.00  0.00     0.000 HD 
ATOM      3  CA  CYS A   1     -12.958  13.671  71.815  1.00  0.00    -0.353 C  
ATOM      4  H1  CYS A   1     -14.302  13.442  73.456  1.00  0.00     0.000 HD 
ATOM      5  O   CYS A   1     -14.328  15.519  72.454  1.00  0.00    -0.558 OA 
ATOM      6  C   CYS A   1     -13.388  15.123  71.558  1.00  0.00    -0.448 C  
ATOM      7  OXT CYS A   1     -12.943  15.850  70.684  1.00  0.00    -0.467 OA 
ENDROOT
BRANCH   3   8
ATOM      8  CB  CYS A   1     -12.594  12.997  70.484  1.00  0.00    -0.147 C  
BRANCH   8   9
ATOM      9  SG  CYS A   1     -12.329  11.199  70.699  1.00  0.00    -0.388 SA 
BRANCH   9  10
ATOM     10  SG  CYS A   1     -10.961  10.792  69.217  1.00  0.00    -0.260 SA 
BRANCH  10  11
ATOM     11  CB  CYS A   1     -11.878  11.290  67.716  1.00  0.00    -0.084 C  
BRANCH  11  12
ATOM     12  CA  CYS A   1     -11.032  12.195  66.809  1.00  0.00    -0.280 C  
ATOM     13  N   CYS A   1     -10.330  13.287  67.560  1.00  0.00    -0.228 NA 
ATOM     14  C   CYS A   1     -11.985  12.846  65.806  1.00  0.00    -0.443 C  
ATOM     15  H2  CYS A   1      -9.766  12.902  68.319  1.00  0.00     0.000 HD 
ATOM     16  H1  CYS A   1      -9.768  13.888  66.957  1.00  0.00     0.000 HD 
ATOM     17  OXT CYS A   1     -12.484  12.285  64.844  1.00  0.00    -0.500 OA 
ATOM     18  O   CYS A   1     -12.257  14.135  66.145  1.00  0.00    -0.424 OA 
ENDBRANCH  11  12
ENDBRANCH  10  11
ENDBRANCH   9  10
ENDBRANCH   8   9
ENDBRANCH   3   8
TORSDOF 5
ENDMDL
MODEL       78
REMARK 921   NORMALIZED FREE ENERGY PREDICTED BY IDOCK:   -3.76 KCAL/MOL
REMARK 922        TOTAL FREE ENERGY PREDICTED BY IDOCK:   -5.48 KCAL/MOL
REMARK 923 INTER-LIGAND FREE ENERGY PREDICTED BY IDOCK:   -5.25 KCAL/MOL
REMARK 924 INTRA-LIGAND FREE ENERGY PREDICTED BY IDOCK:   -0.23 KCAL/MOL
REMARK 927      BINDING AFFINITY PREDICTED BY RF-SCORE:    0.00 PKD
ROOT
ATOM      1  N   CYS A   1     -10.765  18.974  67.648  1.00  0.00    -0.438 NA 
ATOM      2  H2  CYS A   1     -11.391  18.812  68.437  1.00  0.00     0.000 HD 
ATOM      3  CA  CYS A   1      -9.717  17.906  67.586  1.00  0.00    -0.280 C  
ATOM      4  H1  CYS A   1     -10.396  19.925  67.676  1.00  0.00     0.000 HD 
ATOM      5  O   CYS A   1      -8.935  19.463  65.953  1.00  0.00    -0.422 OA 
ATOM      6  C   CYS A   1      -8.857  18.163  66.339  1.00  0.00    -0.236 C  
ATOM      7  OXT CYS A   1      -8.172  17.331  65.766  1.00  0.00    -0.533 OA 
ENDROOT
BRANCH   3   8
ATOM      8  CB  CYS A   1     -10.270  16.474  67.544  1.00  0.00    -0.283 C  
BRANCH   8   9
ATOM      9  SG  CYS A   1     -11.235  16.090  69.051  1.00  0.00    -0.355 SA 
BRANCH   9  10
ATOM     10  SG  CYS A   1     -11.729  14.115  68.745  1.00  0.00    -0.362 SA 
BRANCH  10  11
ATOM     11  CB  CYS A   1     -12.047  14.084  66.945  1.00  0.00    -0.430 C  
BRANCH  11  12
ATOM     12  CA  CYS A   1     -11.884  12.672  66.365  1.00  0.00    -0.402 C  
ATOM     13  N   CYS A   1     -11.746  11.616  67.421  1.00  0.00    -0.606 NA 
ATOM     14  C   CYS A   1     -10.605  12.675  65.526  1.00  0.00    -0.276 C  
ATOM     15  H2  CYS A   1     -12.527  11.653  68.076  1.00  0.00     0.000 HD 
ATOM     16  H1  CYS A   1     -11.637  10.678  67.035  1.00  0.00     0.000 HD 
ATOM     17  OXT CYS A   1     -10.489  13.182  64.422  1.00  0.00    -0.393 OA 
ATOM     18  O   CYS A   1      -9.577  12.077  66.186  1.00  0.00    -0.232 OA 
ENDBRANCH  11  12
ENDBRANCH  10  11
ENDBRANCH   9  10
ENDBRANCH   8   9
ENDBRANCH   3   8
TORSDOF 5
ENDMDL
MODEL       79
REMARK 921   NORMALIZED FREE ENERGY PREDICTED BY IDOCK:   -3.76 KCAL/MOL
REMARK 922        TOTAL FREE ENERGY PREDICTED BY IDOCK:   -5.47 KCAL/MOL
REMARK 923 INTER-LIGAND FREE ENERGY PREDICTED BY IDOCK:   -5.07 KCAL/MOL
REMARK 924 INTRA-LIGAND FREE ENERGY PREDICTED BY IDOCK:   -0.40 KCAL/MOL
REMARK 927      BINDING AFFINITY PREDICTED BY RF-SCORE:    0.00 PKD
ROOT
ATOM      1  N   CYS A   1     -10.546  14.778  64.257  1.00  0.00    -0.403 NA 
ATOM      2  H2  CYS A   1      -9.620  15.197  64.171  1.00  0.00     0.000 HD 
ATOM      3  CA  CYS A   1     -10.460  13.461  64.965  1.00  0.00    -0.365 C  
ATOM      4  H1  CYS A   1     -11.004  14.737  63.346  1.00  0.00     0.000 HD 
ATOM      5  O   CYS A   1     -12.725  13.470  64.212  1.00  0.00    -0.645 OA 
ATOM      6  C   CYS A   1     -11.889  12.921  65.129  1.00  0.00    -0.380 C  
ATOM      7  OXT CYS A   1     -12.244  12.094  65.954  1.00  0.00    -0.604 OA 
ENDROOT
BRANCH   3   8
ATOM      8  CB  CYS A   1      -9.771  13.521  66.336  1.00  0.00    -0.289 C  
BRANCH   8   9
ATOM      9  SG  CYS A   1     -10.110  15.108  67.182  1.00  0.00    -0.242 SA 
BRANCH   9  10
ATOM     10  SG  CYS A   1      -8.289  16.058  67.049  1.00  0.00    -0.244 SA 
BRANCH  10  11
ATOM     11  CB  CYS A   1      -8.688  17.480  65.973  1.00  0.00    -0.034 C  
BRANCH  11  12
ATOM     12  CA  CYS A   1      -8.871  18.771  66.785  1.00  0.00    -0.305 C  
ATOM     13  N   CYS A   1      -8.542  18.602  68.238  1.00  0.00    -0.312 NA 
ATOM     14  C   CYS A   1     -10.343  19.169  66.674  1.00  0.00    -0.430 C  
ATOM     15  H2  CYS A   1      -7.601  18.227  68.357  1.00  0.00     0.000 HD 
ATOM     16  H1  CYS A   1      -8.664  19.459  68.777  1.00  0.00     0.000 HD 
ATOM     17  OXT CYS A   1     -10.865  19.669  65.691  1.00  0.00    -0.473 OA 
ATOM     18  O   CYS A   1     -11.030  18.848  67.804  1.00  0.00    -0.344 OA 
ENDBRANCH  11  12
ENDBRANCH  10  11
ENDBRANCH   9  10
ENDBRANCH   8   9
ENDBRANCH   3   8
TORSDOF 5
ENDMDL
MODEL       80
REMARK 921   NORMALIZED FREE ENERGY PREDICTED BY IDOCK:   -3.75 KCAL/MOL
REMARK 922        TOTAL FREE ENERGY PREDICTED BY IDOCK:   -5.46 KCAL/MOL
REMARK 923 INTER-LIGAND FREE ENERGY PREDICTED BY IDOCK:   -5.10 KCAL/MOL
REMARK 924 INTRA-LIGAND FREE ENERGY PREDICTED BY IDOCK:   -0.36 KCAL/MOL
REMARK 927      BINDING AFFINITY PREDICTED BY RF-SCORE:    0.00 PKD
ROOT
ATOM      1  N   CYS A   1     -11.883  11.376  67.847  1.00  0.00    -0.632 NA 
ATOM      2  H2  CYS A   1     -12.902  11.321  67.867  1.00  0.00     0.000 HD 
ATOM      3  CA  CYS A   1     -11.441  12.623  67.143  1.00  0.00    -0.346 C  
ATOM      4  H1  CYS A   1     -11.488  10.515  67.468  1.00  0.00     0.000 HD 
ATOM      5  O   CYS A   1      -9.380  11.448  67.414  1.00  0.00    -0.165 OA 
ATOM      6  C   CYS A   1      -9.907  12.684  67.215  1.00  0.00    -0.206 C  
ATOM      7  OXT CYS A   1      -9.232  13.692  67.092  1.00  0.00    -0.224 OA 
ENDROOT
BRANCH   3   8
ATOM      8  CB  CYS A   1     -12.035  13.919  67.712  1.00  0.00    -0.355 C  
BRANCH   8   9
ATOM      9  SG  CYS A   1     -11.893  13.971  69.536  1.00  0.00    -0.342 SA 
BRANCH   9  10
ATOM     10  SG  CYS A   1     -10.730  15.646  69.822  1.00  0.00    -0.332 SA 
BRANCH  10  11
ATOM     11  CB  CYS A   1     -11.004  16.560  68.263  1.00  0.00    -0.346 C  
BRANCH  11  12
ATOM     12  CA  CYS A   1     -10.019  17.728  68.111  1.00  0.00    -0.342 C  
ATOM     13  N   CYS A   1     -10.215  18.800  69.140  1.00  0.00    -0.480 NA 
ATOM     14  C   CYS A   1     -10.259  18.344  66.732  1.00  0.00    -0.388 C  
ATOM     15  H2  CYS A   1     -10.176  18.411  70.083  1.00  0.00     0.000 HD 
ATOM     16  H1  CYS A   1      -9.560  19.575  69.038  1.00  0.00     0.000 HD 
ATOM     17  OXT CYS A   1      -9.903  17.855  65.672  1.00  0.00    -0.512 OA 
ATOM     18  O   CYS A   1     -10.974  19.497  66.822  1.00  0.00    -0.436 OA 
ENDBRANCH  11  12
ENDBRANCH  10  11
ENDBRANCH   9  10
ENDBRANCH   8   9
ENDBRANCH   3   8
TORSDOF 5
ENDMDL
MODEL       81
REMARK 921   NORMALIZED FREE ENERGY PREDICTED BY IDOCK:   -3.74 KCAL/MOL
REMARK 922        TOTAL FREE ENERGY PREDICTED BY IDOCK:   -5.45 KCAL/MOL
REMARK 923 INTER-LIGAND FREE ENERGY PREDICTED BY IDOCK:   -5.06 KCAL/MOL
REMARK 924 INTRA-LIGAND FREE ENERGY PREDICTED BY IDOCK:   -0.39 KCAL/MOL
REMARK 927      BINDING AFFINITY PREDICTED BY RF-SCORE:    0.00 PKD
ROOT
ATOM      1  N   CYS A   1     -12.474  14.699  64.065  1.00  0.00    -0.984 NA 
ATOM      2  H2  CYS A   1     -12.201  15.672  64.206  1.00  0.00     0.000 HD 
ATOM      3  CA  CYS A   1     -11.316  13.787  64.332  1.00  0.00    -0.360 C  
ATOM      4  H1  CYS A   1     -12.902  14.579  63.147  1.00  0.00     0.000 HD 
ATOM      5  O   CYS A   1     -12.923  12.287  63.401  1.00  0.00    -0.753 OA 
ATOM      6  C   CYS A   1     -11.811  12.341  64.178  1.00  0.00    -0.419 C  
ATOM      7  OXT CYS A   1     -11.281  11.355  64.664  1.00  0.00    -0.258 OA 
ENDROOT
BRANCH   3   8
ATOM      8  CB  CYS A   1     -10.671  13.966  65.714  1.00  0.00    -0.289 C  
BRANCH   8   9
ATOM      9  SG  CYS A   1     -11.933  14.279  67.002  1.00  0.00    -0.392 SA 
BRANCH   9  10
ATOM     10  SG  CYS A   1     -11.616  12.709  68.296  1.00  0.00    -0.350 SA 
BRANCH  10  11
ATOM     11  CB  CYS A   1      -9.896  12.238  67.895  1.00  0.00    -0.201 C  
BRANCH  11  12
ATOM     12  CA  CYS A   1      -9.500  10.916  68.568  1.00  0.00    -0.185 C  
ATOM     13  N   CYS A   1      -8.150  10.969  69.218  1.00  0.00    -0.359 NA 
ATOM     14  C   CYS A   1      -9.459   9.848  67.474  1.00  0.00    -0.151 C  
ATOM     15  H2  CYS A   1      -8.095  11.745  69.878  1.00  0.00     0.000 HD 
ATOM     16  H1  CYS A   1      -7.887  10.091  69.664  1.00  0.00     0.000 HD 
ATOM     17  OXT CYS A   1     -10.436   9.335  66.954  1.00  0.00    -0.248 OA 
ATOM     18  O   CYS A   1      -8.180   9.567  67.103  1.00  0.00    -0.112 OA 
ENDBRANCH  11  12
ENDBRANCH  10  11
ENDBRANCH   9  10
ENDBRANCH   8   9
ENDBRANCH   3   8
TORSDOF 5
ENDMDL
MODEL       82
REMARK 921   NORMALIZED FREE ENERGY PREDICTED BY IDOCK:   -3.74 KCAL/MOL
REMARK 922        TOTAL FREE ENERGY PREDICTED BY IDOCK:   -5.44 KCAL/MOL
REMARK 923 INTER-LIGAND FREE ENERGY PREDICTED BY IDOCK:   -4.98 KCAL/MOL
REMARK 924 INTRA-LIGAND FREE ENERGY PREDICTED BY IDOCK:   -0.46 KCAL/MOL
REMARK 927      BINDING AFFINITY PREDICTED BY RF-SCORE:    0.00 PKD
ROOT
ATOM      1  N   CYS A   1      -9.483  13.842  66.638  1.00  0.00    -0.276 NA 
ATOM      2  H2  CYS A   1      -8.916  13.757  67.482  1.00  0.00     0.000 HD 
ATOM      3  CA  CYS A   1      -9.913  15.262  66.437  1.00  0.00    -0.275 C  
ATOM      4  H1  CYS A   1     -10.248  13.167  66.655  1.00  0.00     0.000 HD 
ATOM      5  O   CYS A   1     -11.192  14.117  64.777  1.00  0.00    -0.349 OA 
ATOM      6  C   CYS A   1     -10.694  15.334  65.115  1.00  0.00    -0.436 C  
ATOM      7  OXT CYS A   1     -10.872  16.342  64.451  1.00  0.00    -0.732 OA 
ENDROOT
BRANCH   3   8
ATOM      8  CB  CYS A   1      -8.762  16.278  66.411  1.00  0.00    -0.319 C  
BRANCH   8   9
ATOM      9  SG  CYS A   1      -8.573  17.110  68.031  1.00  0.00    -0.233 SA 
BRANCH   9  10
ATOM     10  SG  CYS A   1     -10.484  17.001  68.789  1.00  0.00    -0.343 SA 
BRANCH  10  11
ATOM     11  CB  CYS A   1     -10.376  15.523  69.860  1.00  0.00    -0.312 C  
BRANCH  11  12
ATOM     12  CA  CYS A   1     -11.766  14.958  70.186  1.00  0.00    -0.294 C  
ATOM     13  N   CYS A   1     -11.889  14.483  71.602  1.00  0.00    -0.411 NA 
ATOM     14  C   CYS A   1     -11.993  13.760  69.262  1.00  0.00    -0.352 C  
ATOM     15  H2  CYS A   1     -11.635  15.223  72.258  1.00  0.00     0.000 HD 
ATOM     16  H1  CYS A   1     -12.813  14.107  71.818  1.00  0.00     0.000 HD 
ATOM     17  OXT CYS A   1     -12.258  13.829  68.073  1.00  0.00    -0.323 OA 
ATOM     18  O   CYS A   1     -11.812  12.584  69.921  1.00  0.00    -0.325 OA 
ENDBRANCH  11  12
ENDBRANCH  10  11
ENDBRANCH   9  10
ENDBRANCH   8   9
ENDBRANCH   3   8
TORSDOF 5
ENDMDL
MODEL       83
REMARK 921   NORMALIZED FREE ENERGY PREDICTED BY IDOCK:   -3.73 KCAL/MOL
REMARK 922        TOTAL FREE ENERGY PREDICTED BY IDOCK:   -5.44 KCAL/MOL
REMARK 923 INTER-LIGAND FREE ENERGY PREDICTED BY IDOCK:   -4.77 KCAL/MOL
REMARK 924 INTRA-LIGAND FREE ENERGY PREDICTED BY IDOCK:   -0.67 KCAL/MOL
REMARK 927      BINDING AFFINITY PREDICTED BY RF-SCORE:    0.00 PKD
ROOT
ATOM      1  N   CYS A   1      -9.909   9.725  64.367  1.00  0.00    -0.411 NA 
ATOM      2  H2  CYS A   1     -10.882  10.023  64.293  1.00  0.00     0.000 HD 
ATOM      3  CA  CYS A   1      -9.127  10.699  65.194  1.00  0.00    -0.201 C  
ATOM      4  H1  CYS A   1      -9.519   9.551  63.440  1.00  0.00     0.000 HD 
ATOM      5  O   CYS A   1      -7.405   9.293  64.323  1.00  0.00    -0.101 OA 
ATOM      6  C   CYS A   1      -7.695  10.157  65.329  1.00  0.00    -0.144 C  
ATOM      7  OXT CYS A   1      -6.901  10.462  66.204  1.00  0.00    -0.109 OA 
ENDROOT
BRANCH   3   8
ATOM      8  CB  CYS A   1      -9.712  10.962  66.589  1.00  0.00    -0.189 C  
BRANCH   8   9
ATOM      9  SG  CYS A   1      -9.635  12.740  67.018  1.00  0.00    -0.235 SA 
BRANCH   9  10
ATOM     10  SG  CYS A   1     -11.543  13.092  67.707  1.00  0.00    -0.355 SA 
BRANCH  10  11
ATOM     11  CB  CYS A   1     -12.353  13.785  66.222  1.00  0.00    -0.433 C  
BRANCH  11  12
ATOM     12  CA  CYS A   1     -11.377  13.892  65.042  1.00  0.00    -0.334 C  
ATOM     13  N   CYS A   1     -11.191  15.299  64.559  1.00  0.00    -0.667 NA 
ATOM     14  C   CYS A   1     -11.964  13.069  63.894  1.00  0.00    -0.485 C  
ATOM     15  H2  CYS A   1     -10.907  15.912  65.324  1.00  0.00     0.000 HD 
ATOM     16  H1  CYS A   1     -10.542  15.369  63.775  1.00  0.00     0.000 HD 
ATOM     17  OXT CYS A   1     -11.966  11.850  63.832  1.00  0.00    -0.413 OA 
ATOM     18  O   CYS A   1     -12.541  13.867  62.956  1.00  0.00    -0.694 OA 
ENDBRANCH  11  12
ENDBRANCH  10  11
ENDBRANCH   9  10
ENDBRANCH   8   9
ENDBRANCH   3   8
TORSDOF 5
ENDMDL
MODEL       84
REMARK 921   NORMALIZED FREE ENERGY PREDICTED BY IDOCK:   -3.72 KCAL/MOL
REMARK 922        TOTAL FREE ENERGY PREDICTED BY IDOCK:   -5.43 KCAL/MOL
REMARK 923 INTER-LIGAND FREE ENERGY PREDICTED BY IDOCK:   -5.30 KCAL/MOL
REMARK 924 INTRA-LIGAND FREE ENERGY PREDICTED BY IDOCK:   -0.13 KCAL/MOL
REMARK 927      BINDING AFFINITY PREDICTED BY RF-SCORE:    0.00 PKD
ROOT
ATOM      1  N   CYS A   1     -13.165   8.879  72.883  1.00  0.00    -0.803 NA 
ATOM      2  H2  CYS A   1     -13.298   9.858  73.140  1.00  0.00     0.000 HD 
ATOM      3  CA  CYS A   1     -12.766   8.767  71.443  1.00  0.00    -0.283 C  
ATOM      4  H1  CYS A   1     -13.986   8.330  73.137  1.00  0.00     0.000 HD 
ATOM      5  O   CYS A   1     -13.157   6.486  72.029  1.00  0.00    -0.213 OA 
ATOM      6  C   CYS A   1     -12.508   7.283  71.141  1.00  0.00    -0.336 C  
ATOM      7  OXT CYS A   1     -11.831   6.854  70.222  1.00  0.00    -0.323 OA 
ENDROOT
BRANCH   3   8
ATOM      8  CB  CYS A   1     -11.530   9.593  71.059  1.00  0.00    -0.371 C  
BRANCH   8   9
ATOM      9  SG  CYS A   1     -12.005  11.235  70.404  1.00  0.00    -0.379 SA 
BRANCH   9  10
ATOM     10  SG  CYS A   1     -10.742  11.428  68.790  1.00  0.00    -0.211 SA 
BRANCH  10  11
ATOM     11  CB  CYS A   1     -11.905  11.912  67.464  1.00  0.00    -0.179 C  
BRANCH  11  12
ATOM     12  CA  CYS A   1     -11.232  11.887  66.084  1.00  0.00    -0.333 C  
ATOM     13  N   CYS A   1      -9.856  12.482  66.091  1.00  0.00    -0.255 NA 
ATOM     14  C   CYS A   1     -12.104  12.717  65.141  1.00  0.00    -0.455 C  
ATOM     15  H2  CYS A   1      -9.267  12.030  66.791  1.00  0.00     0.000 HD 
ATOM     16  H1  CYS A   1      -9.409  12.465  65.174  1.00  0.00     0.000 HD 
ATOM     17  OXT CYS A   1     -13.171  12.357  64.670  1.00  0.00    -0.822 OA 
ATOM     18  O   CYS A   1     -11.568  13.948  64.924  1.00  0.00    -0.332 OA 
ENDBRANCH  11  12
ENDBRANCH  10  11
ENDBRANCH   9  10
ENDBRANCH   8   9
ENDBRANCH   3   8
TORSDOF 5
ENDMDL
MODEL       85
REMARK 921   NORMALIZED FREE ENERGY PREDICTED BY IDOCK:   -3.72 KCAL/MOL
REMARK 922        TOTAL FREE ENERGY PREDICTED BY IDOCK:   -5.43 KCAL/MOL
REMARK 923 INTER-LIGAND FREE ENERGY PREDICTED BY IDOCK:   -5.10 KCAL/MOL
REMARK 924 INTRA-LIGAND FREE ENERGY PREDICTED BY IDOCK:   -0.33 KCAL/MOL
REMARK 927      BINDING AFFINITY PREDICTED BY RF-SCORE:    0.00 PKD
ROOT
ATOM      1  N   CYS A   1      -8.857  17.180  65.831  1.00  0.00    -0.534 NA 
ATOM      2  H2  CYS A   1      -9.197  16.219  65.795  1.00  0.00     0.000 HD 
ATOM      3  CA  CYS A   1      -9.958  18.108  66.245  1.00  0.00    -0.342 C  
ATOM      4  H1  CYS A   1      -8.404  17.430  64.951  1.00  0.00     0.000 HD 
ATOM      5  O   CYS A   1      -8.236  19.634  65.606  1.00  0.00    -0.398 OA 
ATOM      6  C   CYS A   1      -9.365  19.521  66.353  1.00  0.00    -0.379 C  
ATOM      7  OXT CYS A   1      -9.838  20.441  67.001  1.00  0.00    -0.439 OA 
ENDROOT
BRANCH   3   8
ATOM      8  CB  CYS A   1     -10.641  17.733  67.568  1.00  0.00    -0.359 C  
BRANCH   8   9
ATOM      9  SG  CYS A   1      -9.410  17.364  68.871  1.00  0.00    -0.122 SA 
BRANCH   9  10
ATOM     10  SG  CYS A   1      -9.620  15.328  69.088  1.00  0.00    -0.249 SA 
BRANCH  10  11
ATOM     11  CB  CYS A   1     -11.112  14.998  68.085  1.00  0.00    -0.291 C  
BRANCH  11  12
ATOM     12  CA  CYS A   1     -11.933  13.834  68.658  1.00  0.00    -0.366 C  
ATOM     13  N   CYS A   1     -11.498  13.430  70.034  1.00  0.00    -0.510 NA 
ATOM     14  C   CYS A   1     -11.732  12.639  67.725  1.00  0.00    -0.356 C  
ATOM     15  H2  CYS A   1     -11.508  14.229  70.668  1.00  0.00     0.000 HD 
ATOM     16  H1  CYS A   1     -12.044  12.657  70.414  1.00  0.00     0.000 HD 
ATOM     17  OXT CYS A   1     -12.245  12.510  66.626  1.00  0.00    -0.552 OA 
ATOM     18  O   CYS A   1     -10.857  11.741  68.253  1.00  0.00    -0.199 OA 
ENDBRANCH  11  12
ENDBRANCH  10  11
ENDBRANCH   9  10
ENDBRANCH   8   9
ENDBRANCH   3   8
TORSDOF 5
ENDMDL
MODEL       86
REMARK 921   NORMALIZED FREE ENERGY PREDICTED BY IDOCK:   -3.72 KCAL/MOL
REMARK 922        TOTAL FREE ENERGY PREDICTED BY IDOCK:   -5.42 KCAL/MOL
REMARK 923 INTER-LIGAND FREE ENERGY PREDICTED BY IDOCK:   -5.10 KCAL/MOL
REMARK 924 INTRA-LIGAND FREE ENERGY PREDICTED BY IDOCK:   -0.32 KCAL/MOL
REMARK 927      BINDING AFFINITY PREDICTED BY RF-SCORE:    0.00 PKD
ROOT
ATOM      1  N   CYS A   1      -9.469  13.494  68.586  1.00  0.00    -0.386 NA 
ATOM      2  H2  CYS A   1      -9.152  13.568  69.553  1.00  0.00     0.000 HD 
ATOM      3  CA  CYS A   1     -10.653  12.581  68.494  1.00  0.00    -0.243 C  
ATOM      4  H1  CYS A   1      -8.692  13.240  67.975  1.00  0.00     0.000 HD 
ATOM      5  O   CYS A   1     -10.125  12.943  66.193  1.00  0.00    -0.265 OA 
ATOM      6  C   CYS A   1     -11.127  12.572  67.032  1.00  0.00    -0.281 C  
ATOM      7  OXT CYS A   1     -12.243  12.260  66.650  1.00  0.00    -0.574 OA 
ENDROOT
BRANCH   3   8
ATOM      8  CB  CYS A   1     -11.823  12.961  69.412  1.00  0.00    -0.312 C  
BRANCH   8   9
ATOM      9  SG  CYS A   1     -12.281  11.574  70.515  1.00  0.00    -0.347 SA 
BRANCH   9  10
ATOM     10  SG  CYS A   1     -10.819  10.190  70.085  1.00  0.00    -0.314 SA 
BRANCH  10  11
ATOM     11  CB  CYS A   1     -10.976   9.034  71.493  1.00  0.00    -0.348 C  
BRANCH  11  12
ATOM     12  CA  CYS A   1     -12.342   8.334  71.501  1.00  0.00    -0.306 C  
ATOM     13  N   CYS A   1     -13.037   8.418  72.827  1.00  0.00    -0.625 NA 
ATOM     14  C   CYS A   1     -12.095   6.857  71.187  1.00  0.00    -0.381 C  
ATOM     15  H2  CYS A   1     -13.123   9.388  73.132  1.00  0.00     0.000 HD 
ATOM     16  H1  CYS A   1     -13.945   7.953  72.831  1.00  0.00     0.000 HD 
ATOM     17  OXT CYS A   1     -11.829   6.408  70.084  1.00  0.00    -0.409 OA 
ATOM     18  O   CYS A   1     -12.157   6.094  72.311  1.00  0.00    -0.311 OA 
ENDBRANCH  11  12
ENDBRANCH  10  11
ENDBRANCH   9  10
ENDBRANCH   8   9
ENDBRANCH   3   8
TORSDOF 5
ENDMDL
MODEL       87
REMARK 921   NORMALIZED FREE ENERGY PREDICTED BY IDOCK:   -3.72 KCAL/MOL
REMARK 922        TOTAL FREE ENERGY PREDICTED BY IDOCK:   -5.42 KCAL/MOL
REMARK 923 INTER-LIGAND FREE ENERGY PREDICTED BY IDOCK:   -5.21 KCAL/MOL
REMARK 924 INTRA-LIGAND FREE ENERGY PREDICTED BY IDOCK:   -0.21 KCAL/MOL
REMARK 927      BINDING AFFINITY PREDICTED BY RF-SCORE:    0.00 PKD
ROOT
ATOM      1  N   CYS A   1     -10.995  14.640  70.550  1.00  0.00    -0.492 NA 
ATOM      2  H2  CYS A   1     -10.451  14.792  69.700  1.00  0.00     0.000 HD 
ATOM      3  CA  CYS A   1     -12.094  13.654  70.297  1.00  0.00    -0.357 C  
ATOM      4  H1  CYS A   1     -11.308  15.531  70.935  1.00  0.00     0.000 HD 
ATOM      5  O   CYS A   1     -12.637  14.453  72.481  1.00  0.00    -0.322 OA 
ATOM      6  C   CYS A   1     -12.825  13.413  71.627  1.00  0.00    -0.321 C  
ATOM      7  OXT CYS A   1     -13.504  12.436  71.895  1.00  0.00    -0.423 OA 
ENDROOT
BRANCH   3   8
ATOM      8  CB  CYS A   1     -11.624  12.313  69.716  1.00  0.00    -0.243 C  
BRANCH   8   9
ATOM      9  SG  CYS A   1     -11.929  12.225  67.914  1.00  0.00    -0.015 SA 
BRANCH   9  10
ATOM     10  SG  CYS A   1     -10.292  13.219  67.158  1.00  0.00    -0.249 SA 
BRANCH  10  11
ATOM     11  CB  CYS A   1     -11.079  14.614  66.277  1.00  0.00    -0.336 C  
BRANCH  11  12
ATOM     12  CA  CYS A   1     -10.050  15.437  65.488  1.00  0.00    -0.373 C  
ATOM     13  N   CYS A   1      -9.005  16.064  66.362  1.00  0.00    -0.289 NA 
ATOM     14  C   CYS A   1     -10.815  16.559  64.783  1.00  0.00    -0.127 C  
ATOM     15  H2  CYS A   1      -8.543  15.360  66.938  1.00  0.00     0.000 HD 
ATOM     16  H1  CYS A   1      -8.322  16.611  65.837  1.00  0.00     0.000 HD 
ATOM     17  OXT CYS A   1     -11.516  16.418  63.795  1.00  0.00    -1.002 OA 
ATOM     18  O   CYS A   1     -10.659  17.746  65.428  1.00  0.00    -0.659 OA 
ENDBRANCH  11  12
ENDBRANCH  10  11
ENDBRANCH   9  10
ENDBRANCH   8   9
ENDBRANCH   3   8
TORSDOF 5
ENDMDL
MODEL       88
REMARK 921   NORMALIZED FREE ENERGY PREDICTED BY IDOCK:   -3.70 KCAL/MOL
REMARK 922        TOTAL FREE ENERGY PREDICTED BY IDOCK:   -5.39 KCAL/MOL
REMARK 923 INTER-LIGAND FREE ENERGY PREDICTED BY IDOCK:   -4.92 KCAL/MOL
REMARK 924 INTRA-LIGAND FREE ENERGY PREDICTED BY IDOCK:   -0.47 KCAL/MOL
REMARK 927      BINDING AFFINITY PREDICTED BY RF-SCORE:    0.00 PKD
ROOT
ATOM      1  N   CYS A   1      -8.239  11.974  66.211  1.00  0.00    -0.386 NA 
ATOM      2  H2  CYS A   1      -8.664  12.865  65.955  1.00  0.00     0.000 HD 
ATOM      3  CA  CYS A   1      -9.249  11.080  66.862  1.00  0.00    -0.155 C  
ATOM      4  H1  CYS A   1      -7.395  12.129  66.764  1.00  0.00     0.000 HD 
ATOM      5  O   CYS A   1      -7.219   9.875  67.219  1.00  0.00    -0.085 OA 
ATOM      6  C   CYS A   1      -8.568   9.734  67.153  1.00  0.00    -0.128 C  
ATOM      7  OXT CYS A   1      -9.142   8.671  67.324  1.00  0.00    -0.131 OA 
ENDROOT
BRANCH   3   8
ATOM      8  CB  CYS A   1     -10.519  10.846  66.032  1.00  0.00    -0.225 C  
BRANCH   8   9
ATOM      9  SG  CYS A   1     -10.141  10.779  64.242  1.00  0.00    -0.358 SA 
BRANCH   9  10
ATOM     10  SG  CYS A   1     -11.535  12.080  63.466  1.00  0.00    -0.431 SA 
BRANCH  10  11
ATOM     11  CB  CYS A   1     -12.403  12.639  64.974  1.00  0.00    -0.497 C  
BRANCH  11  12
ATOM     12  CA  CYS A   1     -12.474  14.171  65.051  1.00  0.00    -0.419 C  
ATOM     13  N   CYS A   1     -12.378  14.831  63.708  1.00  0.00    -1.082 NA 
ATOM     14  C   CYS A   1     -11.287  14.636  65.895  1.00  0.00    -0.338 C  
ATOM     15  H2  CYS A   1     -13.087  14.465  63.071  1.00  0.00     0.000 HD 
ATOM     16  H1  CYS A   1     -12.426  15.849  63.760  1.00  0.00     0.000 HD 
ATOM     17  OXT CYS A   1     -11.206  14.541  67.108  1.00  0.00    -0.310 OA 
ATOM     18  O   CYS A   1     -10.288  15.132  65.115  1.00  0.00    -0.379 OA 
ENDBRANCH  11  12
ENDBRANCH  10  11
ENDBRANCH   9  10
ENDBRANCH   8   9
ENDBRANCH   3   8
TORSDOF 5
ENDMDL
MODEL       89
REMARK 921   NORMALIZED FREE ENERGY PREDICTED BY IDOCK:   -3.70 KCAL/MOL
REMARK 922        TOTAL FREE ENERGY PREDICTED BY IDOCK:   -5.39 KCAL/MOL
REMARK 923 INTER-LIGAND FREE ENERGY PREDICTED BY IDOCK:   -4.88 KCAL/MOL
REMARK 924 INTRA-LIGAND FREE ENERGY PREDICTED BY IDOCK:   -0.52 KCAL/MOL
REMARK 927      BINDING AFFINITY PREDICTED BY RF-SCORE:    0.00 PKD
ROOT
ATOM      1  N   CYS A   1      -9.997  14.897  66.731  1.00  0.00    -0.241 NA 
ATOM      2  H2  CYS A   1      -9.786  14.002  67.175  1.00  0.00     0.000 HD 
ATOM      3  CA  CYS A   1     -10.743  14.682  65.451  1.00  0.00    -0.369 C  
ATOM      4  H1  CYS A   1      -9.148  15.455  66.636  1.00  0.00     0.000 HD 
ATOM      5  O   CYS A   1     -10.259  17.018  65.357  1.00  0.00    -0.605 OA 
ATOM      6  C   CYS A   1     -11.095  16.063  64.875  1.00  0.00    -0.370 C  
ATOM      7  OXT CYS A   1     -11.988  16.290  64.075  1.00  0.00    -0.955 OA 
ENDROOT
BRANCH   3   8
ATOM      8  CB  CYS A   1     -12.021  13.843  65.593  1.00  0.00    -0.392 C  
BRANCH   8   9
ATOM      9  SG  CYS A   1     -12.122  12.560  64.290  1.00  0.00    -0.457 SA 
BRANCH   9  10
ATOM     10  SG  CYS A   1     -10.183  11.874  64.219  1.00  0.00    -0.326 SA 
BRANCH  10  11
ATOM     11  CB  CYS A   1     -10.152  10.699  65.620  1.00  0.00    -0.272 C  
BRANCH  11  12
ATOM     12  CA  CYS A   1      -8.802  10.726  66.352  1.00  0.00    -0.165 C  
ATOM     13  N   CYS A   1      -8.150  12.076  66.331  1.00  0.00    -0.388 NA 
ATOM     14  C   CYS A   1      -7.880   9.741  65.632  1.00  0.00    -0.114 C  
ATOM     15  H2  CYS A   1      -8.779  12.790  66.701  1.00  0.00     0.000 HD 
ATOM     16  H1  CYS A   1      -7.253  12.093  66.817  1.00  0.00     0.000 HD 
ATOM     17  OXT CYS A   1      -7.945   8.526  65.717  1.00  0.00    -0.099 OA 
ATOM     18  O   CYS A   1      -6.993  10.389  64.830  1.00  0.00    -0.122 OA 
ENDBRANCH  11  12
ENDBRANCH  10  11
ENDBRANCH   9  10
ENDBRANCH   8   9
ENDBRANCH   3   8
TORSDOF 5
ENDMDL
MODEL       90
REMARK 921   NORMALIZED FREE ENERGY PREDICTED BY IDOCK:   -3.69 KCAL/MOL
REMARK 922        TOTAL FREE ENERGY PREDICTED BY IDOCK:   -5.39 KCAL/MOL
REMARK 923 INTER-LIGAND FREE ENERGY PREDICTED BY IDOCK:   -5.12 KCAL/MOL
REMARK 924 INTRA-LIGAND FREE ENERGY PREDICTED BY IDOCK:   -0.27 KCAL/MOL
REMARK 927      BINDING AFFINITY PREDICTED BY RF-SCORE:    0.00 PKD
ROOT
ATOM      1  N   CYS A   1     -12.408  14.621  63.483  1.00  0.00    -1.056 NA 
ATOM      2  H2  CYS A   1     -12.250  15.627  63.417  1.00  0.00     0.000 HD 
ATOM      3  CA  CYS A   1     -11.305  13.969  64.259  1.00  0.00    -0.262 C  
ATOM      4  H1  CYS A   1     -12.564  14.224  62.556  1.00  0.00     0.000 HD 
ATOM      5  O   CYS A   1     -12.496  12.082  63.408  1.00  0.00    -0.577 OA 
ATOM      6  C   CYS A   1     -11.641  12.475  64.387  1.00  0.00    -0.358 C  
ATOM      7  OXT CYS A   1     -11.195  11.718  65.234  1.00  0.00    -0.307 OA 
ENDROOT
BRANCH   3   8
ATOM      8  CB  CYS A   1     -11.069  14.565  65.654  1.00  0.00    -0.327 C  
BRANCH   8   9
ATOM      9  SG  CYS A   1      -9.997  16.047  65.571  1.00  0.00    -0.163 SA 
BRANCH   9  10
ATOM     10  SG  CYS A   1      -8.416  15.493  66.766  1.00  0.00    -0.282 SA 
BRANCH  10  11
ATOM     11  CB  CYS A   1      -8.908  16.192  68.382  1.00  0.00    -0.188 C  
BRANCH  11  12
ATOM     12  CA  CYS A   1     -10.387  16.605  68.394  1.00  0.00    -0.299 C  
ATOM     13  N   CYS A   1     -10.593  18.035  68.792  1.00  0.00    -0.357 NA 
ATOM     14  C   CYS A   1     -11.095  15.719  69.419  1.00  0.00    -0.314 C  
ATOM     15  H2  CYS A   1     -10.045  18.661  68.201  1.00  0.00     0.000 HD 
ATOM     16  H1  CYS A   1     -11.576  18.309  68.800  1.00  0.00     0.000 HD 
ATOM     17  OXT CYS A   1     -11.385  14.545  69.254  1.00  0.00    -0.257 OA 
ATOM     18  O   CYS A   1     -11.323  16.390  70.580  1.00  0.00    -0.368 OA 
ENDBRANCH  11  12
ENDBRANCH  10  11
ENDBRANCH   9  10
ENDBRANCH   8   9
ENDBRANCH   3   8
TORSDOF 5
ENDMDL
MODEL       91
REMARK 921   NORMALIZED FREE ENERGY PREDICTED BY IDOCK:   -3.69 KCAL/MOL
REMARK 922        TOTAL FREE ENERGY PREDICTED BY IDOCK:   -5.38 KCAL/MOL
REMARK 923 INTER-LIGAND FREE ENERGY PREDICTED BY IDOCK:   -4.83 KCAL/MOL
REMARK 924 INTRA-LIGAND FREE ENERGY PREDICTED BY IDOCK:   -0.56 KCAL/MOL
REMARK 927      BINDING AFFINITY PREDICTED BY RF-SCORE:    0.00 PKD
ROOT
ATOM      1  N   CYS A   1     -11.746  13.011  63.083  1.00  0.00    -0.830 NA 
ATOM      2  H2  CYS A   1     -11.327  12.570  62.263  1.00  0.00     0.000 HD 
ATOM      3  CA  CYS A   1     -11.501  12.181  64.305  1.00  0.00    -0.367 C  
ATOM      4  H1  CYS A   1     -12.728  13.226  62.908  1.00  0.00     0.000 HD 
ATOM      5  O   CYS A   1     -13.043  13.815  65.115  1.00  0.00    -0.762 OA 
ATOM      6  C   CYS A   1     -12.087  12.935  65.509  1.00  0.00    -0.458 C  
ATOM      7  OXT CYS A   1     -11.766  12.768  66.675  1.00  0.00    -0.355 OA 
ENDROOT
BRANCH   3   8
ATOM      8  CB  CYS A   1     -10.023  11.858  64.569  1.00  0.00    -0.228 C  
BRANCH   8   9
ATOM      9  SG  CYS A   1      -9.800  10.104  65.041  1.00  0.00    -0.289 SA 
BRANCH   9  10
ATOM     10  SG  CYS A   1      -9.327  10.259  67.038  1.00  0.00    -0.156 SA 
BRANCH  10  11
ATOM     11  CB  CYS A   1     -10.844   9.617  67.831  1.00  0.00    -0.215 C  
BRANCH  11  12
ATOM     12  CA  CYS A   1     -11.120  10.311  69.172  1.00  0.00    -0.235 C  
ATOM     13  N   CYS A   1     -10.507  11.677  69.263  1.00  0.00    -0.427 NA 
ATOM     14  C   CYS A   1     -10.502   9.440  70.267  1.00  0.00    -0.251 C  
ATOM     15  H2  CYS A   1     -10.806  12.262  68.482  1.00  0.00     0.000 HD 
ATOM     16  H1  CYS A   1     -10.691  12.138  70.154  1.00  0.00     0.000 HD 
ATOM     17  OXT CYS A   1     -10.965   8.388  70.674  1.00  0.00    -0.235 OA 
ATOM     18  O   CYS A   1      -9.325   9.960  70.708  1.00  0.00    -0.020 OA 
ENDBRANCH  11  12
ENDBRANCH  10  11
ENDBRANCH   9  10
ENDBRANCH   8   9
ENDBRANCH   3   8
TORSDOF 5
ENDMDL
MODEL       92
REMARK 921   NORMALIZED FREE ENERGY PREDICTED BY IDOCK:   -3.69 KCAL/MOL
REMARK 922        TOTAL FREE ENERGY PREDICTED BY IDOCK:   -5.38 KCAL/MOL
REMARK 923 INTER-LIGAND FREE ENERGY PREDICTED BY IDOCK:   -4.83 KCAL/MOL
REMARK 924 INTRA-LIGAND FREE ENERGY PREDICTED BY IDOCK:   -0.55 KCAL/MOL
REMARK 927      BINDING AFFINITY PREDICTED BY RF-SCORE:    0.00 PKD
ROOT
ATOM      1  N   CYS A   1     -11.649  12.274  70.252  1.00  0.00    -0.533 NA 
ATOM      2  H2  CYS A   1     -11.113  12.717  69.506  1.00  0.00     0.000 HD 
ATOM      3  CA  CYS A   1     -11.756  10.799  70.014  1.00  0.00    -0.336 C  
ATOM      4  H1  CYS A   1     -12.545  12.747  70.375  1.00  0.00     0.000 HD 
ATOM      5  O   CYS A   1     -13.262  11.117  71.840  1.00  0.00    -0.470 OA 
ATOM      6  C   CYS A   1     -12.505  10.184  71.206  1.00  0.00    -0.406 C  
ATOM      7  OXT CYS A   1     -12.458   9.012  71.544  1.00  0.00    -0.304 OA 
ENDROOT
BRANCH   3   8
ATOM      8  CB  CYS A   1     -10.409  10.086  69.829  1.00  0.00    -0.255 C  
BRANCH   8   9
ATOM      9  SG  CYS A   1     -10.095   9.704  68.066  1.00  0.00    -0.189 SA 
BRANCH   9  10
ATOM     10  SG  CYS A   1      -8.981  11.330  67.472  1.00  0.00    -0.142 SA 
BRANCH  10  11
ATOM     11  CB  CYS A   1      -9.654  11.652  65.803  1.00  0.00    -0.232 C  
BRANCH  11  12
ATOM     12  CA  CYS A   1     -10.294  13.044  65.709  1.00  0.00    -0.286 C  
ATOM     13  N   CYS A   1      -9.650  14.048  66.618  1.00  0.00    -0.280 NA 
ATOM     14  C   CYS A   1     -11.758  12.897  66.126  1.00  0.00    -0.396 C  
ATOM     15  H2  CYS A   1      -8.645  14.098  66.451  1.00  0.00     0.000 HD 
ATOM     16  H1  CYS A   1     -10.076  14.973  66.555  1.00  0.00     0.000 HD 
ATOM     17  OXT CYS A   1     -12.639  12.404  65.439  1.00  0.00    -0.637 OA 
ATOM     18  O   CYS A   1     -11.960  13.341  67.396  1.00  0.00    -0.363 OA 
ENDBRANCH  11  12
ENDBRANCH  10  11
ENDBRANCH   9  10
ENDBRANCH   8   9
ENDBRANCH   3   8
TORSDOF 5
ENDMDL
MODEL       93
REMARK 921   NORMALIZED FREE ENERGY PREDICTED BY IDOCK:   -3.68 KCAL/MOL
REMARK 922        TOTAL FREE ENERGY PREDICTED BY IDOCK:   -5.37 KCAL/MOL
REMARK 923 INTER-LIGAND FREE ENERGY PREDICTED BY IDOCK:   -5.11 KCAL/MOL
REMARK 924 INTRA-LIGAND FREE ENERGY PREDICTED BY IDOCK:   -0.26 KCAL/MOL
REMARK 927      BINDING AFFINITY PREDICTED BY RF-SCORE:    0.00 PKD
ROOT
ATOM      1  N   CYS A   1     -10.114  13.215  63.711  1.00  0.00    -0.710 NA 
ATOM      2  H2  CYS A   1      -9.146  12.951  63.896  1.00  0.00     0.000 HD 
ATOM      3  CA  CYS A   1     -11.049  12.149  64.196  1.00  0.00    -0.364 C  
ATOM      4  H1  CYS A   1     -10.232  13.465  62.729  1.00  0.00     0.000 HD 
ATOM      5  O   CYS A   1     -12.521  13.587  62.984  1.00  0.00    -0.709 OA 
ATOM      6  C   CYS A   1     -12.485  12.640  63.957  1.00  0.00    -0.399 C  
ATOM      7  OXT CYS A   1     -13.478  12.235  64.538  1.00  0.00    -0.686 OA 
ENDROOT
BRANCH   3   8
ATOM      8  CB  CYS A   1     -10.872  11.772  65.673  1.00  0.00    -0.292 C  
BRANCH   8   9
ATOM      9  SG  CYS A   1      -9.244  10.990  65.970  1.00  0.00    -0.199 SA 
BRANCH   9  10
ATOM     10  SG  CYS A   1      -8.442  12.214  67.418  1.00  0.00    -0.182 SA 
BRANCH  10  11
ATOM     11  CB  CYS A   1      -9.800  13.408  67.689  1.00  0.00    -0.226 C  
BRANCH  11  12
ATOM     12  CA  CYS A   1      -9.285  14.725  68.288  1.00  0.00    -0.187 C  
ATOM     13  N   CYS A   1      -8.526  14.531  69.566  1.00  0.00    -0.374 NA 
ATOM     14  C   CYS A   1     -10.508  15.592  68.589  1.00  0.00    -0.231 C  
ATOM     15  H2  CYS A   1      -7.763  13.865  69.439  1.00  0.00     0.000 HD 
ATOM     16  H1  CYS A   1      -8.184  15.405  69.964  1.00  0.00     0.000 HD 
ATOM     17  OXT CYS A   1     -11.170  16.187  67.755  1.00  0.00    -0.299 OA 
ATOM     18  O   CYS A   1     -10.808  15.583  69.915  1.00  0.00    -0.255 OA 
ENDBRANCH  11  12
ENDBRANCH  10  11
ENDBRANCH   9  10
ENDBRANCH   8   9
ENDBRANCH   3   8
TORSDOF 5
ENDMDL
MODEL       94
REMARK 921   NORMALIZED FREE ENERGY PREDICTED BY IDOCK:   -3.68 KCAL/MOL
REMARK 922        TOTAL FREE ENERGY PREDICTED BY IDOCK:   -5.37 KCAL/MOL
REMARK 923 INTER-LIGAND FREE ENERGY PREDICTED BY IDOCK:   -5.12 KCAL/MOL
REMARK 924 INTRA-LIGAND FREE ENERGY PREDICTED BY IDOCK:   -0.25 KCAL/MOL
REMARK 927      BINDING AFFINITY PREDICTED BY RF-SCORE:    0.00 PKD
ROOT
ATOM      1  N   CYS A   1     -12.498  13.947  63.697  1.00  0.00    -0.994 NA 
ATOM      2  H2  CYS A   1     -12.355  14.954  63.775  1.00  0.00     0.000 HD 
ATOM      3  CA  CYS A   1     -11.181  13.233  63.671  1.00  0.00    -0.087 C  
ATOM      4  H1  CYS A   1     -13.109  13.735  62.908  1.00  0.00     0.000 HD 
ATOM      5  O   CYS A   1     -12.709  11.476  63.142  1.00  0.00    -0.317 OA 
ATOM      6  C   CYS A   1     -11.466  11.723  63.630  1.00  0.00    -0.431 C  
ATOM      7  OXT CYS A   1     -10.688  10.846  63.966  1.00  0.00    -0.353 OA 
ENDROOT
BRANCH   3   8
ATOM      8  CB  CYS A   1     -10.261  13.551  64.858  1.00  0.00    -0.329 C  
BRANCH   8   9
ATOM      9  SG  CYS A   1     -11.132  13.327  66.453  1.00  0.00    -0.301 SA 
BRANCH   9  10
ATOM     10  SG  CYS A   1     -11.324  15.269  67.107  1.00  0.00    -0.182 SA 
BRANCH  10  11
ATOM     11  CB  CYS A   1      -9.910  16.082  66.282  1.00  0.00    -0.308 C  
BRANCH  11  12
ATOM     12  CA  CYS A   1      -9.762  17.546  66.722  1.00  0.00    -0.295 C  
ATOM     13  N   CYS A   1     -10.460  18.507  65.808  1.00  0.00    -0.628 NA 
ATOM     14  C   CYS A   1      -8.268  17.873  66.705  1.00  0.00    -0.258 C  
ATOM     15  H2  CYS A   1     -11.443  18.257  65.699  1.00  0.00     0.000 HD 
ATOM     16  H1  CYS A   1     -10.362  19.479  66.101  1.00  0.00     0.000 HD 
ATOM     17  OXT CYS A   1      -7.457  17.502  67.537  1.00  0.00    -0.183 OA 
ATOM     18  O   CYS A   1      -7.933  18.600  65.605  1.00  0.00    -0.454 OA 
ENDBRANCH  11  12
ENDBRANCH  10  11
ENDBRANCH   9  10
ENDBRANCH   8   9
ENDBRANCH   3   8
TORSDOF 5
ENDMDL
MODEL       95
REMARK 921   NORMALIZED FREE ENERGY PREDICTED BY IDOCK:   -3.67 KCAL/MOL
REMARK 922        TOTAL FREE ENERGY PREDICTED BY IDOCK:   -5.36 KCAL/MOL
REMARK 923 INTER-LIGAND FREE ENERGY PREDICTED BY IDOCK:   -5.27 KCAL/MOL
REMARK 924 INTRA-LIGAND FREE ENERGY PREDICTED BY IDOCK:   -0.09 KCAL/MOL
REMARK 927      BINDING AFFINITY PREDICTED BY RF-SCORE:    0.00 PKD
ROOT
ATOM      1  N   CYS A   1      -9.412   9.820  70.521  1.00  0.00    -0.354 NA 
ATOM      2  H2  CYS A   1      -9.321  10.826  70.373  1.00  0.00     0.000 HD 
ATOM      3  CA  CYS A   1     -10.547   9.274  69.712  1.00  0.00    -0.231 C  
ATOM      4  H1  CYS A   1      -9.464   9.611  71.518  1.00  0.00     0.000 HD 
ATOM      5  O   CYS A   1      -9.966   7.404  71.078  1.00  0.00    -0.184 OA 
ATOM      6  C   CYS A   1     -10.581   7.751  69.918  1.00  0.00    -0.239 C  
ATOM      7  OXT CYS A   1     -11.102   6.945  69.165  1.00  0.00    -0.219 OA 
ENDROOT
BRANCH   3   8
ATOM      8  CB  CYS A   1     -10.469   9.588  68.211  1.00  0.00    -0.223 C  
BRANCH   8   9
ATOM      9  SG  CYS A   1      -9.611  11.177  67.909  1.00  0.00    -0.180 SA 
BRANCH   9  10
ATOM     10  SG  CYS A   1     -10.959  12.164  66.706  1.00  0.00    -0.296 SA 
BRANCH  10  11
ATOM     11  CB  CYS A   1     -10.617  11.418  65.073  1.00  0.00    -0.299 C  
BRANCH  11  12
ATOM     12  CA  CYS A   1     -10.748  12.448  63.942  1.00  0.00    -0.426 C  
ATOM     13  N   CYS A   1     -10.070  13.749  64.250  1.00  0.00    -0.734 NA 
ATOM     14  C   CYS A   1     -12.241  12.723  63.753  1.00  0.00    -0.489 C  
ATOM     15  H2  CYS A   1      -9.091  13.599  64.495  1.00  0.00     0.000 HD 
ATOM     16  H1  CYS A   1     -10.157  14.432  63.498  1.00  0.00     0.000 HD 
ATOM     17  OXT CYS A   1     -13.032  11.969  63.211  1.00  0.00    -0.736 OA 
ATOM     18  O   CYS A   1     -12.601  13.907  64.317  1.00  0.00    -0.664 OA 
ENDBRANCH  11  12
ENDBRANCH  10  11
ENDBRANCH   9  10
ENDBRANCH   8   9
ENDBRANCH   3   8
TORSDOF 5
ENDMDL
MODEL       96
REMARK 921   NORMALIZED FREE ENERGY PREDICTED BY IDOCK:   -3.67 KCAL/MOL
REMARK 922        TOTAL FREE ENERGY PREDICTED BY IDOCK:   -5.36 KCAL/MOL
REMARK 923 INTER-LIGAND FREE ENERGY PREDICTED BY IDOCK:   -4.81 KCAL/MOL
REMARK 924 INTRA-LIGAND FREE ENERGY PREDICTED BY IDOCK:   -0.55 KCAL/MOL
REMARK 927      BINDING AFFINITY PREDICTED BY RF-SCORE:    0.00 PKD
ROOT
ATOM      1  N   CYS A   1     -12.177  13.372  69.983  1.00  0.00    -0.321 NA 
ATOM      2  H2  CYS A   1     -12.059  14.101  69.278  1.00  0.00     0.000 HD 
ATOM      3  CA  CYS A   1     -11.924  12.022  69.386  1.00  0.00    -0.275 C  
ATOM      4  H1  CYS A   1     -13.083  13.467  70.444  1.00  0.00     0.000 HD 
ATOM      5  O   CYS A   1     -12.791  11.458  71.538  1.00  0.00    -0.419 OA 
ATOM      6  C   CYS A   1     -12.042  10.982  70.511  1.00  0.00    -0.377 C  
ATOM      7  OXT CYS A   1     -11.553   9.863  70.497  1.00  0.00    -0.272 OA 
ENDROOT
BRANCH   3   8
ATOM      8  CB  CYS A   1     -10.562  11.878  68.693  1.00  0.00    -0.234 C  
BRANCH   8   9
ATOM      9  SG  CYS A   1     -10.729  11.073  67.058  1.00  0.00    -0.272 SA 
BRANCH   9  10
ATOM     10  SG  CYS A   1     -11.898  12.425  66.037  1.00  0.00    -0.333 SA 
BRANCH  10  11
ATOM     11  CB  CYS A   1     -10.671  13.693  65.560  1.00  0.00    -0.296 C  
BRANCH  11  12
ATOM     12  CA  CYS A   1     -11.252  15.111  65.667  1.00  0.00    -0.296 C  
ATOM     13  N   CYS A   1     -10.954  15.959  64.467  1.00  0.00    -0.871 NA 
ATOM     14  C   CYS A   1     -10.608  15.771  66.887  1.00  0.00    -0.317 C  
ATOM     15  H2  CYS A   1     -11.267  15.501  63.611  1.00  0.00     0.000 HD 
ATOM     16  H1  CYS A   1     -11.340  16.901  64.539  1.00  0.00     0.000 HD 
ATOM     17  OXT CYS A   1     -10.889  15.527  68.049  1.00  0.00    -0.280 OA 
ATOM     18  O   CYS A   1      -9.630  16.642  66.521  1.00  0.00    -0.245 OA 
ENDBRANCH  11  12
ENDBRANCH  10  11
ENDBRANCH   9  10
ENDBRANCH   8   9
ENDBRANCH   3   8
TORSDOF 5
ENDMDL
MODEL       97
REMARK 921   NORMALIZED FREE ENERGY PREDICTED BY IDOCK:   -3.66 KCAL/MOL
REMARK 922        TOTAL FREE ENERGY PREDICTED BY IDOCK:   -5.35 KCAL/MOL
REMARK 923 INTER-LIGAND FREE ENERGY PREDICTED BY IDOCK:   -5.11 KCAL/MOL
REMARK 924 INTRA-LIGAND FREE ENERGY PREDICTED BY IDOCK:   -0.24 KCAL/MOL
REMARK 927      BINDING AFFINITY PREDICTED BY RF-SCORE:    0.00 PKD
ROOT
ATOM      1  N   CYS A   1     -11.593   9.927  68.839  1.00  0.00    -0.482 NA 
ATOM      2  H2  CYS A   1     -11.928  10.861  69.077  1.00  0.00     0.000 HD 
ATOM      3  CA  CYS A   1     -10.803   9.963  67.567  1.00  0.00    -0.243 C  
ATOM      4  H1  CYS A   1     -12.367   9.262  68.836  1.00  0.00     0.000 HD 
ATOM      5  O   CYS A   1     -11.015   7.616  67.952  1.00  0.00    -0.076 OA 
ATOM      6  C   CYS A   1     -10.266   8.547  67.307  1.00  0.00    -0.276 C  
ATOM      7  OXT CYS A   1      -9.309   8.271  66.602  1.00  0.00    -0.166 OA 
ENDROOT
BRANCH   3   8
ATOM      8  CB  CYS A   1      -9.638  10.964  67.571  1.00  0.00    -0.155 C  
BRANCH   8   9
ATOM      9  SG  CYS A   1      -9.923  12.320  66.375  1.00  0.00    -0.232 SA 
BRANCH   9  10
ATOM     10  SG  CYS A   1     -11.676  13.142  67.076  1.00  0.00    -0.380 SA 
BRANCH  10  11
ATOM     11  CB  CYS A   1     -11.396  14.924  66.779  1.00  0.00    -0.328 C  
BRANCH  11  12
ATOM     12  CA  CYS A   1     -10.626  15.166  65.473  1.00  0.00    -0.366 C  
ATOM     13  N   CYS A   1      -9.380  15.977  65.667  1.00  0.00    -0.397 NA 
ATOM     14  C   CYS A   1     -11.556  15.942  64.538  1.00  0.00    -0.232 C  
ATOM     15  H2  CYS A   1      -8.777  15.552  66.372  1.00  0.00     0.000 HD 
ATOM     16  H1  CYS A   1      -8.869  16.137  64.799  1.00  0.00     0.000 HD 
ATOM     17  OXT CYS A   1     -12.505  15.467  63.936  1.00  0.00    -0.695 OA 
ATOM     18  O   CYS A   1     -11.228  17.262  64.496  1.00  0.00    -1.083 OA 
ENDBRANCH  11  12
ENDBRANCH  10  11
ENDBRANCH   9  10
ENDBRANCH   8   9
ENDBRANCH   3   8
TORSDOF 5
ENDMDL
MODEL       98
REMARK 921   NORMALIZED FREE ENERGY PREDICTED BY IDOCK:   -3.66 KCAL/MOL
REMARK 922        TOTAL FREE ENERGY PREDICTED BY IDOCK:   -5.35 KCAL/MOL
REMARK 923 INTER-LIGAND FREE ENERGY PREDICTED BY IDOCK:   -4.97 KCAL/MOL
REMARK 924 INTRA-LIGAND FREE ENERGY PREDICTED BY IDOCK:   -0.38 KCAL/MOL
REMARK 927      BINDING AFFINITY PREDICTED BY RF-SCORE:    0.00 PKD
ROOT
ATOM      1  N   CYS A   1      -8.583   9.841  67.008  1.00  0.00    -0.124 NA 
ATOM      2  H2  CYS A   1      -8.599   9.854  68.028  1.00  0.00     0.000 HD 
ATOM      3  CA  CYS A   1      -9.943  10.144  66.459  1.00  0.00    -0.224 C  
ATOM      4  H1  CYS A   1      -8.177   8.967  66.670  1.00  0.00     0.000 HD 
ATOM      5  O   CYS A   1      -8.755   9.480  64.498  1.00  0.00    -0.181 OA 
ATOM      6  C   CYS A   1      -9.835  10.183  64.927  1.00  0.00    -0.319 C  
ATOM      7  OXT CYS A   1     -10.613  10.747  64.175  1.00  0.00    -0.347 OA 
ENDROOT
BRANCH   3   8
ATOM      8  CB  CYS A   1     -10.555  11.457  66.966  1.00  0.00    -0.248 C  
BRANCH   8   9
ATOM      9  SG  CYS A   1      -9.349  12.831  66.875  1.00  0.00    -0.238 SA 
BRANCH   9  10
ATOM     10  SG  CYS A   1     -10.259  14.272  68.030  1.00  0.00    -0.230 SA 
BRANCH  10  11
ATOM     11  CB  CYS A   1     -11.449  14.999  66.848  1.00  0.00    -0.263 C  
BRANCH  11  12
ATOM     12  CA  CYS A   1     -10.885  15.026  65.421  1.00  0.00    -0.364 C  
ATOM     13  N   CYS A   1     -10.320  16.361  65.038  1.00  0.00    -0.595 NA 
ATOM     14  C   CYS A   1     -12.042  14.711  64.472  1.00  0.00    -0.475 C  
ATOM     15  H2  CYS A   1      -9.618  16.666  65.713  1.00  0.00     0.000 HD 
ATOM     16  H1  CYS A   1      -9.945  16.378  64.089  1.00  0.00     0.000 HD 
ATOM     17  OXT CYS A   1     -12.529  13.605  64.300  1.00  0.00    -0.613 OA 
ATOM     18  O   CYS A   1     -12.510  15.837  63.869  1.00  0.00    -0.744 OA 
ENDBRANCH  11  12
ENDBRANCH  10  11
ENDBRANCH   9  10
ENDBRANCH   8   9
ENDBRANCH   3   8
TORSDOF 5
ENDMDL
MODEL       99
REMARK 921   NORMALIZED FREE ENERGY PREDICTED BY IDOCK:   -3.66 KCAL/MOL
REMARK 922        TOTAL FREE ENERGY PREDICTED BY IDOCK:   -5.34 KCAL/MOL
REMARK 923 INTER-LIGAND FREE ENERGY PREDICTED BY IDOCK:   -4.86 KCAL/MOL
REMARK 924 INTRA-LIGAND FREE ENERGY PREDICTED BY IDOCK:   -0.48 KCAL/MOL
REMARK 927      BINDING AFFINITY PREDICTED BY RF-SCORE:    0.00 PKD
ROOT
ATOM      1  N   CYS A   1      -9.812  13.129  65.898  1.00  0.00    -0.379 NA 
ATOM      2  H2  CYS A   1      -8.906  13.565  66.074  1.00  0.00     0.000 HD 
ATOM      3  CA  CYS A   1     -10.905  14.150  65.965  1.00  0.00    -0.297 C  
ATOM      4  H1  CYS A   1      -9.945  12.326  66.514  1.00  0.00     0.000 HD 
ATOM      5  O   CYS A   1     -12.139  12.110  65.837  1.00  0.00    -0.594 OA 
ATOM      6  C   CYS A   1     -12.226  13.448  65.617  1.00  0.00    -0.463 C  
ATOM      7  OXT CYS A   1     -13.238  13.999  65.215  1.00  0.00    -0.782 OA 
ENDROOT
BRANCH   3   8
ATOM      8  CB  CYS A   1     -10.704  15.358  65.039  1.00  0.00    -0.438 C  
BRANCH   8   9
ATOM      9  SG  CYS A   1     -10.394  16.887  65.997  1.00  0.00    -0.272 SA 
BRANCH   9  10
ATOM     10  SG  CYS A   1      -8.376  16.746  66.378  1.00  0.00    -0.318 SA 
BRANCH  10  11
ATOM     11  CB  CYS A   1      -8.274  17.394  68.085  1.00  0.00    -0.238 C  
BRANCH  11  12
ATOM     12  CA  CYS A   1      -7.801  16.317  69.072  1.00  0.00    -0.235 C  
ATOM     13  N   CYS A   1      -6.635  15.525  68.562  1.00  0.00    -0.106 NA 
ATOM     14  C   CYS A   1      -8.972  15.355  69.284  1.00  0.00    -0.261 C  
ATOM     15  H2  CYS A   1      -5.865  16.140  68.299  1.00  0.00     0.000 HD 
ATOM     16  H1  CYS A   1      -6.321  14.809  69.218  1.00  0.00     0.000 HD 
ATOM     17  OXT CYS A   1      -9.963  15.591  69.956  1.00  0.00    -0.290 OA 
ATOM     18  O   CYS A   1      -8.801  14.203  68.581  1.00  0.00    -0.184 OA 
ENDBRANCH  11  12
ENDBRANCH  10  11
ENDBRANCH   9  10
ENDBRANCH   8   9
ENDBRANCH   3   8
TORSDOF 5
ENDMDL
MODEL      100
REMARK 921   NORMALIZED FREE ENERGY PREDICTED BY IDOCK:   -3.65 KCAL/MOL
REMARK 922        TOTAL FREE ENERGY PREDICTED BY IDOCK:   -5.33 KCAL/MOL
REMARK 923 INTER-LIGAND FREE ENERGY PREDICTED BY IDOCK:   -5.10 KCAL/MOL
REMARK 924 INTRA-LIGAND FREE ENERGY PREDICTED BY IDOCK:   -0.24 KCAL/MOL
REMARK 927      BINDING AFFINITY PREDICTED BY RF-SCORE:    0.00 PKD
ROOT
ATOM      1  N   CYS A   1     -10.085   9.400  70.691  1.00  0.00    -0.271 NA 
ATOM      2  H2  CYS A   1      -9.258   9.693  70.170  1.00  0.00     0.000 HD 
ATOM      3  CA  CYS A   1     -11.246  10.291  70.373  1.00  0.00    -0.332 C  
ATOM      4  H1  CYS A   1      -9.870   9.326  71.686  1.00  0.00     0.000 HD 
ATOM      5  O   CYS A   1     -12.096   8.999  72.192  1.00  0.00    -0.363 OA 
ATOM      6  C   CYS A   1     -12.472   9.752  71.127  1.00  0.00    -0.350 C  
ATOM      7  OXT CYS A   1     -13.636   9.975  70.837  1.00  0.00    -0.297 OA 
ENDROOT
BRANCH   3   8
ATOM      8  CB  CYS A   1     -11.570  10.404  68.876  1.00  0.00    -0.139 C  
BRANCH   8   9
ATOM      9  SG  CYS A   1     -10.496  11.637  68.054  1.00  0.00    -0.202 SA 
BRANCH   9  10
ATOM     10  SG  CYS A   1      -9.692  10.537  66.511  1.00  0.00    -0.199 SA 
BRANCH  10  11
ATOM     11  CB  CYS A   1      -9.857  11.694  65.105  1.00  0.00    -0.249 C  
BRANCH  11  12
ATOM     12  CA  CYS A   1     -11.023  11.304  64.185  1.00  0.00    -0.305 C  
ATOM     13  N   CYS A   1     -10.612  11.146  62.751  1.00  0.00    -0.758 NA 
ATOM     14  C   CYS A   1     -12.054  12.430  64.262  1.00  0.00    -0.433 C  
ATOM     15  H2  CYS A   1      -9.842  10.482  62.665  1.00  0.00     0.000 HD 
ATOM     16  H1  CYS A   1     -11.387  10.887  62.141  1.00  0.00     0.000 HD 
ATOM     17  OXT CYS A   1     -12.810  12.629  65.199  1.00  0.00    -0.721 OA 
ATOM     18  O   CYS A   1     -11.996  13.232  63.165  1.00  0.00    -0.476 OA 
ENDBRANCH  11  12
ENDBRANCH  10  11
ENDBRANCH   9  10
ENDBRANCH   8   9
ENDBRANCH   3   8
TORSDOF 5
ENDMDL
MODEL      101
REMARK 921   NORMALIZED FREE ENERGY PREDICTED BY IDOCK:   -3.65 KCAL/MOL
REMARK 922        TOTAL FREE ENERGY PREDICTED BY IDOCK:   -5.33 KCAL/MOL
REMARK 923 INTER-LIGAND FREE ENERGY PREDICTED BY IDOCK:   -4.85 KCAL/MOL
REMARK 924 INTRA-LIGAND FREE ENERGY PREDICTED BY IDOCK:   -0.48 KCAL/MOL
REMARK 927      BINDING AFFINITY PREDICTED BY RF-SCORE:    0.00 PKD
ROOT
ATOM      1  N   CYS A   1     -12.410  11.048  68.534  1.00  0.00    -0.724 NA 
ATOM      2  H2  CYS A   1     -12.544  10.078  68.821  1.00  0.00     0.000 HD 
ATOM      3  CA  CYS A   1     -10.976  11.294  68.179  1.00  0.00    -0.231 C  
ATOM      4  H1  CYS A   1     -12.785  11.682  69.240  1.00  0.00     0.000 HD 
ATOM      5  O   CYS A   1     -11.879  13.504  68.155  1.00  0.00    -0.339 OA 
ATOM      6  C   CYS A   1     -10.856  12.744  67.685  1.00  0.00    -0.228 C  
ATOM      7  OXT CYS A   1      -9.961  13.182  66.981  1.00  0.00    -0.235 OA 
ENDROOT
BRANCH   3   8
ATOM      8  CB  CYS A   1     -10.411  10.340  67.116  1.00  0.00    -0.254 C  
BRANCH   8   9
ATOM      9  SG  CYS A   1      -9.644   8.867  67.885  1.00  0.00    -0.152 SA 
BRANCH   9  10
ATOM     10  SG  CYS A   1      -9.647   9.379  69.879  1.00  0.00    -0.227 SA 
BRANCH  10  11
ATOM     11  CB  CYS A   1     -11.090   8.446  70.501  1.00  0.00    -0.252 C  
BRANCH  11  12
ATOM     12  CA  CYS A   1     -11.442   8.842  71.942  1.00  0.00    -0.372 C  
ATOM     13  N   CYS A   1     -11.793   7.668  72.806  1.00  0.00    -0.593 NA 
ATOM     14  C   CYS A   1     -12.662   9.762  71.872  1.00  0.00    -0.410 C  
ATOM     15  H2  CYS A   1     -11.048   6.971  72.791  1.00  0.00     0.000 HD 
ATOM     16  H1  CYS A   1     -12.027   7.932  73.763  1.00  0.00     0.000 HD 
ATOM     17  OXT CYS A   1     -12.645  10.928  71.515  1.00  0.00    -0.384 OA 
ATOM     18  O   CYS A   1     -13.801   9.100  72.212  1.00  0.00    -0.450 OA 
ENDBRANCH  11  12
ENDBRANCH  10  11
ENDBRANCH   9  10
ENDBRANCH   8   9
ENDBRANCH   3   8
TORSDOF 5
ENDMDL
MODEL      102
REMARK 921   NORMALIZED FREE ENERGY PREDICTED BY IDOCK:   -3.65 KCAL/MOL
REMARK 922        TOTAL FREE ENERGY PREDICTED BY IDOCK:   -5.33 KCAL/MOL
REMARK 923 INTER-LIGAND FREE ENERGY PREDICTED BY IDOCK:   -4.72 KCAL/MOL
REMARK 924 INTRA-LIGAND FREE ENERGY PREDICTED BY IDOCK:   -0.60 KCAL/MOL
REMARK 927      BINDING AFFINITY PREDICTED BY RF-SCORE:    0.00 PKD
ROOT
ATOM      1  N   CYS A   1     -11.499  11.286  67.770  1.00  0.00    -0.458 NA 
ATOM      2  H2  CYS A   1     -11.844  12.238  67.652  1.00  0.00     0.000 HD 
ATOM      3  CA  CYS A   1     -10.708  10.864  66.569  1.00  0.00    -0.209 C  
ATOM      4  H1  CYS A   1     -12.265  10.657  68.012  1.00  0.00     0.000 HD 
ATOM      5  O   CYS A   1     -10.893   8.817  67.785  1.00  0.00    -0.167 OA 
ATOM      6  C   CYS A   1     -10.154   9.457  66.842  1.00  0.00    -0.248 C  
ATOM      7  OXT CYS A   1      -9.193   8.953  66.283  1.00  0.00    -0.175 OA 
ENDROOT
BRANCH   3   8
ATOM      8  CB  CYS A   1      -9.555  11.810  66.204  1.00  0.00    -0.232 C  
BRANCH   8   9
ATOM      9  SG  CYS A   1      -8.874  12.634  67.690  1.00  0.00    -0.196 SA 
BRANCH   9  10
ATOM     10  SG  CYS A   1      -8.840  14.607  67.102  1.00  0.00    -0.231 SA 
BRANCH  10  11
ATOM     11  CB  CYS A   1      -9.966  14.586  65.662  1.00  0.00    -0.347 C  
BRANCH  11  12
ATOM     12  CA  CYS A   1     -11.328  15.211  66.000  1.00  0.00    -0.221 C  
ATOM     13  N   CYS A   1     -12.205  14.306  66.811  1.00  0.00    -0.529 NA 
ATOM     14  C   CYS A   1     -12.035  15.495  64.674  1.00  0.00    -0.114 C  
ATOM     15  H2  CYS A   1     -11.726  13.997  67.658  1.00  0.00     0.000 HD 
ATOM     16  H1  CYS A   1     -13.109  14.722  67.035  1.00  0.00     0.000 HD 
ATOM     17  OXT CYS A   1     -11.761  16.409  63.912  1.00  0.00    -1.085 OA 
ATOM     18  O   CYS A   1     -12.990  14.563  64.412  1.00  0.00    -0.510 OA 
ENDBRANCH  11  12
ENDBRANCH  10  11
ENDBRANCH   9  10
ENDBRANCH   8   9
ENDBRANCH   3   8
TORSDOF 5
ENDMDL
MODEL      103
REMARK 921   NORMALIZED FREE ENERGY PREDICTED BY IDOCK:   -3.64 KCAL/MOL
REMARK 922        TOTAL FREE ENERGY PREDICTED BY IDOCK:   -5.32 KCAL/MOL
REMARK 923 INTER-LIGAND FREE ENERGY PREDICTED BY IDOCK:   -5.09 KCAL/MOL
REMARK 924 INTRA-LIGAND FREE ENERGY PREDICTED BY IDOCK:   -0.23 KCAL/MOL
REMARK 927      BINDING AFFINITY PREDICTED BY RF-SCORE:    0.00 PKD
ROOT
ATOM      1  N   CYS A   1     -10.366  16.531  66.168  1.00  0.00    -0.331 NA 
ATOM      2  H2  CYS A   1      -9.811  16.419  67.017  1.00  0.00     0.000 HD 
ATOM      3  CA  CYS A   1     -10.840  15.198  65.675  1.00  0.00    -0.360 C  
ATOM      4  H1  CYS A   1      -9.853  17.079  65.477  1.00  0.00     0.000 HD 
ATOM      5  O   CYS A   1     -11.449  16.639  63.871  1.00  0.00    -1.186 OA 
ATOM      6  C   CYS A   1     -11.729  15.441  64.446  1.00  0.00    -0.258 C  
ATOM      7  OXT CYS A   1     -12.567  14.667  64.013  1.00  0.00    -0.819 OA 
ENDROOT
BRANCH   3   8
ATOM      8  CB  CYS A   1     -11.613  14.373  66.715  1.00  0.00    -0.385 C  
BRANCH   8   9
ATOM      9  SG  CYS A   1     -10.477  13.572  67.905  1.00  0.00    -0.256 SA 
BRANCH   9  10
ATOM     10  SG  CYS A   1     -11.665  12.085  68.689  1.00  0.00    -0.322 SA 
BRANCH  10  11
ATOM     11  CB  CYS A   1     -11.049  10.610  67.800  1.00  0.00    -0.321 C  
BRANCH  11  12
ATOM     12  CA  CYS A   1     -10.333   9.636  68.747  1.00  0.00    -0.213 C  
ATOM     13  N   CYS A   1     -10.420  10.046  70.186  1.00  0.00    -0.279 NA 
ATOM     14  C   CYS A   1      -8.857   9.621  68.346  1.00  0.00    -0.123 C  
ATOM     15  H2  CYS A   1     -11.391  10.180  70.468  1.00  0.00     0.000 HD 
ATOM     16  H1  CYS A   1      -9.944   9.399  70.815  1.00  0.00     0.000 HD 
ATOM     17  OXT CYS A   1      -8.401   9.060  67.363  1.00  0.00    -0.111 OA 
ATOM     18  O   CYS A   1      -8.103  10.362  69.201  1.00  0.00    -0.129 OA 
ENDBRANCH  11  12
ENDBRANCH  10  11
ENDBRANCH   9  10
ENDBRANCH   8   9
ENDBRANCH   3   8
TORSDOF 5
ENDMDL
MODEL      104
REMARK 921   NORMALIZED FREE ENERGY PREDICTED BY IDOCK:   -3.64 KCAL/MOL
REMARK 922        TOTAL FREE ENERGY PREDICTED BY IDOCK:   -5.32 KCAL/MOL
REMARK 923 INTER-LIGAND FREE ENERGY PREDICTED BY IDOCK:   -5.03 KCAL/MOL
REMARK 924 INTRA-LIGAND FREE ENERGY PREDICTED BY IDOCK:   -0.29 KCAL/MOL
REMARK 927      BINDING AFFINITY PREDICTED BY RF-SCORE:    0.00 PKD
ROOT
ATOM      1  N   CYS A   1      -9.899  13.376  65.160  1.00  0.00    -0.556 NA 
ATOM      2  H2  CYS A   1      -9.249  13.646  65.899  1.00  0.00     0.000 HD 
ATOM      3  CA  CYS A   1     -11.200  12.923  65.750  1.00  0.00    -0.294 C  
ATOM      4  H1  CYS A   1      -9.463  12.701  64.532  1.00  0.00     0.000 HD 
ATOM      5  O   CYS A   1     -11.467  12.339  63.450  1.00  0.00    -0.439 OA 
ATOM      6  C   CYS A   1     -12.156  12.605  64.590  1.00  0.00    -0.420 C  
ATOM      7  OXT CYS A   1     -13.374  12.572  64.663  1.00  0.00    -0.804 OA 
ENDROOT
BRANCH   3   8
ATOM      8  CB  CYS A   1     -11.857  13.938  66.696  1.00  0.00    -0.420 C  
BRANCH   8   9
ATOM      9  SG  CYS A   1     -11.875  13.325  68.421  1.00  0.00    -0.332 SA 
BRANCH   9  10
ATOM     10  SG  CYS A   1     -11.738  11.289  68.149  1.00  0.00    -0.198 SA 
BRANCH  10  11
ATOM     11  CB  CYS A   1     -10.064  10.940  68.795  1.00  0.00    -0.194 C  
BRANCH  11  12
ATOM     12  CA  CYS A   1      -9.923   9.477  69.240  1.00  0.00    -0.187 C  
ATOM     13  N   CYS A   1     -11.242   8.812  69.498  1.00  0.00    -0.434 NA 
ATOM     14  C   CYS A   1      -9.127   9.478  70.546  1.00  0.00    -0.219 C  
ATOM     15  H2  CYS A   1     -11.853   8.888  68.684  1.00  0.00     0.000 HD 
ATOM     16  H1  CYS A   1     -11.148   7.841  69.794  1.00  0.00     0.000 HD 
ATOM     17  OXT CYS A   1      -7.925   9.661  70.637  1.00  0.00    -0.241 OA 
ATOM     18  O   CYS A   1      -9.941   9.297  71.622  1.00  0.00    -0.294 OA 
ENDBRANCH  11  12
ENDBRANCH  10  11
ENDBRANCH   9  10
ENDBRANCH   8   9
ENDBRANCH   3   8
TORSDOF 5
ENDMDL
MODEL      105
REMARK 921   NORMALIZED FREE ENERGY PREDICTED BY IDOCK:   -3.64 KCAL/MOL
REMARK 922        TOTAL FREE ENERGY PREDICTED BY IDOCK:   -5.31 KCAL/MOL
REMARK 923 INTER-LIGAND FREE ENERGY PREDICTED BY IDOCK:   -5.05 KCAL/MOL
REMARK 924 INTRA-LIGAND FREE ENERGY PREDICTED BY IDOCK:   -0.27 KCAL/MOL
REMARK 927      BINDING AFFINITY PREDICTED BY RF-SCORE:    0.00 PKD
ROOT
ATOM      1  N   CYS A   1     -10.948   9.304  68.687  1.00  0.00    -0.450 NA 
ATOM      2  H2  CYS A   1     -10.974  10.300  68.905  1.00  0.00     0.000 HD 
ATOM      3  CA  CYS A   1     -10.099   9.055  67.478  1.00  0.00    -0.228 C  
ATOM      4  H1  CYS A   1     -11.896   8.930  68.621  1.00  0.00     0.000 HD 
ATOM      5  O   CYS A   1     -11.099   6.916  67.831  1.00  0.00    -0.199 OA 
ATOM      6  C   CYS A   1     -10.040   7.537  67.250  1.00  0.00    -0.231 C  
ATOM      7  OXT CYS A   1      -9.178   6.948  66.618  1.00  0.00    -0.147 OA 
ENDROOT
BRANCH   3   8
ATOM      8  CB  CYS A   1      -8.674   9.617  67.577  1.00  0.00    -0.125 C  
BRANCH   8   9
ATOM      9  SG  CYS A   1      -8.305  10.743  66.181  1.00  0.00    -0.167 SA 
BRANCH   9  10
ATOM     10  SG  CYS A   1      -9.990  10.540  65.016  1.00  0.00    -0.329 SA 
BRANCH  10  11
ATOM     11  CB  CYS A   1     -10.487  12.283  64.774  1.00  0.00    -0.296 C  
BRANCH  11  12
ATOM     12  CA  CYS A   1     -12.011  12.426  64.661  1.00  0.00    -0.394 C  
ATOM     13  N   CYS A   1     -12.540  12.037  63.314  1.00  0.00    -0.839 NA 
ATOM     14  C   CYS A   1     -12.344  13.901  64.895  1.00  0.00    -0.420 C  
ATOM     15  H2  CYS A   1     -12.244  11.093  63.065  1.00  0.00     0.000 HD 
ATOM     16  H1  CYS A   1     -13.553  12.133  63.240  1.00  0.00     0.000 HD 
ATOM     17  OXT CYS A   1     -12.333  14.461  65.979  1.00  0.00    -0.394 OA 
ATOM     18  O   CYS A   1     -12.610  14.540  63.724  1.00  0.00    -0.825 OA 
ENDBRANCH  11  12
ENDBRANCH  10  11
ENDBRANCH   9  10
ENDBRANCH   8   9
ENDBRANCH   3   8
TORSDOF 5
ENDMDL
MODEL      106
REMARK 921   NORMALIZED FREE ENERGY PREDICTED BY IDOCK:   -3.63 KCAL/MOL
REMARK 922        TOTAL FREE ENERGY PREDICTED BY IDOCK:   -5.31 KCAL/MOL
REMARK 923 INTER-LIGAND FREE ENERGY PREDICTED BY IDOCK:   -5.11 KCAL/MOL
REMARK 924 INTRA-LIGAND FREE ENERGY PREDICTED BY IDOCK:   -0.19 KCAL/MOL
REMARK 927      BINDING AFFINITY PREDICTED BY RF-SCORE:    0.00 PKD
ROOT
ATOM      1  N   CYS A   1     -11.740  10.338  69.770  1.00  0.00    -0.401 NA 
ATOM      2  H2  CYS A   1     -12.371  11.059  70.121  1.00  0.00     0.000 HD 
ATOM      3  CA  CYS A   1     -11.267  10.684  68.391  1.00  0.00    -0.288 C  
ATOM      4  H1  CYS A   1     -12.173   9.418  69.849  1.00  0.00     0.000 HD 
ATOM      5  O   CYS A   1     -10.457   8.453  68.648  1.00  0.00    -0.208 OA 
ATOM      6  C   CYS A   1     -10.267   9.603  67.952  1.00  0.00    -0.198 C  
ATOM      7  OXT CYS A   1      -9.419   9.732  67.084  1.00  0.00    -0.148 OA 
ENDROOT
BRANCH   3   8
ATOM      8  CB  CYS A   1     -10.616  12.069  68.270  1.00  0.00    -0.212 C  
BRANCH   8   9
ATOM      9  SG  CYS A   1     -11.842  13.342  67.795  1.00  0.00    -0.329 SA 
BRANCH   9  10
ATOM     10  SG  CYS A   1     -11.371  14.883  69.076  1.00  0.00    -0.312 SA 
BRANCH  10  11
ATOM     11  CB  CYS A   1     -11.874  14.192  70.692  1.00  0.00    -0.263 C  
BRANCH  11  12
ATOM     12  CA  CYS A   1     -12.763  15.170  71.473  1.00  0.00    -0.358 C  
ATOM     13  N   CYS A   1     -12.012  16.359  71.993  1.00  0.00    -0.649 NA 
ATOM     14  C   CYS A   1     -13.330  14.405  72.670  1.00  0.00    -0.507 C  
ATOM     15  H2  CYS A   1     -11.521  16.838  71.238  1.00  0.00     0.000 HD 
ATOM     16  H1  CYS A   1     -12.604  17.008  72.512  1.00  0.00     0.000 HD 
ATOM     17  OXT CYS A   1     -14.223  13.576  72.616  1.00  0.00    -0.751 OA 
ATOM     18  O   CYS A   1     -12.675  14.726  73.819  1.00  0.00    -0.491 OA 
ENDBRANCH  11  12
ENDBRANCH  10  11
ENDBRANCH   9  10
ENDBRANCH   8   9
ENDBRANCH   3   8
TORSDOF 5
ENDMDL
MODEL      107
REMARK 921   NORMALIZED FREE ENERGY PREDICTED BY IDOCK:   -3.62 KCAL/MOL
REMARK 922        TOTAL FREE ENERGY PREDICTED BY IDOCK:   -5.29 KCAL/MOL
REMARK 923 INTER-LIGAND FREE ENERGY PREDICTED BY IDOCK:   -5.01 KCAL/MOL
REMARK 924 INTRA-LIGAND FREE ENERGY PREDICTED BY IDOCK:   -0.29 KCAL/MOL
REMARK 927      BINDING AFFINITY PREDICTED BY RF-SCORE:    0.00 PKD
ROOT
ATOM      1  N   CYS A   1      -9.991  12.380  68.733  1.00  0.00    -0.418 NA 
ATOM      2  H2  CYS A   1      -9.466  13.016  69.334  1.00  0.00     0.000 HD 
ATOM      3  CA  CYS A   1     -10.971  13.142  67.895  1.00  0.00    -0.249 C  
ATOM      4  H1  CYS A   1     -10.404  11.628  69.287  1.00  0.00     0.000 HD 
ATOM      5  O   CYS A   1     -11.604  10.880  67.465  1.00  0.00    -0.526 OA 
ATOM      6  C   CYS A   1     -11.671  12.140  66.963  1.00  0.00    -0.303 C  
ATOM      7  OXT CYS A   1     -12.235  12.419  65.918  1.00  0.00    -0.629 OA 
ENDROOT
BRANCH   3   8
ATOM      8  CB  CYS A   1     -10.350  14.273  67.062  1.00  0.00    -0.267 C  
BRANCH   8   9
ATOM      9  SG  CYS A   1     -10.836  15.916  67.706  1.00  0.00    -0.313 SA 
BRANCH   9  10
ATOM     10  SG  CYS A   1     -10.520  17.123  66.069  1.00  0.00    -0.186 SA 
BRANCH  10  11
ATOM     11  CB  CYS A   1      -9.646  18.544  66.817  1.00  0.00    -0.321 C  
BRANCH  11  12
ATOM     12  CA  CYS A   1      -9.502  18.384  68.337  1.00  0.00    -0.332 C  
ATOM     13  N   CYS A   1     -10.064  19.542  69.105  1.00  0.00    -0.606 NA 
ATOM     14  C   CYS A   1      -8.006  18.293  68.641  1.00  0.00    -0.289 C  
ATOM     15  H2  CYS A   1     -11.037  19.712  68.848  1.00  0.00     0.000 HD 
ATOM     16  H1  CYS A   1      -9.968  19.435  70.115  1.00  0.00     0.000 HD 
ATOM     17  OXT CYS A   1      -7.304  17.317  68.433  1.00  0.00    -0.204 OA 
ATOM     18  O   CYS A   1      -7.528  19.467  69.133  1.00  0.00    -0.366 OA 
ENDBRANCH  11  12
ENDBRANCH  10  11
ENDBRANCH   9  10
ENDBRANCH   8   9
ENDBRANCH   3   8
TORSDOF 5
ENDMDL
MODEL      108
REMARK 921   NORMALIZED FREE ENERGY PREDICTED BY IDOCK:   -3.60 KCAL/MOL
REMARK 922        TOTAL FREE ENERGY PREDICTED BY IDOCK:   -5.27 KCAL/MOL
REMARK 923 INTER-LIGAND FREE ENERGY PREDICTED BY IDOCK:   -5.02 KCAL/MOL
REMARK 924 INTRA-LIGAND FREE ENERGY PREDICTED BY IDOCK:   -0.25 KCAL/MOL
REMARK 927      BINDING AFFINITY PREDICTED BY RF-SCORE:    0.00 PKD
ROOT
ATOM      1  N   CYS A   1     -12.350  14.474  67.451  1.00  0.00    -0.575 NA 
ATOM      2  H2  CYS A   1     -12.880  13.672  67.107  1.00  0.00     0.000 HD 
ATOM      3  CA  CYS A   1     -11.746  14.167  68.787  1.00  0.00    -0.345 C  
ATOM      4  H1  CYS A   1     -12.927  15.315  67.432  1.00  0.00     0.000 HD 
ATOM      5  O   CYS A   1     -11.314  16.505  68.572  1.00  0.00    -0.356 OA 
ATOM      6  C   CYS A   1     -10.903  15.379  69.211  1.00  0.00    -0.253 C  
ATOM      7  OXT CYS A   1      -9.994  15.361  70.025  1.00  0.00    -0.271 OA 
ENDROOT
BRANCH   3   8
ATOM      8  CB  CYS A   1     -10.879  12.900  68.817  1.00  0.00    -0.242 C  
BRANCH   8   9
ATOM      9  SG  CYS A   1      -9.576  12.956  67.533  1.00  0.00    -0.206 SA 
BRANCH   9  10
ATOM     10  SG  CYS A   1      -9.937  11.221  66.486  1.00  0.00    -0.219 SA 
BRANCH  10  11
ATOM     11  CB  CYS A   1     -11.459  11.650  65.568  1.00  0.00    -0.102 C  
BRANCH  11  12
ATOM     12  CA  CYS A   1     -11.175  11.876  64.076  1.00  0.00    -0.396 C  
ATOM     13  N   CYS A   1     -10.238  13.018  63.823  1.00  0.00    -0.716 NA 
ATOM     14  C   CYS A   1     -12.512  12.202  63.407  1.00  0.00    -0.512 C  
ATOM     15  H2  CYS A   1      -9.369  12.898  64.344  1.00  0.00     0.000 HD 
ATOM     16  H1  CYS A   1     -10.050  13.168  62.831  1.00  0.00     0.000 HD 
ATOM     17  OXT CYS A   1     -13.389  11.391  63.157  1.00  0.00    -0.062 OA 
ATOM     18  O   CYS A   1     -12.633  13.535  63.164  1.00  0.00    -0.762 OA 
ENDBRANCH  11  12
ENDBRANCH  10  11
ENDBRANCH   9  10
ENDBRANCH   8   9
ENDBRANCH   3   8
TORSDOF 5
ENDMDL
MODEL      109
REMARK 921   NORMALIZED FREE ENERGY PREDICTED BY IDOCK:   -3.60 KCAL/MOL
REMARK 922        TOTAL FREE ENERGY PREDICTED BY IDOCK:   -5.27 KCAL/MOL
REMARK 923 INTER-LIGAND FREE ENERGY PREDICTED BY IDOCK:   -5.08 KCAL/MOL
REMARK 924 INTRA-LIGAND FREE ENERGY PREDICTED BY IDOCK:   -0.19 KCAL/MOL
REMARK 927      BINDING AFFINITY PREDICTED BY RF-SCORE:    0.00 PKD
ROOT
ATOM      1  N   CYS A   1     -11.269   7.969  69.431  1.00  0.00    -0.425 NA 
ATOM      2  H2  CYS A   1     -10.491   8.089  68.781  1.00  0.00     0.000 HD 
ATOM      3  CA  CYS A   1     -11.049   8.788  70.666  1.00  0.00    -0.246 C  
ATOM      4  H1  CYS A   1     -11.436   6.978  69.606  1.00  0.00     0.000 HD 
ATOM      5  O   CYS A   1     -12.950   7.477  71.272  1.00  0.00    -0.331 OA 
ATOM      6  C   CYS A   1     -12.285   8.624  71.565  1.00  0.00    -0.318 C  
ATOM      7  OXT CYS A   1     -12.630   9.397  72.443  1.00  0.00    -0.329 OA 
ENDROOT
BRANCH   3   8
ATOM      8  CB  CYS A   1     -10.798  10.280  70.403  1.00  0.00    -0.253 C  
BRANCH   8   9
ATOM      9  SG  CYS A   1     -12.000  10.954  69.198  1.00  0.00    -0.206 SA 
BRANCH   9  10
ATOM     10  SG  CYS A   1     -10.783  12.057  67.957  1.00  0.00    -0.223 SA 
BRANCH  10  11
ATOM     11  CB  CYS A   1     -11.621  11.860  66.344  1.00  0.00    -0.243 C  
BRANCH  11  12
ATOM     12  CA  CYS A   1     -11.665  13.182  65.564  1.00  0.00    -0.357 C  
ATOM     13  N   CYS A   1     -12.989  13.878  65.662  1.00  0.00    -0.619 NA 
ATOM     14  C   CYS A   1     -11.412  12.847  64.093  1.00  0.00    -0.396 C  
ATOM     15  H2  CYS A   1     -13.253  14.021  66.637  1.00  0.00     0.000 HD 
ATOM     16  H1  CYS A   1     -13.018  14.756  65.144  1.00  0.00     0.000 HD 
ATOM     17  OXT CYS A   1     -10.328  12.557  63.614  1.00  0.00    -0.422 OA 
ATOM     18  O   CYS A   1     -12.568  12.861  63.376  1.00  0.00    -0.709 OA 
ENDBRANCH  11  12
ENDBRANCH  10  11
ENDBRANCH   9  10
ENDBRANCH   8   9
ENDBRANCH   3   8
TORSDOF 5
ENDMDL
MODEL      110
REMARK 921   NORMALIZED FREE ENERGY PREDICTED BY IDOCK:   -3.59 KCAL/MOL
REMARK 922        TOTAL FREE ENERGY PREDICTED BY IDOCK:   -5.26 KCAL/MOL
REMARK 923 INTER-LIGAND FREE ENERGY PREDICTED BY IDOCK:   -5.03 KCAL/MOL
REMARK 924 INTRA-LIGAND FREE ENERGY PREDICTED BY IDOCK:   -0.22 KCAL/MOL
REMARK 927      BINDING AFFINITY PREDICTED BY RF-SCORE:    0.00 PKD
ROOT
ATOM      1  N   CYS A   1     -10.989  15.167  65.903  1.00  0.00    -0.338 NA 
ATOM      2  H2  CYS A   1     -10.295  15.360  66.626  1.00  0.00     0.000 HD 
ATOM      3  CA  CYS A   1     -11.339  13.711  65.889  1.00  0.00    -0.309 C  
ATOM      4  H1  CYS A   1     -10.676  15.535  65.004  1.00  0.00     0.000 HD 
ATOM      5  O   CYS A   1     -12.428  14.502  63.917  1.00  0.00    -0.814 OA 
ATOM      6  C   CYS A   1     -12.438  13.502  64.836  1.00  0.00    -0.384 C  
ATOM      7  OXT CYS A   1     -13.215  12.562  64.799  1.00  0.00    -0.839 OA 
ENDROOT
BRANCH   3   8
ATOM      8  CB  CYS A   1     -11.810  13.158  67.242  1.00  0.00    -0.367 C  
BRANCH   8   9
ATOM      9  SG  CYS A   1     -10.871  11.658  67.711  1.00  0.00    -0.232 SA 
BRANCH   9  10
ATOM     10  SG  CYS A   1     -11.792  11.114  69.469  1.00  0.00    -0.376 SA 
BRANCH  10  11
ATOM     11  CB  CYS A   1     -10.616   9.886  70.141  1.00  0.00    -0.297 C  
BRANCH  11  12
ATOM     12  CA  CYS A   1     -10.471   8.673  69.212  1.00  0.00    -0.217 C  
ATOM     13  N   CYS A   1     -11.303   7.502  69.642  1.00  0.00    -0.461 NA 
ATOM     14  C   CYS A   1      -9.002   8.250  69.246  1.00  0.00    -0.147 C  
ATOM     15  H2  CYS A   1     -12.283   7.769  69.743  1.00  0.00     0.000 HD 
ATOM     16  H1  CYS A   1     -11.207   6.696  69.024  1.00  0.00     0.000 HD 
ATOM     17  OXT CYS A   1      -8.089   8.835  68.687  1.00  0.00    -0.112 OA 
ATOM     18  O   CYS A   1      -8.820   7.153  70.030  1.00  0.00    -0.141 OA 
ENDBRANCH  11  12
ENDBRANCH  10  11
ENDBRANCH   9  10
ENDBRANCH   8   9
ENDBRANCH   3   8
TORSDOF 5
ENDMDL
MODEL      111
REMARK 921   NORMALIZED FREE ENERGY PREDICTED BY IDOCK:   -3.58 KCAL/MOL
REMARK 922        TOTAL FREE ENERGY PREDICTED BY IDOCK:   -5.25 KCAL/MOL
REMARK 923 INTER-LIGAND FREE ENERGY PREDICTED BY IDOCK:   -5.02 KCAL/MOL
REMARK 924 INTRA-LIGAND FREE ENERGY PREDICTED BY IDOCK:   -0.23 KCAL/MOL
REMARK 927      BINDING AFFINITY PREDICTED BY RF-SCORE:    0.00 PKD
ROOT
ATOM      1  N   CYS A   1     -11.000  13.320  69.137  1.00  0.00    -0.404 NA 
ATOM      2  H2  CYS A   1     -10.533  12.919  69.951  1.00  0.00     0.000 HD 
ATOM      3  CA  CYS A   1     -11.001  12.343  68.001  1.00  0.00    -0.225 C  
ATOM      4  H1  CYS A   1     -10.600  14.231  68.910  1.00  0.00     0.000 HD 
ATOM      5  O   CYS A   1     -11.809  14.329  66.949  1.00  0.00    -0.398 OA 
ATOM      6  C   CYS A   1     -11.782  12.975  66.839  1.00  0.00    -0.383 C  
ATOM      7  OXT CYS A   1     -12.301  12.365  65.918  1.00  0.00    -0.638 OA 
ENDROOT
BRANCH   3   8
ATOM      8  CB  CYS A   1     -11.604  10.973  68.342  1.00  0.00    -0.302 C  
BRANCH   8   9
ATOM      9  SG  CYS A   1     -10.786  10.231  69.803  1.00  0.00    -0.303 SA 
BRANCH   9  10
ATOM     10  SG  CYS A   1     -10.272   8.366  69.100  1.00  0.00    -0.212 SA 
BRANCH  10  11
ATOM     11  CB  CYS A   1      -9.864   7.484  70.648  1.00  0.00    -0.179 C  
BRANCH  11  12
ATOM     12  CA  CYS A   1     -11.113   6.865  71.293  1.00  0.00    -0.258 C  
ATOM     13  N   CYS A   1     -12.349   7.036  70.462  1.00  0.00    -0.614 NA 
ATOM     14  C   CYS A   1     -11.334   7.582  72.626  1.00  0.00    -0.344 C  
ATOM     15  H2  CYS A   1     -12.206   6.670  69.519  1.00  0.00     0.000 HD 
ATOM     16  H1  CYS A   1     -13.178   6.624  70.891  1.00  0.00     0.000 HD 
ATOM     17  OXT CYS A   1     -10.677   7.404  73.638  1.00  0.00    -0.371 OA 
ATOM     18  O   CYS A   1     -12.337   8.497  72.536  1.00  0.00    -0.388 OA 
ENDBRANCH  11  12
ENDBRANCH  10  11
ENDBRANCH   9  10
ENDBRANCH   8   9
ENDBRANCH   3   8
TORSDOF 5
ENDMDL
MODEL      112
REMARK 921   NORMALIZED FREE ENERGY PREDICTED BY IDOCK:   -3.58 KCAL/MOL
REMARK 922        TOTAL FREE ENERGY PREDICTED BY IDOCK:   -5.24 KCAL/MOL
REMARK 923 INTER-LIGAND FREE ENERGY PREDICTED BY IDOCK:   -4.99 KCAL/MOL
REMARK 924 INTRA-LIGAND FREE ENERGY PREDICTED BY IDOCK:   -0.25 KCAL/MOL
REMARK 927      BINDING AFFINITY PREDICTED BY RF-SCORE:    0.00 PKD
ROOT
ATOM      1  N   CYS A   1     -12.385  14.240  67.580  1.00  0.00    -0.582 NA 
ATOM      2  H2  CYS A   1     -12.008  14.259  68.528  1.00  0.00     0.000 HD 
ATOM      3  CA  CYS A   1     -11.715  13.171  66.772  1.00  0.00    -0.385 C  
ATOM      4  H1  CYS A   1     -12.345  15.171  67.164  1.00  0.00     0.000 HD 
ATOM      5  O   CYS A   1     -12.975  14.333  65.110  1.00  0.00    -0.692 OA 
ATOM      6  C   CYS A   1     -12.378  13.145  65.386  1.00  0.00    -0.481 C  
ATOM      7  OXT CYS A   1     -12.365  12.202  64.612  1.00  0.00    -0.372 OA 
ENDROOT
BRANCH   3   8
ATOM      8  CB  CYS A   1     -11.774  11.770  67.398  1.00  0.00    -0.230 C  
BRANCH   8   9
ATOM      9  SG  CYS A   1     -10.097  11.082  67.649  1.00  0.00    -0.187 SA 
BRANCH   9  10
ATOM     10  SG  CYS A   1     -10.470   9.058  67.683  1.00  0.00    -0.241 SA 
BRANCH  10  11
ATOM     11  CB  CYS A   1      -9.389   8.504  69.050  1.00  0.00    -0.146 C  
BRANCH  11  12
ATOM     12  CA  CYS A   1     -10.206   7.995  70.247  1.00  0.00    -0.200 C  
ATOM     13  N   CYS A   1     -11.675   7.906  69.960  1.00  0.00    -0.443 NA 
ATOM     14  C   CYS A   1     -10.005   8.994  71.388  1.00  0.00    -0.318 C  
ATOM     15  H2  CYS A   1     -11.850   7.337  69.131  1.00  0.00     0.000 HD 
ATOM     16  H1  CYS A   1     -12.217   7.568  70.755  1.00  0.00     0.000 HD 
ATOM     17  OXT CYS A   1      -8.997   9.091  72.068  1.00  0.00    -0.374 OA 
ATOM     18  O   CYS A   1     -11.083   9.813  71.525  1.00  0.00    -0.343 OA 
ENDBRANCH  11  12
ENDBRANCH  10  11
ENDBRANCH   9  10
ENDBRANCH   8   9
ENDBRANCH   3   8
TORSDOF 5
ENDMDL
MODEL      113
REMARK 921   NORMALIZED FREE ENERGY PREDICTED BY IDOCK:   -3.56 KCAL/MOL
REMARK 922        TOTAL FREE ENERGY PREDICTED BY IDOCK:   -5.22 KCAL/MOL
REMARK 923 INTER-LIGAND FREE ENERGY PREDICTED BY IDOCK:   -5.02 KCAL/MOL
REMARK 924 INTRA-LIGAND FREE ENERGY PREDICTED BY IDOCK:   -0.20 KCAL/MOL
REMARK 927      BINDING AFFINITY PREDICTED BY RF-SCORE:    0.00 PKD
ROOT
ATOM      1  N   CYS A   1     -11.669   7.516  69.997  1.00  0.00    -0.488 NA 
ATOM      2  H2  CYS A   1     -10.816   7.358  69.461  1.00  0.00     0.000 HD 
ATOM      3  CA  CYS A   1     -11.402   8.443  71.143  1.00  0.00    -0.268 C  
ATOM      4  H1  CYS A   1     -12.092   6.627  70.263  1.00  0.00     0.000 HD 
ATOM      5  O   CYS A   1     -13.623   7.701  71.612  1.00  0.00    -0.360 OA 
ATOM      6  C   CYS A   1     -12.737   8.700  71.860  1.00  0.00    -0.366 C  
ATOM      7  OXT CYS A   1     -12.983   9.656  72.577  1.00  0.00    -0.331 OA 
ENDROOT
BRANCH   3   8
ATOM      8  CB  CYS A   1     -10.766   9.782  70.742  1.00  0.00    -0.323 C  
BRANCH   8   9
ATOM      9  SG  CYS A   1     -11.760  10.634  69.462  1.00  0.00    -0.270 SA 
BRANCH   9  10
ATOM     10  SG  CYS A   1     -10.301  11.523  68.315  1.00  0.00    -0.204 SA 
BRANCH  10  11
ATOM     11  CB  CYS A   1     -11.006  11.375  66.635  1.00  0.00    -0.285 C  
BRANCH  11  12
ATOM     12  CA  CYS A   1     -10.772  12.648  65.808  1.00  0.00    -0.268 C  
ATOM     13  N   CYS A   1      -9.637  13.481  66.322  1.00  0.00    -0.378 NA 
ATOM     14  C   CYS A   1     -12.051  13.482  65.893  1.00  0.00    -0.435 C  
ATOM     15  H2  CYS A   1      -8.782  12.928  66.391  1.00  0.00     0.000 HD 
ATOM     16  H1  CYS A   1      -9.482  14.326  65.773  1.00  0.00     0.000 HD 
ATOM     17  OXT CYS A   1     -13.089  13.242  65.299  1.00  0.00    -0.652 OA 
ATOM     18  O   CYS A   1     -11.910  14.517  66.765  1.00  0.00    -0.392 OA 
ENDBRANCH  11  12
ENDBRANCH  10  11
ENDBRANCH   9  10
ENDBRANCH   8   9
ENDBRANCH   3   8
TORSDOF 5
ENDMDL
MODEL      114
REMARK 921   NORMALIZED FREE ENERGY PREDICTED BY IDOCK:   -3.56 KCAL/MOL
REMARK 922        TOTAL FREE ENERGY PREDICTED BY IDOCK:   -5.22 KCAL/MOL
REMARK 923 INTER-LIGAND FREE ENERGY PREDICTED BY IDOCK:   -4.99 KCAL/MOL
REMARK 924 INTRA-LIGAND FREE ENERGY PREDICTED BY IDOCK:   -0.23 KCAL/MOL
REMARK 927      BINDING AFFINITY PREDICTED BY RF-SCORE:    0.00 PKD
ROOT
ATOM      1  N   CYS A   1     -12.711  12.100  71.247  1.00  0.00    -0.330 NA 
ATOM      2  H2  CYS A   1     -11.966  11.504  70.886  1.00  0.00     0.000 HD 
ATOM      3  CA  CYS A   1     -12.445  13.534  70.904  1.00  0.00    -0.369 C  
ATOM      4  H1  CYS A   1     -12.855  11.924  72.242  1.00  0.00     0.000 HD 
ATOM      5  O   CYS A   1     -14.297  13.717  72.400  1.00  0.00    -0.661 OA 
ATOM      6  C   CYS A   1     -13.635  14.366  71.408  1.00  0.00    -0.360 C  
ATOM      7  OXT CYS A   1     -13.949  15.472  71.000  1.00  0.00    -0.535 OA 
ENDROOT
BRANCH   3   8
ATOM      8  CB  CYS A   1     -12.227  13.800  69.408  1.00  0.00    -0.278 C  
BRANCH   8   9
ATOM      9  SG  CYS A   1     -10.990  15.122  69.140  1.00  0.00    -0.275 SA 
BRANCH   9  10
ATOM     10  SG  CYS A   1      -9.996  14.442  67.471  1.00  0.00    -0.224 SA 
BRANCH  10  11
ATOM     11  CB  CYS A   1     -10.492  15.674  66.215  1.00  0.00    -0.306 C  
BRANCH  11  12
ATOM     12  CA  CYS A   1      -9.467  16.812  66.102  1.00  0.00    -0.264 C  
ATOM     13  N   CYS A   1      -8.403  16.750  67.156  1.00  0.00    -0.176 NA 
ATOM     14  C   CYS A   1     -10.231  18.126  66.274  1.00  0.00    -0.395 C  
ATOM     15  H2  CYS A   1      -7.940  15.841  67.152  1.00  0.00     0.000 HD 
ATOM     16  H1  CYS A   1      -7.722  17.506  67.081  1.00  0.00     0.000 HD 
ATOM     17  OXT CYS A   1     -10.949  18.638  65.431  1.00  0.00    -0.491 OA 
ATOM     18  O   CYS A   1     -10.053  18.642  67.520  1.00  0.00    -0.326 OA 
ENDBRANCH  11  12
ENDBRANCH  10  11
ENDBRANCH   9  10
ENDBRANCH   8   9
ENDBRANCH   3   8
TORSDOF 5
ENDMDL
MODEL      115
REMARK 921   NORMALIZED FREE ENERGY PREDICTED BY IDOCK:   -3.55 KCAL/MOL
REMARK 922        TOTAL FREE ENERGY PREDICTED BY IDOCK:   -5.20 KCAL/MOL
REMARK 923 INTER-LIGAND FREE ENERGY PREDICTED BY IDOCK:   -4.96 KCAL/MOL
REMARK 924 INTRA-LIGAND FREE ENERGY PREDICTED BY IDOCK:   -0.25 KCAL/MOL
REMARK 927      BINDING AFFINITY PREDICTED BY RF-SCORE:    0.00 PKD
ROOT
ATOM      1  N   CYS A   1     -10.278  18.940  68.831  1.00  0.00    -0.495 NA 
ATOM      2  H2  CYS A   1     -10.229  18.563  69.777  1.00  0.00     0.000 HD 
ATOM      3  CA  CYS A   1      -8.957  18.795  68.141  1.00  0.00    -0.308 C  
ATOM      4  H1  CYS A   1     -10.643  19.893  68.847  1.00  0.00     0.000 HD 
ATOM      5  O   CYS A   1     -10.169  20.165  66.607  1.00  0.00    -0.442 OA 
ATOM      6  C   CYS A   1      -9.119  19.310  66.702  1.00  0.00    -0.338 C  
ATOM      7  OXT CYS A   1      -8.400  19.019  65.760  1.00  0.00    -0.438 OA 
ENDROOT
BRANCH   3   8
ATOM      8  CB  CYS A   1      -8.407  17.362  68.116  1.00  0.00    -0.240 C  
BRANCH   8   9
ATOM      9  SG  CYS A   1      -9.761  16.129  68.131  1.00  0.00    -0.225 SA 
BRANCH   9  10
ATOM     10  SG  CYS A   1     -10.233  15.993  66.132  1.00  0.00    -0.342 SA 
BRANCH  10  11
ATOM     11  CB  CYS A   1     -11.119  14.396  66.067  1.00  0.00    -0.324 C  
BRANCH  11  12
ATOM     12  CA  CYS A   1     -10.494  13.363  67.015  1.00  0.00    -0.257 C  
ATOM     13  N   CYS A   1      -9.857  12.213  66.293  1.00  0.00    -0.229 NA 
ATOM     14  C   CYS A   1     -11.623  12.809  67.887  1.00  0.00    -0.351 C  
ATOM     15  H2  CYS A   1      -9.172  12.545  65.613  1.00  0.00     0.000 HD 
ATOM     16  H1  CYS A   1      -9.442  11.527  66.924  1.00  0.00     0.000 HD 
ATOM     17  OXT CYS A   1     -12.148  13.400  68.816  1.00  0.00    -0.337 OA 
ATOM     18  O   CYS A   1     -12.016  11.577  67.466  1.00  0.00    -0.629 OA 
ENDBRANCH  11  12
ENDBRANCH  10  11
ENDBRANCH   9  10
ENDBRANCH   8   9
ENDBRANCH   3   8
TORSDOF 5
ENDMDL
MODEL      116
REMARK 921   NORMALIZED FREE ENERGY PREDICTED BY IDOCK:   -3.55 KCAL/MOL
REMARK 922        TOTAL FREE ENERGY PREDICTED BY IDOCK:   -5.20 KCAL/MOL
REMARK 923 INTER-LIGAND FREE ENERGY PREDICTED BY IDOCK:   -4.93 KCAL/MOL
REMARK 924 INTRA-LIGAND FREE ENERGY PREDICTED BY IDOCK:   -0.27 KCAL/MOL
REMARK 927      BINDING AFFINITY PREDICTED BY RF-SCORE:    0.00 PKD
ROOT
ATOM      1  N   CYS A   1      -9.560   6.314  67.157  1.00  0.00    -0.128 NA 
ATOM      2  H2  CYS A   1      -9.567   5.377  67.560  1.00  0.00     0.000 HD 
ATOM      3  CA  CYS A   1     -10.562   7.187  67.848  1.00  0.00    -0.208 C  
ATOM      4  H1  CYS A   1      -9.669   6.267  66.144  1.00  0.00     0.000 HD 
ATOM      5  O   CYS A   1      -9.894   8.558  66.011  1.00  0.00    -0.212 OA 
ATOM      6  C   CYS A   1     -10.449   8.598  67.250  1.00  0.00    -0.289 C  
ATOM      7  OXT CYS A   1     -10.818   9.628  67.789  1.00  0.00    -0.270 OA 
ENDROOT
BRANCH   3   8
ATOM      8  CB  CYS A   1     -10.399   7.259  69.373  1.00  0.00    -0.208 C  
BRANCH   8   9
ATOM      9  SG  CYS A   1     -10.661   5.621  70.148  1.00  0.00    -0.301 SA 
BRANCH   9  10
ATOM     10  SG  CYS A   1     -11.409   6.141  71.994  1.00  0.00    -0.299 SA 
BRANCH  10  11
ATOM     11  CB  CYS A   1     -12.676   7.380  71.546  1.00  0.00    -0.372 C  
BRANCH  11  12
ATOM     12  CA  CYS A   1     -12.588   8.627  72.439  1.00  0.00    -0.362 C  
ATOM     13  N   CYS A   1     -13.888   8.965  73.105  1.00  0.00    -1.176 NA 
ATOM     14  C   CYS A   1     -12.197   9.800  71.538  1.00  0.00    -0.406 C  
ATOM     15  H2  CYS A   1     -14.247   8.166  73.629  1.00  0.00     0.000 HD 
ATOM     16  H1  CYS A   1     -13.829   9.793  73.697  1.00  0.00     0.000 HD 
ATOM     17  OXT CYS A   1     -11.081   9.998  71.086  1.00  0.00    -0.333 OA 
ATOM     18  O   CYS A   1     -13.270  10.584  71.252  1.00  0.00    -0.365 OA 
ENDBRANCH  11  12
ENDBRANCH  10  11
ENDBRANCH   9  10
ENDBRANCH   8   9
ENDBRANCH   3   8
TORSDOF 5
ENDMDL
MODEL      117
REMARK 921   NORMALIZED FREE ENERGY PREDICTED BY IDOCK:   -3.53 KCAL/MOL
REMARK 922        TOTAL FREE ENERGY PREDICTED BY IDOCK:   -5.17 KCAL/MOL
REMARK 923 INTER-LIGAND FREE ENERGY PREDICTED BY IDOCK:   -4.95 KCAL/MOL
REMARK 924 INTRA-LIGAND FREE ENERGY PREDICTED BY IDOCK:   -0.22 KCAL/MOL
REMARK 927      BINDING AFFINITY PREDICTED BY RF-SCORE:    0.00 PKD
ROOT
ATOM      1  N   CYS A   1     -12.110   7.514  70.286  1.00  0.00    -0.481 NA 
ATOM      2  H2  CYS A   1     -11.152   7.624  69.956  1.00  0.00     0.000 HD 
ATOM      3  CA  CYS A   1     -12.318   8.283  71.555  1.00  0.00    -0.306 C  
ATOM      4  H1  CYS A   1     -12.353   6.524  70.349  1.00  0.00     0.000 HD 
ATOM      5  O   CYS A   1     -14.343   7.027  71.399  1.00  0.00    -0.330 OA 
ATOM      6  C   CYS A   1     -13.794   8.138  71.956  1.00  0.00    -0.314 C  
ATOM      7  OXT CYS A   1     -14.407   8.895  72.691  1.00  0.00    -0.613 OA 
ENDROOT
BRANCH   3   8
ATOM      8  CB  CYS A   1     -11.954   9.772  71.461  1.00  0.00    -0.407 C  
BRANCH   8   9
ATOM      9  SG  CYS A   1     -10.693  10.069  70.169  1.00  0.00    -0.316 SA 
BRANCH   9  10
ATOM     10  SG  CYS A   1     -11.773  11.098  68.750  1.00  0.00    -0.310 SA 
BRANCH  10  11
ATOM     11  CB  CYS A   1     -10.917  12.713  68.730  1.00  0.00    -0.249 C  
BRANCH  11  12
ATOM     12  CA  CYS A   1     -11.912  13.881  68.743  1.00  0.00    -0.358 C  
ATOM     13  N   CYS A   1     -11.614  14.918  67.702  1.00  0.00    -0.346 NA 
ATOM     14  C   CYS A   1     -11.811  14.545  70.117  1.00  0.00    -0.308 C  
ATOM     15  H2  CYS A   1     -11.559  14.497  66.774  1.00  0.00     0.000 HD 
ATOM     16  H1  CYS A   1     -12.276  15.695  67.711  1.00  0.00     0.000 HD 
ATOM     17  OXT CYS A   1     -12.271  14.092  71.152  1.00  0.00    -0.343 OA 
ATOM     18  O   CYS A   1     -11.091  15.697  70.060  1.00  0.00    -0.265 OA 
ENDBRANCH  11  12
ENDBRANCH  10  11
ENDBRANCH   9  10
ENDBRANCH   8   9
ENDBRANCH   3   8
TORSDOF 5
ENDMDL
MODEL      118
REMARK 921   NORMALIZED FREE ENERGY PREDICTED BY IDOCK:   -3.52 KCAL/MOL
REMARK 922        TOTAL FREE ENERGY PREDICTED BY IDOCK:   -5.16 KCAL/MOL
REMARK 923 INTER-LIGAND FREE ENERGY PREDICTED BY IDOCK:   -4.98 KCAL/MOL
REMARK 924 INTRA-LIGAND FREE ENERGY PREDICTED BY IDOCK:   -0.18 KCAL/MOL
REMARK 927      BINDING AFFINITY PREDICTED BY RF-SCORE:    0.00 PKD
ROOT
ATOM      1  N   CYS A   1     -11.449  16.645  63.978  1.00  0.00    -1.551 NA 
ATOM      2  H2  CYS A   1     -11.890  15.816  63.579  1.00  0.00     0.000 HD 
ATOM      3  CA  CYS A   1     -10.890  16.338  65.333  1.00  0.00    -0.273 C  
ATOM      4  H1  CYS A   1     -12.093  17.436  63.956  1.00  0.00     0.000 HD 
ATOM      5  O   CYS A   1     -10.649  18.711  65.223  1.00  0.00    -0.482 OA 
ATOM      6  C   CYS A   1     -10.176  17.599  65.844  1.00  0.00    -0.232 C  
ATOM      7  OXT CYS A   1      -9.312  17.625  66.705  1.00  0.00    -0.262 OA 
ENDROOT
BRANCH   3   8
ATOM      8  CB  CYS A   1      -9.920  15.148  65.366  1.00  0.00    -0.330 C  
BRANCH   8   9
ATOM      9  SG  CYS A   1     -10.546  13.809  66.445  1.00  0.00    -0.287 SA 
BRANCH   9  10
ATOM     10  SG  CYS A   1     -10.815  14.794  68.232  1.00  0.00    -0.257 SA 
BRANCH  10  11
ATOM     11  CB  CYS A   1     -10.541  13.451  69.442  1.00  0.00     0.206 C  
BRANCH  11  12
ATOM     12  CA  CYS A   1     -11.780  12.556  69.585  1.00  0.00    -0.302 C  
ATOM     13  N   CYS A   1     -12.255  12.432  71.001  1.00  0.00    -0.384 NA 
ATOM     14  C   CYS A   1     -11.389  11.162  69.091  1.00  0.00    -0.273 C  
ATOM     15  H2  CYS A   1     -12.421  13.352  71.411  1.00  0.00     0.000 HD 
ATOM     16  H1  CYS A   1     -13.078  11.837  71.095  1.00  0.00     0.000 HD 
ATOM     17  OXT CYS A   1     -11.247  10.845  67.921  1.00  0.00    -0.283 OA 
ATOM     18  O   CYS A   1     -11.163  10.314  70.129  1.00  0.00    -0.272 OA 
ENDBRANCH  11  12
ENDBRANCH  10  11
ENDBRANCH   9  10
ENDBRANCH   8   9
ENDBRANCH   3   8
TORSDOF 5
ENDMDL
MODEL      119
REMARK 921   NORMALIZED FREE ENERGY PREDICTED BY IDOCK:   -3.51 KCAL/MOL
REMARK 922        TOTAL FREE ENERGY PREDICTED BY IDOCK:   -5.15 KCAL/MOL
REMARK 923 INTER-LIGAND FREE ENERGY PREDICTED BY IDOCK:   -4.89 KCAL/MOL
REMARK 924 INTRA-LIGAND FREE ENERGY PREDICTED BY IDOCK:   -0.27 KCAL/MOL
REMARK 927      BINDING AFFINITY PREDICTED BY RF-SCORE:    0.00 PKD
ROOT
ATOM      1  N   CYS A   1     -11.592   9.168  69.796  1.00  0.00    -0.426 NA 
ATOM      2  H2  CYS A   1     -10.867   9.186  69.078  1.00  0.00     0.000 HD 
ATOM      3  CA  CYS A   1     -11.605  10.459  70.557  1.00  0.00    -0.344 C  
ATOM      4  H1  CYS A   1     -11.494   8.336  70.378  1.00  0.00     0.000 HD 
ATOM      5  O   CYS A   1     -13.101   9.111  71.840  1.00  0.00    -0.351 OA 
ATOM      6  C   CYS A   1     -12.761  10.397  71.566  1.00  0.00    -0.459 C  
ATOM      7  OXT CYS A   1     -13.305  11.361  72.081  1.00  0.00    -0.469 OA 
ENDROOT
BRANCH   3   8
ATOM      8  CB  CYS A   1     -11.751  11.711  69.681  1.00  0.00    -0.350 C  
BRANCH   8   9
ATOM      9  SG  CYS A   1     -10.340  11.885  68.527  1.00  0.00    -0.206 SA 
BRANCH   9  10
ATOM     10  SG  CYS A   1     -10.867  13.567  67.464  1.00  0.00    -0.267 SA 
BRANCH  10  11
ATOM     11  CB  CYS A   1     -12.260  14.213  68.455  1.00  0.00    -0.169 C  
BRANCH  11  12
ATOM     12  CA  CYS A   1     -11.977  15.630  68.975  1.00  0.00    -0.304 C  
ATOM     13  N   CYS A   1     -10.533  16.018  68.862  1.00  0.00    -0.230 NA 
ATOM     14  C   CYS A   1     -12.361  15.653  70.455  1.00  0.00    -0.391 C  
ATOM     15  H2  CYS A   1     -10.200  15.908  67.904  1.00  0.00     0.000 HD 
ATOM     16  H1  CYS A   1     -10.345  16.960  69.207  1.00  0.00     0.000 HD 
ATOM     17  OXT CYS A   1     -13.502  15.683  70.885  1.00  0.00    -0.569 OA 
ATOM     18  O   CYS A   1     -11.262  15.584  71.253  1.00  0.00    -0.352 OA 
ENDBRANCH  11  12
ENDBRANCH  10  11
ENDBRANCH   9  10
ENDBRANCH   8   9
ENDBRANCH   3   8
TORSDOF 5
ENDMDL
MODEL      120
REMARK 921   NORMALIZED FREE ENERGY PREDICTED BY IDOCK:   -3.51 KCAL/MOL
REMARK 922        TOTAL FREE ENERGY PREDICTED BY IDOCK:   -5.15 KCAL/MOL
REMARK 923 INTER-LIGAND FREE ENERGY PREDICTED BY IDOCK:   -4.78 KCAL/MOL
REMARK 924 INTRA-LIGAND FREE ENERGY PREDICTED BY IDOCK:   -0.37 KCAL/MOL
REMARK 927      BINDING AFFINITY PREDICTED BY RF-SCORE:    0.00 PKD
ROOT
ATOM      1  N   CYS A   1     -12.336  15.047  68.461  1.00  0.00    -0.579 NA 
ATOM      2  H2  CYS A   1     -12.008  14.670  67.571  1.00  0.00     0.000 HD 
ATOM      3  CA  CYS A   1     -11.418  14.638  69.571  1.00  0.00    -0.297 C  
ATOM      4  H1  CYS A   1     -13.315  14.803  68.611  1.00  0.00     0.000 HD 
ATOM      5  O   CYS A   1     -13.238  15.616  70.767  1.00  0.00    -0.517 OA 
ATOM      6  C   CYS A   1     -11.922  15.298  70.864  1.00  0.00    -0.342 C  
ATOM      7  OXT CYS A   1     -11.252  15.500  71.864  1.00  0.00    -0.385 OA 
ENDROOT
BRANCH   3   8
ATOM      8  CB  CYS A   1      -9.944  15.005  69.346  1.00  0.00    -0.183 C  
BRANCH   8   9
ATOM      9  SG  CYS A   1      -9.762  16.764  68.871  1.00  0.00    -0.243 SA 
BRANCH   9  10
ATOM     10  SG  CYS A   1      -9.350  16.619  66.859  1.00  0.00    -0.241 SA 
BRANCH  10  11
ATOM     11  CB  CYS A   1      -9.988  18.213  66.232  1.00  0.00    -0.342 C  
BRANCH  11  12
ATOM     12  CA  CYS A   1      -8.858  19.230  66.016  1.00  0.00    -0.119 C  
ATOM     13  N   CYS A   1      -7.502  18.594  65.948  1.00  0.00    -0.455 NA 
ATOM     14  C   CYS A   1      -8.876  20.185  67.211  1.00  0.00    -0.353 C  
ATOM     15  H2  CYS A   1      -7.477  17.865  65.235  1.00  0.00     0.000 HD 
ATOM     16  H1  CYS A   1      -6.751  19.270  65.805  1.00  0.00     0.000 HD 
ATOM     17  OXT CYS A   1      -9.692  21.073  67.389  1.00  0.00    -0.416 OA 
ATOM     18  O   CYS A   1      -7.885  19.890  68.096  1.00  0.00    -0.306 OA 
ENDBRANCH  11  12
ENDBRANCH  10  11
ENDBRANCH   9  10
ENDBRANCH   8   9
ENDBRANCH   3   8
TORSDOF 5
ENDMDL
MODEL      121
REMARK 921   NORMALIZED FREE ENERGY PREDICTED BY IDOCK:   -3.51 KCAL/MOL
REMARK 922        TOTAL FREE ENERGY PREDICTED BY IDOCK:   -5.15 KCAL/MOL
REMARK 923 INTER-LIGAND FREE ENERGY PREDICTED BY IDOCK:   -4.84 KCAL/MOL
REMARK 924 INTRA-LIGAND FREE ENERGY PREDICTED BY IDOCK:   -0.31 KCAL/MOL
REMARK 927      BINDING AFFINITY PREDICTED BY RF-SCORE:    0.00 PKD
ROOT
ATOM      1  N   CYS A   1     -11.503  12.301  69.870  1.00  0.00    -0.510 NA 
ATOM      2  H2  CYS A   1     -11.292  13.007  69.164  1.00  0.00     0.000 HD 
ATOM      3  CA  CYS A   1     -11.628  10.949  69.236  1.00  0.00    -0.318 C  
ATOM      4  H1  CYS A   1     -12.312  12.583  70.424  1.00  0.00     0.000 HD 
ATOM      5  O   CYS A   1     -12.382  10.525  71.461  1.00  0.00    -0.371 OA 
ATOM      6  C   CYS A   1     -11.869   9.926  70.356  1.00  0.00    -0.234 C  
ATOM      7  OXT CYS A   1     -11.654   8.727  70.280  1.00  0.00    -0.168 OA 
ENDROOT
BRANCH   3   8
ATOM      8  CB  CYS A   1     -10.411  10.523  68.402  1.00  0.00    -0.176 C  
BRANCH   8   9
ATOM      9  SG  CYS A   1      -9.293  11.938  68.086  1.00  0.00    -0.193 SA 
BRANCH   9  10
ATOM     10  SG  CYS A   1      -9.735  12.398  66.129  1.00  0.00    -0.231 SA 
BRANCH  10  11
ATOM     11  CB  CYS A   1      -9.669  14.225  66.152  1.00  0.00    -0.303 C  
BRANCH  11  12
ATOM     12  CA  CYS A   1     -11.074  14.842  66.192  1.00  0.00    -0.339 C  
ATOM     13  N   CYS A   1     -12.126  13.878  66.653  1.00  0.00    -0.444 NA 
ATOM     14  C   CYS A   1     -11.418  15.274  64.765  1.00  0.00    -0.363 C  
ATOM     15  H2  CYS A   1     -11.879  13.475  67.557  1.00  0.00     0.000 HD 
ATOM     16  H1  CYS A   1     -13.059  14.288  66.679  1.00  0.00     0.000 HD 
ATOM     17  OXT CYS A   1     -10.963  16.253  64.198  1.00  0.00    -0.649 OA 
ATOM     18  O   CYS A   1     -12.269  14.393  64.173  1.00  0.00    -0.540 OA 
ENDBRANCH  11  12
ENDBRANCH  10  11
ENDBRANCH   9  10
ENDBRANCH   8   9
ENDBRANCH   3   8
TORSDOF 5
ENDMDL
MODEL      122
REMARK 921   NORMALIZED FREE ENERGY PREDICTED BY IDOCK:   -3.49 KCAL/MOL
REMARK 922        TOTAL FREE ENERGY PREDICTED BY IDOCK:   -5.13 KCAL/MOL
REMARK 923 INTER-LIGAND FREE ENERGY PREDICTED BY IDOCK:   -4.87 KCAL/MOL
REMARK 924 INTRA-LIGAND FREE ENERGY PREDICTED BY IDOCK:   -0.26 KCAL/MOL
REMARK 927      BINDING AFFINITY PREDICTED BY RF-SCORE:    0.00 PKD
ROOT
ATOM      1  N   CYS A   1      -9.809  12.695  66.009  1.00  0.00    -0.259 NA 
ATOM      2  H2  CYS A   1      -9.220  12.675  66.842  1.00  0.00     0.000 HD 
ATOM      3  CA  CYS A   1     -11.256  12.622  66.389  1.00  0.00    -0.305 C  
ATOM      4  H1  CYS A   1      -9.510  11.978  65.346  1.00  0.00     0.000 HD 
ATOM      5  O   CYS A   1     -11.354  12.370  64.017  1.00  0.00    -0.338 OA 
ATOM      6  C   CYS A   1     -12.087  12.732  65.101  1.00  0.00    -0.450 C  
ATOM      7  OXT CYS A   1     -13.255  13.077  65.039  1.00  0.00    -0.739 OA 
ENDROOT
BRANCH   3   8
ATOM      8  CB  CYS A   1     -11.706  13.699  67.387  1.00  0.00    -0.381 C  
BRANCH   8   9
ATOM      9  SG  CYS A   1     -12.120  12.968  69.013  1.00  0.00    -0.077 SA 
BRANCH   9  10
ATOM     10  SG  CYS A   1     -11.743  10.971  68.689  1.00  0.00    -0.246 SA 
BRANCH  10  11
ATOM     11  CB  CYS A   1     -11.341  10.389  70.375  1.00  0.00    -0.337 C  
BRANCH  11  12
ATOM     12  CA  CYS A   1     -12.546   9.711  71.042  1.00  0.00    -0.283 C  
ATOM     13  N   CYS A   1     -13.116  10.509  72.176  1.00  0.00    -0.546 NA 
ATOM     14  C   CYS A   1     -12.059   8.373  71.600  1.00  0.00    -0.313 C  
ATOM     15  H2  CYS A   1     -13.352  11.454  71.873  1.00  0.00     0.000 HD 
ATOM     16  H1  CYS A   1     -13.916  10.058  72.619  1.00  0.00     0.000 HD 
ATOM     17  OXT CYS A   1     -11.819   7.379  70.935  1.00  0.00    -0.299 OA 
ATOM     18  O   CYS A   1     -11.871   8.436  72.946  1.00  0.00    -0.298 OA 
ENDBRANCH  11  12
ENDBRANCH  10  11
ENDBRANCH   9  10
ENDBRANCH   8   9
ENDBRANCH   3   8
TORSDOF 5
ENDMDL
MODEL      123
REMARK 921   NORMALIZED FREE ENERGY PREDICTED BY IDOCK:   -3.49 KCAL/MOL
REMARK 922        TOTAL FREE ENERGY PREDICTED BY IDOCK:   -5.13 KCAL/MOL
REMARK 923 INTER-LIGAND FREE ENERGY PREDICTED BY IDOCK:   -4.55 KCAL/MOL
REMARK 924 INTRA-LIGAND FREE ENERGY PREDICTED BY IDOCK:   -0.57 KCAL/MOL
REMARK 927      BINDING AFFINITY PREDICTED BY RF-SCORE:    0.00 PKD
ROOT
ATOM      1  N   CYS A   1      -7.459  15.841  67.202  1.00  0.00    -0.213 NA 
ATOM      2  H2  CYS A   1      -8.129  15.107  67.434  1.00  0.00     0.000 HD 
ATOM      3  CA  CYS A   1      -8.056  16.800  66.218  1.00  0.00    -0.330 C  
ATOM      4  H1  CYS A   1      -6.572  15.432  66.909  1.00  0.00     0.000 HD 
ATOM      5  O   CYS A   1      -5.773  17.500  66.273  1.00  0.00    -0.186 OA 
ATOM      6  C   CYS A   1      -7.030  17.917  65.970  1.00  0.00    -0.311 C  
ATOM      7  OXT CYS A   1      -7.284  19.030  65.540  1.00  0.00    -0.466 OA 
ENDROOT
BRANCH   3   8
ATOM      8  CB  CYS A   1      -9.391  17.415  66.659  1.00  0.00    -0.265 C  
BRANCH   8   9
ATOM      9  SG  CYS A   1      -9.511  17.507  68.483  1.00  0.00    -0.298 SA 
BRANCH   9  10
ATOM     10  SG  CYS A   1     -10.985  16.127  68.881  1.00  0.00    -0.345 SA 
BRANCH  10  11
ATOM     11  CB  CYS A   1     -11.077  15.214  67.300  1.00  0.00    -0.332 C  
BRANCH  11  12
ATOM     12  CA  CYS A   1     -10.363  13.857  67.388  1.00  0.00    -0.252 C  
ATOM     13  N   CYS A   1      -9.607  13.510  66.140  1.00  0.00    -0.429 NA 
ATOM     14  C   CYS A   1     -11.440  12.793  67.603  1.00  0.00    -0.334 C  
ATOM     15  H2  CYS A   1      -8.951  14.252  65.894  1.00  0.00     0.000 HD 
ATOM     16  H1  CYS A   1      -9.133  12.609  66.199  1.00  0.00     0.000 HD 
ATOM     17  OXT CYS A   1     -12.031  12.593  68.651  1.00  0.00    -0.304 OA 
ATOM     18  O   CYS A   1     -11.705  12.116  66.453  1.00  0.00    -0.489 OA 
ENDBRANCH  11  12
ENDBRANCH  10  11
ENDBRANCH   9  10
ENDBRANCH   8   9
ENDBRANCH   3   8
TORSDOF 5
ENDMDL
MODEL      124
REMARK 921   NORMALIZED FREE ENERGY PREDICTED BY IDOCK:   -3.49 KCAL/MOL
REMARK 922        TOTAL FREE ENERGY PREDICTED BY IDOCK:   -5.12 KCAL/MOL
REMARK 923 INTER-LIGAND FREE ENERGY PREDICTED BY IDOCK:   -4.69 KCAL/MOL
REMARK 924 INTRA-LIGAND FREE ENERGY PREDICTED BY IDOCK:   -0.43 KCAL/MOL
REMARK 927      BINDING AFFINITY PREDICTED BY RF-SCORE:    0.00 PKD
ROOT
ATOM      1  N   CYS A   1     -10.026  13.692  64.958  1.00  0.00    -0.592 NA 
ATOM      2  H2  CYS A   1      -9.850  13.009  64.221  1.00  0.00     0.000 HD 
ATOM      3  CA  CYS A   1     -11.302  13.370  65.674  1.00  0.00    -0.298 C  
ATOM      4  H1  CYS A   1      -9.981  14.640  64.582  1.00  0.00     0.000 HD 
ATOM      5  O   CYS A   1     -10.759  15.517  66.567  1.00  0.00    -0.306 OA 
ATOM      6  C   CYS A   1     -11.469  14.387  66.815  1.00  0.00    -0.370 C  
ATOM      7  OXT CYS A   1     -12.158  14.229  67.809  1.00  0.00    -0.363 OA 
ENDROOT
BRANCH   3   8
ATOM      8  CB  CYS A   1     -11.371  11.945  66.240  1.00  0.00    -0.334 C  
BRANCH   8   9
ATOM      9  SG  CYS A   1      -9.978  11.614  67.380  1.00  0.00    -0.184 SA 
BRANCH   9  10
ATOM     10  SG  CYS A   1     -10.438   9.732  68.077  1.00  0.00    -0.239 SA 
BRANCH  10  11
ATOM     11  CB  CYS A   1     -10.939  10.085  69.799  1.00  0.00    -0.276 C  
BRANCH  11  12
ATOM     12  CA  CYS A   1     -12.144  11.035  69.854  1.00  0.00    -0.361 C  
ATOM     13  N   CYS A   1     -11.784  12.414  70.320  1.00  0.00    -0.546 NA 
ATOM     14  C   CYS A   1     -13.141  10.442  70.851  1.00  0.00    -0.330 C  
ATOM     15  H2  CYS A   1     -11.036  12.807  69.749  1.00  0.00     0.000 HD 
ATOM     16  H1  CYS A   1     -12.585  13.045  70.357  1.00  0.00     0.000 HD 
ATOM     17  OXT CYS A   1     -13.861   9.480  70.638  1.00  0.00     0.004 OA 
ATOM     18  O   CYS A   1     -13.095  11.093  72.045  1.00  0.00    -0.492 OA 
ENDBRANCH  11  12
ENDBRANCH  10  11
ENDBRANCH   9  10
ENDBRANCH   8   9
ENDBRANCH   3   8
TORSDOF 5
ENDMDL
MODEL      125
REMARK 921   NORMALIZED FREE ENERGY PREDICTED BY IDOCK:   -3.48 KCAL/MOL
REMARK 922        TOTAL FREE ENERGY PREDICTED BY IDOCK:   -5.11 KCAL/MOL
REMARK 923 INTER-LIGAND FREE ENERGY PREDICTED BY IDOCK:   -4.79 KCAL/MOL
REMARK 924 INTRA-LIGAND FREE ENERGY PREDICTED BY IDOCK:   -0.32 KCAL/MOL
REMARK 927      BINDING AFFINITY PREDICTED BY RF-SCORE:    0.00 PKD
ROOT
ATOM      1  N   CYS A   1      -7.037  14.876  67.021  1.00  0.00    -0.333 NA 
ATOM      2  H2  CYS A   1      -6.895  14.417  66.121  1.00  0.00     0.000 HD 
ATOM      3  CA  CYS A   1      -8.452  15.349  67.149  1.00  0.00    -0.214 C  
ATOM      4  H1  CYS A   1      -6.335  15.603  67.163  1.00  0.00     0.000 HD 
ATOM      5  O   CYS A   1      -7.421  16.350  69.055  1.00  0.00    -0.206 OA 
ATOM      6  C   CYS A   1      -8.619  15.960  68.549  1.00  0.00    -0.190 C  
ATOM      7  OXT CYS A   1      -9.677  16.104  69.139  1.00  0.00    -0.227 OA 
ENDROOT
BRANCH   3   8
ATOM      8  CB  CYS A   1      -9.509  14.256  66.935  1.00  0.00    -0.263 C  
BRANCH   8   9
ATOM      9  SG  CYS A   1      -8.759  12.587  66.981  1.00  0.00    -0.188 SA 
BRANCH   9  10
ATOM     10  SG  CYS A   1      -9.391  11.788  65.193  1.00  0.00     0.075 SA 
BRANCH  10  11
ATOM     11  CB  CYS A   1     -10.341  13.178  64.479  1.00  0.00    -0.368 C  
BRANCH  11  12
ATOM     12  CA  CYS A   1     -11.810  12.799  64.246  1.00  0.00    -0.396 C  
ATOM     13  N   CYS A   1     -12.443  13.566  63.123  1.00  0.00    -0.985 NA 
ATOM     14  C   CYS A   1     -12.570  13.126  65.532  1.00  0.00    -0.408 C  
ATOM     15  H2  CYS A   1     -11.901  13.467  62.265  1.00  0.00     0.000 HD 
ATOM     16  H1  CYS A   1     -13.419  13.313  62.969  1.00  0.00     0.000 HD 
ATOM     17  OXT CYS A   1     -12.525  12.472  66.561  1.00  0.00    -0.396 OA 
ATOM     18  O   CYS A   1     -13.277  14.282  65.410  1.00  0.00    -0.688 OA 
ENDBRANCH  11  12
ENDBRANCH  10  11
ENDBRANCH   9  10
ENDBRANCH   8   9
ENDBRANCH   3   8
TORSDOF 5
ENDMDL
MODEL      126
REMARK 921   NORMALIZED FREE ENERGY PREDICTED BY IDOCK:   -3.40 KCAL/MOL
REMARK 922        TOTAL FREE ENERGY PREDICTED BY IDOCK:   -5.01 KCAL/MOL
REMARK 923 INTER-LIGAND FREE ENERGY PREDICTED BY IDOCK:   -5.05 KCAL/MOL
REMARK 924 INTRA-LIGAND FREE ENERGY PREDICTED BY IDOCK:    0.04 KCAL/MOL
REMARK 927      BINDING AFFINITY PREDICTED BY RF-SCORE:    0.00 PKD
ROOT
ATOM      1  N   CYS A   1      -9.445  18.652  68.165  1.00  0.00    -0.312 NA 
ATOM      2  H2  CYS A   1      -9.056  17.934  68.776  1.00  0.00     0.000 HD 
ATOM      3  CA  CYS A   1      -9.713  18.090  66.803  1.00  0.00    -0.323 C  
ATOM      4  H1  CYS A   1      -8.852  19.483  68.170  1.00  0.00     0.000 HD 
ATOM      5  O   CYS A   1     -10.073  20.425  66.455  1.00  0.00    -0.423 OA 
ATOM      6  C   CYS A   1     -10.366  19.195  65.958  1.00  0.00    -0.463 C  
ATOM      7  OXT CYS A   1     -11.044  19.017  64.959  1.00  0.00    -0.393 OA 
ENDROOT
BRANCH   3   8
ATOM      8  CB  CYS A   1     -10.605  16.840  66.794  1.00  0.00    -0.203 C  
BRANCH   8   9
ATOM      9  SG  CYS A   1     -10.186  15.734  65.398  1.00  0.00    -0.298 SA 
BRANCH   9  10
ATOM     10  SG  CYS A   1     -10.371  13.874  66.260  1.00  0.00    -0.300 SA 
BRANCH  10  11
ATOM     11  CB  CYS A   1     -11.929  14.053  67.200  1.00  0.00    -0.430 C  
BRANCH  11  12
ATOM     12  CA  CYS A   1     -11.839  13.380  68.578  1.00  0.00    -0.366 C  
ATOM     13  N   CYS A   1     -10.904  14.084  69.515  1.00  0.00    -0.436 NA 
ATOM     14  C   CYS A   1     -11.310  11.963  68.354  1.00  0.00    -0.276 C  
ATOM     15  H2  CYS A   1     -11.154  15.069  69.606  1.00  0.00     0.000 HD 
ATOM     16  H1  CYS A   1     -10.845  13.637  70.430  1.00  0.00     0.000 HD 
ATOM     17  OXT CYS A   1     -11.958  11.034  67.901  1.00  0.00    -0.620 OA 
ATOM     18  O   CYS A   1      -9.993  11.869  68.679  1.00  0.00    -0.207 OA 
ENDBRANCH  11  12
ENDBRANCH  10  11
ENDBRANCH   9  10
ENDBRANCH   8   9
ENDBRANCH   3   8
TORSDOF 5
ENDMDL
MODEL      127
REMARK 921   NORMALIZED FREE ENERGY PREDICTED BY IDOCK:   -3.40 KCAL/MOL
REMARK 922        TOTAL FREE ENERGY PREDICTED BY IDOCK:   -5.01 KCAL/MOL
REMARK 923 INTER-LIGAND FREE ENERGY PREDICTED BY IDOCK:   -4.84 KCAL/MOL
REMARK 924 INTRA-LIGAND FREE ENERGY PREDICTED BY IDOCK:   -0.17 KCAL/MOL
REMARK 927      BINDING AFFINITY PREDICTED BY RF-SCORE:    0.00 PKD
ROOT
ATOM      1  N   CYS A   1     -12.544  14.628  63.591  1.00  0.00    -0.980 NA 
ATOM      2  H2  CYS A   1     -12.172  15.560  63.407  1.00  0.00     0.000 HD 
ATOM      3  CA  CYS A   1     -11.674  13.903  64.571  1.00  0.00    -0.410 C  
ATOM      4  H1  CYS A   1     -12.700  14.129  62.715  1.00  0.00     0.000 HD 
ATOM      5  O   CYS A   1     -13.159  12.177  63.853  1.00  0.00    -0.749 OA 
ATOM      6  C   CYS A   1     -12.327  12.543  64.862  1.00  0.00    -0.470 C  
ATOM      7  OXT CYS A   1     -12.125  11.857  65.851  1.00  0.00    -0.474 OA 
ENDROOT
BRANCH   3   8
ATOM      8  CB  CYS A   1     -11.437  14.654  65.889  1.00  0.00    -0.338 C  
BRANCH   8   9
ATOM      9  SG  CYS A   1     -10.902  16.378  65.586  1.00  0.00    -0.101 SA 
BRANCH   9  10
ATOM     10  SG  CYS A   1      -8.912  16.302  66.109  1.00  0.00    -0.302 SA 
BRANCH  10  11
ATOM     11  CB  CYS A   1      -9.005  16.345  67.934  1.00  0.00    -0.196 C  
BRANCH  11  12
ATOM     12  CA  CYS A   1      -8.428  15.068  68.561  1.00  0.00    -0.163 C  
ATOM     13  N   CYS A   1      -9.012  14.759  69.907  1.00  0.00    -0.261 NA 
ATOM     14  C   CYS A   1      -6.925  15.290  68.735  1.00  0.00    -0.111 C  
ATOM     15  H2  CYS A   1     -10.031  14.714  69.860  1.00  0.00     0.000 HD 
ATOM     16  H1  CYS A   1      -8.629  13.910  70.323  1.00  0.00     0.000 HD 
ATOM     17  OXT CYS A   1      -6.102  15.266  67.835  1.00  0.00    -0.132 OA 
ATOM     18  O   CYS A   1      -6.613  15.574  70.028  1.00  0.00    -0.156 OA 
ENDBRANCH  11  12
ENDBRANCH  10  11
ENDBRANCH   9  10
ENDBRANCH   8   9
ENDBRANCH   3   8
TORSDOF 5
ENDMDL
MODEL      128
REMARK 921   NORMALIZED FREE ENERGY PREDICTED BY IDOCK:   -3.40 KCAL/MOL
REMARK 922        TOTAL FREE ENERGY PREDICTED BY IDOCK:   -5.00 KCAL/MOL
REMARK 923 INTER-LIGAND FREE ENERGY PREDICTED BY IDOCK:   -4.47 KCAL/MOL
REMARK 924 INTRA-LIGAND FREE ENERGY PREDICTED BY IDOCK:   -0.53 KCAL/MOL
REMARK 927      BINDING AFFINITY PREDICTED BY RF-SCORE:    0.00 PKD
ROOT
ATOM      1  N   CYS A   1     -11.140  17.666  68.354  1.00  0.00    -0.138 NA 
ATOM      2  H2  CYS A   1     -11.426  16.694  68.471  1.00  0.00     0.000 HD 
ATOM      3  CA  CYS A   1      -9.744  17.864  68.860  1.00  0.00    -0.264 C  
ATOM      4  H1  CYS A   1     -11.832  18.292  68.769  1.00  0.00     0.000 HD 
ATOM      5  O   CYS A   1     -10.448  20.109  68.454  1.00  0.00    -0.373 OA 
ATOM      6  C   CYS A   1      -9.349  19.324  68.587  1.00  0.00    -0.392 C  
ATOM      7  OXT CYS A   1      -8.206  19.747  68.515  1.00  0.00    -0.314 OA 
ENDROOT
BRANCH   3   8
ATOM      8  CB  CYS A   1      -8.703  16.923  68.237  1.00  0.00    -0.235 C  
BRANCH   8   9
ATOM      9  SG  CYS A   1      -8.889  16.836  66.418  1.00  0.00    -0.301 SA 
BRANCH   9  10
ATOM     10  SG  CYS A   1      -9.357  14.851  66.134  1.00  0.00    -0.229 SA 
BRANCH  10  11
ATOM     11  CB  CYS A   1     -11.130  14.945  65.699  1.00  0.00    -0.348 C  
BRANCH  11  12
ATOM     12  CA  CYS A   1     -12.000  14.171  66.699  1.00  0.00    -0.444 C  
ATOM     13  N   CYS A   1     -11.620  14.424  68.127  1.00  0.00    -0.312 NA 
ATOM     14  C   CYS A   1     -11.802  12.682  66.412  1.00  0.00    -0.402 C  
ATOM     15  H2  CYS A   1     -11.628  15.423  68.334  1.00  0.00     0.000 HD 
ATOM     16  H1  CYS A   1     -12.199  13.909  68.791  1.00  0.00     0.000 HD 
ATOM     17  OXT CYS A   1     -12.283  12.078  65.467  1.00  0.00    -0.483 OA 
ATOM     18  O   CYS A   1     -10.968  12.108  67.321  1.00  0.00    -0.237 OA 
ENDBRANCH  11  12
ENDBRANCH  10  11
ENDBRANCH   9  10
ENDBRANCH   8   9
ENDBRANCH   3   8
TORSDOF 5
ENDMDL
MODEL      129
REMARK 921   NORMALIZED FREE ENERGY PREDICTED BY IDOCK:   -3.39 KCAL/MOL
REMARK 922        TOTAL FREE ENERGY PREDICTED BY IDOCK:   -4.99 KCAL/MOL
REMARK 923 INTER-LIGAND FREE ENERGY PREDICTED BY IDOCK:   -4.79 KCAL/MOL
REMARK 924 INTRA-LIGAND FREE ENERGY PREDICTED BY IDOCK:   -0.20 KCAL/MOL
REMARK 927      BINDING AFFINITY PREDICTED BY RF-SCORE:    0.00 PKD
ROOT
ATOM      1  N   CYS A   1     -11.940  11.928  66.087  1.00  0.00    -0.484 NA 
ATOM      2  H2  CYS A   1     -12.470  12.674  65.636  1.00  0.00     0.000 HD 
ATOM      3  CA  CYS A   1     -10.524  12.358  66.318  1.00  0.00    -0.245 C  
ATOM      4  H1  CYS A   1     -12.036  11.058  65.562  1.00  0.00     0.000 HD 
ATOM      5  O   CYS A   1     -10.433  10.037  66.868  1.00  0.00    -0.236 OA 
ATOM      6  C   CYS A   1      -9.805  11.224  67.065  1.00  0.00    -0.191 C  
ATOM      7  OXT CYS A   1      -8.792  11.347  67.734  1.00  0.00    -0.136 OA 
ENDROOT
BRANCH   3   8
ATOM      8  CB  CYS A   1     -10.379  13.668  67.107  1.00  0.00    -0.250 C  
BRANCH   8   9
ATOM      9  SG  CYS A   1     -12.005  14.464  67.380  1.00  0.00    -0.309 SA 
BRANCH   9  10
ATOM     10  SG  CYS A   1     -11.633  15.630  69.035  1.00  0.00    -0.396 SA 
BRANCH  10  11
ATOM     11  CB  CYS A   1     -12.920  15.049  70.196  1.00  0.00    -0.084 C  
BRANCH  11  12
ATOM     12  CA  CYS A   1     -12.337  14.115  71.267  1.00  0.00    -0.369 C  
ATOM     13  N   CYS A   1     -12.393  12.669  70.877  1.00  0.00    -0.394 NA 
ATOM     14  C   CYS A   1     -13.177  14.299  72.532  1.00  0.00    -0.490 C  
ATOM     15  H2  CYS A   1     -11.940  12.517  69.975  1.00  0.00     0.000 HD 
ATOM     16  H1  CYS A   1     -12.006  12.049  71.588  1.00  0.00     0.000 HD 
ATOM     17  OXT CYS A   1     -13.117  15.259  73.282  1.00  0.00    -0.467 OA 
ATOM     18  O   CYS A   1     -14.053  13.272  72.699  1.00  0.00    -0.744 OA 
ENDBRANCH  11  12
ENDBRANCH  10  11
ENDBRANCH   9  10
ENDBRANCH   8   9
ENDBRANCH   3   8
TORSDOF 5
ENDMDL
MODEL      130
REMARK 921   NORMALIZED FREE ENERGY PREDICTED BY IDOCK:   -3.38 KCAL/MOL
REMARK 922        TOTAL FREE ENERGY PREDICTED BY IDOCK:   -4.99 KCAL/MOL
REMARK 923 INTER-LIGAND FREE ENERGY PREDICTED BY IDOCK:   -4.62 KCAL/MOL
REMARK 924 INTRA-LIGAND FREE ENERGY PREDICTED BY IDOCK:   -0.36 KCAL/MOL
REMARK 927      BINDING AFFINITY PREDICTED BY RF-SCORE:    0.00 PKD
ROOT
ATOM      1  N   CYS A   1     -11.584  15.905  68.203  1.00  0.00    -0.287 NA 
ATOM      2  H2  CYS A   1     -11.974  15.019  68.525  1.00  0.00     0.000 HD 
ATOM      3  CA  CYS A   1     -10.335  16.233  68.963  1.00  0.00    -0.264 C  
ATOM      4  H1  CYS A   1     -12.296  16.635  68.225  1.00  0.00     0.000 HD 
ATOM      5  O   CYS A   1     -10.723  18.252  67.748  1.00  0.00    -0.411 OA 
ATOM      6  C   CYS A   1      -9.759  17.533  68.380  1.00  0.00    -0.316 C  
ATOM      7  OXT CYS A   1      -8.600  17.901  68.477  1.00  0.00    -0.293 OA 
ENDROOT
BRANCH   3   8
ATOM      8  CB  CYS A   1      -9.263  15.135  68.929  1.00  0.00    -0.209 C  
BRANCH   8   9
ATOM      9  SG  CYS A   1      -8.942  14.570  67.218  1.00  0.00    -0.221 SA 
BRANCH   9  10
ATOM     10  SG  CYS A   1      -9.122  12.528  67.404  1.00  0.00    -0.194 SA 
BRANCH  10  11
ATOM     11  CB  CYS A   1     -10.882  12.269  66.981  1.00  0.00    -0.250 C  
BRANCH  11  12
ATOM     12  CA  CYS A   1     -11.056  11.860  65.512  1.00  0.00    -0.304 C  
ATOM     13  N   CYS A   1      -9.759  11.792  64.763  1.00  0.00    -0.378 NA 
ATOM     14  C   CYS A   1     -11.933  12.923  64.848  1.00  0.00    -0.392 C  
ATOM     15  H2  CYS A   1      -9.097  11.177  65.237  1.00  0.00     0.000 HD 
ATOM     16  H1  CYS A   1      -9.876  11.520  63.787  1.00  0.00     0.000 HD 
ATOM     17  OXT CYS A   1     -13.138  13.036  65.000  1.00  0.00    -0.761 OA 
ATOM     18  O   CYS A   1     -11.190  13.778  64.094  1.00  0.00    -0.345 OA 
ENDBRANCH  11  12
ENDBRANCH  10  11
ENDBRANCH   9  10
ENDBRANCH   8   9
ENDBRANCH   3   8
TORSDOF 5
ENDMDL
MODEL      131
REMARK 921   NORMALIZED FREE ENERGY PREDICTED BY IDOCK:   -3.37 KCAL/MOL
REMARK 922        TOTAL FREE ENERGY PREDICTED BY IDOCK:   -4.97 KCAL/MOL
REMARK 923 INTER-LIGAND FREE ENERGY PREDICTED BY IDOCK:   -4.25 KCAL/MOL
REMARK 924 INTRA-LIGAND FREE ENERGY PREDICTED BY IDOCK:   -0.72 KCAL/MOL
REMARK 927      BINDING AFFINITY PREDICTED BY RF-SCORE:    0.00 PKD
ROOT
ATOM      1  N   CYS A   1     -10.984  14.720  64.819  1.00  0.00    -0.533 NA 
ATOM      2  H2  CYS A   1     -11.148  14.958  63.841  1.00  0.00     0.000 HD 
ATOM      3  CA  CYS A   1     -12.059  13.806  65.322  1.00  0.00    -0.407 C  
ATOM      4  H1  CYS A   1     -10.855  15.566  65.374  1.00  0.00     0.000 HD 
ATOM      5  O   CYS A   1     -10.887  14.347  67.331  1.00  0.00    -0.282 OA 
ATOM      6  C   CYS A   1     -11.713  13.427  66.771  1.00  0.00    -0.385 C  
ATOM      7  OXT CYS A   1     -12.128  12.445  67.364  1.00  0.00    -0.505 OA 
ENDROOT
BRANCH   3   8
ATOM      8  CB  CYS A   1     -12.253  12.532  64.488  1.00  0.00    -0.453 C  
BRANCH   8   9
ATOM      9  SG  CYS A   1     -10.689  12.014  63.691  1.00  0.00    -0.477 SA 
BRANCH   9  10
ATOM     10  SG  CYS A   1     -10.080  10.475  64.915  1.00  0.00    -0.299 SA 
BRANCH  10  11
ATOM     11  CB  CYS A   1      -9.009  11.351  66.110  1.00  0.00    -0.201 C  
BRANCH  11  12
ATOM     12  CA  CYS A   1      -9.021  10.670  67.486  1.00  0.00    -0.135 C  
ATOM     13  N   CYS A   1      -9.350  11.612  68.605  1.00  0.00    -0.334 NA 
ATOM     14  C   CYS A   1      -7.616  10.116  67.728  1.00  0.00    -0.090 C  
ATOM     15  H2  CYS A   1     -10.233  12.092  68.429  1.00  0.00     0.000 HD 
ATOM     16  H1  CYS A   1      -9.358  11.158  69.519  1.00  0.00     0.000 HD 
ATOM     17  OXT CYS A   1      -7.151   9.121  67.197  1.00  0.00    -0.081 OA 
ATOM     18  O   CYS A   1      -6.912  10.907  68.582  1.00  0.00    -0.064 OA 
ENDBRANCH  11  12
ENDBRANCH  10  11
ENDBRANCH   9  10
ENDBRANCH   8   9
ENDBRANCH   3   8
TORSDOF 5
ENDMDL
MODEL      132
REMARK 921   NORMALIZED FREE ENERGY PREDICTED BY IDOCK:   -3.36 KCAL/MOL
REMARK 922        TOTAL FREE ENERGY PREDICTED BY IDOCK:   -4.96 KCAL/MOL
REMARK 923 INTER-LIGAND FREE ENERGY PREDICTED BY IDOCK:   -4.78 KCAL/MOL
REMARK 924 INTRA-LIGAND FREE ENERGY PREDICTED BY IDOCK:   -0.18 KCAL/MOL
REMARK 927      BINDING AFFINITY PREDICTED BY RF-SCORE:    0.00 PKD
ROOT
ATOM      1  N   CYS A   1     -10.451  18.877  67.953  1.00  0.00    -0.398 NA 
ATOM      2  H2  CYS A   1     -10.954  19.055  68.822  1.00  0.00     0.000 HD 
ATOM      3  CA  CYS A   1      -9.674  17.599  68.050  1.00  0.00    -0.301 C  
ATOM      4  H1  CYS A   1      -9.893  19.691  67.692  1.00  0.00     0.000 HD 
ATOM      5  O   CYS A   1      -8.875  18.510  65.993  1.00  0.00    -0.493 OA 
ATOM      6  C   CYS A   1      -9.005  17.352  66.689  1.00  0.00    -0.252 C  
ATOM      7  OXT CYS A   1      -8.616  16.271  66.277  1.00  0.00    -0.299 OA 
ENDROOT
BRANCH   3   8
ATOM      8  CB  CYS A   1     -10.513  16.375  68.443  1.00  0.00    -0.298 C  
BRANCH   8   9
ATOM      9  SG  CYS A   1     -11.140  16.520  70.156  1.00  0.00    -0.021 SA 
BRANCH   9  10
ATOM     10  SG  CYS A   1     -12.475  14.956  70.252  1.00  0.00    -0.319 SA 
BRANCH  10  11
ATOM     11  CB  CYS A   1     -11.928  14.092  71.768  1.00  0.00     0.227 C  
BRANCH  11  12
ATOM     12  CA  CYS A   1     -13.044  14.036  72.821  1.00  0.00    -0.440 C  
ATOM     13  N   CYS A   1     -14.406  13.842  72.225  1.00  0.00    -0.622 NA 
ATOM     14  C   CYS A   1     -13.035  15.375  73.560  1.00  0.00    -0.528 C  
ATOM     15  H2  CYS A   1     -14.427  13.015  71.627  1.00  0.00     0.000 HD 
ATOM     16  H1  CYS A   1     -15.146  13.805  72.925  1.00  0.00     0.000 HD 
ATOM     17  OXT CYS A   1     -12.212  15.712  74.395  1.00  0.00    -0.604 OA 
ATOM     18  O   CYS A   1     -14.042  16.183  73.133  1.00  0.00    -0.435 OA 
ENDBRANCH  11  12
ENDBRANCH  10  11
ENDBRANCH   9  10
ENDBRANCH   8   9
ENDBRANCH   3   8
TORSDOF 5
ENDMDL
MODEL      133
REMARK 921   NORMALIZED FREE ENERGY PREDICTED BY IDOCK:   -3.36 KCAL/MOL
REMARK 922        TOTAL FREE ENERGY PREDICTED BY IDOCK:   -4.96 KCAL/MOL
REMARK 923 INTER-LIGAND FREE ENERGY PREDICTED BY IDOCK:   -4.54 KCAL/MOL
REMARK 924 INTRA-LIGAND FREE ENERGY PREDICTED BY IDOCK:   -0.43 KCAL/MOL
REMARK 927      BINDING AFFINITY PREDICTED BY RF-SCORE:    0.00 PKD
ROOT
ATOM      1  N   CYS A   1     -13.483   7.254  70.978  1.00  0.00    -0.579 NA 
ATOM      2  H2  CYS A   1     -13.803   6.540  70.323  1.00  0.00     0.000 HD 
ATOM      3  CA  CYS A   1     -12.292   6.764  71.743  1.00  0.00    -0.356 C  
ATOM      4  H1  CYS A   1     -14.257   7.574  71.561  1.00  0.00     0.000 HD 
ATOM      5  O   CYS A   1     -12.818   8.792  72.889  1.00  0.00    -0.313 OA 
ATOM      6  C   CYS A   1     -11.815   7.907  72.652  1.00  0.00    -0.297 C  
ATOM      7  OXT CYS A   1     -10.696   8.016  73.126  1.00  0.00    -0.332 OA 
ENDROOT
BRANCH   3   8
ATOM      8  CB  CYS A   1     -11.127   6.282  70.866  1.00  0.00    -0.306 C  
BRANCH   8   9
ATOM      9  SG  CYS A   1     -11.148   7.096  69.227  1.00  0.00    -0.014 SA 
BRANCH   9  10
ATOM     10  SG  CYS A   1      -9.538   8.372  69.367  1.00  0.00    -0.172 SA 
BRANCH  10  11
ATOM     11  CB  CYS A   1     -10.298   9.846  70.137  1.00  0.00    -0.282 C  
BRANCH  11  12
ATOM     12  CA  CYS A   1     -11.650  10.187  69.495  1.00  0.00    -0.118 C  
ATOM     13  N   CYS A   1     -11.543  10.499  68.033  1.00  0.00    -0.716 NA 
ATOM     14  C   CYS A   1     -12.188  11.428  70.208  1.00  0.00    -0.349 C  
ATOM     15  H2  CYS A   1     -11.083   9.739  67.531  1.00  0.00     0.000 HD 
ATOM     16  H1  CYS A   1     -12.442  10.726  67.606  1.00  0.00     0.000 HD 
ATOM     17  OXT CYS A   1     -12.673  11.442  71.327  1.00  0.00    -0.405 OA 
ATOM     18  O   CYS A   1     -12.013  12.548  69.455  1.00  0.00    -0.298 OA 
ENDBRANCH  11  12
ENDBRANCH  10  11
ENDBRANCH   9  10
ENDBRANCH   8   9
ENDBRANCH   3   8
TORSDOF 5
ENDMDL
MODEL      134
REMARK 921   NORMALIZED FREE ENERGY PREDICTED BY IDOCK:   -3.35 KCAL/MOL
REMARK 922        TOTAL FREE ENERGY PREDICTED BY IDOCK:   -4.94 KCAL/MOL
REMARK 923 INTER-LIGAND FREE ENERGY PREDICTED BY IDOCK:   -4.39 KCAL/MOL
REMARK 924 INTRA-LIGAND FREE ENERGY PREDICTED BY IDOCK:   -0.55 KCAL/MOL
REMARK 927      BINDING AFFINITY PREDICTED BY RF-SCORE:    0.00 PKD
ROOT
ATOM      1  N   CYS A   1     -12.427   7.274  70.766  1.00  0.00    -0.580 NA 
ATOM      2  H2  CYS A   1     -11.803   6.544  70.421  1.00  0.00     0.000 HD 
ATOM      3  CA  CYS A   1     -11.668   8.546  70.990  1.00  0.00    -0.275 C  
ATOM      4  H1  CYS A   1     -12.945   6.943  71.580  1.00  0.00     0.000 HD 
ATOM      5  O   CYS A   1     -13.789   9.055  71.963  1.00  0.00    -0.412 OA 
ATOM      6  C   CYS A   1     -12.674   9.620  71.433  1.00  0.00    -0.374 C  
ATOM      7  OXT CYS A   1     -12.506  10.826  71.349  1.00  0.00    -0.369 OA 
ENDROOT
BRANCH   3   8
ATOM      8  CB  CYS A   1     -10.887   9.045  69.766  1.00  0.00    -0.205 C  
BRANCH   8   9
ATOM      9  SG  CYS A   1      -9.193   9.565  70.225  1.00  0.00    -0.240 SA 
BRANCH   9  10
ATOM     10  SG  CYS A   1      -8.564  10.518  68.512  1.00  0.00    -0.142 SA 
BRANCH  10  11
ATOM     11  CB  CYS A   1     -10.126  11.233  67.888  1.00  0.00    -0.178 C  
BRANCH  11  12
ATOM     12  CA  CYS A   1     -10.287  12.700  68.313  1.00  0.00    -0.241 C  
ATOM     13  N   CYS A   1     -11.292  12.887  69.409  1.00  0.00    -0.408 NA 
ATOM     14  C   CYS A   1     -10.772  13.474  67.086  1.00  0.00    -0.279 C  
ATOM     15  H2  CYS A   1     -11.069  12.298  70.212  1.00  0.00     0.000 HD 
ATOM     16  H1  CYS A   1     -11.398  13.862  69.691  1.00  0.00     0.000 HD 
ATOM     17  OXT CYS A   1     -10.078  13.786  66.132  1.00  0.00    -0.291 OA 
ATOM     18  O   CYS A   1     -12.105  13.735  67.160  1.00  0.00    -0.398 OA 
ENDBRANCH  11  12
ENDBRANCH  10  11
ENDBRANCH   9  10
ENDBRANCH   8   9
ENDBRANCH   3   8
TORSDOF 5
ENDMDL
MODEL      135
REMARK 921   NORMALIZED FREE ENERGY PREDICTED BY IDOCK:   -3.33 KCAL/MOL
REMARK 922        TOTAL FREE ENERGY PREDICTED BY IDOCK:   -4.91 KCAL/MOL
REMARK 923 INTER-LIGAND FREE ENERGY PREDICTED BY IDOCK:   -5.64 KCAL/MOL
REMARK 924 INTRA-LIGAND FREE ENERGY PREDICTED BY IDOCK:    0.72 KCAL/MOL
REMARK 927      BINDING AFFINITY PREDICTED BY RF-SCORE:    0.00 PKD
ROOT
ATOM      1  N   CYS A   1     -12.174  14.473  68.054  1.00  0.00    -0.603 NA 
ATOM      2  H2  CYS A   1     -13.169  14.411  67.840  1.00  0.00     0.000 HD 
ATOM      3  CA  CYS A   1     -11.580  13.103  68.178  1.00  0.00    -0.339 C  
ATOM      4  H1  CYS A   1     -12.021  15.074  68.864  1.00  0.00     0.000 HD 
ATOM      5  O   CYS A   1      -9.791  14.490  68.939  1.00  0.00    -0.224 OA 
ATOM      6  C   CYS A   1     -10.072  13.265  68.423  1.00  0.00    -0.237 C  
ATOM      7  OXT CYS A   1      -9.223  12.415  68.210  1.00  0.00    -0.200 OA 
ENDROOT
BRANCH   3   8
ATOM      8  CB  CYS A   1     -11.809  12.198  66.959  1.00  0.00    -0.216 C  
BRANCH   8   9
ATOM      9  SG  CYS A   1     -10.266  11.969  66.001  1.00  0.00    -0.233 SA 
BRANCH   9  10
ATOM     10  SG  CYS A   1     -10.581  13.209  64.388  1.00  0.00    -0.400 SA 
BRANCH  10  11
ATOM     11  CB  CYS A   1      -9.996  14.816  65.034  1.00  0.00    -0.169 C  
BRANCH  11  12
ATOM     12  CA  CYS A   1     -11.146  15.825  65.166  1.00  0.00    -0.324 C  
ATOM     13  N   CYS A   1     -11.553  16.426  63.855  1.00  0.00    -1.602 NA 
ATOM     14  C   CYS A   1     -10.653  16.953  66.074  1.00  0.00    -0.218 C  
ATOM     15  H2  CYS A   1     -11.783  15.699  63.177  1.00  0.00     0.000 HD 
ATOM     16  H1  CYS A   1     -12.317  17.097  63.943  1.00  0.00     0.000 HD 
ATOM     17  OXT CYS A   1     -10.529  16.878  67.285  1.00  0.00    -0.313 OA 
ATOM     18  O   CYS A   1     -10.315  18.056  65.354  1.00  0.00    -0.558 OA 
ENDBRANCH  11  12
ENDBRANCH  10  11
ENDBRANCH   9  10
ENDBRANCH   8   9
ENDBRANCH   3   8
TORSDOF 5
ENDMDL
MODEL      136
REMARK 921   NORMALIZED FREE ENERGY PREDICTED BY IDOCK:   -3.33 KCAL/MOL
REMARK 922        TOTAL FREE ENERGY PREDICTED BY IDOCK:   -4.91 KCAL/MOL
REMARK 923 INTER-LIGAND FREE ENERGY PREDICTED BY IDOCK:   -4.68 KCAL/MOL
REMARK 924 INTRA-LIGAND FREE ENERGY PREDICTED BY IDOCK:   -0.23 KCAL/MOL
REMARK 927      BINDING AFFINITY PREDICTED BY RF-SCORE:    0.00 PKD
ROOT
ATOM      1  N   CYS A   1      -9.077  18.825  68.217  1.00  0.00    -0.313 NA 
ATOM      2  H2  CYS A   1      -8.587  18.256  68.907  1.00  0.00     0.000 HD 
ATOM      3  CA  CYS A   1      -9.483  17.989  67.043  1.00  0.00    -0.273 C  
ATOM      4  H1  CYS A   1      -8.523  19.648  67.978  1.00  0.00     0.000 HD 
ATOM      5  O   CYS A   1      -9.981  20.195  66.276  1.00  0.00    -0.448 OA 
ATOM      6  C   CYS A   1     -10.279  18.885  66.081  1.00  0.00    -0.433 C  
ATOM      7  OXT CYS A   1     -11.065  18.493  65.234  1.00  0.00    -0.417 OA 
ENDROOT
BRANCH   3   8
ATOM      8  CB  CYS A   1     -10.316  16.751  67.402  1.00  0.00    -0.302 C  
BRANCH   8   9
ATOM      9  SG  CYS A   1      -9.528  15.217  66.788  1.00  0.00    -0.261 SA 
BRANCH   9  10
ATOM     10  SG  CYS A   1     -10.167  13.830  68.167  1.00  0.00    -0.259 SA 
BRANCH  10  11
ATOM     11  CB  CYS A   1     -11.558  14.710  68.963  1.00  0.00    -0.298 C  
BRANCH  11  12
ATOM     12  CA  CYS A   1     -11.810  14.198  70.389  1.00  0.00    -0.297 C  
ATOM     13  N   CYS A   1     -12.606  12.928  70.425  1.00  0.00    -0.141 NA 
ATOM     14  C   CYS A   1     -12.606  15.279  71.122  1.00  0.00    -0.393 C  
ATOM     15  H2  CYS A   1     -12.166  12.207  69.852  1.00  0.00     0.000 HD 
ATOM     16  H1  CYS A   1     -12.772  12.589  71.373  1.00  0.00     0.000 HD 
ATOM     17  OXT CYS A   1     -12.147  16.330  71.539  1.00  0.00    -0.425 OA 
ATOM     18  O   CYS A   1     -13.922  14.949  71.212  1.00  0.00    -0.423 OA 
ENDBRANCH  11  12
ENDBRANCH  10  11
ENDBRANCH   9  10
ENDBRANCH   8   9
ENDBRANCH   3   8
TORSDOF 5
ENDMDL
MODEL      137
REMARK 921   NORMALIZED FREE ENERGY PREDICTED BY IDOCK:   -3.32 KCAL/MOL
REMARK 922        TOTAL FREE ENERGY PREDICTED BY IDOCK:   -4.91 KCAL/MOL
REMARK 923 INTER-LIGAND FREE ENERGY PREDICTED BY IDOCK:   -4.44 KCAL/MOL
REMARK 924 INTRA-LIGAND FREE ENERGY PREDICTED BY IDOCK:   -0.47 KCAL/MOL
REMARK 927      BINDING AFFINITY PREDICTED BY RF-SCORE:    0.00 PKD
ROOT
ATOM      1  N   CYS A   1      -7.926  16.285  69.077  1.00  0.00    -0.234 NA 
ATOM      2  H2  CYS A   1      -8.201  15.473  69.629  1.00  0.00     0.000 HD 
ATOM      3  CA  CYS A   1      -8.075  15.998  67.614  1.00  0.00    -0.149 C  
ATOM      4  H1  CYS A   1      -6.997  16.604  69.352  1.00  0.00     0.000 HD 
ATOM      5  O   CYS A   1      -6.934  18.095  67.594  1.00  0.00    -0.197 OA 
ATOM      6  C   CYS A   1      -7.720  17.280  66.845  1.00  0.00    -0.215 C  
ATOM      7  OXT CYS A   1      -8.070  17.543  65.706  1.00  0.00    -0.551 OA 
ENDROOT
BRANCH   3   8
ATOM      8  CB  CYS A   1      -9.473  15.518  67.199  1.00  0.00    -0.215 C  
BRANCH   8   9
ATOM      9  SG  CYS A   1     -10.782  16.418  68.110  1.00  0.00    -0.345 SA 
BRANCH   9  10
ATOM     10  SG  CYS A   1     -11.530  14.947  69.340  1.00  0.00    -0.319 SA 
BRANCH  10  11
ATOM     11  CB  CYS A   1     -10.964  13.429  68.493  1.00  0.00    -0.268 C  
BRANCH  11  12
ATOM     12  CA  CYS A   1     -12.132  12.676  67.840  1.00  0.00    -0.099 C  
ATOM     13  N   CYS A   1     -12.111  11.203  68.122  1.00  0.00    -0.737 NA 
ATOM     14  C   CYS A   1     -12.007  12.872  66.329  1.00  0.00    -0.408 C  
ATOM     15  H2  CYS A   1     -12.078  11.025  69.126  1.00  0.00     0.000 HD 
ATOM     16  H1  CYS A   1     -12.887  10.703  67.688  1.00  0.00     0.000 HD 
ATOM     17  OXT CYS A   1     -12.283  13.898  65.728  1.00  0.00    -0.405 OA 
ATOM     18  O   CYS A   1     -11.495  11.766  65.725  1.00  0.00    -0.300 OA 
ENDBRANCH  11  12
ENDBRANCH  10  11
ENDBRANCH   9  10
ENDBRANCH   8   9
ENDBRANCH   3   8
TORSDOF 5
ENDMDL
MODEL      138
REMARK 921   NORMALIZED FREE ENERGY PREDICTED BY IDOCK:   -3.30 KCAL/MOL
REMARK 922        TOTAL FREE ENERGY PREDICTED BY IDOCK:   -4.88 KCAL/MOL
REMARK 923 INTER-LIGAND FREE ENERGY PREDICTED BY IDOCK:   -4.52 KCAL/MOL
REMARK 924 INTRA-LIGAND FREE ENERGY PREDICTED BY IDOCK:   -0.36 KCAL/MOL
REMARK 927      BINDING AFFINITY PREDICTED BY RF-SCORE:    0.00 PKD
ROOT
ATOM      1  N   CYS A   1     -12.044   6.947  70.133  1.00  0.00    -0.641 NA 
ATOM      2  H2  CYS A   1     -11.093   6.714  69.846  1.00  0.00     0.000 HD 
ATOM      3  CA  CYS A   1     -12.045   7.541  71.508  1.00  0.00    -0.316 C  
ATOM      4  H1  CYS A   1     -12.656   6.138  70.022  1.00  0.00     0.000 HD 
ATOM      5  O   CYS A   1     -14.377   7.232  71.099  1.00  0.00    -0.349 OA 
ATOM      6  C   CYS A   1     -13.490   7.938  71.847  1.00  0.00    -0.286 C  
ATOM      7  OXT CYS A   1     -13.821   8.760  72.686  1.00  0.00    -0.399 OA 
ENDROOT
BRANCH   3   8
ATOM      8  CB  CYS A   1     -11.124   8.758  71.675  1.00  0.00    -0.327 C  
BRANCH   8   9
ATOM      9  SG  CYS A   1     -10.806   9.577  70.069  1.00  0.00    -0.265 SA 
BRANCH   9  10
ATOM     10  SG  CYS A   1     -12.238  11.056  70.057  1.00  0.00    -0.333 SA 
BRANCH  10  11
ATOM     11  CB  CYS A   1     -11.609  12.172  68.753  1.00  0.00    -0.327 C  
BRANCH  11  12
ATOM     12  CA  CYS A   1     -10.202  11.766  68.290  1.00  0.00    -0.205 C  
ATOM     13  N   CYS A   1      -9.143  12.741  68.709  1.00  0.00    -0.393 NA 
ATOM     14  C   CYS A   1     -10.226  11.718  66.762  1.00  0.00    -0.211 C  
ATOM     15  H2  CYS A   1      -9.165  12.892  69.718  1.00  0.00     0.000 HD 
ATOM     16  H1  CYS A   1      -8.208  12.471  68.402  1.00  0.00     0.000 HD 
ATOM     17  OXT CYS A   1     -10.741  10.837  66.094  1.00  0.00    -0.210 OA 
ATOM     18  O   CYS A   1      -9.639  12.820  66.222  1.00  0.00    -0.257 OA 
ENDBRANCH  11  12
ENDBRANCH  10  11
ENDBRANCH   9  10
ENDBRANCH   8   9
ENDBRANCH   3   8
TORSDOF 5
ENDMDL
MODEL      139
REMARK 921   NORMALIZED FREE ENERGY PREDICTED BY IDOCK:   -3.30 KCAL/MOL
REMARK 922        TOTAL FREE ENERGY PREDICTED BY IDOCK:   -4.88 KCAL/MOL
REMARK 923 INTER-LIGAND FREE ENERGY PREDICTED BY IDOCK:   -4.75 KCAL/MOL
REMARK 924 INTRA-LIGAND FREE ENERGY PREDICTED BY IDOCK:   -0.13 KCAL/MOL
REMARK 927      BINDING AFFINITY PREDICTED BY RF-SCORE:    0.00 PKD
ROOT
ATOM      1  N   CYS A   1      -9.430  11.847  65.280  1.00  0.00    -0.413 NA 
ATOM      2  H2  CYS A   1      -9.105  11.886  66.247  1.00  0.00     0.000 HD 
ATOM      3  CA  CYS A   1     -10.927  11.804  65.234  1.00  0.00    -0.295 C  
ATOM      4  H1  CYS A   1      -8.971  11.084  64.782  1.00  0.00     0.000 HD 
ATOM      5  O   CYS A   1     -10.347  11.383  62.956  1.00  0.00    -0.306 OA 
ATOM      6  C   CYS A   1     -11.352  11.823  63.757  1.00  0.00    -0.438 C  
ATOM      7  OXT CYS A   1     -12.446  12.165  63.338  1.00  0.00    -0.568 OA 
ENDROOT
BRANCH   3   8
ATOM      8  CB  CYS A   1     -11.619  12.951  65.984  1.00  0.00    -0.375 C  
BRANCH   8   9
ATOM      9  SG  CYS A   1     -10.949  14.577  65.477  1.00  0.00    -0.355 SA 
BRANCH   9  10
ATOM     10  SG  CYS A   1      -9.503  14.904  66.905  1.00  0.00    -0.250 SA 
BRANCH  10  11
ATOM     11  CB  CYS A   1      -8.638  16.367  66.232  1.00  0.00    -0.340 C  
BRANCH  11  12
ATOM     12  CA  CYS A   1      -8.259  17.359  67.340  1.00  0.00    -0.201 C  
ATOM     13  N   CYS A   1      -8.410  16.788  68.717  1.00  0.00    -0.248 NA 
ATOM     14  C   CYS A   1      -9.203  18.556  67.216  1.00  0.00    -0.276 C  
ATOM     15  H2  CYS A   1      -7.882  15.919  68.810  1.00  0.00     0.000 HD 
ATOM     16  H1  CYS A   1      -8.157  17.448  69.453  1.00  0.00     0.000 HD 
ATOM     17  OXT CYS A   1      -9.130  19.424  66.361  1.00  0.00    -0.335 OA 
ATOM     18  O   CYS A   1     -10.183  18.513  68.158  1.00  0.00    -0.351 OA 
ENDBRANCH  11  12
ENDBRANCH  10  11
ENDBRANCH   9  10
ENDBRANCH   8   9
ENDBRANCH   3   8
TORSDOF 5
ENDMDL
MODEL      140
REMARK 921   NORMALIZED FREE ENERGY PREDICTED BY IDOCK:   -3.28 KCAL/MOL
REMARK 922        TOTAL FREE ENERGY PREDICTED BY IDOCK:   -4.85 KCAL/MOL
REMARK 923 INTER-LIGAND FREE ENERGY PREDICTED BY IDOCK:   -4.49 KCAL/MOL
REMARK 924 INTRA-LIGAND FREE ENERGY PREDICTED BY IDOCK:   -0.36 KCAL/MOL
REMARK 927      BINDING AFFINITY PREDICTED BY RF-SCORE:    0.00 PKD
ROOT
ATOM      1  N   CYS A   1     -12.573  14.110  66.561  1.00  0.00    -0.519 NA 
ATOM      2  H2  CYS A   1     -12.437  14.256  67.561  1.00  0.00     0.000 HD 
ATOM      3  CA  CYS A   1     -11.547  13.160  66.026  1.00  0.00    -0.353 C  
ATOM      4  H1  CYS A   1     -12.613  15.006  66.074  1.00  0.00     0.000 HD 
ATOM      5  O   CYS A   1     -12.581  13.950  64.024  1.00  0.00    -0.689 OA 
ATOM      6  C   CYS A   1     -11.853  12.926  64.538  1.00  0.00    -0.375 C  
ATOM      7  OXT CYS A   1     -11.484  11.966  63.881  1.00  0.00    -0.381 OA 
ENDROOT
BRANCH   3   8
ATOM      8  CB  CYS A   1     -11.486  11.812  66.757  1.00  0.00    -0.281 C  
BRANCH   8   9
ATOM      9  SG  CYS A   1     -10.599  11.959  68.352  1.00  0.00    -0.225 SA 
BRANCH   9  10
ATOM     10  SG  CYS A   1      -8.916  13.010  67.805  1.00  0.00    -0.202 SA 
BRANCH  10  11
ATOM     11  CB  CYS A   1      -9.260  14.660  68.515  1.00  0.00    -0.193 C  
BRANCH  11  12
ATOM     12  CA  CYS A   1      -8.867  15.785  67.547  1.00  0.00    -0.186 C  
ATOM     13  N   CYS A   1      -8.819  15.339  66.116  1.00  0.00    -0.463 NA 
ATOM     14  C   CYS A   1      -7.467  16.254  67.945  1.00  0.00    -0.130 C  
ATOM     15  H2  CYS A   1      -9.703  14.912  65.838  1.00  0.00     0.000 HD 
ATOM     16  H1  CYS A   1      -8.558  16.087  65.474  1.00  0.00     0.000 HD 
ATOM     17  OXT CYS A   1      -7.207  16.946  68.916  1.00  0.00    -0.209 OA 
ATOM     18  O   CYS A   1      -6.520  15.759  67.104  1.00  0.00    -0.282 OA 
ENDBRANCH  11  12
ENDBRANCH  10  11
ENDBRANCH   9  10
ENDBRANCH   8   9
ENDBRANCH   3   8
TORSDOF 5
ENDMDL
MODEL      141
REMARK 921   NORMALIZED FREE ENERGY PREDICTED BY IDOCK:   -3.25 KCAL/MOL
REMARK 922        TOTAL FREE ENERGY PREDICTED BY IDOCK:   -4.81 KCAL/MOL
REMARK 923 INTER-LIGAND FREE ENERGY PREDICTED BY IDOCK:   -4.59 KCAL/MOL
REMARK 924 INTRA-LIGAND FREE ENERGY PREDICTED BY IDOCK:   -0.22 KCAL/MOL
REMARK 927      BINDING AFFINITY PREDICTED BY RF-SCORE:    0.00 PKD
ROOT
ATOM      1  N   CYS A   1     -10.108  14.233  64.425  1.00  0.00    -0.610 NA 
ATOM      2  H2  CYS A   1      -9.535  14.824  65.029  1.00  0.00     0.000 HD 
ATOM      3  CA  CYS A   1     -11.160  13.531  65.228  1.00  0.00    -0.297 C  
ATOM      4  H1  CYS A   1      -9.517  13.613  63.870  1.00  0.00     0.000 HD 
ATOM      5  O   CYS A   1     -11.362  12.461  63.103  1.00  0.00    -0.386 OA 
ATOM      6  C   CYS A   1     -12.032  12.722  64.255  1.00  0.00    -0.405 C  
ATOM      7  OXT CYS A   1     -13.169  12.337  64.474  1.00  0.00    -0.799 OA 
ENDROOT
BRANCH   3   8
ATOM      8  CB  CYS A   1     -12.050  14.462  66.064  1.00  0.00    -0.357 C  
BRANCH   8   9
ATOM      9  SG  CYS A   1     -11.838  14.154  67.855  1.00  0.00    -0.355 SA 
BRANCH   9  10
ATOM     10  SG  CYS A   1      -9.921  13.409  67.934  1.00  0.00    -0.242 SA 
BRANCH  10  11
ATOM     11  CB  CYS A   1      -9.100  14.610  69.041  1.00  0.00    -0.097 C  
BRANCH  11  12
ATOM     12  CA  CYS A   1      -7.571  14.545  68.913  1.00  0.00    -0.138 C  
ATOM     13  N   CYS A   1      -6.874  14.462  70.237  1.00  0.00    -0.399 NA 
ATOM     14  C   CYS A   1      -7.122  15.832  68.219  1.00  0.00    -0.113 C  
ATOM     15  H2  CYS A   1      -7.227  13.677  70.786  1.00  0.00     0.000 HD 
ATOM     16  H1  CYS A   1      -5.858  14.419  70.151  1.00  0.00     0.000 HD 
ATOM     17  OXT CYS A   1      -7.250  16.071  67.029  1.00  0.00    -0.207 OA 
ATOM     18  O   CYS A   1      -6.598  16.718  69.109  1.00  0.00    -0.188 OA 
ENDBRANCH  11  12
ENDBRANCH  10  11
ENDBRANCH   9  10
ENDBRANCH   8   9
ENDBRANCH   3   8
TORSDOF 5
ENDMDL
MODEL      142
REMARK 921   NORMALIZED FREE ENERGY PREDICTED BY IDOCK:   -3.25 KCAL/MOL
REMARK 922        TOTAL FREE ENERGY PREDICTED BY IDOCK:   -4.81 KCAL/MOL
REMARK 923 INTER-LIGAND FREE ENERGY PREDICTED BY IDOCK:   -4.60 KCAL/MOL
REMARK 924 INTRA-LIGAND FREE ENERGY PREDICTED BY IDOCK:   -0.21 KCAL/MOL
REMARK 927      BINDING AFFINITY PREDICTED BY RF-SCORE:    0.00 PKD
ROOT
ATOM      1  N   CYS A   1      -9.074   7.809  67.143  1.00  0.00    -0.130 NA 
ATOM      2  H2  CYS A   1     -10.010   8.174  66.965  1.00  0.00     0.000 HD 
ATOM      3  CA  CYS A   1      -8.351   7.572  65.853  1.00  0.00    -0.139 C  
ATOM      4  H1  CYS A   1      -9.121   6.994  67.756  1.00  0.00     0.000 HD 
ATOM      5  O   CYS A   1      -6.878   6.564  67.439  1.00  0.00    -0.070 OA 
ATOM      6  C   CYS A   1      -6.929   7.098  66.191  1.00  0.00    -0.065 C  
ATOM      7  OXT CYS A   1      -5.964   7.163  65.447  1.00  0.00    -0.035 OA 
ENDROOT
BRANCH   3   8
ATOM      8  CB  CYS A   1      -8.280   8.797  64.930  1.00  0.00    -0.159 C  
BRANCH   8   9
ATOM      9  SG  CYS A   1      -9.779   9.835  65.086  1.00  0.00    -0.190 SA 
BRANCH   9  10
ATOM     10  SG  CYS A   1      -9.699  10.957  63.362  1.00  0.00    -0.384 SA 
BRANCH  10  11
ATOM     11  CB  CYS A   1     -10.311  12.579  63.944  1.00  0.00    -0.409 C  
BRANCH  11  12
ATOM     12  CA  CYS A   1     -11.844  12.653  63.902  1.00  0.00    -0.467 C  
ATOM     13  N   CYS A   1     -12.355  13.699  62.958  1.00  0.00    -1.004 NA 
ATOM     14  C   CYS A   1     -12.317  13.013  65.312  1.00  0.00    -0.486 C  
ATOM     15  H2  CYS A   1     -11.971  13.564  62.022  1.00  0.00     0.000 HD 
ATOM     16  H1  CYS A   1     -13.374  13.748  62.931  1.00  0.00     0.000 HD 
ATOM     17  OXT CYS A   1     -12.343  12.248  66.262  1.00  0.00    -0.556 OA 
ATOM     18  O   CYS A   1     -12.666  14.325  65.398  1.00  0.00    -0.507 OA 
ENDBRANCH  11  12
ENDBRANCH  10  11
ENDBRANCH   9  10
ENDBRANCH   8   9
ENDBRANCH   3   8
TORSDOF 5
ENDMDL
MODEL      143
REMARK 921   NORMALIZED FREE ENERGY PREDICTED BY IDOCK:   -3.23 KCAL/MOL
REMARK 922        TOTAL FREE ENERGY PREDICTED BY IDOCK:   -4.79 KCAL/MOL
REMARK 923 INTER-LIGAND FREE ENERGY PREDICTED BY IDOCK:   -4.72 KCAL/MOL
REMARK 924 INTRA-LIGAND FREE ENERGY PREDICTED BY IDOCK:   -0.07 KCAL/MOL
REMARK 927      BINDING AFFINITY PREDICTED BY RF-SCORE:    0.00 PKD
ROOT
ATOM      1  N   CYS A   1     -10.506  12.793  69.107  1.00  0.00    -0.433 NA 
ATOM      2  H2  CYS A   1     -10.316  12.994  70.089  1.00  0.00     0.000 HD 
ATOM      3  CA  CYS A   1     -11.684  13.587  68.630  1.00  0.00    -0.354 C  
ATOM      4  H1  CYS A   1     -10.588  11.787  68.960  1.00  0.00     0.000 HD 
ATOM      5  O   CYS A   1     -11.301  12.113  66.791  1.00  0.00    -0.302 OA 
ATOM      6  C   CYS A   1     -11.869  13.298  67.132  1.00  0.00    -0.374 C  
ATOM      7  OXT CYS A   1     -12.461  14.013  66.340  1.00  0.00    -0.452 OA 
ENDROOT
BRANCH   3   8
ATOM      8  CB  CYS A   1     -11.562  15.101  68.851  1.00  0.00    -0.341 C  
BRANCH   8   9
ATOM      9  SG  CYS A   1      -9.930  15.541  69.555  1.00  0.00    -0.283 SA 
BRANCH   9  10
ATOM     10  SG  CYS A   1      -9.491  17.284  68.551  1.00  0.00    -0.291 SA 
BRANCH  10  11
ATOM     11  CB  CYS A   1     -10.198  16.949  66.899  1.00  0.00    -0.296 C  
BRANCH  11  12
ATOM     12  CA  CYS A   1      -9.169  16.297  65.964  1.00  0.00    -0.316 C  
ATOM     13  N   CYS A   1      -9.143  14.802  66.071  1.00  0.00    -0.502 NA 
ATOM     14  C   CYS A   1      -7.792  16.826  66.370  1.00  0.00    -0.318 C  
ATOM     15  H2  CYS A   1     -10.073  14.410  65.919  1.00  0.00     0.000 HD 
ATOM     16  H1  CYS A   1      -8.459  14.369  65.450  1.00  0.00     0.000 HD 
ATOM     17  OXT CYS A   1      -7.366  17.942  66.122  1.00  0.00    -0.266 OA 
ATOM     18  O   CYS A   1      -7.103  15.907  67.098  1.00  0.00    -0.195 OA 
ENDBRANCH  11  12
ENDBRANCH  10  11
ENDBRANCH   9  10
ENDBRANCH   8   9
ENDBRANCH   3   8
TORSDOF 5
ENDMDL
MODEL      144
REMARK 921   NORMALIZED FREE ENERGY PREDICTED BY IDOCK:   -3.23 KCAL/MOL
REMARK 922        TOTAL FREE ENERGY PREDICTED BY IDOCK:   -4.78 KCAL/MOL
REMARK 923 INTER-LIGAND FREE ENERGY PREDICTED BY IDOCK:   -4.54 KCAL/MOL
REMARK 924 INTRA-LIGAND FREE ENERGY PREDICTED BY IDOCK:   -0.25 KCAL/MOL
REMARK 927      BINDING AFFINITY PREDICTED BY RF-SCORE:    0.00 PKD
ROOT
ATOM      1  N   CYS A   1      -9.446  18.596  68.697  1.00  0.00    -0.355 NA 
ATOM      2  H2  CYS A   1      -9.092  17.813  69.247  1.00  0.00     0.000 HD 
ATOM      3  CA  CYS A   1      -9.551  18.215  67.252  1.00  0.00    -0.281 C  
ATOM      4  H1  CYS A   1      -8.890  19.433  68.874  1.00  0.00     0.000 HD 
ATOM      5  O   CYS A   1      -9.967  20.566  67.178  1.00  0.00    -0.452 OA 
ATOM      6  C   CYS A   1     -10.159  19.407  66.496  1.00  0.00    -0.422 C  
ATOM      7  OXT CYS A   1     -10.725  19.347  65.417  1.00  0.00    -0.468 OA 
ENDROOT
BRANCH   3   8
ATOM      8  CB  CYS A   1     -10.388  16.956  66.986  1.00  0.00    -0.307 C  
BRANCH   8   9
ATOM      9  SG  CYS A   1     -11.168  16.339  68.523  1.00  0.00    -0.316 SA 
BRANCH   9  10
ATOM     10  SG  CYS A   1     -10.125  14.596  68.857  1.00  0.00    -0.214 SA 
BRANCH  10  11
ATOM     11  CB  CYS A   1     -11.055  13.403  67.831  1.00  0.00    -0.265 C  
BRANCH  11  12
ATOM     12  CA  CYS A   1     -10.135  12.665  66.847  1.00  0.00    -0.230 C  
ATOM     13  N   CYS A   1      -9.601  13.552  65.764  1.00  0.00    -0.493 NA 
ATOM     14  C   CYS A   1     -10.968  11.562  66.191  1.00  0.00    -0.266 C  
ATOM     15  H2  CYS A   1      -9.132  14.368  66.159  1.00  0.00     0.000 HD 
ATOM     16  H1  CYS A   1      -8.990  13.062  65.111  1.00  0.00     0.000 HD 
ATOM     17  OXT CYS A   1     -11.297  10.517  66.727  1.00  0.00    -0.153 OA 
ATOM     18  O   CYS A   1     -11.349  11.911  64.933  1.00  0.00    -0.316 OA 
ENDBRANCH  11  12
ENDBRANCH  10  11
ENDBRANCH   9  10
ENDBRANCH   8   9
ENDBRANCH   3   8
TORSDOF 5
ENDMDL
MODEL      145
REMARK 921   NORMALIZED FREE ENERGY PREDICTED BY IDOCK:   -3.22 KCAL/MOL
REMARK 922        TOTAL FREE ENERGY PREDICTED BY IDOCK:   -4.78 KCAL/MOL
REMARK 923 INTER-LIGAND FREE ENERGY PREDICTED BY IDOCK:   -4.56 KCAL/MOL
REMARK 924 INTRA-LIGAND FREE ENERGY PREDICTED BY IDOCK:   -0.22 KCAL/MOL
REMARK 927      BINDING AFFINITY PREDICTED BY RF-SCORE:    0.00 PKD
ROOT
ATOM      1  N   CYS A   1     -11.153  17.053  64.649  1.00  0.00    -1.014 NA 
ATOM      2  H2  CYS A   1     -11.281  16.051  64.501  1.00  0.00     0.000 HD 
ATOM      3  CA  CYS A   1     -10.323  17.299  65.871  1.00  0.00    -0.278 C  
ATOM      4  H1  CYS A   1     -12.055  17.530  64.648  1.00  0.00     0.000 HD 
ATOM      5  O   CYS A   1     -11.068  19.501  65.326  1.00  0.00    -0.406 OA 
ATOM      6  C   CYS A   1     -10.104  18.815  65.993  1.00  0.00    -0.317 C  
ATOM      7  OXT CYS A   1      -9.204  19.353  66.616  1.00  0.00    -0.310 OA 
ENDROOT
BRANCH   3   8
ATOM      8  CB  CYS A   1      -8.966  16.581  65.872  1.00  0.00    -0.130 C  
BRANCH   8   9
ATOM      9  SG  CYS A   1      -8.737  15.593  67.396  1.00  0.00    -0.188 SA 
BRANCH   9  10
ATOM     10  SG  CYS A   1     -10.637  14.873  67.723  1.00  0.00    -0.267 SA 
BRANCH  10  11
ATOM     11  CB  CYS A   1     -10.306  13.125  68.145  1.00  0.00    -0.244 C  
BRANCH  11  12
ATOM     12  CA  CYS A   1     -10.590  12.192  66.959  1.00  0.00    -0.228 C  
ATOM     13  N   CYS A   1     -12.028  12.202  66.536  1.00  0.00    -0.631 NA 
ATOM     14  C   CYS A   1     -10.235  10.773  67.406  1.00  0.00    -0.204 C  
ATOM     15  H2  CYS A   1     -12.342  13.152  66.336  1.00  0.00     0.000 HD 
ATOM     16  H1  CYS A   1     -12.216  11.582  65.748  1.00  0.00     0.000 HD 
ATOM     17  OXT CYS A   1      -9.102  10.337  67.527  1.00  0.00    -0.137 OA 
ATOM     18  O   CYS A   1     -11.350  10.055  67.708  1.00  0.00    -0.209 OA 
ENDBRANCH  11  12
ENDBRANCH  10  11
ENDBRANCH   9  10
ENDBRANCH   8   9
ENDBRANCH   3   8
TORSDOF 5
ENDMDL
MODEL      146
REMARK 921   NORMALIZED FREE ENERGY PREDICTED BY IDOCK:   -3.22 KCAL/MOL
REMARK 922        TOTAL FREE ENERGY PREDICTED BY IDOCK:   -4.78 KCAL/MOL
REMARK 923 INTER-LIGAND FREE ENERGY PREDICTED BY IDOCK:   -4.68 KCAL/MOL
REMARK 924 INTRA-LIGAND FREE ENERGY PREDICTED BY IDOCK:   -0.10 KCAL/MOL
REMARK 927      BINDING AFFINITY PREDICTED BY RF-SCORE:    0.00 PKD
ROOT
ATOM      1  N   CYS A   1      -6.417  14.245  67.472  1.00  0.00    -0.311 NA 
ATOM      2  H2  CYS A   1      -6.364  13.605  66.678  1.00  0.00     0.000 HD 
ATOM      3  CA  CYS A   1      -7.839  14.638  67.732  1.00  0.00    -0.154 C  
ATOM      4  H1  CYS A   1      -5.780  15.031  67.337  1.00  0.00     0.000 HD 
ATOM      5  O   CYS A   1      -6.643  16.110  69.183  1.00  0.00    -0.152 OA 
ATOM      6  C   CYS A   1      -7.857  15.536  68.979  1.00  0.00    -0.201 C  
ATOM      7  OXT CYS A   1      -8.825  15.737  69.694  1.00  0.00    -0.232 OA 
ENDROOT
BRANCH   3   8
ATOM      8  CB  CYS A   1      -8.798  13.456  67.934  1.00  0.00    -0.194 C  
BRANCH   8   9
ATOM      9  SG  CYS A   1      -8.458  12.112  66.740  1.00  0.00    -0.089 SA 
BRANCH   9  10
ATOM     10  SG  CYS A   1      -9.945  12.397  65.345  1.00  0.00    -0.194 SA 
BRANCH  10  11
ATOM     11  CB  CYS A   1     -10.074  14.220  65.306  1.00  0.00    -0.349 C  
BRANCH  11  12
ATOM     12  CA  CYS A   1     -11.502  14.694  65.612  1.00  0.00    -0.340 C  
ATOM     13  N   CYS A   1     -12.453  13.563  65.868  1.00  0.00    -0.445 NA 
ATOM     14  C   CYS A   1     -11.996  15.460  64.384  1.00  0.00    -0.228 C  
ATOM     15  H2  CYS A   1     -12.104  12.955  66.610  1.00  0.00     0.000 HD 
ATOM     16  H1  CYS A   1     -13.402  13.878  66.072  1.00  0.00     0.000 HD 
ATOM     17  OXT CYS A   1     -11.648  16.588  64.072  1.00  0.00    -1.154 OA 
ATOM     18  O   CYS A   1     -12.846  14.706  63.637  1.00  0.00    -0.637 OA 
ENDBRANCH  11  12
ENDBRANCH  10  11
ENDBRANCH   9  10
ENDBRANCH   8   9
ENDBRANCH   3   8
TORSDOF 5
ENDMDL
MODEL      147
REMARK 921   NORMALIZED FREE ENERGY PREDICTED BY IDOCK:   -3.22 KCAL/MOL
REMARK 922        TOTAL FREE ENERGY PREDICTED BY IDOCK:   -4.78 KCAL/MOL
REMARK 923 INTER-LIGAND FREE ENERGY PREDICTED BY IDOCK:   -4.73 KCAL/MOL
REMARK 924 INTRA-LIGAND FREE ENERGY PREDICTED BY IDOCK:   -0.04 KCAL/MOL
REMARK 927      BINDING AFFINITY PREDICTED BY RF-SCORE:    0.00 PKD
ROOT
ATOM      1  N   CYS A   1      -8.514  12.325  68.459  1.00  0.00    -0.312 NA 
ATOM      2  H2  CYS A   1      -7.821  13.035  68.218  1.00  0.00     0.000 HD 
ATOM      3  CA  CYS A   1      -9.898  12.843  68.214  1.00  0.00    -0.228 C  
ATOM      4  H1  CYS A   1      -8.354  11.979  69.405  1.00  0.00     0.000 HD 
ATOM      5  O   CYS A   1     -10.330  10.792  69.358  1.00  0.00    -0.218 OA 
ATOM      6  C   CYS A   1     -10.886  11.706  68.522  1.00  0.00    -0.219 C  
ATOM      7  OXT CYS A   1     -12.028  11.626  68.100  1.00  0.00    -0.550 OA 
ENDROOT
BRANCH   3   8
ATOM      8  CB  CYS A   1     -10.140  13.364  66.791  1.00  0.00    -0.260 C  
BRANCH   8   9
ATOM      9  SG  CYS A   1     -10.372  15.180  66.778  1.00  0.00    -0.279 SA 
BRANCH   9  10
ATOM     10  SG  CYS A   1      -8.466  15.847  66.379  1.00  0.00    -0.264 SA 
BRANCH  10  11
ATOM     11  CB  CYS A   1      -8.509  17.536  67.078  1.00  0.00    -0.234 C  
BRANCH  11  12
ATOM     12  CA  CYS A   1      -9.943  18.082  67.152  1.00  0.00    -0.325 C  
ATOM     13  N   CYS A   1     -10.525  18.386  65.804  1.00  0.00    -0.623 NA 
ATOM     14  C   CYS A   1      -9.889  19.384  67.951  1.00  0.00    -0.361 C  
ATOM     15  H2  CYS A   1     -10.477  17.570  65.194  1.00  0.00     0.000 HD 
ATOM     16  H1  CYS A   1     -11.477  18.749  65.854  1.00  0.00     0.000 HD 
ATOM     17  OXT CYS A   1      -9.757  19.461  69.162  1.00  0.00    -0.406 OA 
ATOM     18  O   CYS A   1      -9.956  20.470  67.135  1.00  0.00    -0.452 OA 
ENDBRANCH  11  12
ENDBRANCH  10  11
ENDBRANCH   9  10
ENDBRANCH   8   9
ENDBRANCH   3   8
TORSDOF 5
ENDMDL
MODEL      148
REMARK 921   NORMALIZED FREE ENERGY PREDICTED BY IDOCK:   -3.21 KCAL/MOL
REMARK 922        TOTAL FREE ENERGY PREDICTED BY IDOCK:   -4.77 KCAL/MOL
REMARK 923 INTER-LIGAND FREE ENERGY PREDICTED BY IDOCK:   -4.27 KCAL/MOL
REMARK 924 INTRA-LIGAND FREE ENERGY PREDICTED BY IDOCK:   -0.50 KCAL/MOL
REMARK 927      BINDING AFFINITY PREDICTED BY RF-SCORE:    0.00 PKD
ROOT
ATOM      1  N   CYS A   1      -9.579   5.108  68.775  1.00  0.00    -0.134 NA 
ATOM      2  H2  CYS A   1      -9.850   4.405  69.463  1.00  0.00     0.000 HD 
ATOM      3  CA  CYS A   1     -10.768   5.921  68.362  1.00  0.00    -0.250 C  
ATOM      4  H1  CYS A   1      -9.076   4.673  68.001  1.00  0.00     0.000 HD 
ATOM      5  O   CYS A   1      -9.108   6.645  66.807  1.00  0.00    -0.132 OA 
ATOM      6  C   CYS A   1     -10.281   7.005  67.388  1.00  0.00    -0.215 C  
ATOM      7  OXT CYS A   1     -10.863   8.048  67.140  1.00  0.00    -0.278 OA 
ENDROOT
BRANCH   3   8
ATOM      8  CB  CYS A   1     -11.525   6.576  69.526  1.00  0.00    -0.319 C  
BRANCH   8   9
ATOM      9  SG  CYS A   1     -10.533   6.550  71.064  1.00  0.00    -0.228 SA 
BRANCH   9  10
ATOM     10  SG  CYS A   1     -11.552   7.890  72.249  1.00  0.00    -0.372 SA 
BRANCH  10  11
ATOM     11  CB  CYS A   1     -11.105   9.485  71.475  1.00  0.00    -0.336 C  
BRANCH  11  12
ATOM     12  CA  CYS A   1     -12.235  10.017  70.581  1.00  0.00    -0.269 C  
ATOM     13  N   CYS A   1     -11.833  10.148  69.143  1.00  0.00    -0.495 NA 
ATOM     14  C   CYS A   1     -12.605  11.407  71.100  1.00  0.00    -0.386 C  
ATOM     15  H2  CYS A   1     -11.470   9.264  68.784  1.00  0.00     0.000 HD 
ATOM     16  H1  CYS A   1     -12.584  10.501  68.549  1.00  0.00     0.000 HD 
ATOM     17  OXT CYS A   1     -13.249  11.632  72.112  1.00  0.00    -0.504 OA 
ATOM     18  O   CYS A   1     -12.080  12.385  70.314  1.00  0.00    -0.348 OA 
ENDBRANCH  11  12
ENDBRANCH  10  11
ENDBRANCH   9  10
ENDBRANCH   8   9
ENDBRANCH   3   8
TORSDOF 5
ENDMDL
MODEL      149
REMARK 921   NORMALIZED FREE ENERGY PREDICTED BY IDOCK:   -3.20 KCAL/MOL
REMARK 922        TOTAL FREE ENERGY PREDICTED BY IDOCK:   -4.76 KCAL/MOL
REMARK 923 INTER-LIGAND FREE ENERGY PREDICTED BY IDOCK:   -4.61 KCAL/MOL
REMARK 924 INTRA-LIGAND FREE ENERGY PREDICTED BY IDOCK:   -0.15 KCAL/MOL
REMARK 927      BINDING AFFINITY PREDICTED BY RF-SCORE:    0.00 PKD
ROOT
ATOM      1  N   CYS A   1      -9.599   9.885  67.251  1.00  0.00    -0.156 NA 
ATOM      2  H2  CYS A   1     -10.306  10.621  67.274  1.00  0.00     0.000 HD 
ATOM      3  CA  CYS A   1      -9.703   9.101  65.978  1.00  0.00    -0.287 C  
ATOM      4  H1  CYS A   1      -9.647   9.320  68.099  1.00  0.00     0.000 HD 
ATOM      5  O   CYS A   1      -8.140   7.804  67.233  1.00  0.00    -0.115 OA 
ATOM      6  C   CYS A   1      -8.570   8.064  65.971  1.00  0.00    -0.145 C  
ATOM      7  OXT CYS A   1      -8.114   7.518  64.979  1.00  0.00    -0.127 OA 
ENDROOT
BRANCH   3   8
ATOM      8  CB  CYS A   1      -9.632   9.950  64.701  1.00  0.00    -0.252 C  
BRANCH   8   9
ATOM      9  SG  CYS A   1      -9.811  11.733  65.077  1.00  0.00    -0.197 SA 
BRANCH   9  10
ATOM     10  SG  CYS A   1     -11.356  12.276  63.830  1.00  0.00    -0.472 SA 
BRANCH  10  11
ATOM     11  CB  CYS A   1     -12.582  12.928  65.020  1.00  0.00    -0.472 C  
BRANCH  11  12
ATOM     12  CA  CYS A   1     -12.571  14.463  65.061  1.00  0.00    -0.301 C  
ATOM     13  N   CYS A   1     -12.406  15.085  63.707  1.00  0.00    -1.058 NA 
ATOM     14  C   CYS A   1     -11.380  14.882  65.924  1.00  0.00    -0.306 C  
ATOM     15  H2  CYS A   1     -13.118  14.743  63.060  1.00  0.00     0.000 HD 
ATOM     16  H1  CYS A   1     -12.399  16.105  63.734  1.00  0.00     0.000 HD 
ATOM     17  OXT CYS A   1     -11.334  14.812  67.141  1.00  0.00    -0.337 OA 
ATOM     18  O   CYS A   1     -10.338  15.305  65.159  1.00  0.00    -0.382 OA 
ENDBRANCH  11  12
ENDBRANCH  10  11
ENDBRANCH   9  10
ENDBRANCH   8   9
ENDBRANCH   3   8
TORSDOF 5
ENDMDL
MODEL      150
REMARK 921   NORMALIZED FREE ENERGY PREDICTED BY IDOCK:   -3.20 KCAL/MOL
REMARK 922        TOTAL FREE ENERGY PREDICTED BY IDOCK:   -4.76 KCAL/MOL
REMARK 923 INTER-LIGAND FREE ENERGY PREDICTED BY IDOCK:   -4.50 KCAL/MOL
REMARK 924 INTRA-LIGAND FREE ENERGY PREDICTED BY IDOCK:   -0.26 KCAL/MOL
REMARK 927      BINDING AFFINITY PREDICTED BY RF-SCORE:    0.00 PKD
ROOT
ATOM      1  N   CYS A   1      -9.727   8.666  65.594  1.00  0.00    -0.438 NA 
ATOM      2  H2  CYS A   1     -10.518   8.563  64.958  1.00  0.00     0.000 HD 
ATOM      3  CA  CYS A   1      -8.650   9.492  64.959  1.00  0.00    -0.167 C  
ATOM      4  H1  CYS A   1      -9.417   7.752  65.926  1.00  0.00     0.000 HD 
ATOM      5  O   CYS A   1      -7.564   8.691  66.929  1.00  0.00    -0.083 OA 
ATOM      6  C   CYS A   1      -7.527   9.672  65.991  1.00  0.00    -0.099 C  
ATOM      7  OXT CYS A   1      -6.689  10.560  65.979  1.00  0.00    -0.115 OA 
ENDROOT
BRANCH   3   8
ATOM      8  CB  CYS A   1      -9.116  10.867  64.458  1.00  0.00    -0.163 C  
BRANCH   8   9
ATOM      9  SG  CYS A   1     -10.675  11.377  65.269  1.00  0.00    -0.234 SA 
BRANCH   9  10
ATOM     10  SG  CYS A   1     -10.009  12.768  66.632  1.00  0.00    -0.250 SA 
BRANCH  10  11
ATOM     11  CB  CYS A   1      -9.993  14.295  65.627  1.00  0.00    -0.320 C  
BRANCH  11  12
ATOM     12  CA  CYS A   1     -11.240  15.154  65.882  1.00  0.00    -0.280 C  
ATOM     13  N   CYS A   1     -12.405  14.361  66.392  1.00  0.00    -0.442 NA 
ATOM     14  C   CYS A   1     -11.639  15.778  64.544  1.00  0.00    -0.247 C  
ATOM     15  H2  CYS A   1     -12.148  13.834  67.228  1.00  0.00     0.000 HD 
ATOM     16  H1  CYS A   1     -13.233  14.932  66.562  1.00  0.00     0.000 HD 
ATOM     17  OXT CYS A   1     -11.064  16.707  64.001  1.00  0.00    -0.914 OA 
ATOM     18  O   CYS A   1     -12.702  15.131  63.993  1.00  0.00    -0.746 OA 
ENDBRANCH  11  12
ENDBRANCH  10  11
ENDBRANCH   9  10
ENDBRANCH   8   9
ENDBRANCH   3   8
TORSDOF 5
ENDMDL
MODEL      151
REMARK 921   NORMALIZED FREE ENERGY PREDICTED BY IDOCK:   -3.19 KCAL/MOL
REMARK 922        TOTAL FREE ENERGY PREDICTED BY IDOCK:   -4.73 KCAL/MOL
REMARK 923 INTER-LIGAND FREE ENERGY PREDICTED BY IDOCK:   -4.61 KCAL/MOL
REMARK 924 INTRA-LIGAND FREE ENERGY PREDICTED BY IDOCK:   -0.12 KCAL/MOL
REMARK 927      BINDING AFFINITY PREDICTED BY RF-SCORE:    0.00 PKD
ROOT
ATOM      1  N   CYS A   1     -13.080   9.628  70.935  1.00  0.00    -0.565 NA 
ATOM      2  H2  CYS A   1     -12.711  10.519  70.603  1.00  0.00     0.000 HD 
ATOM      3  CA  CYS A   1     -11.991   8.601  70.992  1.00  0.00    -0.243 C  
ATOM      4  H1  CYS A   1     -13.892   9.351  70.382  1.00  0.00     0.000 HD 
ATOM      5  O   CYS A   1     -13.938   7.281  71.396  1.00  0.00    -0.398 OA 
ATOM      6  C   CYS A   1     -12.592   7.310  71.569  1.00  0.00    -0.379 C  
ATOM      7  OXT CYS A   1     -11.961   6.409  72.097  1.00  0.00    -0.325 OA 
ENDROOT
BRANCH   3   8
ATOM      8  CB  CYS A   1     -10.768   9.016  71.823  1.00  0.00    -0.367 C  
BRANCH   8   9
ATOM      9  SG  CYS A   1      -9.225   8.889  70.846  1.00  0.00    -0.251 SA 
BRANCH   9  10
ATOM     10  SG  CYS A   1      -9.891   9.312  68.945  1.00  0.00    -0.170 SA 
BRANCH  10  11
ATOM     11  CB  CYS A   1      -8.993  10.860  68.571  1.00  0.00    -0.157 C  
BRANCH  11  12
ATOM     12  CA  CYS A   1      -9.956  11.999  68.207  1.00  0.00    -0.203 C  
ATOM     13  N   CYS A   1     -10.547  12.675  69.407  1.00  0.00    -0.414 NA 
ATOM     14  C   CYS A   1     -11.098  11.382  67.398  1.00  0.00    -0.289 C  
ATOM     15  H2  CYS A   1      -9.815  13.004  70.037  1.00  0.00     0.000 HD 
ATOM     16  H1  CYS A   1     -11.187  13.431  69.164  1.00  0.00     0.000 HD 
ATOM     17  OXT CYS A   1     -11.023  11.023  66.234  1.00  0.00    -0.224 OA 
ATOM     18  O   CYS A   1     -12.217  11.231  68.157  1.00  0.00    -0.622 OA 
ENDBRANCH  11  12
ENDBRANCH  10  11
ENDBRANCH   9  10
ENDBRANCH   8   9
ENDBRANCH   3   8
TORSDOF 5
ENDMDL
MODEL      152
REMARK 921   NORMALIZED FREE ENERGY PREDICTED BY IDOCK:   -3.18 KCAL/MOL
REMARK 922        TOTAL FREE ENERGY PREDICTED BY IDOCK:   -4.73 KCAL/MOL
REMARK 923 INTER-LIGAND FREE ENERGY PREDICTED BY IDOCK:   -4.53 KCAL/MOL
REMARK 924 INTRA-LIGAND FREE ENERGY PREDICTED BY IDOCK:   -0.20 KCAL/MOL
REMARK 927      BINDING AFFINITY PREDICTED BY RF-SCORE:    0.00 PKD
ROOT
ATOM      1  N   CYS A   1     -11.423   6.573  69.355  1.00  0.00    -0.623 NA 
ATOM      2  H2  CYS A   1     -10.655   6.189  68.804  1.00  0.00     0.000 HD 
ATOM      3  CA  CYS A   1     -10.904   7.550  70.364  1.00  0.00    -0.244 C  
ATOM      4  H1  CYS A   1     -11.989   5.820  69.748  1.00  0.00     0.000 HD 
ATOM      5  O   CYS A   1     -13.188   7.322  71.023  1.00  0.00    -0.283 OA 
ATOM      6  C   CYS A   1     -12.112   8.146  71.105  1.00  0.00    -0.260 C  
ATOM      7  OXT CYS A   1     -12.120   9.206  71.709  1.00  0.00    -0.330 OA 
ENDROOT
BRANCH   3   8
ATOM      8  CB  CYS A   1     -10.053   8.683  69.773  1.00  0.00    -0.199 C  
BRANCH   8   9
ATOM      9  SG  CYS A   1     -10.343   8.864  67.974  1.00  0.00    -0.208 SA 
BRANCH   9  10
ATOM     10  SG  CYS A   1     -11.166  10.747  67.865  1.00  0.00    -0.298 SA 
BRANCH  10  11
ATOM     11  CB  CYS A   1      -9.964  11.617  66.796  1.00  0.00    -0.204 C  
BRANCH  11  12
ATOM     12  CA  CYS A   1     -10.566  11.952  65.424  1.00  0.00    -0.271 C  
ATOM     13  N   CYS A   1      -9.546  11.977  64.325  1.00  0.00    -0.485 NA 
ATOM     14  C   CYS A   1     -11.183  13.347  65.530  1.00  0.00    -0.288 C  
ATOM     15  H2  CYS A   1      -9.027  11.098  64.291  1.00  0.00     0.000 HD 
ATOM     16  H1  CYS A   1      -9.946  12.199  63.414  1.00  0.00     0.000 HD 
ATOM     17  OXT CYS A   1     -12.231  13.612  66.097  1.00  0.00    -0.417 OA 
ATOM     18  O   CYS A   1     -10.387  14.287  64.953  1.00  0.00    -0.418 OA 
ENDBRANCH  11  12
ENDBRANCH  10  11
ENDBRANCH   9  10
ENDBRANCH   8   9
ENDBRANCH   3   8
TORSDOF 5
ENDMDL
MODEL      153
REMARK 921   NORMALIZED FREE ENERGY PREDICTED BY IDOCK:   -3.18 KCAL/MOL
REMARK 922        TOTAL FREE ENERGY PREDICTED BY IDOCK:   -4.73 KCAL/MOL
REMARK 923 INTER-LIGAND FREE ENERGY PREDICTED BY IDOCK:   -4.20 KCAL/MOL
REMARK 924 INTRA-LIGAND FREE ENERGY PREDICTED BY IDOCK:   -0.53 KCAL/MOL
REMARK 927      BINDING AFFINITY PREDICTED BY RF-SCORE:    0.00 PKD
ROOT
ATOM      1  N   CYS A   1     -10.000  16.674  68.886  1.00  0.00    -0.258 NA 
ATOM      2  H2  CYS A   1      -9.506  16.944  68.035  1.00  0.00     0.000 HD 
ATOM      3  CA  CYS A   1     -11.140  15.757  68.560  1.00  0.00    -0.335 C  
ATOM      4  H1  CYS A   1     -10.264  17.501  69.421  1.00  0.00     0.000 HD 
ATOM      5  O   CYS A   1     -11.523  16.223  70.870  1.00  0.00    -0.406 OA 
ATOM      6  C   CYS A   1     -11.792  15.330  69.884  1.00  0.00    -0.335 C  
ATOM      7  OXT CYS A   1     -12.479  14.335  70.046  1.00  0.00    -0.338 OA 
ENDROOT
BRANCH   3   8
ATOM      8  CB  CYS A   1     -10.744  14.512  67.754  1.00  0.00    -0.256 C  
BRANCH   8   9
ATOM      9  SG  CYS A   1     -11.948  14.173  66.418  1.00  0.00    -0.439 SA 
BRANCH   9  10
ATOM     10  SG  CYS A   1     -11.207  12.429  65.612  1.00  0.00    -0.335 SA 
BRANCH  10  11
ATOM     11  CB  CYS A   1     -10.410  11.657  67.065  1.00  0.00    -0.217 C  
BRANCH  11  12
ATOM     12  CA  CYS A   1     -11.397  10.787  67.857  1.00  0.00    -0.299 C  
ATOM     13  N   CYS A   1     -11.913  11.461  69.092  1.00  0.00    -0.336 NA 
ATOM     14  C   CYS A   1     -10.645   9.526  68.283  1.00  0.00    -0.216 C  
ATOM     15  H2  CYS A   1     -12.325  12.367  68.867  1.00  0.00     0.000 HD 
ATOM     16  H1  CYS A   1     -12.569  10.883  69.618  1.00  0.00     0.000 HD 
ATOM     17  OXT CYS A   1     -10.357   8.596  67.547  1.00  0.00    -0.235 OA 
ATOM     18  O   CYS A   1     -10.282   9.583  69.592  1.00  0.00    -0.193 OA 
ENDBRANCH  11  12
ENDBRANCH  10  11
ENDBRANCH   9  10
ENDBRANCH   8   9
ENDBRANCH   3   8
TORSDOF 5
ENDMDL
MODEL      154
REMARK 921   NORMALIZED FREE ENERGY PREDICTED BY IDOCK:   -3.18 KCAL/MOL
REMARK 922        TOTAL FREE ENERGY PREDICTED BY IDOCK:   -4.72 KCAL/MOL
REMARK 923 INTER-LIGAND FREE ENERGY PREDICTED BY IDOCK:   -4.50 KCAL/MOL
REMARK 924 INTRA-LIGAND FREE ENERGY PREDICTED BY IDOCK:   -0.22 KCAL/MOL
REMARK 927      BINDING AFFINITY PREDICTED BY RF-SCORE:    0.00 PKD
ROOT
ATOM      1  N   CYS A   1     -13.660  12.354  72.408  1.00  0.00    -0.567 NA 
ATOM      2  H2  CYS A   1     -13.937  11.692  73.133  1.00  0.00     0.000 HD 
ATOM      3  CA  CYS A   1     -12.600  11.757  71.533  1.00  0.00    -0.215 C  
ATOM      4  H1  CYS A   1     -13.409  13.251  72.823  1.00  0.00     0.000 HD 
ATOM      5  O   CYS A   1     -12.633  14.028  70.795  1.00  0.00    -0.329 OA 
ATOM      6  C   CYS A   1     -12.284  12.770  70.421  1.00  0.00    -0.293 C  
ATOM      7  OXT CYS A   1     -11.770  12.505  69.347  1.00  0.00    -0.293 OA 
ENDROOT
BRANCH   3   8
ATOM      8  CB  CYS A   1     -12.976  10.406  70.909  1.00  0.00    -0.387 C  
BRANCH   8   9
ATOM      9  SG  CYS A   1     -13.421   9.180  72.193  1.00  0.00    -0.499 SA 
BRANCH   9  10
ATOM     10  SG  CYS A   1     -12.262   7.565  71.657  1.00  0.00    -0.336 SA 
BRANCH  10  11
ATOM     11  CB  CYS A   1     -11.070   7.487  73.040  1.00  0.00    -0.362 C  
BRANCH  11  12
ATOM     12  CA  CYS A   1      -9.658   7.132  72.551  1.00  0.00    -0.146 C  
ATOM     13  N   CYS A   1      -8.901   6.273  73.519  1.00  0.00    -0.124 NA 
ATOM     14  C   CYS A   1      -8.895   8.447  72.385  1.00  0.00    -0.224 C  
ATOM     15  H2  CYS A   1      -9.429   5.431  73.748  1.00  0.00     0.000 HD 
ATOM     16  H1  CYS A   1      -7.963   6.038  73.193  1.00  0.00     0.000 HD 
ATOM     17  OXT CYS A   1      -9.053   9.241  71.472  1.00  0.00    -0.315 OA 
ATOM     18  O   CYS A   1      -8.038   8.657  73.420  1.00  0.00    -0.411 OA 
ENDBRANCH  11  12
ENDBRANCH  10  11
ENDBRANCH   9  10
ENDBRANCH   8   9
ENDBRANCH   3   8
TORSDOF 5
ENDMDL
MODEL      155
REMARK 921   NORMALIZED FREE ENERGY PREDICTED BY IDOCK:   -3.17 KCAL/MOL
REMARK 922        TOTAL FREE ENERGY PREDICTED BY IDOCK:   -4.71 KCAL/MOL
REMARK 923 INTER-LIGAND FREE ENERGY PREDICTED BY IDOCK:   -4.44 KCAL/MOL
REMARK 924 INTRA-LIGAND FREE ENERGY PREDICTED BY IDOCK:   -0.28 KCAL/MOL
REMARK 927      BINDING AFFINITY PREDICTED BY RF-SCORE:    0.00 PKD
ROOT
ATOM      1  N   CYS A   1     -12.186  13.843  67.935  1.00  0.00    -0.483 NA 
ATOM      2  H2  CYS A   1     -12.357  14.831  67.744  1.00  0.00     0.000 HD 
ATOM      3  CA  CYS A   1     -11.872  13.113  66.665  1.00  0.00    -0.391 C  
ATOM      4  H1  CYS A   1     -12.958  13.446  68.471  1.00  0.00     0.000 HD 
ATOM      5  O   CYS A   1     -12.098  11.320  68.227  1.00  0.00    -0.619 OA 
ATOM      6  C   CYS A   1     -11.551  11.655  67.030  1.00  0.00    -0.189 C  
ATOM      7  OXT CYS A   1     -10.909  10.877  66.342  1.00  0.00    -0.230 OA 
ENDROOT
BRANCH   3   8
ATOM      8  CB  CYS A   1     -10.710  13.710  65.859  1.00  0.00    -0.281 C  
BRANCH   8   9
ATOM      9  SG  CYS A   1     -11.269  15.118  64.831  1.00  0.00    -0.394 SA 
BRANCH   9  10
ATOM     10  SG  CYS A   1     -10.289  16.700  65.710  1.00  0.00    -0.262 SA 
BRANCH  10  11
ATOM     11  CB  CYS A   1      -8.996  15.845  66.679  1.00  0.00    -0.268 C  
BRANCH  11  12
ATOM     12  CA  CYS A   1      -7.768  16.740  66.899  1.00  0.00    -0.219 C  
ATOM     13  N   CYS A   1      -6.486  15.968  66.991  1.00  0.00    -0.299 NA 
ATOM     14  C   CYS A   1      -7.976  17.474  68.225  1.00  0.00    -0.259 C  
ATOM     15  H2  CYS A   1      -6.361  15.372  66.171  1.00  0.00     0.000 HD 
ATOM     16  H1  CYS A   1      -5.671  16.563  67.137  1.00  0.00     0.000 HD 
ATOM     17  OXT CYS A   1      -8.738  18.411  68.399  1.00  0.00    -0.304 OA 
ATOM     18  O   CYS A   1      -7.236  16.916  69.221  1.00  0.00    -0.239 OA 
ENDBRANCH  11  12
ENDBRANCH  10  11
ENDBRANCH   9  10
ENDBRANCH   8   9
ENDBRANCH   3   8
TORSDOF 5
ENDMDL
MODEL      156
REMARK 921   NORMALIZED FREE ENERGY PREDICTED BY IDOCK:   -3.17 KCAL/MOL
REMARK 922        TOTAL FREE ENERGY PREDICTED BY IDOCK:   -4.71 KCAL/MOL
REMARK 923 INTER-LIGAND FREE ENERGY PREDICTED BY IDOCK:   -4.41 KCAL/MOL
REMARK 924 INTRA-LIGAND FREE ENERGY PREDICTED BY IDOCK:   -0.30 KCAL/MOL
REMARK 927      BINDING AFFINITY PREDICTED BY RF-SCORE:    0.00 PKD
ROOT
ATOM      1  N   CYS A   1      -9.184  13.182  68.715  1.00  0.00    -0.392 NA 
ATOM      2  H2  CYS A   1      -8.879  13.109  69.686  1.00  0.00     0.000 HD 
ATOM      3  CA  CYS A   1     -10.485  12.467  68.520  1.00  0.00    -0.231 C  
ATOM      4  H1  CYS A   1      -8.438  12.882  68.086  1.00  0.00     0.000 HD 
ATOM      5  O   CYS A   1      -9.861  12.984  66.274  1.00  0.00    -0.269 OA 
ATOM      6  C   CYS A   1     -10.924  12.680  67.063  1.00  0.00    -0.265 C  
ATOM      7  OXT CYS A   1     -12.065  12.575  66.643  1.00  0.00    -0.562 OA 
ENDROOT
BRANCH   3   8
ATOM      8  CB  CYS A   1     -11.607  12.918  69.466  1.00  0.00    -0.282 C  
BRANCH   8   9
ATOM      9  SG  CYS A   1     -12.184  11.537  70.519  1.00  0.00    -0.347 SA 
BRANCH   9  10
ATOM     10  SG  CYS A   1     -10.853  10.045  70.030  1.00  0.00    -0.321 SA 
BRANCH  10  11
ATOM     11  CB  CYS A   1     -10.907   8.993  71.524  1.00  0.00    -0.346 C  
BRANCH  11  12
ATOM     12  CA  CYS A   1     -10.361   7.585  71.245  1.00  0.00    -0.192 C  
ATOM     13  N   CYS A   1      -9.466   7.530  70.044  1.00  0.00    -0.161 NA 
ATOM     14  C   CYS A   1     -11.565   6.679  70.983  1.00  0.00    -0.346 C  
ATOM     15  H2  CYS A   1      -8.705   8.205  70.126  1.00  0.00     0.000 HD 
ATOM     16  H1  CYS A   1      -9.104   6.594  69.859  1.00  0.00     0.000 HD 
ATOM     17  OXT CYS A   1     -12.327   6.256  71.837  1.00  0.00    -0.312 OA 
ATOM     18  O   CYS A   1     -11.722   6.436  69.653  1.00  0.00    -0.389 OA 
ENDBRANCH  11  12
ENDBRANCH  10  11
ENDBRANCH   9  10
ENDBRANCH   8   9
ENDBRANCH   3   8
TORSDOF 5
ENDMDL
MODEL      157
REMARK 921   NORMALIZED FREE ENERGY PREDICTED BY IDOCK:   -3.17 KCAL/MOL
REMARK 922        TOTAL FREE ENERGY PREDICTED BY IDOCK:   -4.71 KCAL/MOL
REMARK 923 INTER-LIGAND FREE ENERGY PREDICTED BY IDOCK:   -4.42 KCAL/MOL
REMARK 924 INTRA-LIGAND FREE ENERGY PREDICTED BY IDOCK:   -0.29 KCAL/MOL
REMARK 927      BINDING AFFINITY PREDICTED BY RF-SCORE:    0.00 PKD
ROOT
ATOM      1  N   CYS A   1     -11.557   7.202  69.678  1.00  0.00    -0.531 NA 
ATOM      2  H2  CYS A   1     -10.983   7.078  68.843  1.00  0.00     0.000 HD 
ATOM      3  CA  CYS A   1     -10.755   6.918  70.910  1.00  0.00    -0.230 C  
ATOM      4  H1  CYS A   1     -12.418   6.660  69.600  1.00  0.00     0.000 HD 
ATOM      5  O   CYS A   1     -12.964   7.123  71.793  1.00  0.00    -0.352 OA 
ATOM      6  C   CYS A   1     -11.650   7.196  72.128  1.00  0.00    -0.279 C  
ATOM      7  OXT CYS A   1     -11.256   7.433  73.258  1.00  0.00    -0.324 OA 
ENDROOT
BRANCH   3   8
ATOM      8  CB  CYS A   1      -9.459   7.734  71.027  1.00  0.00    -0.155 C  
BRANCH   8   9
ATOM      9  SG  CYS A   1      -8.615   7.877  69.409  1.00  0.00    -0.138 SA 
BRANCH   9  10
ATOM     10  SG  CYS A   1      -8.614   9.913  69.110  1.00  0.00    -0.170 SA 
BRANCH  10  11
ATOM     11  CB  CYS A   1     -10.030  10.123  67.973  1.00  0.00    -0.148 C  
BRANCH  11  12
ATOM     12  CA  CYS A   1     -10.987  11.222  68.458  1.00  0.00    -0.220 C  
ATOM     13  N   CYS A   1     -12.380  10.722  68.699  1.00  0.00    -0.786 NA 
ATOM     14  C   CYS A   1     -11.046  12.285  67.360  1.00  0.00    -0.282 C  
ATOM     15  H2  CYS A   1     -12.376   9.931  69.343  1.00  0.00     0.000 HD 
ATOM     16  H1  CYS A   1     -13.015  11.452  69.021  1.00  0.00     0.000 HD 
ATOM     17  OXT CYS A   1     -10.170  13.100  67.122  1.00  0.00    -0.241 OA 
ATOM     18  O   CYS A   1     -12.190  12.181  66.632  1.00  0.00    -0.566 OA 
ENDBRANCH  11  12
ENDBRANCH  10  11
ENDBRANCH   9  10
ENDBRANCH   8   9
ENDBRANCH   3   8
TORSDOF 5
ENDMDL
MODEL      158
REMARK 921   NORMALIZED FREE ENERGY PREDICTED BY IDOCK:   -3.17 KCAL/MOL
REMARK 922        TOTAL FREE ENERGY PREDICTED BY IDOCK:   -4.71 KCAL/MOL
REMARK 923 INTER-LIGAND FREE ENERGY PREDICTED BY IDOCK:   -4.93 KCAL/MOL
REMARK 924 INTRA-LIGAND FREE ENERGY PREDICTED BY IDOCK:    0.23 KCAL/MOL
REMARK 927      BINDING AFFINITY PREDICTED BY RF-SCORE:    0.00 PKD
ROOT
ATOM      1  N   CYS A   1     -11.195  11.228  69.984  1.00  0.00    -0.470 NA 
ATOM      2  H2  CYS A   1     -11.293  12.140  69.537  1.00  0.00     0.000 HD 
ATOM      3  CA  CYS A   1     -10.922  10.170  68.959  1.00  0.00    -0.226 C  
ATOM      4  H1  CYS A   1     -11.999  11.038  70.583  1.00  0.00     0.000 HD 
ATOM      5  O   CYS A   1     -11.291   8.870  70.927  1.00  0.00    -0.264 OA 
ATOM      6  C   CYS A   1     -10.709   8.841  69.701  1.00  0.00    -0.208 C  
ATOM      7  OXT CYS A   1     -10.118   7.870  69.259  1.00  0.00    -0.186 OA 
ENDROOT
BRANCH   3   8
ATOM      8  CB  CYS A   1      -9.712  10.456  68.057  1.00  0.00    -0.150 C  
BRANCH   8   9
ATOM      9  SG  CYS A   1     -10.155  10.317  66.287  1.00  0.00    -0.227 SA 
BRANCH   9  10
ATOM     10  SG  CYS A   1     -10.309  12.293  65.732  1.00  0.00    -0.266 SA 
BRANCH  10  11
ATOM     11  CB  CYS A   1     -12.095  12.440  65.370  1.00  0.00    -0.365 C  
BRANCH  11  12
ATOM     12  CA  CYS A   1     -12.523  13.906  65.218  1.00  0.00    -0.478 C  
ATOM     13  N   CYS A   1     -12.408  14.408  63.810  1.00  0.00    -1.079 NA 
ATOM     14  C   CYS A   1     -11.593  14.742  66.098  1.00  0.00    -0.292 C  
ATOM     15  H2  CYS A   1     -12.926  13.809  63.166  1.00  0.00     0.000 HD 
ATOM     16  H1  CYS A   1     -12.693  15.383  63.709  1.00  0.00     0.000 HD 
ATOM     17  OXT CYS A   1     -11.650  14.812  67.314  1.00  0.00    -0.370 OA 
ATOM     18  O   CYS A   1     -10.642  15.371  65.356  1.00  0.00    -0.350 OA 
ENDBRANCH  11  12
ENDBRANCH  10  11
ENDBRANCH   9  10
ENDBRANCH   8   9
ENDBRANCH   3   8
TORSDOF 5
ENDMDL
MODEL      159
REMARK 921   NORMALIZED FREE ENERGY PREDICTED BY IDOCK:   -3.16 KCAL/MOL
REMARK 922        TOTAL FREE ENERGY PREDICTED BY IDOCK:   -4.70 KCAL/MOL
REMARK 923 INTER-LIGAND FREE ENERGY PREDICTED BY IDOCK:   -3.92 KCAL/MOL
REMARK 924 INTRA-LIGAND FREE ENERGY PREDICTED BY IDOCK:   -0.78 KCAL/MOL
REMARK 927      BINDING AFFINITY PREDICTED BY RF-SCORE:    0.00 PKD
ROOT
ATOM      1  N   CYS A   1     -11.541  11.750  66.859  1.00  0.00    -0.548 NA 
ATOM      2  H2  CYS A   1     -11.446  10.951  66.232  1.00  0.00     0.000 HD 
ATOM      3  CA  CYS A   1     -11.868  11.288  68.247  1.00  0.00    -0.229 C  
ATOM      4  H1  CYS A   1     -12.200  12.427  66.474  1.00  0.00     0.000 HD 
ATOM      5  O   CYS A   1     -12.160  13.651  68.428  1.00  0.00    -0.361 OA 
ATOM      6  C   CYS A   1     -11.922  12.527  69.153  1.00  0.00    -0.236 C  
ATOM      7  OXT CYS A   1     -11.792  12.524  70.367  1.00  0.00    -0.299 OA 
ENDROOT
BRANCH   3   8
ATOM      8  CB  CYS A   1     -10.877  10.268  68.827  1.00  0.00    -0.230 C  
BRANCH   8   9
ATOM      9  SG  CYS A   1     -10.532   8.923  67.634  1.00  0.00    -0.232 SA 
BRANCH   9  10
ATOM     10  SG  CYS A   1      -8.539   9.226  67.219  1.00  0.00    -0.125 SA 
BRANCH  10  11
ATOM     11  CB  CYS A   1      -8.516   9.103  65.395  1.00  0.00    -0.149 C  
BRANCH  11  12
ATOM     12  CA  CYS A   1      -8.508  10.489  64.735  1.00  0.00    -0.147 C  
ATOM     13  N   CYS A   1      -8.811  11.599  65.696  1.00  0.00    -0.405 NA 
ATOM     14  C   CYS A   1      -9.596  10.482  63.660  1.00  0.00    -0.320 C  
ATOM     15  H2  CYS A   1      -8.176  11.573  66.494  1.00  0.00     0.000 HD 
ATOM     16  H1  CYS A   1      -8.806  12.520  65.257  1.00  0.00     0.000 HD 
ATOM     17  OXT CYS A   1      -9.512   9.924  62.578  1.00  0.00    -0.277 OA 
ATOM     18  O   CYS A   1     -10.711  11.140  64.077  1.00  0.00    -0.368 OA 
ENDBRANCH  11  12
ENDBRANCH  10  11
ENDBRANCH   9  10
ENDBRANCH   8   9
ENDBRANCH   3   8
TORSDOF 5
ENDMDL
MODEL      160
REMARK 921   NORMALIZED FREE ENERGY PREDICTED BY IDOCK:   -3.16 KCAL/MOL
REMARK 922        TOTAL FREE ENERGY PREDICTED BY IDOCK:   -4.70 KCAL/MOL
REMARK 923 INTER-LIGAND FREE ENERGY PREDICTED BY IDOCK:   -4.27 KCAL/MOL
REMARK 924 INTRA-LIGAND FREE ENERGY PREDICTED BY IDOCK:   -0.43 KCAL/MOL
REMARK 927      BINDING AFFINITY PREDICTED BY RF-SCORE:    0.00 PKD
ROOT
ATOM      1  N   CYS A   1     -11.032  11.008  70.231  1.00  0.00    -0.441 NA 
ATOM      2  H2  CYS A   1     -10.206  11.073  69.635  1.00  0.00     0.000 HD 
ATOM      3  CA  CYS A   1     -11.191   9.613  70.753  1.00  0.00    -0.336 C  
ATOM      4  H1  CYS A   1     -11.851  11.373  69.744  1.00  0.00     0.000 HD 
ATOM      5  O   CYS A   1     -13.242  10.632  71.427  1.00  0.00    -0.375 OA 
ATOM      6  C   CYS A   1     -12.402   9.600  71.699  1.00  0.00    -0.404 C  
ATOM      7  OXT CYS A   1     -12.611   8.773  72.571  1.00  0.00    -0.391 OA 
ENDROOT
BRANCH   3   8
ATOM      8  CB  CYS A   1      -9.959   9.063  71.485  1.00  0.00    -0.321 C  
BRANCH   8   9
ATOM      9  SG  CYS A   1      -8.513   8.957  70.368  1.00  0.00    -0.186 SA 
BRANCH   9  10
ATOM     10  SG  CYS A   1      -9.351   8.160  68.665  1.00  0.00    -0.143 SA 
BRANCH  10  11
ATOM     11  CB  CYS A   1      -9.130   6.367  68.945  1.00  0.00    -0.129 C  
BRANCH  11  12
ATOM     12  CA  CYS A   1     -10.472   5.664  69.196  1.00  0.00    -0.269 C  
ATOM     13  N   CYS A   1     -11.647   6.589  69.097  1.00  0.00    -0.624 NA 
ATOM     14  C   CYS A   1     -10.428   5.102  70.618  1.00  0.00    -0.199 C  
ATOM     15  H2  CYS A   1     -11.653   7.075  68.200  1.00  0.00     0.000 HD 
ATOM     16  H1  CYS A   1     -12.538   6.121  69.264  1.00  0.00     0.000 HD 
ATOM     17  OXT CYS A   1      -9.801   4.114  70.965  1.00  0.00    -0.185 OA 
ATOM     18  O   CYS A   1     -11.141   5.877  71.479  1.00  0.00    -0.270 OA 
ENDBRANCH  11  12
ENDBRANCH  10  11
ENDBRANCH   9  10
ENDBRANCH   8   9
ENDBRANCH   3   8
TORSDOF 5
ENDMDL
MODEL      161
REMARK 921   NORMALIZED FREE ENERGY PREDICTED BY IDOCK:   -3.16 KCAL/MOL
REMARK 922        TOTAL FREE ENERGY PREDICTED BY IDOCK:   -4.70 KCAL/MOL
REMARK 923 INTER-LIGAND FREE ENERGY PREDICTED BY IDOCK:   -4.43 KCAL/MOL
REMARK 924 INTRA-LIGAND FREE ENERGY PREDICTED BY IDOCK:   -0.27 KCAL/MOL
REMARK 927      BINDING AFFINITY PREDICTED BY RF-SCORE:    0.00 PKD
ROOT
ATOM      1  N   CYS A   1     -11.733  15.079  68.062  1.00  0.00    -0.409 NA 
ATOM      2  H2  CYS A   1     -11.443  14.850  67.111  1.00  0.00     0.000 HD 
ATOM      3  CA  CYS A   1     -12.064  13.831  68.822  1.00  0.00    -0.309 C  
ATOM      4  H1  CYS A   1     -12.479  15.775  68.049  1.00  0.00     0.000 HD 
ATOM      5  O   CYS A   1     -12.811  15.535  70.318  1.00  0.00    -0.361 OA 
ATOM      6  C   CYS A   1     -12.417  14.237  70.261  1.00  0.00    -0.361 C  
ATOM      7  OXT CYS A   1     -12.376  13.503  71.235  1.00  0.00    -0.336 OA 
ENDROOT
BRANCH   3   8
ATOM      8  CB  CYS A   1     -10.941  12.783  68.843  1.00  0.00    -0.231 C  
BRANCH   8   9
ATOM      9  SG  CYS A   1     -11.608  11.090  68.644  1.00  0.00    -0.299 SA 
BRANCH   9  10
ATOM     10  SG  CYS A   1     -11.040  10.200  70.411  1.00  0.00    -0.329 SA 
BRANCH  10  11
ATOM     11  CB  CYS A   1     -10.667   8.495  69.865  1.00  0.00    -0.224 C  
BRANCH  11  12
ATOM     12  CA  CYS A   1     -11.515   7.461  70.620  1.00  0.00    -0.282 C  
ATOM     13  N   CYS A   1     -12.881   7.967  70.973  1.00  0.00    -0.517 NA 
ATOM     14  C   CYS A   1     -10.778   7.137  71.921  1.00  0.00    -0.216 C  
ATOM     15  H2  CYS A   1     -13.370   8.303  70.143  1.00  0.00     0.000 HD 
ATOM     16  H1  CYS A   1     -13.444   7.280  71.475  1.00  0.00     0.000 HD 
ATOM     17  OXT CYS A   1      -9.780   6.440  72.009  1.00  0.00    -0.153 OA 
ATOM     18  O   CYS A   1     -11.345   7.770  72.983  1.00  0.00    -0.399 OA 
ENDBRANCH  11  12
ENDBRANCH  10  11
ENDBRANCH   9  10
ENDBRANCH   8   9
ENDBRANCH   3   8
TORSDOF 5
ENDMDL
MODEL      162
REMARK 921   NORMALIZED FREE ENERGY PREDICTED BY IDOCK:   -3.12 KCAL/MOL
REMARK 922        TOTAL FREE ENERGY PREDICTED BY IDOCK:   -4.65 KCAL/MOL
REMARK 923 INTER-LIGAND FREE ENERGY PREDICTED BY IDOCK:   -4.44 KCAL/MOL
REMARK 924 INTRA-LIGAND FREE ENERGY PREDICTED BY IDOCK:   -0.21 KCAL/MOL
REMARK 927      BINDING AFFINITY PREDICTED BY RF-SCORE:    0.00 PKD
ROOT
ATOM      1  N   CYS A   1     -11.544  13.153  69.776  1.00  0.00    -0.463 NA 
ATOM      2  H2  CYS A   1     -11.127  12.722  70.601  1.00  0.00     0.000 HD 
ATOM      3  CA  CYS A   1     -11.135  12.415  68.538  1.00  0.00    -0.258 C  
ATOM      4  H1  CYS A   1     -11.343  14.153  69.758  1.00  0.00     0.000 HD 
ATOM      5  O   CYS A   1     -12.219  14.340  67.633  1.00  0.00    -0.337 OA 
ATOM      6  C   CYS A   1     -11.853  13.065  67.345  1.00  0.00    -0.357 C  
ATOM      7  OXT CYS A   1     -12.061  12.532  66.267  1.00  0.00    -0.574 OA 
ENDROOT
BRANCH   3   8
ATOM      8  CB  CYS A   1     -11.438  10.910  68.565  1.00  0.00    -0.310 C  
BRANCH   8   9
ATOM      9  SG  CYS A   1     -11.169  10.207  70.234  1.00  0.00    -0.335 SA 
BRANCH   9  10
ATOM     10  SG  CYS A   1      -9.242   9.497  70.089  1.00  0.00    -0.249 SA 
BRANCH  10  11
ATOM     11  CB  CYS A   1      -9.520   7.778  69.532  1.00  0.00    -0.160 C  
BRANCH  11  12
ATOM     12  CA  CYS A   1     -10.944   7.581  68.991  1.00  0.00     0.031 C  
ATOM     13  N   CYS A   1     -11.683   6.470  69.674  1.00  0.00    -0.643 NA 
ATOM     14  C   CYS A   1     -10.819   7.229  67.509  1.00  0.00    -0.214 C  
ATOM     15  H2  CYS A   1     -11.692   6.607  70.685  1.00  0.00     0.000 HD 
ATOM     16  H1  CYS A   1     -12.628   6.340  69.315  1.00  0.00     0.000 HD 
ATOM     17  OXT CYS A   1     -10.550   8.018  66.618  1.00  0.00    -0.277 OA 
ATOM     18  O   CYS A   1     -10.997   5.896  67.299  1.00  0.00    -0.293 OA 
ENDBRANCH  11  12
ENDBRANCH  10  11
ENDBRANCH   9  10
ENDBRANCH   8   9
ENDBRANCH   3   8
TORSDOF 5
ENDMDL
MODEL      163
REMARK 921   NORMALIZED FREE ENERGY PREDICTED BY IDOCK:   -3.12 KCAL/MOL
REMARK 922        TOTAL FREE ENERGY PREDICTED BY IDOCK:   -4.65 KCAL/MOL
REMARK 923 INTER-LIGAND FREE ENERGY PREDICTED BY IDOCK:   -4.37 KCAL/MOL
REMARK 924 INTRA-LIGAND FREE ENERGY PREDICTED BY IDOCK:   -0.28 KCAL/MOL
REMARK 927      BINDING AFFINITY PREDICTED BY RF-SCORE:    0.00 PKD
ROOT
ATOM      1  N   CYS A   1      -9.116   5.013  72.460  1.00  0.00    -0.132 NA 
ATOM      2  H2  CYS A   1      -8.924   5.243  73.435  1.00  0.00     0.000 HD 
ATOM      3  CA  CYS A   1     -10.423   5.606  72.030  1.00  0.00    -0.219 C  
ATOM      4  H1  CYS A   1      -9.040   4.006  72.311  1.00  0.00     0.000 HD 
ATOM      5  O   CYS A   1      -9.876   4.210  70.171  1.00  0.00    -0.209 OA 
ATOM      6  C   CYS A   1     -10.615   5.289  70.539  1.00  0.00    -0.202 C  
ATOM      7  OXT CYS A   1     -11.343   5.898  69.772  1.00  0.00    -0.371 OA 
ENDROOT
BRANCH   3   8
ATOM      8  CB  CYS A   1     -10.538   7.120  72.254  1.00  0.00    -0.215 C  
BRANCH   8   9
ATOM      9  SG  CYS A   1      -9.139   8.015  71.484  1.00  0.00    -0.154 SA 
BRANCH   9  10
ATOM     10  SG  CYS A   1     -10.106   9.517  70.462  1.00  0.00    -0.281 SA 
BRANCH  10  11
ATOM     11  CB  CYS A   1     -11.638   9.707  71.442  1.00  0.00    -0.400 C  
BRANCH  11  12
ATOM     12  CA  CYS A   1     -12.728  10.445  70.651  1.00  0.00    -0.333 C  
ATOM     13  N   CYS A   1     -12.426  10.543  69.186  1.00  0.00    -0.712 NA 
ATOM     14  C   CYS A   1     -12.812  11.864  71.215  1.00  0.00    -0.290 C  
ATOM     15  H2  CYS A   1     -12.249   9.620  68.788  1.00  0.00     0.000 HD 
ATOM     16  H1  CYS A   1     -13.150  11.033  68.661  1.00  0.00     0.000 HD 
ATOM     17  OXT CYS A   1     -13.325  12.169  72.279  1.00  0.00    -0.500 OA 
ATOM     18  O   CYS A   1     -12.192  12.759  70.400  1.00  0.00    -0.350 OA 
ENDBRANCH  11  12
ENDBRANCH  10  11
ENDBRANCH   9  10
ENDBRANCH   8   9
ENDBRANCH   3   8
TORSDOF 5
ENDMDL
MODEL      164
REMARK 921   NORMALIZED FREE ENERGY PREDICTED BY IDOCK:   -3.12 KCAL/MOL
REMARK 922        TOTAL FREE ENERGY PREDICTED BY IDOCK:   -4.64 KCAL/MOL
REMARK 923 INTER-LIGAND FREE ENERGY PREDICTED BY IDOCK:   -4.42 KCAL/MOL
REMARK 924 INTRA-LIGAND FREE ENERGY PREDICTED BY IDOCK:   -0.23 KCAL/MOL
REMARK 927      BINDING AFFINITY PREDICTED BY RF-SCORE:    0.00 PKD
ROOT
ATOM      1  N   CYS A   1     -10.199   8.154  69.009  1.00  0.00    -0.216 NA 
ATOM      2  H2  CYS A   1      -9.448   7.963  68.345  1.00  0.00     0.000 HD 
ATOM      3  CA  CYS A   1     -10.148   9.583  69.457  1.00  0.00    -0.206 C  
ATOM      4  H1  CYS A   1     -10.183   7.473  69.769  1.00  0.00     0.000 HD 
ATOM      5  O   CYS A   1     -11.784   8.658  70.931  1.00  0.00    -0.282 OA 
ATOM      6  C   CYS A   1     -11.344   9.824  70.392  1.00  0.00    -0.297 C  
ATOM      7  OXT CYS A   1     -11.837  10.911  70.647  1.00  0.00    -0.327 OA 
ENDROOT
BRANCH   3   8
ATOM      8  CB  CYS A   1     -10.172  10.609  68.315  1.00  0.00    -0.166 C  
BRANCH   8   9
ATOM      9  SG  CYS A   1      -8.912  11.912  68.566  1.00  0.00    -0.059 SA 
BRANCH   9  10
ATOM     10  SG  CYS A   1      -9.061  12.988  66.817  1.00  0.00    -0.173 SA 
BRANCH  10  11
ATOM     11  CB  CYS A   1     -10.732  12.524  66.237  1.00  0.00    -0.260 C  
BRANCH  11  12
ATOM     12  CA  CYS A   1     -11.205  13.430  65.091  1.00  0.00    -0.305 C  
ATOM     13  N   CYS A   1     -10.930  14.883  65.339  1.00  0.00    -0.344 NA 
ATOM     14  C   CYS A   1     -12.718  13.248  64.966  1.00  0.00    -0.375 C  
ATOM     15  H2  CYS A   1      -9.941  15.037  65.541  1.00  0.00     0.000 HD 
ATOM     16  H1  CYS A   1     -11.244  15.484  64.577  1.00  0.00     0.000 HD 
ATOM     17  OXT CYS A   1     -13.271  12.276  64.477  1.00  0.00    -0.799 OA 
ATOM     18  O   CYS A   1     -13.391  14.292  65.520  1.00  0.00    -0.608 OA 
ENDBRANCH  11  12
ENDBRANCH  10  11
ENDBRANCH   9  10
ENDBRANCH   8   9
ENDBRANCH   3   8
TORSDOF 5
ENDMDL
MODEL      165
REMARK 921   NORMALIZED FREE ENERGY PREDICTED BY IDOCK:   -3.11 KCAL/MOL
REMARK 922        TOTAL FREE ENERGY PREDICTED BY IDOCK:   -4.64 KCAL/MOL
REMARK 923 INTER-LIGAND FREE ENERGY PREDICTED BY IDOCK:   -4.27 KCAL/MOL
REMARK 924 INTRA-LIGAND FREE ENERGY PREDICTED BY IDOCK:   -0.37 KCAL/MOL
REMARK 927      BINDING AFFINITY PREDICTED BY RF-SCORE:    0.00 PKD
ROOT
ATOM      1  N   CYS A   1     -10.185  14.697  64.415  1.00  0.00    -0.456 NA 
ATOM      2  H2  CYS A   1      -9.169  14.619  64.454  1.00  0.00     0.000 HD 
ATOM      3  CA  CYS A   1     -10.824  13.398  64.801  1.00  0.00    -0.375 C  
ATOM      4  H1  CYS A   1     -10.479  15.058  63.507  1.00  0.00     0.000 HD 
ATOM      5  O   CYS A   1     -12.693  14.654  64.008  1.00  0.00    -0.772 OA 
ATOM      6  C   CYS A   1     -12.347  13.604  64.796  1.00  0.00    -0.390 C  
ATOM      7  OXT CYS A   1     -13.157  12.916  65.396  1.00  0.00    -0.569 OA 
ENDROOT
BRANCH   3   8
ATOM      8  CB  CYS A   1     -10.383  12.853  66.167  1.00  0.00    -0.276 C  
BRANCH   8   9
ATOM      9  SG  CYS A   1     -10.080  14.210  67.358  1.00  0.00    -0.241 SA 
BRANCH   9  10
ATOM     10  SG  CYS A   1      -8.123  13.871  67.898  1.00  0.00    -0.175 SA 
BRANCH  10  11
ATOM     11  CB  CYS A   1      -7.262  15.251  67.062  1.00  0.00     0.024 C  
BRANCH  11  12
ATOM     12  CA  CYS A   1      -6.935  16.389  68.040  1.00  0.00    -0.140 C  
ATOM     13  N   CYS A   1      -7.280  16.060  69.461  1.00  0.00    -0.203 NA 
ATOM     14  C   CYS A   1      -7.767  17.600  67.617  1.00  0.00    -0.205 C  
ATOM     15  H2  CYS A   1      -6.832  15.190  69.752  1.00  0.00     0.000 HD 
ATOM     16  H1  CYS A   1      -7.062  16.816  70.110  1.00  0.00     0.000 HD 
ATOM     17  OXT CYS A   1      -7.536  18.311  66.653  1.00  0.00    -0.213 OA 
ATOM     18  O   CYS A   1      -8.847  17.767  68.428  1.00  0.00    -0.273 OA 
ENDBRANCH  11  12
ENDBRANCH  10  11
ENDBRANCH   9  10
ENDBRANCH   8   9
ENDBRANCH   3   8
TORSDOF 5
ENDMDL
MODEL      166
REMARK 921   NORMALIZED FREE ENERGY PREDICTED BY IDOCK:   -3.11 KCAL/MOL
REMARK 922        TOTAL FREE ENERGY PREDICTED BY IDOCK:   -4.64 KCAL/MOL
REMARK 923 INTER-LIGAND FREE ENERGY PREDICTED BY IDOCK:   -4.41 KCAL/MOL
REMARK 924 INTRA-LIGAND FREE ENERGY PREDICTED BY IDOCK:   -0.23 KCAL/MOL
REMARK 927      BINDING AFFINITY PREDICTED BY RF-SCORE:    0.00 PKD
ROOT
ATOM      1  N   CYS A   1     -11.788   7.646  72.862  1.00  0.00    -0.607 NA 
ATOM      2  H2  CYS A   1     -12.403   8.403  72.564  1.00  0.00     0.000 HD 
ATOM      3  CA  CYS A   1     -11.821   6.524  71.870  1.00  0.00    -0.334 C  
ATOM      4  H1  CYS A   1     -12.004   7.369  73.820  1.00  0.00     0.000 HD 
ATOM      5  O   CYS A   1     -10.583   5.559  73.669  1.00  0.00    -0.244 OA 
ATOM      6  C   CYS A   1     -10.821   5.455  72.336  1.00  0.00    -0.241 C  
ATOM      7  OXT CYS A   1     -10.310   4.604  71.626  1.00  0.00    -0.187 OA 
ENDROOT
BRANCH   3   8
ATOM      8  CB  CYS A   1     -11.496   6.940  70.429  1.00  0.00    -0.338 C  
BRANCH   8   9
ATOM      9  SG  CYS A   1     -10.059   8.073  70.372  1.00  0.00    -0.196 SA 
BRANCH   9  10
ATOM     10  SG  CYS A   1     -10.269   8.931  68.512  1.00  0.00    -0.199 SA 
BRANCH  10  11
ATOM     11  CB  CYS A   1      -9.897  10.685  68.868  1.00  0.00    -0.201 C  
BRANCH  11  12
ATOM     12  CA  CYS A   1     -11.172  11.483  69.175  1.00  0.00    -0.274 C  
ATOM     13  N   CYS A   1     -12.424  10.769  68.764  1.00  0.00    -0.721 NA 
ATOM     14  C   CYS A   1     -11.088  12.789  68.383  1.00  0.00    -0.262 C  
ATOM     15  H2  CYS A   1     -12.467   9.840  69.183  1.00  0.00     0.000 HD 
ATOM     16  H1  CYS A   1     -13.271  11.300  68.968  1.00  0.00     0.000 HD 
ATOM     17  OXT CYS A   1     -10.379  13.740  68.668  1.00  0.00    -0.234 OA 
ATOM     18  O   CYS A   1     -11.874  12.747  67.273  1.00  0.00    -0.368 OA 
ENDBRANCH  11  12
ENDBRANCH  10  11
ENDBRANCH   9  10
ENDBRANCH   8   9
ENDBRANCH   3   8
TORSDOF 5
ENDMDL
MODEL      167
REMARK 921   NORMALIZED FREE ENERGY PREDICTED BY IDOCK:   -3.11 KCAL/MOL
REMARK 922        TOTAL FREE ENERGY PREDICTED BY IDOCK:   -4.63 KCAL/MOL
REMARK 923 INTER-LIGAND FREE ENERGY PREDICTED BY IDOCK:   -4.34 KCAL/MOL
REMARK 924 INTRA-LIGAND FREE ENERGY PREDICTED BY IDOCK:   -0.29 KCAL/MOL
REMARK 927      BINDING AFFINITY PREDICTED BY RF-SCORE:    0.00 PKD
ROOT
ATOM      1  N   CYS A   1     -10.154  13.923  64.957  1.00  0.00    -0.579 NA 
ATOM      2  H2  CYS A   1     -10.051  14.890  65.264  1.00  0.00     0.000 HD 
ATOM      3  CA  CYS A   1      -9.803  12.982  66.070  1.00  0.00    -0.255 C  
ATOM      4  H1  CYS A   1      -9.635  13.766  64.093  1.00  0.00     0.000 HD 
ATOM      5  O   CYS A   1     -10.021  11.496  64.214  1.00  0.00    -0.244 OA 
ATOM      6  C   CYS A   1     -10.051  11.551  65.570  1.00  0.00    -0.243 C  
ATOM      7  OXT CYS A   1     -10.233  10.574  66.279  1.00  0.00    -0.229 OA 
ENDROOT
BRANCH   3   8
ATOM      8  CB  CYS A   1     -10.584  13.217  67.371  1.00  0.00    -0.242 C  
BRANCH   8   9
ATOM      9  SG  CYS A   1     -11.582  14.749  67.281  1.00  0.00    -0.339 SA 
BRANCH   9  10
ATOM     10  SG  CYS A   1     -10.442  16.062  68.381  1.00  0.00    -0.276 SA 
BRANCH  10  11
ATOM     11  CB  CYS A   1     -10.644  17.614  67.435  1.00  0.00    -0.318 C  
BRANCH  11  12
ATOM     12  CA  CYS A   1      -9.335  18.034  66.752  1.00  0.00    -0.284 C  
ATOM     13  N   CYS A   1      -8.668  16.909  66.019  1.00  0.00    -0.517 NA 
ATOM     14  C   CYS A   1      -8.387  18.515  67.850  1.00  0.00    -0.265 C  
ATOM     15  H2  CYS A   1      -9.307  16.481  65.349  1.00  0.00     0.000 HD 
ATOM     16  H1  CYS A   1      -7.798  17.189  65.565  1.00  0.00     0.000 HD 
ATOM     17  OXT CYS A   1      -8.470  19.584  68.434  1.00  0.00    -0.343 OA 
ATOM     18  O   CYS A   1      -7.450  17.573  68.144  1.00  0.00    -0.203 OA 
ENDBRANCH  11  12
ENDBRANCH  10  11
ENDBRANCH   9  10
ENDBRANCH   8   9
ENDBRANCH   3   8
TORSDOF 5
ENDMDL
MODEL      168
REMARK 921   NORMALIZED FREE ENERGY PREDICTED BY IDOCK:   -3.10 KCAL/MOL
REMARK 922        TOTAL FREE ENERGY PREDICTED BY IDOCK:   -4.62 KCAL/MOL
REMARK 923 INTER-LIGAND FREE ENERGY PREDICTED BY IDOCK:   -4.40 KCAL/MOL
REMARK 924 INTRA-LIGAND FREE ENERGY PREDICTED BY IDOCK:   -0.22 KCAL/MOL
REMARK 927      BINDING AFFINITY PREDICTED BY RF-SCORE:    0.00 PKD
ROOT
ATOM      1  N   CYS A   1      -8.584  17.407  65.836  1.00  0.00    -0.534 NA 
ATOM      2  H2  CYS A   1      -8.805  16.422  65.688  1.00  0.00     0.000 HD 
ATOM      3  CA  CYS A   1      -9.816  18.169  66.216  1.00  0.00    -0.310 C  
ATOM      4  H1  CYS A   1      -8.087  17.785  65.029  1.00  0.00     0.000 HD 
ATOM      5  O   CYS A   1      -8.234  19.924  65.876  1.00  0.00    -0.348 OA 
ATOM      6  C   CYS A   1      -9.403  19.622  66.497  1.00  0.00    -0.384 C  
ATOM      7  OXT CYS A   1     -10.034  20.421  67.170  1.00  0.00    -0.441 OA 
ENDROOT
BRANCH   3   8
ATOM      8  CB  CYS A   1     -10.565  17.602  67.431  1.00  0.00    -0.318 C  
BRANCH   8   9
ATOM      9  SG  CYS A   1      -9.415  17.225  68.804  1.00  0.00    -0.224 SA 
BRANCH   9  10
ATOM     10  SG  CYS A   1      -9.665  15.193  69.022  1.00  0.00    -0.240 SA 
BRANCH  10  11
ATOM     11  CB  CYS A   1      -8.432  14.538  67.841  1.00  0.00    -0.161 C  
BRANCH  11  12
ATOM     12  CA  CYS A   1      -9.101  13.769  66.693  1.00  0.00    -0.179 C  
ATOM     13  N   CYS A   1      -9.584  14.663  65.591  1.00  0.00    -0.521 NA 
ATOM     14  C   CYS A   1     -10.312  13.044  67.281  1.00  0.00    -0.238 C  
ATOM     15  H2  CYS A   1      -8.827  15.252  65.242  1.00  0.00     0.000 HD 
ATOM     16  H1  CYS A   1     -10.028  14.152  64.828  1.00  0.00     0.000 HD 
ATOM     17  OXT CYS A   1     -10.263  12.041  67.975  1.00  0.00    -0.187 OA 
ATOM     18  O   CYS A   1     -11.471  13.688  66.978  1.00  0.00    -0.314 OA 
ENDBRANCH  11  12
ENDBRANCH  10  11
ENDBRANCH   9  10
ENDBRANCH   8   9
ENDBRANCH   3   8
TORSDOF 5
ENDMDL
MODEL      169
REMARK 921   NORMALIZED FREE ENERGY PREDICTED BY IDOCK:   -3.10 KCAL/MOL
REMARK 922        TOTAL FREE ENERGY PREDICTED BY IDOCK:   -4.62 KCAL/MOL
REMARK 923 INTER-LIGAND FREE ENERGY PREDICTED BY IDOCK:   -4.23 KCAL/MOL
REMARK 924 INTRA-LIGAND FREE ENERGY PREDICTED BY IDOCK:   -0.39 KCAL/MOL
REMARK 927      BINDING AFFINITY PREDICTED BY RF-SCORE:    0.00 PKD
ROOT
ATOM      1  N   CYS A   1     -12.267  11.700  69.077  1.00  0.00    -0.339 NA 
ATOM      2  H2  CYS A   1     -11.813  11.586  68.170  1.00  0.00     0.000 HD 
ATOM      3  CA  CYS A   1     -11.799  12.960  69.740  1.00  0.00    -0.310 C  
ATOM      4  H1  CYS A   1     -12.150  10.858  69.641  1.00  0.00     0.000 HD 
ATOM      5  O   CYS A   1     -13.043  11.912  71.487  1.00  0.00    -0.402 OA 
ATOM      6  C   CYS A   1     -12.572  13.111  71.059  1.00  0.00    -0.312 C  
ATOM      7  OXT CYS A   1     -12.737  14.156  71.668  1.00  0.00    -0.323 OA 
ENDROOT
BRANCH   3   8
ATOM      8  CB  CYS A   1     -11.975  14.227  68.891  1.00  0.00    -0.320 C  
BRANCH   8   9
ATOM      9  SG  CYS A   1     -12.010  13.832  67.104  1.00  0.00    -0.388 SA 
BRANCH   9  10
ATOM     10  SG  CYS A   1     -10.054  14.167  66.558  1.00  0.00    -0.288 SA 
BRANCH  10  11
ATOM     11  CB  CYS A   1      -9.333  12.494  66.710  1.00  0.00    -0.230 C  
BRANCH  11  12
ATOM     12  CA  CYS A   1     -10.406  11.402  66.588  1.00  0.00    -0.233 C  
ATOM     13  N   CYS A   1     -10.160  10.234  67.495  1.00  0.00    -0.189 NA 
ATOM     14  C   CYS A   1     -10.374  10.898  65.144  1.00  0.00    -0.278 C  
ATOM     15  H2  CYS A   1     -10.060  10.540  68.463  1.00  0.00     0.000 HD 
ATOM     16  H1  CYS A   1     -10.873   9.509  67.413  1.00  0.00     0.000 HD 
ATOM     17  OXT CYS A   1     -10.820  11.497  64.180  1.00  0.00    -0.331 OA 
ATOM     18  O   CYS A   1      -9.732   9.702  65.051  1.00  0.00    -0.289 OA 
ENDBRANCH  11  12
ENDBRANCH  10  11
ENDBRANCH   9  10
ENDBRANCH   8   9
ENDBRANCH   3   8
TORSDOF 5
ENDMDL
MODEL      170
REMARK 921   NORMALIZED FREE ENERGY PREDICTED BY IDOCK:   -3.10 KCAL/MOL
REMARK 922        TOTAL FREE ENERGY PREDICTED BY IDOCK:   -4.62 KCAL/MOL
REMARK 923 INTER-LIGAND FREE ENERGY PREDICTED BY IDOCK:   -4.61 KCAL/MOL
REMARK 924 INTRA-LIGAND FREE ENERGY PREDICTED BY IDOCK:   -0.01 KCAL/MOL
REMARK 927      BINDING AFFINITY PREDICTED BY RF-SCORE:    0.00 PKD
ROOT
ATOM      1  N   CYS A   1      -9.025  18.488  68.576  1.00  0.00    -0.323 NA 
ATOM      2  H2  CYS A   1      -8.833  17.659  69.138  1.00  0.00     0.000 HD 
ATOM      3  CA  CYS A   1      -9.395  18.098  67.178  1.00  0.00    -0.263 C  
ATOM      4  H1  CYS A   1      -8.249  19.148  68.640  1.00  0.00     0.000 HD 
ATOM      5  O   CYS A   1      -9.172  20.468  66.990  1.00  0.00    -0.361 OA 
ATOM      6  C   CYS A   1      -9.744  19.382  66.409  1.00  0.00    -0.386 C  
ATOM      7  OXT CYS A   1     -10.426  19.440  65.399  1.00  0.00    -0.442 OA 
ENDROOT
BRANCH   3   8
ATOM      8  CB  CYS A   1     -10.562  17.106  67.082  1.00  0.00    -0.244 C  
BRANCH   8   9
ATOM      9  SG  CYS A   1     -10.535  16.198  65.493  1.00  0.00    -0.349 SA 
BRANCH   9  10
ATOM     10  SG  CYS A   1      -9.906  14.329  66.084  1.00  0.00    -0.310 SA 
BRANCH  10  11
ATOM     11  CB  CYS A   1     -10.207  13.341  64.575  1.00  0.00    -0.310 C  
BRANCH  11  12
ATOM     12  CA  CYS A   1     -11.047  12.091  64.875  1.00  0.00    -0.316 C  
ATOM     13  N   CYS A   1     -12.028  12.297  65.990  1.00  0.00    -0.609 NA 
ATOM     14  C   CYS A   1     -10.077  10.985  65.293  1.00  0.00    -0.275 C  
ATOM     15  H2  CYS A   1     -12.626  13.102  65.805  1.00  0.00     0.000 HD 
ATOM     16  H1  CYS A   1     -12.586  11.466  66.189  1.00  0.00     0.000 HD 
ATOM     17  OXT CYS A   1      -9.352  10.362  64.535  1.00  0.00    -0.216 OA 
ATOM     18  O   CYS A   1     -10.080  10.807  66.641  1.00  0.00    -0.203 OA 
ENDBRANCH  11  12
ENDBRANCH  10  11
ENDBRANCH   9  10
ENDBRANCH   8   9
ENDBRANCH   3   8
TORSDOF 5
ENDMDL
MODEL      171
REMARK 921   NORMALIZED FREE ENERGY PREDICTED BY IDOCK:   -3.09 KCAL/MOL
REMARK 922        TOTAL FREE ENERGY PREDICTED BY IDOCK:   -4.60 KCAL/MOL
REMARK 923 INTER-LIGAND FREE ENERGY PREDICTED BY IDOCK:   -4.44 KCAL/MOL
REMARK 924 INTRA-LIGAND FREE ENERGY PREDICTED BY IDOCK:   -0.17 KCAL/MOL
REMARK 927      BINDING AFFINITY PREDICTED BY RF-SCORE:    0.00 PKD
ROOT
ATOM      1  N   CYS A   1      -9.970  16.630  67.862  1.00  0.00    -0.248 NA 
ATOM      2  H2  CYS A   1      -9.666  16.185  68.729  1.00  0.00     0.000 HD 
ATOM      3  CA  CYS A   1      -9.928  15.651  66.729  1.00  0.00    -0.250 C  
ATOM      4  H1  CYS A   1      -9.442  17.487  67.699  1.00  0.00     0.000 HD 
ATOM      5  O   CYS A   1     -10.355  17.707  65.593  1.00  0.00    -0.606 OA 
ATOM      6  C   CYS A   1     -10.468  16.359  65.477  1.00  0.00    -0.330 C  
ATOM      7  OXT CYS A   1     -10.923  15.804  64.490  1.00  0.00    -0.450 OA 
ENDROOT
BRANCH   3   8
ATOM      8  CB  CYS A   1     -10.723  14.360  66.974  1.00  0.00    -0.285 C  
BRANCH   8   9
ATOM      9  SG  CYS A   1     -10.094  13.459  68.438  1.00  0.00    -0.223 SA 
BRANCH   9  10
ATOM     10  SG  CYS A   1      -9.639  11.617  67.640  1.00  0.00    -0.184 SA 
BRANCH  10  11
ATOM     11  CB  CYS A   1      -9.334  10.624  69.144  1.00  0.00    -0.160 C  
BRANCH  11  12
ATOM     12  CA  CYS A   1     -10.465   9.616  69.395  1.00  0.00    -0.220 C  
ATOM     13  N   CYS A   1     -11.771  10.036  68.791  1.00  0.00    -0.509 NA 
ATOM     14  C   CYS A   1     -10.652   9.515  70.910  1.00  0.00    -0.325 C  
ATOM     15  H2  CYS A   1     -11.667  10.226  67.794  1.00  0.00     0.000 HD 
ATOM     16  H1  CYS A   1     -12.522   9.366  68.958  1.00  0.00     0.000 HD 
ATOM     17  OXT CYS A   1      -9.905   8.926  71.673  1.00  0.00    -0.281 OA 
ATOM     18  O   CYS A   1     -11.742  10.217  71.322  1.00  0.00    -0.366 OA 
ENDBRANCH  11  12
ENDBRANCH  10  11
ENDBRANCH   9  10
ENDBRANCH   8   9
ENDBRANCH   3   8
TORSDOF 5
ENDMDL
MODEL      172
REMARK 921   NORMALIZED FREE ENERGY PREDICTED BY IDOCK:   -3.08 KCAL/MOL
REMARK 922        TOTAL FREE ENERGY PREDICTED BY IDOCK:   -4.59 KCAL/MOL
REMARK 923 INTER-LIGAND FREE ENERGY PREDICTED BY IDOCK:   -4.28 KCAL/MOL
REMARK 924 INTRA-LIGAND FREE ENERGY PREDICTED BY IDOCK:   -0.31 KCAL/MOL
REMARK 927      BINDING AFFINITY PREDICTED BY RF-SCORE:    0.00 PKD
ROOT
ATOM      1  N   CYS A   1     -10.453  19.621  68.760  1.00  0.00    -0.525 NA 
ATOM      2  H2  CYS A   1     -10.244  19.655  69.758  1.00  0.00     0.000 HD 
ATOM      3  CA  CYS A   1      -9.450  18.768  68.045  1.00  0.00    -0.312 C  
ATOM      4  H1  CYS A   1     -10.548  20.565  68.385  1.00  0.00     0.000 HD 
ATOM      5  O   CYS A   1     -10.650  19.751  66.230  1.00  0.00    -0.472 OA 
ATOM      6  C   CYS A   1      -9.863  18.697  66.567  1.00  0.00    -0.364 C  
ATOM      7  OXT CYS A   1      -9.525  17.829  65.778  1.00  0.00    -0.518 OA 
ENDROOT
BRANCH   3   8
ATOM      8  CB  CYS A   1      -9.306  17.348  68.610  1.00  0.00    -0.267 C  
BRANCH   8   9
ATOM      9  SG  CYS A   1     -10.904  16.455  68.580  1.00  0.00    -0.344 SA 
BRANCH   9  10
ATOM     10  SG  CYS A   1     -10.355  14.626  67.813  1.00  0.00    -0.238 SA 
BRANCH  10  11
ATOM     11  CB  CYS A   1      -8.600  14.913  67.388  1.00  0.00    -0.193 C  
BRANCH  11  12
ATOM     12  CA  CYS A   1      -7.710  13.745  67.837  1.00  0.00    -0.161 C  
ATOM     13  N   CYS A   1      -8.237  13.038  69.050  1.00  0.00    -0.316 NA 
ATOM     14  C   CYS A   1      -6.340  14.329  68.185  1.00  0.00    -0.132 C  
ATOM     15  H2  CYS A   1      -9.198  12.729  68.902  1.00  0.00     0.000 HD 
ATOM     16  H1  CYS A   1      -7.646  12.262  69.348  1.00  0.00     0.000 HD 
ATOM     17  OXT CYS A   1      -5.508  14.701  67.374  1.00  0.00    -0.338 OA 
ATOM     18  O   CYS A   1      -6.174  14.435  69.530  1.00  0.00    -0.105 OA 
ENDBRANCH  11  12
ENDBRANCH  10  11
ENDBRANCH   9  10
ENDBRANCH   8   9
ENDBRANCH   3   8
TORSDOF 5
ENDMDL
MODEL      173
REMARK 921   NORMALIZED FREE ENERGY PREDICTED BY IDOCK:   -3.07 KCAL/MOL
REMARK 922        TOTAL FREE ENERGY PREDICTED BY IDOCK:   -4.58 KCAL/MOL
REMARK 923 INTER-LIGAND FREE ENERGY PREDICTED BY IDOCK:   -4.20 KCAL/MOL
REMARK 924 INTRA-LIGAND FREE ENERGY PREDICTED BY IDOCK:   -0.38 KCAL/MOL
REMARK 927      BINDING AFFINITY PREDICTED BY RF-SCORE:    0.00 PKD
ROOT
ATOM      1  N   CYS A   1      -8.317   9.843  66.414  1.00  0.00    -0.124 NA 
ATOM      2  H2  CYS A   1      -8.052  10.820  66.539  1.00  0.00     0.000 HD 
ATOM      3  CA  CYS A   1      -9.531   9.522  67.232  1.00  0.00    -0.136 C  
ATOM      4  H1  CYS A   1      -7.517   9.233  66.588  1.00  0.00     0.000 HD 
ATOM      5  O   CYS A   1      -8.858   7.360  66.472  1.00  0.00    -0.135 OA 
ATOM      6  C   CYS A   1      -9.920   8.064  66.941  1.00  0.00    -0.268 C  
ATOM      7  OXT CYS A   1     -11.025   7.577  67.119  1.00  0.00    -0.293 OA 
ENDROOT
BRANCH   3   8
ATOM      8  CB  CYS A   1     -10.734  10.439  66.970  1.00  0.00    -0.235 C  
BRANCH   8   9
ATOM      9  SG  CYS A   1     -11.369  11.163  68.527  1.00  0.00    -0.310 SA 
BRANCH   9  10
ATOM     10  SG  CYS A   1     -10.386  10.044  69.947  1.00  0.00    -0.271 SA 
BRANCH  10  11
ATOM     11  CB  CYS A   1     -11.692   8.876  70.470  1.00  0.00    -0.111 C  
BRANCH  11  12
ATOM     12  CA  CYS A   1     -11.975   8.982  71.976  1.00  0.00    -0.363 C  
ATOM     13  N   CYS A   1     -12.176   7.648  72.630  1.00  0.00    -0.566 NA 
ATOM     14  C   CYS A   1     -13.264   9.789  72.137  1.00  0.00    -0.436 C  
ATOM     15  H2  CYS A   1     -11.383   7.031  72.451  1.00  0.00     0.000 HD 
ATOM     16  H1  CYS A   1     -12.364   7.718  73.630  1.00  0.00     0.000 HD 
ATOM     17  OXT CYS A   1     -13.360  10.997  71.996  1.00  0.00    -0.455 OA 
ATOM     18  O   CYS A   1     -14.324   8.981  72.412  1.00  0.00    -0.499 OA 
ENDBRANCH  11  12
ENDBRANCH  10  11
ENDBRANCH   9  10
ENDBRANCH   8   9
ENDBRANCH   3   8
TORSDOF 5
ENDMDL
MODEL      174
REMARK 921   NORMALIZED FREE ENERGY PREDICTED BY IDOCK:   -3.05 KCAL/MOL
REMARK 922        TOTAL FREE ENERGY PREDICTED BY IDOCK:   -4.56 KCAL/MOL
REMARK 923 INTER-LIGAND FREE ENERGY PREDICTED BY IDOCK:   -4.02 KCAL/MOL
REMARK 924 INTRA-LIGAND FREE ENERGY PREDICTED BY IDOCK:   -0.53 KCAL/MOL
REMARK 927      BINDING AFFINITY PREDICTED BY RF-SCORE:    0.00 PKD
ROOT
ATOM      1  N   CYS A   1     -10.787  11.090  63.723  1.00  0.00    -0.538 NA 
ATOM      2  H2  CYS A   1      -9.897  10.628  63.907  1.00  0.00     0.000 HD 
ATOM      3  CA  CYS A   1     -11.086  12.095  64.793  1.00  0.00    -0.316 C  
ATOM      4  H1  CYS A   1     -11.523  10.399  63.576  1.00  0.00     0.000 HD 
ATOM      5  O   CYS A   1     -13.138  12.045  63.573  1.00  0.00    -0.764 OA 
ATOM      6  C   CYS A   1     -12.395  12.806  64.417  1.00  0.00    -0.424 C  
ATOM      7  OXT CYS A   1     -12.751  13.900  64.825  1.00  0.00    -0.650 OA 
ENDROOT
BRANCH   3   8
ATOM      8  CB  CYS A   1      -9.980  13.136  65.014  1.00  0.00    -0.142 C  
BRANCH   8   9
ATOM      9  SG  CYS A   1      -9.624  13.361  66.795  1.00  0.00    -0.267 SA 
BRANCH   9  10
ATOM     10  SG  CYS A   1      -7.817  12.395  66.992  1.00  0.00    -0.024 SA 
BRANCH  10  11
ATOM     11  CB  CYS A   1      -8.210  10.734  66.338  1.00  0.00    -0.155 C  
BRANCH  11  12
ATOM     12  CA  CYS A   1      -7.246  10.325  65.215  1.00  0.00    -0.134 C  
ATOM     13  N   CYS A   1      -7.761  10.660  63.847  1.00  0.00    -0.354 NA 
ATOM     14  C   CYS A   1      -7.073   8.808  65.299  1.00  0.00    -0.083 C  
ATOM     15  H2  CYS A   1      -7.999  11.650  63.781  1.00  0.00     0.000 HD 
ATOM     16  H1  CYS A   1      -7.120  10.389  63.102  1.00  0.00     0.000 HD 
ATOM     17  OXT CYS A   1      -6.407   8.221  66.136  1.00  0.00    -0.048 OA 
ATOM     18  O   CYS A   1      -7.803   8.172  64.343  1.00  0.00    -0.121 OA 
ENDBRANCH  11  12
ENDBRANCH  10  11
ENDBRANCH   9  10
ENDBRANCH   8   9
ENDBRANCH   3   8
TORSDOF 5
ENDMDL
MODEL      175
REMARK 921   NORMALIZED FREE ENERGY PREDICTED BY IDOCK:   -3.04 KCAL/MOL
REMARK 922        TOTAL FREE ENERGY PREDICTED BY IDOCK:   -4.55 KCAL/MOL
REMARK 923 INTER-LIGAND FREE ENERGY PREDICTED BY IDOCK:   -4.19 KCAL/MOL
REMARK 924 INTRA-LIGAND FREE ENERGY PREDICTED BY IDOCK:   -0.36 KCAL/MOL
REMARK 927      BINDING AFFINITY PREDICTED BY RF-SCORE:    0.00 PKD
ROOT
ATOM      1  N   CYS A   1      -7.963  11.690  66.179  1.00  0.00    -0.377 NA 
ATOM      2  H2  CYS A   1      -7.522  12.338  65.525  1.00  0.00     0.000 HD 
ATOM      3  CA  CYS A   1      -8.693  12.444  67.248  1.00  0.00    -0.191 C  
ATOM      4  H1  CYS A   1      -7.278  11.019  66.529  1.00  0.00     0.000 HD 
ATOM      5  O   CYS A   1      -8.792  10.203  68.065  1.00  0.00    -0.124 OA 
ATOM      6  C   CYS A   1      -9.393  11.417  68.152  1.00  0.00    -0.181 C  
ATOM      7  OXT CYS A   1     -10.350  11.644  68.874  1.00  0.00    -0.209 OA 
ENDROOT
BRANCH   3   8
ATOM      8  CB  CYS A   1      -9.722  13.455  66.723  1.00  0.00    -0.262 C  
BRANCH   8   9
ATOM      9  SG  CYS A   1      -9.114  15.173  66.894  1.00  0.00    -0.264 SA 
BRANCH   9  10
ATOM     10  SG  CYS A   1     -10.667  16.074  67.901  1.00  0.00    -0.322 SA 
BRANCH  10  11
ATOM     11  CB  CYS A   1     -10.406  15.467  69.606  1.00  0.00    -0.277 C  
BRANCH  11  12
ATOM     12  CA  CYS A   1     -11.513  14.492  70.035  1.00  0.00    -0.258 C  
ATOM     13  N   CYS A   1     -12.565  14.299  68.984  1.00  0.00    -0.452 NA 
ATOM     14  C   CYS A   1     -12.183  15.088  71.274  1.00  0.00    -0.320 C  
ATOM     15  H2  CYS A   1     -12.146  14.009  68.100  1.00  0.00     0.000 HD 
ATOM     16  H1  CYS A   1     -13.300  13.652  69.270  1.00  0.00     0.000 HD 
ATOM     17  OXT CYS A   1     -11.704  15.098  72.396  1.00  0.00    -0.406 OA 
ATOM     18  O   CYS A   1     -13.376  15.662  70.964  1.00  0.00    -0.545 OA 
ENDBRANCH  11  12
ENDBRANCH  10  11
ENDBRANCH   9  10
ENDBRANCH   8   9
ENDBRANCH   3   8
TORSDOF 5
ENDMDL
MODEL      176
REMARK 921   NORMALIZED FREE ENERGY PREDICTED BY IDOCK:   -3.04 KCAL/MOL
REMARK 922        TOTAL FREE ENERGY PREDICTED BY IDOCK:   -4.54 KCAL/MOL
REMARK 923 INTER-LIGAND FREE ENERGY PREDICTED BY IDOCK:   -4.76 KCAL/MOL
REMARK 924 INTRA-LIGAND FREE ENERGY PREDICTED BY IDOCK:    0.21 KCAL/MOL
REMARK 927      BINDING AFFINITY PREDICTED BY RF-SCORE:    0.00 PKD
ROOT
ATOM      1  N   CYS A   1      -9.420  11.859  65.286  1.00  0.00    -0.413 NA 
ATOM      2  H2  CYS A   1      -9.134  11.990  66.257  1.00  0.00     0.000 HD 
ATOM      3  CA  CYS A   1     -10.906  11.694  65.198  1.00  0.00    -0.288 C  
ATOM      4  H1  CYS A   1      -8.885  11.103  64.858  1.00  0.00     0.000 HD 
ATOM      5  O   CYS A   1     -10.215  11.165  62.974  1.00  0.00    -0.309 OA 
ATOM      6  C   CYS A   1     -11.278  11.578  63.711  1.00  0.00    -0.370 C  
ATOM      7  OXT CYS A   1     -12.379  11.802  63.236  1.00  0.00    -0.518 OA 
ENDROOT
BRANCH   3   8
ATOM      8  CB  CYS A   1     -11.712  12.831  65.843  1.00  0.00    -0.414 C  
BRANCH   8   9
ATOM      9  SG  CYS A   1     -11.312  14.446  65.080  1.00  0.00    -0.394 SA 
BRANCH   9  10
ATOM     10  SG  CYS A   1      -9.817  15.139  66.314  1.00  0.00    -0.316 SA 
BRANCH  10  11
ATOM     11  CB  CYS A   1     -10.345  16.865  66.604  1.00  0.00    -0.299 C  
BRANCH  11  12
ATOM     12  CA  CYS A   1     -10.056  17.311  68.045  1.00  0.00    -0.324 C  
ATOM     13  N   CYS A   1      -8.615  17.655  68.274  1.00  0.00    -0.261 NA 
ATOM     14  C   CYS A   1     -10.415  16.140  68.960  1.00  0.00    -0.261 C  
ATOM     15  H2  CYS A   1      -8.298  18.357  67.604  1.00  0.00     0.000 HD 
ATOM     16  H1  CYS A   1      -8.423  17.952  69.231  1.00  0.00     0.000 HD 
ATOM     17  OXT CYS A   1     -11.550  15.799  69.254  1.00  0.00    -0.333 OA 
ATOM     18  O   CYS A   1      -9.303  15.477  69.378  1.00  0.00    -0.254 OA 
ENDBRANCH  11  12
ENDBRANCH  10  11
ENDBRANCH   9  10
ENDBRANCH   8   9
ENDBRANCH   3   8
TORSDOF 5
ENDMDL
MODEL      177
REMARK 921   NORMALIZED FREE ENERGY PREDICTED BY IDOCK:   -3.03 KCAL/MOL
REMARK 922        TOTAL FREE ENERGY PREDICTED BY IDOCK:   -4.53 KCAL/MOL
REMARK 923 INTER-LIGAND FREE ENERGY PREDICTED BY IDOCK:   -4.30 KCAL/MOL
REMARK 924 INTRA-LIGAND FREE ENERGY PREDICTED BY IDOCK:   -0.23 KCAL/MOL
REMARK 927      BINDING AFFINITY PREDICTED BY RF-SCORE:    0.00 PKD
ROOT
ATOM      1  N   CYS A   1     -13.319  11.795  72.254  1.00  0.00    -0.545 NA 
ATOM      2  H2  CYS A   1     -13.640  11.423  73.149  1.00  0.00     0.000 HD 
ATOM      3  CA  CYS A   1     -12.589  10.739  71.482  1.00  0.00    -0.395 C  
ATOM      4  H1  CYS A   1     -12.790  12.655  72.397  1.00  0.00     0.000 HD 
ATOM      5  O   CYS A   1     -12.160  12.692  70.179  1.00  0.00    -0.341 OA 
ATOM      6  C   CYS A   1     -12.201  11.336  70.121  1.00  0.00    -0.330 C  
ATOM      7  OXT CYS A   1     -11.940  10.697  69.115  1.00  0.00    -0.264 OA 
ENDROOT
BRANCH   3   8
ATOM      8  CB  CYS A   1     -13.386   9.443  71.268  1.00  0.00    -0.287 C  
BRANCH   8   9
ATOM      9  SG  CYS A   1     -12.522   8.004  71.998  1.00  0.00    -0.309 SA 
BRANCH   9  10
ATOM     10  SG  CYS A   1     -10.775   7.961  70.910  1.00  0.00    -0.225 SA 
BRANCH  10  11
ATOM     11  CB  CYS A   1     -11.155   6.696  69.646  1.00  0.00    -0.334 C  
BRANCH  11  12
ATOM     12  CA  CYS A   1     -10.630   7.105  68.262  1.00  0.00    -0.188 C  
ATOM     13  N   CYS A   1     -11.472   6.581  67.137  1.00  0.00    -0.745 NA 
ATOM     14  C   CYS A   1      -9.226   6.514  68.120  1.00  0.00    -0.112 C  
ATOM     15  H2  CYS A   1     -12.447   6.858  67.252  1.00  0.00     0.000 HD 
ATOM     16  H1  CYS A   1     -11.122   6.852  66.217  1.00  0.00     0.000 HD 
ATOM     17  OXT CYS A   1      -8.224   6.943  68.668  1.00  0.00    -0.119 OA 
ATOM     18  O   CYS A   1      -9.233   5.403  67.335  1.00  0.00    -0.111 OA 
ENDBRANCH  11  12
ENDBRANCH  10  11
ENDBRANCH   9  10
ENDBRANCH   8   9
ENDBRANCH   3   8
TORSDOF 5
ENDMDL
MODEL      178
REMARK 921   NORMALIZED FREE ENERGY PREDICTED BY IDOCK:   -3.03 KCAL/MOL
REMARK 922        TOTAL FREE ENERGY PREDICTED BY IDOCK:   -4.53 KCAL/MOL
REMARK 923 INTER-LIGAND FREE ENERGY PREDICTED BY IDOCK:   -4.05 KCAL/MOL
REMARK 924 INTRA-LIGAND FREE ENERGY PREDICTED BY IDOCK:   -0.48 KCAL/MOL
REMARK 927      BINDING AFFINITY PREDICTED BY RF-SCORE:    0.00 PKD
ROOT
ATOM      1  N   CYS A   1     -10.691   9.669  70.448  1.00  0.00    -0.274 NA 
ATOM      2  H2  CYS A   1     -10.344   8.721  70.297  1.00  0.00     0.000 HD 
ATOM      3  CA  CYS A   1     -12.072   9.634  71.027  1.00  0.00    -0.337 C  
ATOM      4  H1  CYS A   1     -10.605  10.218  69.593  1.00  0.00     0.000 HD 
ATOM      5  O   CYS A   1     -11.799  11.954  70.530  1.00  0.00    -0.320 OA 
ATOM      6  C   CYS A   1     -12.502  11.084  71.300  1.00  0.00    -0.370 C  
ATOM      7  OXT CYS A   1     -13.371  11.430  72.084  1.00  0.00    -0.469 OA 
ENDROOT
BRANCH   3   8
ATOM      8  CB  CYS A   1     -12.201   8.808  72.314  1.00  0.00    -0.358 C  
BRANCH   8   9
ATOM      9  SG  CYS A   1     -10.638   7.941  72.708  1.00  0.00    -0.362 SA 
BRANCH   9  10
ATOM     10  SG  CYS A   1     -11.061   6.014  72.119  1.00  0.00    -0.292 SA 
BRANCH  10  11
ATOM     11  CB  CYS A   1     -11.499   6.251  70.360  1.00  0.00    -0.344 C  
BRANCH  11  12
ATOM     12  CA  CYS A   1     -10.470   5.596  69.427  1.00  0.00    -0.297 C  
ATOM     13  N   CYS A   1      -9.791   4.410  70.043  1.00  0.00    -0.223 NA 
ATOM     14  C   CYS A   1      -9.403   6.648  69.122  1.00  0.00    -0.134 C  
ATOM     15  H2  CYS A   1     -10.475   3.726  70.368  1.00  0.00     0.000 HD 
ATOM     16  H1  CYS A   1      -9.107   3.975  69.423  1.00  0.00     0.000 HD 
ATOM     17  OXT CYS A   1      -9.545   7.594  68.364  1.00  0.00    -0.149 OA 
ATOM     18  O   CYS A   1      -8.273   6.433  69.847  1.00  0.00    -0.121 OA 
ENDBRANCH  11  12
ENDBRANCH  10  11
ENDBRANCH   9  10
ENDBRANCH   8   9
ENDBRANCH   3   8
TORSDOF 5
ENDMDL
MODEL      179
REMARK 921   NORMALIZED FREE ENERGY PREDICTED BY IDOCK:   -3.02 KCAL/MOL
REMARK 922        TOTAL FREE ENERGY PREDICTED BY IDOCK:   -4.51 KCAL/MOL
REMARK 923 INTER-LIGAND FREE ENERGY PREDICTED BY IDOCK:   -4.28 KCAL/MOL
REMARK 924 INTRA-LIGAND FREE ENERGY PREDICTED BY IDOCK:   -0.24 KCAL/MOL
REMARK 927      BINDING AFFINITY PREDICTED BY RF-SCORE:    0.00 PKD
ROOT
ATOM      1  N   CYS A   1     -12.326  10.831  68.702  1.00  0.00    -0.786 NA 
ATOM      2  H2  CYS A   1     -12.491  10.547  69.668  1.00  0.00     0.000 HD 
ATOM      3  CA  CYS A   1     -10.951  11.406  68.554  1.00  0.00    -0.221 C  
ATOM      4  H1  CYS A   1     -13.076  11.441  68.378  1.00  0.00     0.000 HD 
ATOM      5  O   CYS A   1     -11.927  11.902  66.432  1.00  0.00    -0.572 OA 
ATOM      6  C   CYS A   1     -10.739  11.741  67.070  1.00  0.00    -0.246 C  
ATOM      7  OXT CYS A   1      -9.657  11.869  66.519  1.00  0.00    -0.203 OA 
ENDROOT
BRANCH   3   8
ATOM      8  CB  CYS A   1      -9.821  10.488  69.042  1.00  0.00    -0.212 C  
BRANCH   8   9
ATOM      9  SG  CYS A   1     -10.364   9.460  70.456  1.00  0.00    -0.303 SA 
BRANCH   9  10
ATOM     10  SG  CYS A   1      -9.507   7.642  70.011  1.00  0.00    -0.160 SA 
BRANCH  10  11
ATOM     11  CB  CYS A   1      -8.936   7.087  71.656  1.00  0.00    -0.134 C  
BRANCH  11  12
ATOM     12  CA  CYS A   1      -9.861   7.587  72.775  1.00  0.00    -0.208 C  
ATOM     13  N   CYS A   1      -9.140   7.833  74.066  1.00  0.00    -0.392 NA 
ATOM     14  C   CYS A   1     -10.908   6.499  73.015  1.00  0.00    -0.261 C  
ATOM     15  H2  CYS A   1      -8.356   8.472  73.929  1.00  0.00     0.000 HD 
ATOM     16  H1  CYS A   1      -9.755   8.166  74.809  1.00  0.00     0.000 HD 
ATOM     17  OXT CYS A   1     -11.856   6.261  72.285  1.00  0.00    -0.311 OA 
ATOM     18  O   CYS A   1     -10.625   5.777  74.134  1.00  0.00    -0.267 OA 
ENDBRANCH  11  12
ENDBRANCH  10  11
ENDBRANCH   9  10
ENDBRANCH   8   9
ENDBRANCH   3   8
TORSDOF 5
ENDMDL
MODEL      180
REMARK 921   NORMALIZED FREE ENERGY PREDICTED BY IDOCK:   -3.01 KCAL/MOL
REMARK 922        TOTAL FREE ENERGY PREDICTED BY IDOCK:   -4.51 KCAL/MOL
REMARK 923 INTER-LIGAND FREE ENERGY PREDICTED BY IDOCK:   -4.16 KCAL/MOL
REMARK 924 INTRA-LIGAND FREE ENERGY PREDICTED BY IDOCK:   -0.36 KCAL/MOL
REMARK 927      BINDING AFFINITY PREDICTED BY RF-SCORE:    0.00 PKD
ROOT
ATOM      1  N   CYS A   1     -11.893   6.579  69.427  1.00  0.00    -0.554 NA 
ATOM      2  H2  CYS A   1     -11.352   6.144  68.680  1.00  0.00     0.000 HD 
ATOM      3  CA  CYS A   1     -11.132   6.533  70.717  1.00  0.00    -0.300 C  
ATOM      4  H1  CYS A   1     -12.827   6.172  69.474  1.00  0.00     0.000 HD 
ATOM      5  O   CYS A   1     -13.276   7.302  71.433  1.00  0.00    -0.380 OA 
ATOM      6  C   CYS A   1     -11.964   7.268  71.779  1.00  0.00    -0.307 C  
ATOM      7  OXT CYS A   1     -11.528   7.749  72.813  1.00  0.00    -0.374 OA 
ENDROOT
BRANCH   3   8
ATOM      8  CB  CYS A   1      -9.726   7.145  70.648  1.00  0.00    -0.175 C  
BRANCH   8   9
ATOM      9  SG  CYS A   1      -9.782   8.875  70.051  1.00  0.00    -0.183 SA 
BRANCH   9  10
ATOM     10  SG  CYS A   1      -8.953   8.702  68.175  1.00  0.00    -0.141 SA 
BRANCH  10  11
ATOM     11  CB  CYS A   1     -10.372   9.122  67.101  1.00  0.00    -0.267 C  
BRANCH  11  12
ATOM     12  CA  CYS A   1     -10.252  10.545  66.536  1.00  0.00    -0.231 C  
ATOM     13  N   CYS A   1      -8.832  11.000  66.387  1.00  0.00    -0.171 NA 
ATOM     14  C   CYS A   1     -10.950  11.482  67.523  1.00  0.00    -0.255 C  
ATOM     15  H2  CYS A   1      -8.295  10.339  65.824  1.00  0.00     0.000 HD 
ATOM     16  H1  CYS A   1      -8.753  11.945  66.011  1.00  0.00     0.000 HD 
ATOM     17  OXT CYS A   1     -12.158  11.593  67.653  1.00  0.00    -0.615 OA 
ATOM     18  O   CYS A   1     -10.050  12.153  68.291  1.00  0.00    -0.201 OA 
ENDBRANCH  11  12
ENDBRANCH  10  11
ENDBRANCH   9  10
ENDBRANCH   8   9
ENDBRANCH   3   8
TORSDOF 5
ENDMDL
MODEL      181
REMARK 921   NORMALIZED FREE ENERGY PREDICTED BY IDOCK:   -3.01 KCAL/MOL
REMARK 922        TOTAL FREE ENERGY PREDICTED BY IDOCK:   -4.51 KCAL/MOL
REMARK 923 INTER-LIGAND FREE ENERGY PREDICTED BY IDOCK:   -4.43 KCAL/MOL
REMARK 924 INTRA-LIGAND FREE ENERGY PREDICTED BY IDOCK:   -0.08 KCAL/MOL
REMARK 927      BINDING AFFINITY PREDICTED BY RF-SCORE:    0.00 PKD
ROOT
ATOM      1  N   CYS A   1      -8.705   7.832  65.054  1.00  0.00    -0.377 NA 
ATOM      2  H2  CYS A   1      -8.376   8.796  64.987  1.00  0.00     0.000 HD 
ATOM      3  CA  CYS A   1      -9.257   7.563  66.420  1.00  0.00    -0.167 C  
ATOM      4  H1  CYS A   1      -7.972   7.186  64.759  1.00  0.00     0.000 HD 
ATOM      5  O   CYS A   1      -9.220   5.377  65.459  1.00  0.00    -0.152 OA 
ATOM      6  C   CYS A   1      -9.802   6.126  66.431  1.00  0.00    -0.092 C  
ATOM      7  OXT CYS A   1     -10.632   5.689  67.211  1.00  0.00    -0.241 OA 
ENDROOT
BRANCH   3   8
ATOM      8  CB  CYS A   1     -10.359   8.535  66.864  1.00  0.00    -0.297 C  
BRANCH   8   9
ATOM      9  SG  CYS A   1      -9.719   9.765  68.059  1.00  0.00    -0.147 SA 
BRANCH   9  10
ATOM     10  SG  CYS A   1     -10.753  11.461  67.517  1.00  0.00    -0.237 SA 
BRANCH  10  11
ATOM     11  CB  CYS A   1     -10.523  11.473  65.703  1.00  0.00    -0.266 C  
BRANCH  11  12
ATOM     12  CA  CYS A   1     -10.794  12.862  65.108  1.00  0.00    -0.296 C  
ATOM     13  N   CYS A   1      -9.955  13.940  65.725  1.00  0.00    -0.389 NA 
ATOM     14  C   CYS A   1     -12.263  13.190  65.379  1.00  0.00    -0.461 C  
ATOM     15  H2  CYS A   1      -8.963  13.707  65.668  1.00  0.00     0.000 HD 
ATOM     16  H1  CYS A   1     -10.136  14.862  65.329  1.00  0.00     0.000 HD 
ATOM     17  OXT CYS A   1     -13.213  12.707  64.785  1.00  0.00    -0.846 OA 
ATOM     18  O   CYS A   1     -12.394  14.061  66.416  1.00  0.00    -0.460 OA 
ENDBRANCH  11  12
ENDBRANCH  10  11
ENDBRANCH   9  10
ENDBRANCH   8   9
ENDBRANCH   3   8
TORSDOF 5
ENDMDL
MODEL      182
REMARK 921   NORMALIZED FREE ENERGY PREDICTED BY IDOCK:   -3.01 KCAL/MOL
REMARK 922        TOTAL FREE ENERGY PREDICTED BY IDOCK:   -4.51 KCAL/MOL
REMARK 923 INTER-LIGAND FREE ENERGY PREDICTED BY IDOCK:   -4.28 KCAL/MOL
REMARK 924 INTRA-LIGAND FREE ENERGY PREDICTED BY IDOCK:   -0.23 KCAL/MOL
REMARK 927      BINDING AFFINITY PREDICTED BY RF-SCORE:    0.00 PKD
ROOT
ATOM      1  N   CYS A   1     -10.177  16.044  69.353  1.00  0.00    -0.252 NA 
ATOM      2  H2  CYS A   1      -9.687  16.143  68.463  1.00  0.00     0.000 HD 
ATOM      3  CA  CYS A   1     -11.593  15.612  69.124  1.00  0.00    -0.383 C  
ATOM      4  H1  CYS A   1     -10.079  16.895  69.908  1.00  0.00     0.000 HD 
ATOM      5  O   CYS A   1     -11.598  16.116  71.458  1.00  0.00    -0.450 OA 
ATOM      6  C   CYS A   1     -12.249  15.410  70.499  1.00  0.00    -0.394 C  
ATOM      7  OXT CYS A   1     -13.236  14.727  70.719  1.00  0.00    -0.364 OA 
ENDROOT
BRANCH   3   8
ATOM      8  CB  CYS A   1     -11.740  14.333  68.289  1.00  0.00    -0.342 C  
BRANCH   8   9
ATOM      9  SG  CYS A   1     -11.902  14.717  66.507  1.00  0.00    -0.243 SA 
BRANCH   9  10
ATOM     10  SG  CYS A   1     -12.174  12.846  65.693  1.00  0.00    -0.423 SA 
BRANCH  10  11
ATOM     11  CB  CYS A   1     -10.461  12.375  65.262  1.00  0.00    -0.286 C  
BRANCH  11  12
ATOM     12  CA  CYS A   1      -9.624  12.075  66.514  1.00  0.00    -0.224 C  
ATOM     13  N   CYS A   1      -8.393  12.924  66.614  1.00  0.00    -0.418 NA 
ATOM     14  C   CYS A   1      -9.187  10.613  66.425  1.00  0.00    -0.168 C  
ATOM     15  H2  CYS A   1      -8.629  13.916  66.562  1.00  0.00     0.000 HD 
ATOM     16  H1  CYS A   1      -7.837  12.725  67.446  1.00  0.00     0.000 HD 
ATOM     17  OXT CYS A   1      -9.907   9.649  66.629  1.00  0.00    -0.195 OA 
ATOM     18  O   CYS A   1      -7.888  10.506  66.034  1.00  0.00    -0.137 OA 
ENDBRANCH  11  12
ENDBRANCH  10  11
ENDBRANCH   9  10
ENDBRANCH   8   9
ENDBRANCH   3   8
TORSDOF 5
ENDMDL
MODEL      183
REMARK 921   NORMALIZED FREE ENERGY PREDICTED BY IDOCK:   -2.99 KCAL/MOL
REMARK 922        TOTAL FREE ENERGY PREDICTED BY IDOCK:   -4.48 KCAL/MOL
REMARK 923 INTER-LIGAND FREE ENERGY PREDICTED BY IDOCK:   -4.32 KCAL/MOL
REMARK 924 INTRA-LIGAND FREE ENERGY PREDICTED BY IDOCK:   -0.17 KCAL/MOL
REMARK 927      BINDING AFFINITY PREDICTED BY RF-SCORE:    0.00 PKD
ROOT
ATOM      1  N   CYS A   1      -9.673  16.533  69.376  1.00  0.00    -0.185 NA 
ATOM      2  H2  CYS A   1     -10.675  16.386  69.248  1.00  0.00     0.000 HD 
ATOM      3  CA  CYS A   1      -8.945  16.325  68.084  1.00  0.00    -0.187 C  
ATOM      4  H1  CYS A   1      -9.328  15.967  70.151  1.00  0.00     0.000 HD 
ATOM      5  O   CYS A   1      -7.146  16.513  69.643  1.00  0.00    -0.169 OA 
ATOM      6  C   CYS A   1      -7.460  16.634  68.327  1.00  0.00    -0.182 C  
ATOM      7  OXT CYS A   1      -6.647  16.932  67.466  1.00  0.00    -0.126 OA 
ENDROOT
BRANCH   3   8
ATOM      8  CB  CYS A   1      -9.465  17.177  66.917  1.00  0.00    -0.259 C  
BRANCH   8   9
ATOM      9  SG  CYS A   1     -10.257  16.137  65.636  1.00  0.00    -0.333 SA 
BRANCH   9  10
ATOM     10  SG  CYS A   1     -11.390  14.851  66.775  1.00  0.00    -0.292 SA 
BRANCH  10  11
ATOM     11  CB  CYS A   1     -12.467  14.084  65.512  1.00  0.00    -0.509 C  
BRANCH  11  12
ATOM     12  CA  CYS A   1     -12.324  12.555  65.498  1.00  0.00    -0.295 C  
ATOM     13  N   CYS A   1     -11.133  12.070  66.269  1.00  0.00    -0.303 NA 
ATOM     14  C   CYS A   1     -12.150  12.132  64.039  1.00  0.00    -0.443 C  
ATOM     15  H2  CYS A   1     -11.149  12.426  67.225  1.00  0.00     0.000 HD 
ATOM     16  H1  CYS A   1     -11.039  11.055  66.260  1.00  0.00     0.000 HD 
ATOM     17  OXT CYS A   1     -13.041  12.094  63.207  1.00  0.00    -0.693 OA 
ATOM     18  O   CYS A   1     -10.851  11.844  63.758  1.00  0.00    -0.339 OA 
ENDBRANCH  11  12
ENDBRANCH  10  11
ENDBRANCH   9  10
ENDBRANCH   8   9
ENDBRANCH   3   8
TORSDOF 5
ENDMDL
MODEL      184
REMARK 921   NORMALIZED FREE ENERGY PREDICTED BY IDOCK:   -2.99 KCAL/MOL
REMARK 922        TOTAL FREE ENERGY PREDICTED BY IDOCK:   -4.47 KCAL/MOL
REMARK 923 INTER-LIGAND FREE ENERGY PREDICTED BY IDOCK:   -4.22 KCAL/MOL
REMARK 924 INTRA-LIGAND FREE ENERGY PREDICTED BY IDOCK:   -0.25 KCAL/MOL
REMARK 927      BINDING AFFINITY PREDICTED BY RF-SCORE:    0.00 PKD
ROOT
ATOM      1  N   CYS A   1     -10.429  15.465  66.996  1.00  0.00    -0.288 NA 
ATOM      2  H2  CYS A   1     -10.106  14.847  67.741  1.00  0.00     0.000 HD 
ATOM      3  CA  CYS A   1     -10.864  14.666  65.806  1.00  0.00    -0.323 C  
ATOM      4  H1  CYS A   1      -9.725  16.175  66.794  1.00  0.00     0.000 HD 
ATOM      5  O   CYS A   1     -10.910  16.895  64.951  1.00  0.00    -0.715 OA 
ATOM      6  C   CYS A   1     -11.407  15.647  64.755  1.00  0.00    -0.343 C  
ATOM      7  OXT CYS A   1     -12.168  15.361  63.845  1.00  0.00    -0.607 OA 
ENDROOT
BRANCH   3   8
ATOM      8  CB  CYS A   1     -11.923  13.597  66.110  1.00  0.00    -0.416 C  
BRANCH   8   9
ATOM      9  SG  CYS A   1     -11.589  12.764  67.705  1.00  0.00    -0.365 SA 
BRANCH   9  10
ATOM     10  SG  CYS A   1     -10.713  11.006  67.090  1.00  0.00    -0.277 SA 
BRANCH  10  11
ATOM     11  CB  CYS A   1      -9.402  10.783  68.344  1.00  0.00    -0.167 C  
BRANCH  11  12
ATOM     12  CA  CYS A   1      -8.039  11.268  67.830  1.00  0.00    -0.121 C  
ATOM     13  N   CYS A   1      -8.106  11.856  66.453  1.00  0.00    -0.383 NA 
ATOM     14  C   CYS A   1      -7.116  10.049  67.782  1.00  0.00    -0.086 C  
ATOM     15  H2  CYS A   1      -8.798  12.605  66.411  1.00  0.00     0.000 HD 
ATOM     16  H1  CYS A   1      -7.200  12.178  66.112  1.00  0.00     0.000 HD 
ATOM     17  OXT CYS A   1      -6.604   9.515  68.752  1.00  0.00    -0.051 OA 
ATOM     18  O   CYS A   1      -6.971   9.587  66.510  1.00  0.00    -0.082 OA 
ENDBRANCH  11  12
ENDBRANCH  10  11
ENDBRANCH   9  10
ENDBRANCH   8   9
ENDBRANCH   3   8
TORSDOF 5
ENDMDL
MODEL      185
REMARK 921   NORMALIZED FREE ENERGY PREDICTED BY IDOCK:   -2.98 KCAL/MOL
REMARK 922        TOTAL FREE ENERGY PREDICTED BY IDOCK:   -4.46 KCAL/MOL
REMARK 923 INTER-LIGAND FREE ENERGY PREDICTED BY IDOCK:   -4.15 KCAL/MOL
REMARK 924 INTRA-LIGAND FREE ENERGY PREDICTED BY IDOCK:   -0.31 KCAL/MOL
REMARK 927      BINDING AFFINITY PREDICTED BY RF-SCORE:    0.00 PKD
ROOT
ATOM      1  N   CYS A   1      -9.315   8.750  71.351  1.00  0.00    -0.234 NA 
ATOM      2  H2  CYS A   1      -8.556   9.187  70.828  1.00  0.00     0.000 HD 
ATOM      3  CA  CYS A   1     -10.595   9.500  71.140  1.00  0.00    -0.318 C  
ATOM      4  H1  CYS A   1      -9.051   8.633  72.329  1.00  0.00     0.000 HD 
ATOM      5  O   CYS A   1     -11.193   7.978  72.880  1.00  0.00    -0.401 OA 
ATOM      6  C   CYS A   1     -11.708   8.750  71.888  1.00  0.00    -0.359 C  
ATOM      7  OXT CYS A   1     -12.902   8.836  71.654  1.00  0.00    -0.323 OA 
ENDROOT
BRANCH   3   8
ATOM      8  CB  CYS A   1     -10.993   9.676  69.668  1.00  0.00    -0.229 C  
BRANCH   8   9
ATOM      9  SG  CYS A   1     -11.443  11.413  69.304  1.00  0.00    -0.334 SA 
BRANCH   9  10
ATOM     10  SG  CYS A   1     -10.863  11.598  67.338  1.00  0.00    -0.266 SA 
BRANCH  10  11
ATOM     11  CB  CYS A   1     -11.066  13.394  67.058  1.00  0.00    -0.292 C  
BRANCH  11  12
ATOM     12  CA  CYS A   1     -11.116  14.171  68.381  1.00  0.00    -0.252 C  
ATOM     13  N   CYS A   1     -12.213  15.192  68.421  1.00  0.00    -0.556 NA 
ATOM     14  C   CYS A   1      -9.781  14.902  68.527  1.00  0.00    -0.215 C  
ATOM     15  H2  CYS A   1     -13.116  14.764  68.215  1.00  0.00     0.000 HD 
ATOM     16  H1  CYS A   1     -12.246  15.708  69.300  1.00  0.00     0.000 HD 
ATOM     17  OXT CYS A   1      -8.722  14.378  68.831  1.00  0.00    -0.154 OA 
ATOM     18  O   CYS A   1      -9.903  16.222  68.222  1.00  0.00    -0.220 OA 
ENDBRANCH  11  12
ENDBRANCH  10  11
ENDBRANCH   9  10
ENDBRANCH   8   9
ENDBRANCH   3   8
TORSDOF 5
ENDMDL
MODEL      186
REMARK 921   NORMALIZED FREE ENERGY PREDICTED BY IDOCK:   -2.98 KCAL/MOL
REMARK 922        TOTAL FREE ENERGY PREDICTED BY IDOCK:   -4.46 KCAL/MOL
REMARK 923 INTER-LIGAND FREE ENERGY PREDICTED BY IDOCK:   -4.60 KCAL/MOL
REMARK 924 INTRA-LIGAND FREE ENERGY PREDICTED BY IDOCK:    0.13 KCAL/MOL
REMARK 927      BINDING AFFINITY PREDICTED BY RF-SCORE:    0.00 PKD
ROOT
ATOM      1  N   CYS A   1      -9.528  17.019  66.022  1.00  0.00    -0.488 NA 
ATOM      2  H2  CYS A   1      -9.829  16.062  65.834  1.00  0.00     0.000 HD 
ATOM      3  CA  CYS A   1     -10.381  17.636  67.087  1.00  0.00    -0.343 C  
ATOM      4  H1  CYS A   1      -9.483  17.554  65.154  1.00  0.00     0.000 HD 
ATOM      5  O   CYS A   1      -9.113  19.508  66.321  1.00  0.00    -0.351 OA 
ATOM      6  C   CYS A   1      -9.830  19.041  67.376  1.00  0.00    -0.324 C  
ATOM      7  OXT CYS A   1     -10.015  19.678  68.399  1.00  0.00    -0.392 OA 
ENDROOT
BRANCH   3   8
ATOM      8  CB  CYS A   1     -10.449  16.831  68.393  1.00  0.00    -0.339 C  
BRANCH   8   9
ATOM      9  SG  CYS A   1     -10.860  15.076  68.072  1.00  0.00    -0.279 SA 
BRANCH   9  10
ATOM     10  SG  CYS A   1     -12.121  14.642  69.640  1.00  0.00    -0.293 SA 
BRANCH  10  11
ATOM     11  CB  CYS A   1     -11.844  12.848  69.855  1.00  0.00    -0.303 C  
BRANCH  11  12
ATOM     12  CA  CYS A   1     -11.448  12.174  68.533  1.00  0.00    -0.300 C  
ATOM     13  N   CYS A   1     -12.263  10.953  68.229  1.00  0.00    -0.735 NA 
ATOM     14  C   CYS A   1      -9.985  11.747  68.665  1.00  0.00    -0.172 C  
ATOM     15  H2  CYS A   1     -13.261  11.169  68.244  1.00  0.00     0.000 HD 
ATOM     16  H1  CYS A   1     -12.000  10.506  67.351  1.00  0.00     0.000 HD 
ATOM     17  OXT CYS A   1      -9.026  12.499  68.613  1.00  0.00    -0.094 OA 
ATOM     18  O   CYS A   1      -9.878  10.412  68.902  1.00  0.00    -0.181 OA 
ENDBRANCH  11  12
ENDBRANCH  10  11
ENDBRANCH   9  10
ENDBRANCH   8   9
ENDBRANCH   3   8
TORSDOF 5
ENDMDL
MODEL      187
REMARK 921   NORMALIZED FREE ENERGY PREDICTED BY IDOCK:   -2.97 KCAL/MOL
REMARK 922        TOTAL FREE ENERGY PREDICTED BY IDOCK:   -4.45 KCAL/MOL
REMARK 923 INTER-LIGAND FREE ENERGY PREDICTED BY IDOCK:   -4.15 KCAL/MOL
REMARK 924 INTRA-LIGAND FREE ENERGY PREDICTED BY IDOCK:   -0.30 KCAL/MOL
REMARK 927      BINDING AFFINITY PREDICTED BY RF-SCORE:    0.00 PKD
ROOT
ATOM      1  N   CYS A   1     -11.385   6.657  66.947  1.00  0.00    -0.824 NA 
ATOM      2  H2  CYS A   1     -11.435   7.455  67.582  1.00  0.00     0.000 HD 
ATOM      3  CA  CYS A   1     -10.232   5.773  67.310  1.00  0.00    -0.205 C  
ATOM      4  H1  CYS A   1     -11.386   6.974  65.977  1.00  0.00     0.000 HD 
ATOM      5  O   CYS A   1     -10.937   4.840  65.228  1.00  0.00    -0.145 OA 
ATOM      6  C   CYS A   1     -10.258   4.558  66.370  1.00  0.00    -0.217 C  
ATOM      7  OXT CYS A   1      -9.730   3.480  66.590  1.00  0.00    -0.155 OA 
ENDROOT
BRANCH   3   8
ATOM      8  CB  CYS A   1     -10.231   5.296  68.769  1.00  0.00    -0.161 C  
BRANCH   8   9
ATOM      9  SG  CYS A   1      -8.693   5.790  69.630  1.00  0.00    -0.123 SA 
BRANCH   9  10
ATOM     10  SG  CYS A   1      -9.384   7.207  70.953  1.00  0.00    -0.159 SA 
BRANCH  10  11
ATOM     11  CB  CYS A   1     -11.194   7.051  70.753  1.00  0.00    -0.285 C  
BRANCH  11  12
ATOM     12  CA  CYS A   1     -11.940   7.423  72.043  1.00  0.00    -0.297 C  
ATOM     13  N   CYS A   1     -13.017   6.443  72.402  1.00  0.00    -0.456 NA 
ATOM     14  C   CYS A   1     -12.596   8.785  71.808  1.00  0.00    -0.356 C  
ATOM     15  H2  CYS A   1     -12.642   5.495  72.458  1.00  0.00     0.000 HD 
ATOM     16  H1  CYS A   1     -13.512   6.690  73.259  1.00  0.00     0.000 HD 
ATOM     17  OXT CYS A   1     -12.010   9.854  71.794  1.00  0.00    -0.381 OA 
ATOM     18  O   CYS A   1     -13.928   8.657  71.562  1.00  0.00    -0.385 OA 
ENDBRANCH  11  12
ENDBRANCH  10  11
ENDBRANCH   9  10
ENDBRANCH   8   9
ENDBRANCH   3   8
TORSDOF 5
ENDMDL
MODEL      188
REMARK 921   NORMALIZED FREE ENERGY PREDICTED BY IDOCK:   -2.96 KCAL/MOL
REMARK 922        TOTAL FREE ENERGY PREDICTED BY IDOCK:   -4.44 KCAL/MOL
REMARK 923 INTER-LIGAND FREE ENERGY PREDICTED BY IDOCK:   -4.23 KCAL/MOL
REMARK 924 INTRA-LIGAND FREE ENERGY PREDICTED BY IDOCK:   -0.21 KCAL/MOL
REMARK 927      BINDING AFFINITY PREDICTED BY RF-SCORE:    0.00 PKD
ROOT
ATOM      1  N   CYS A   1      -9.754   3.830  70.952  1.00  0.00    -0.188 NA 
ATOM      2  H2  CYS A   1      -9.114   4.160  70.229  1.00  0.00     0.000 HD 
ATOM      3  CA  CYS A   1      -9.643   4.684  72.178  1.00  0.00    -0.151 C  
ATOM      4  H1  CYS A   1      -9.618   2.833  71.118  1.00  0.00     0.000 HD 
ATOM      5  O   CYS A   1     -11.028   2.895  72.942  1.00  0.00    -0.090 OA 
ATOM      6  C   CYS A   1     -10.682   4.184  73.194  1.00  0.00    -0.194 C  
ATOM      7  OXT CYS A   1     -11.135   4.833  74.122  1.00  0.00    -0.302 OA 
ENDROOT
BRANCH   3   8
ATOM      8  CB  CYS A   1      -9.848   6.185  71.928  1.00  0.00    -0.156 C  
BRANCH   8   9
ATOM      9  SG  CYS A   1     -11.367   6.496  70.955  1.00  0.00    -0.339 SA 
BRANCH   9  10
ATOM     10  SG  CYS A   1     -12.090   8.211  71.836  1.00  0.00    -0.343 SA 
BRANCH  10  11
ATOM     11  CB  CYS A   1     -11.413   9.507  70.738  1.00  0.00    -0.310 C  
BRANCH  11  12
ATOM     12  CA  CYS A   1     -12.527  10.366  70.123  1.00  0.00    -0.176 C  
ATOM     13  N   CYS A   1     -12.223  10.808  68.723  1.00  0.00    -0.814 NA 
ATOM     14  C   CYS A   1     -12.667  11.615  70.996  1.00  0.00    -0.298 C  
ATOM     15  H2  CYS A   1     -12.009  10.008  68.127  1.00  0.00     0.000 HD 
ATOM     16  H1  CYS A   1     -12.963  11.379  68.315  1.00  0.00     0.000 HD 
ATOM     17  OXT CYS A   1     -13.195  11.649  72.095  1.00  0.00    -0.504 OA 
ATOM     18  O   CYS A   1     -12.078  12.694  70.415  1.00  0.00    -0.364 OA 
ENDBRANCH  11  12
ENDBRANCH  10  11
ENDBRANCH   9  10
ENDBRANCH   8   9
ENDBRANCH   3   8
TORSDOF 5
ENDMDL
MODEL      189
REMARK 921   NORMALIZED FREE ENERGY PREDICTED BY IDOCK:   -2.96 KCAL/MOL
REMARK 922        TOTAL FREE ENERGY PREDICTED BY IDOCK:   -4.43 KCAL/MOL
REMARK 923 INTER-LIGAND FREE ENERGY PREDICTED BY IDOCK:   -3.96 KCAL/MOL
REMARK 924 INTRA-LIGAND FREE ENERGY PREDICTED BY IDOCK:   -0.47 KCAL/MOL
REMARK 927      BINDING AFFINITY PREDICTED BY RF-SCORE:    0.00 PKD
ROOT
ATOM      1  N   CYS A   1     -11.853  13.392  70.112  1.00  0.00    -0.472 NA 
ATOM      2  H2  CYS A   1     -11.602  13.162  71.074  1.00  0.00     0.000 HD 
ATOM      3  CA  CYS A   1     -11.434  12.293  69.185  1.00  0.00    -0.296 C  
ATOM      4  H1  CYS A   1     -11.495  14.315  69.863  1.00  0.00     0.000 HD 
ATOM      5  O   CYS A   1     -12.095  14.006  67.658  1.00  0.00    -0.382 OA 
ATOM      6  C   CYS A   1     -11.906  12.666  67.771  1.00  0.00    -0.323 C  
ATOM      7  OXT CYS A   1     -12.077  11.882  66.851  1.00  0.00    -0.599 OA 
ENDROOT
BRANCH   3   8
ATOM      8  CB  CYS A   1     -11.972  10.905  69.559  1.00  0.00    -0.330 C  
BRANCH   8   9
ATOM      9  SG  CYS A   1     -10.660   9.858  70.290  1.00  0.00    -0.305 SA 
BRANCH   9  10
ATOM     10  SG  CYS A   1     -10.650   8.241  69.017  1.00  0.00    -0.092 SA 
BRANCH  10  11
ATOM     11  CB  CYS A   1      -9.211   8.613  67.953  1.00  0.00    -0.139 C  
BRANCH  11  12
ATOM     12  CA  CYS A   1      -9.574   9.600  66.834  1.00  0.00    -0.167 C  
ATOM     13  N   CYS A   1      -9.548   8.977  65.471  1.00  0.00    -0.457 NA 
ATOM     14  C   CYS A   1      -8.532  10.719  66.865  1.00  0.00    -0.131 C  
ATOM     15  H2  CYS A   1     -10.147   8.151  65.437  1.00  0.00     0.000 HD 
ATOM     16  H1  CYS A   1      -9.790   9.633  64.728  1.00  0.00     0.000 HD 
ATOM     17  OXT CYS A   1      -8.486  11.615  67.692  1.00  0.00    -0.132 OA 
ATOM     18  O   CYS A   1      -7.614  10.569  65.872  1.00  0.00    -0.141 OA 
ENDBRANCH  11  12
ENDBRANCH  10  11
ENDBRANCH   9  10
ENDBRANCH   8   9
ENDBRANCH   3   8
TORSDOF 5
ENDMDL
MODEL      190
REMARK 921   NORMALIZED FREE ENERGY PREDICTED BY IDOCK:   -2.93 KCAL/MOL
REMARK 922        TOTAL FREE ENERGY PREDICTED BY IDOCK:   -4.41 KCAL/MOL
REMARK 923 INTER-LIGAND FREE ENERGY PREDICTED BY IDOCK:   -4.20 KCAL/MOL
REMARK 924 INTRA-LIGAND FREE ENERGY PREDICTED BY IDOCK:   -0.21 KCAL/MOL
REMARK 927      BINDING AFFINITY PREDICTED BY RF-SCORE:    0.00 PKD
ROOT
ATOM      1  N   CYS A   1     -12.103  12.386  67.491  1.00  0.00    -0.472 NA 
ATOM      2  H2  CYS A   1     -11.918  12.414  68.495  1.00  0.00     0.000 HD 
ATOM      3  CA  CYS A   1     -11.995  13.760  66.902  1.00  0.00    -0.421 C  
ATOM      4  H1  CYS A   1     -12.989  11.916  67.306  1.00  0.00     0.000 HD 
ATOM      5  O   CYS A   1     -12.892  12.506  65.079  1.00  0.00    -0.742 OA 
ATOM      6  C   CYS A   1     -12.207  13.638  65.385  1.00  0.00    -0.444 C  
ATOM      7  OXT CYS A   1     -11.836  14.447  64.551  1.00  0.00    -0.422 OA 
ENDROOT
BRANCH   3   8
ATOM      8  CB  CYS A   1     -10.662  14.469  67.181  1.00  0.00    -0.286 C  
BRANCH   8   9
ATOM      9  SG  CYS A   1     -10.845  16.288  67.094  1.00  0.00    -0.117 SA 
BRANCH   9  10
ATOM     10  SG  CYS A   1      -9.697  16.906  68.686  1.00  0.00    -0.276 SA 
BRANCH  10  11
ATOM     11  CB  CYS A   1      -9.081  15.315  69.342  1.00  0.00    -0.228 C  
BRANCH  11  12
ATOM     12  CA  CYS A   1      -7.550  15.226  69.269  1.00  0.00    -0.213 C  
ATOM     13  N   CYS A   1      -6.928  16.394  68.564  1.00  0.00    -0.147 NA 
ATOM     14  C   CYS A   1      -7.208  13.960  68.483  1.00  0.00    -0.107 C  
ATOM     15  H2  CYS A   1      -7.222  17.274  68.988  1.00  0.00     0.000 HD 
ATOM     16  H1  CYS A   1      -5.911  16.335  68.515  1.00  0.00     0.000 HD 
ATOM     17  OXT CYS A   1      -7.291  12.821  68.913  1.00  0.00    -0.089 OA 
ATOM     18  O   CYS A   1      -6.842  14.252  67.206  1.00  0.00    -0.234 OA 
ENDBRANCH  11  12
ENDBRANCH  10  11
ENDBRANCH   9  10
ENDBRANCH   8   9
ENDBRANCH   3   8
TORSDOF 5
ENDMDL
MODEL      191
REMARK 921   NORMALIZED FREE ENERGY PREDICTED BY IDOCK:   -2.93 KCAL/MOL
REMARK 922        TOTAL FREE ENERGY PREDICTED BY IDOCK:   -4.40 KCAL/MOL
REMARK 923 INTER-LIGAND FREE ENERGY PREDICTED BY IDOCK:   -4.22 KCAL/MOL
REMARK 924 INTRA-LIGAND FREE ENERGY PREDICTED BY IDOCK:   -0.18 KCAL/MOL
REMARK 927      BINDING AFFINITY PREDICTED BY RF-SCORE:    0.00 PKD
ROOT
ATOM      1  N   CYS A   1     -11.372  10.844  70.549  1.00  0.00    -0.450 NA 
ATOM      2  H2  CYS A   1     -11.798  11.647  71.012  1.00  0.00     0.000 HD 
ATOM      3  CA  CYS A   1     -11.420  11.013  69.061  1.00  0.00    -0.299 C  
ATOM      4  H1  CYS A   1     -11.786   9.976  70.889  1.00  0.00     0.000 HD 
ATOM      5  O   CYS A   1     -10.672   8.756  69.281  1.00  0.00    -0.221 OA 
ATOM      6  C   CYS A   1     -10.697   9.813  68.429  1.00  0.00    -0.221 C  
ATOM      7  OXT CYS A   1     -10.220   9.784  67.306  1.00  0.00    -0.203 OA 
ENDROOT
BRANCH   3   8
ATOM      8  CB  CYS A   1     -10.796  12.319  68.548  1.00  0.00    -0.237 C  
BRANCH   8   9
ATOM      9  SG  CYS A   1     -12.023  13.676  68.521  1.00  0.00    -0.306 SA 
BRANCH   9  10
ATOM     10  SG  CYS A   1     -11.622  14.575  66.713  1.00  0.00    -0.364 SA 
BRANCH  10  11
ATOM     11  CB  CYS A   1      -9.823  14.873  66.837  1.00  0.00    -0.240 C  
BRANCH  11  12
ATOM     12  CA  CYS A   1      -9.518  16.236  67.475  1.00  0.00    -0.227 C  
ATOM     13  N   CYS A   1     -10.753  17.008  67.831  1.00  0.00    -0.362 NA 
ATOM     14  C   CYS A   1      -8.729  17.049  66.447  1.00  0.00    -0.273 C  
ATOM     15  H2  CYS A   1     -11.368  16.455  68.429  1.00  0.00     0.000 HD 
ATOM     16  H1  CYS A   1     -10.550  17.913  68.255  1.00  0.00     0.000 HD 
ATOM     17  OXT CYS A   1      -7.555  16.876  66.165  1.00  0.00    -0.297 OA 
ATOM     18  O   CYS A   1      -9.518  17.973  65.836  1.00  0.00    -0.520 OA 
ENDBRANCH  11  12
ENDBRANCH  10  11
ENDBRANCH   9  10
ENDBRANCH   8   9
ENDBRANCH   3   8
TORSDOF 5
ENDMDL
MODEL      192
REMARK 921   NORMALIZED FREE ENERGY PREDICTED BY IDOCK:   -2.93 KCAL/MOL
REMARK 922        TOTAL FREE ENERGY PREDICTED BY IDOCK:   -4.40 KCAL/MOL
REMARK 923 INTER-LIGAND FREE ENERGY PREDICTED BY IDOCK:   -4.15 KCAL/MOL
REMARK 924 INTRA-LIGAND FREE ENERGY PREDICTED BY IDOCK:   -0.25 KCAL/MOL
REMARK 927      BINDING AFFINITY PREDICTED BY RF-SCORE:    0.00 PKD
ROOT
ATOM      1  N   CYS A   1     -13.122  15.745  70.537  1.00  0.00    -0.753 NA 
ATOM      2  H2  CYS A   1     -13.916  15.308  71.005  1.00  0.00     0.000 HD 
ATOM      3  CA  CYS A   1     -11.906  14.878  70.654  1.00  0.00    -0.301 C  
ATOM      4  H1  CYS A   1     -12.993  16.700  70.872  1.00  0.00     0.000 HD 
ATOM      5  O   CYS A   1     -10.998  16.884  69.730  1.00  0.00    -0.231 OA 
ATOM      6  C   CYS A   1     -10.771  15.552  69.868  1.00  0.00    -0.311 C  
ATOM      7  OXT CYS A   1      -9.779  14.990  69.432  1.00  0.00    -0.209 OA 
ENDROOT
BRANCH   3   8
ATOM      8  CB  CYS A   1     -12.098  13.441  70.150  1.00  0.00    -0.344 C  
BRANCH   8   9
ATOM      9  SG  CYS A   1     -12.829  12.374  71.446  1.00  0.00    -0.160 SA 
BRANCH   9  10
ATOM     10  SG  CYS A   1     -12.208  10.503  70.855  1.00  0.00    -0.419 SA 
BRANCH  10  11
ATOM     11  CB  CYS A   1     -10.963  10.909  69.580  1.00  0.00    -0.253 C  
BRANCH  11  12
ATOM     12  CA  CYS A   1     -11.304  10.263  68.229  1.00  0.00    -0.177 C  
ATOM     13  N   CYS A   1     -11.110   8.776  68.225  1.00  0.00    -0.409 NA 
ATOM     14  C   CYS A   1     -10.361  10.868  67.188  1.00  0.00    -0.220 C  
ATOM     15  H2  CYS A   1     -11.637   8.338  68.981  1.00  0.00     0.000 HD 
ATOM     16  H1  CYS A   1     -11.337   8.347  67.327  1.00  0.00     0.000 HD 
ATOM     17  OXT CYS A   1     -10.458  11.990  66.719  1.00  0.00    -0.208 OA 
ATOM     18  O   CYS A   1      -9.350  10.012  66.878  1.00  0.00    -0.154 OA 
ENDBRANCH  11  12
ENDBRANCH  10  11
ENDBRANCH   9  10
ENDBRANCH   8   9
ENDBRANCH   3   8
TORSDOF 5
ENDMDL
MODEL      193
REMARK 921   NORMALIZED FREE ENERGY PREDICTED BY IDOCK:   -2.92 KCAL/MOL
REMARK 922        TOTAL FREE ENERGY PREDICTED BY IDOCK:   -4.39 KCAL/MOL
REMARK 923 INTER-LIGAND FREE ENERGY PREDICTED BY IDOCK:   -4.20 KCAL/MOL
REMARK 924 INTRA-LIGAND FREE ENERGY PREDICTED BY IDOCK:   -0.20 KCAL/MOL
REMARK 927      BINDING AFFINITY PREDICTED BY RF-SCORE:    0.00 PKD
ROOT
ATOM      1  N   CYS A   1      -7.403   8.879  68.605  1.00  0.00    -0.076 NA 
ATOM      2  H2  CYS A   1      -8.062   8.126  68.406  1.00  0.00     0.000 HD 
ATOM      3  CA  CYS A   1      -7.453   9.917  67.527  1.00  0.00    -0.091 C  
ATOM      4  H1  CYS A   1      -6.473   8.498  68.782  1.00  0.00     0.000 HD 
ATOM      5  O   CYS A   1      -5.557  10.615  68.800  1.00  0.00    -0.041 OA 
ATOM      6  C   CYS A   1      -6.498  11.053  67.924  1.00  0.00    -0.062 C  
ATOM      7  OXT CYS A   1      -6.547  12.199  67.506  1.00  0.00    -0.102 OA 
ENDROOT
BRANCH   3   8
ATOM      8  CB  CYS A   1      -8.852  10.489  67.260  1.00  0.00    -0.136 C  
BRANCH   8   9
ATOM      9  SG  CYS A   1      -9.798   9.425  66.109  1.00  0.00    -0.279 SA 
BRANCH   9  10
ATOM     10  SG  CYS A   1      -9.958  10.633  64.449  1.00  0.00    -0.350 SA 
BRANCH  10  11
ATOM     11  CB  CYS A   1     -10.398  12.240  65.200  1.00  0.00    -0.286 C  
BRANCH  11  12
ATOM     12  CA  CYS A   1     -11.123  13.152  64.200  1.00  0.00    -0.394 C  
ATOM     13  N   CYS A   1     -10.750  14.597  64.345  1.00  0.00    -0.558 NA 
ATOM     14  C   CYS A   1     -12.622  13.019  64.473  1.00  0.00    -0.320 C  
ATOM     15  H2  CYS A   1      -9.739  14.719  64.282  1.00  0.00     0.000 HD 
ATOM     16  H1  CYS A   1     -11.232  15.202  63.680  1.00  0.00     0.000 HD 
ATOM     17  OXT CYS A   1     -13.312  12.063  64.160  1.00  0.00    -0.725 OA 
ATOM     18  O   CYS A   1     -13.097  14.090  65.165  1.00  0.00    -0.776 OA 
ENDBRANCH  11  12
ENDBRANCH  10  11
ENDBRANCH   9  10
ENDBRANCH   8   9
ENDBRANCH   3   8
TORSDOF 5
ENDMDL
MODEL      194
REMARK 921   NORMALIZED FREE ENERGY PREDICTED BY IDOCK:   -2.92 KCAL/MOL
REMARK 922        TOTAL FREE ENERGY PREDICTED BY IDOCK:   -4.39 KCAL/MOL
REMARK 923 INTER-LIGAND FREE ENERGY PREDICTED BY IDOCK:   -4.06 KCAL/MOL
REMARK 924 INTRA-LIGAND FREE ENERGY PREDICTED BY IDOCK:   -0.34 KCAL/MOL
REMARK 927      BINDING AFFINITY PREDICTED BY RF-SCORE:    0.00 PKD
ROOT
ATOM      1  N   CYS A   1      -8.655   6.839  70.326  1.00  0.00    -0.139 NA 
ATOM      2  H2  CYS A   1      -7.842   7.272  69.887  1.00  0.00     0.000 HD 
ATOM      3  CA  CYS A   1      -9.772   7.830  70.449  1.00  0.00    -0.179 C  
ATOM      4  H1  CYS A   1      -8.388   6.393  71.205  1.00  0.00     0.000 HD 
ATOM      5  O   CYS A   1     -10.598   5.990  71.728  1.00  0.00    -0.214 OA 
ATOM      6  C   CYS A   1     -10.985   7.099  71.046  1.00  0.00    -0.252 C  
ATOM      7  OXT CYS A   1     -12.147   7.458  70.949  1.00  0.00    -0.307 OA 
ENDROOT
BRANCH   3   8
ATOM      8  CB  CYS A   1     -10.174   8.501  69.128  1.00  0.00    -0.211 C  
BRANCH   8   9
ATOM      9  SG  CYS A   1      -9.948  10.316  69.209  1.00  0.00    -0.233 SA 
BRANCH   9  10
ATOM     10  SG  CYS A   1     -11.843  10.958  69.695  1.00  0.00    -0.359 SA 
BRANCH  10  11
ATOM     11  CB  CYS A   1     -11.734  12.746  69.331  1.00  0.00    -0.319 C  
BRANCH  11  12
ATOM     12  CA  CYS A   1     -10.753  13.033  68.186  1.00  0.00    -0.242 C  
ATOM     13  N   CYS A   1      -9.996  14.314  68.368  1.00  0.00    -0.235 NA 
ATOM     14  C   CYS A   1     -11.578  13.146  66.903  1.00  0.00    -0.368 C  
ATOM     15  H2  CYS A   1      -9.518  14.329  69.269  1.00  0.00     0.000 HD 
ATOM     16  H1  CYS A   1      -9.344  14.504  67.606  1.00  0.00     0.000 HD 
ATOM     17  OXT CYS A   1     -12.070  12.208  66.298  1.00  0.00    -0.626 OA 
ATOM     18  O   CYS A   1     -11.746  14.445  66.535  1.00  0.00    -0.370 OA 
ENDBRANCH  11  12
ENDBRANCH  10  11
ENDBRANCH   9  10
ENDBRANCH   8   9
ENDBRANCH   3   8
TORSDOF 5
ENDMDL
MODEL      195
REMARK 921   NORMALIZED FREE ENERGY PREDICTED BY IDOCK:   -2.92 KCAL/MOL
REMARK 922        TOTAL FREE ENERGY PREDICTED BY IDOCK:   -4.39 KCAL/MOL
REMARK 923 INTER-LIGAND FREE ENERGY PREDICTED BY IDOCK:   -3.79 KCAL/MOL
REMARK 924 INTRA-LIGAND FREE ENERGY PREDICTED BY IDOCK:   -0.60 KCAL/MOL
REMARK 927      BINDING AFFINITY PREDICTED BY RF-SCORE:    0.00 PKD
ROOT
ATOM      1  N   CYS A   1     -10.030  12.591  68.724  1.00  0.00    -0.420 NA 
ATOM      2  H2  CYS A   1      -9.344  13.056  69.318  1.00  0.00     0.000 HD 
ATOM      3  CA  CYS A   1      -9.561  11.216  68.360  1.00  0.00    -0.192 C  
ATOM      4  H1  CYS A   1     -10.267  13.181  67.926  1.00  0.00     0.000 HD 
ATOM      5  O   CYS A   1     -11.477  11.473  66.958  1.00  0.00    -0.441 OA 
ATOM      6  C   CYS A   1     -10.668  10.545  67.532  1.00  0.00    -0.276 C  
ATOM      7  OXT CYS A   1     -10.810   9.342  67.380  1.00  0.00    -0.263 OA 
ENDROOT
BRANCH   3   8
ATOM      8  CB  CYS A   1      -9.205  10.327  69.560  1.00  0.00    -0.170 C  
BRANCH   8   9
ATOM      9  SG  CYS A   1      -7.740   9.288  69.207  1.00  0.00    -0.084 SA 
BRANCH   9  10
ATOM     10  SG  CYS A   1      -8.521   7.389  69.353  1.00  0.00    -0.133 SA 
BRANCH  10  11
ATOM     11  CB  CYS A   1      -9.177   7.387  71.060  1.00  0.00    -0.153 C  
BRANCH  11  12
ATOM     12  CA  CYS A   1     -10.683   7.092  71.087  1.00  0.00    -0.232 C  
ATOM     13  N   CYS A   1     -11.365   7.397  69.787  1.00  0.00    -0.469 NA 
ATOM     14  C   CYS A   1     -11.298   7.985  72.167  1.00  0.00    -0.328 C  
ATOM     15  H2  CYS A   1     -10.912   6.907  69.015  1.00  0.00     0.000 HD 
ATOM     16  H1  CYS A   1     -12.366   7.201  69.806  1.00  0.00     0.000 HD 
ATOM     17  OXT CYS A   1     -11.202   7.802  73.369  1.00  0.00    -0.315 OA 
ATOM     18  O   CYS A   1     -11.934   9.056  71.621  1.00  0.00    -0.309 OA 
ENDBRANCH  11  12
ENDBRANCH  10  11
ENDBRANCH   9  10
ENDBRANCH   8   9
ENDBRANCH   3   8
TORSDOF 5
ENDMDL
MODEL      196
REMARK 921   NORMALIZED FREE ENERGY PREDICTED BY IDOCK:   -2.92 KCAL/MOL
REMARK 922        TOTAL FREE ENERGY PREDICTED BY IDOCK:   -4.39 KCAL/MOL
REMARK 923 INTER-LIGAND FREE ENERGY PREDICTED BY IDOCK:   -4.16 KCAL/MOL
REMARK 924 INTRA-LIGAND FREE ENERGY PREDICTED BY IDOCK:   -0.23 KCAL/MOL
REMARK 927      BINDING AFFINITY PREDICTED BY RF-SCORE:    0.00 PKD
ROOT
ATOM      1  N   CYS A   1     -13.599  12.268  72.369  1.00  0.00    -0.543 NA 
ATOM      2  H2  CYS A   1     -13.945  11.633  73.089  1.00  0.00     0.000 HD 
ATOM      3  CA  CYS A   1     -12.672  11.548  71.439  1.00  0.00    -0.364 C  
ATOM      4  H1  CYS A   1     -13.203  13.106  72.795  1.00  0.00     0.000 HD 
ATOM      5  O   CYS A   1     -12.394  13.819  70.757  1.00  0.00    -0.343 OA 
ATOM      6  C   CYS A   1     -12.249  12.535  70.340  1.00  0.00    -0.286 C  
ATOM      7  OXT CYS A   1     -11.819  12.228  69.240  1.00  0.00    -0.302 OA 
ENDROOT
BRANCH   3   8
ATOM      8  CB  CYS A   1     -13.267  10.286  70.798  1.00  0.00    -0.216 C  
BRANCH   8   9
ATOM      9  SG  CYS A   1     -13.702   9.038  72.065  1.00  0.00    -0.469 SA 
BRANCH   9  10
ATOM     10  SG  CYS A   1     -12.105   7.744  71.951  1.00  0.00    -0.316 SA 
BRANCH  10  11
ATOM     11  CB  CYS A   1     -10.689   8.901  71.931  1.00  0.00    -0.356 C  
BRANCH  11  12
ATOM     12  CA  CYS A   1      -9.646   8.499  70.878  1.00  0.00    -0.185 C  
ATOM     13  N   CYS A   1      -8.246   8.864  71.271  1.00  0.00    -0.229 NA 
ATOM     14  C   CYS A   1      -9.989   9.252  69.592  1.00  0.00    -0.191 C  
ATOM     15  H2  CYS A   1      -8.011   8.473  72.185  1.00  0.00     0.000 HD 
ATOM     16  H1  CYS A   1      -7.553   8.597  70.572  1.00  0.00     0.000 HD 
ATOM     17  OXT CYS A   1     -10.909   8.977  68.840  1.00  0.00    -0.163 OA 
ATOM     18  O   CYS A   1      -9.164  10.318  69.406  1.00  0.00    -0.197 OA 
ENDBRANCH  11  12
ENDBRANCH  10  11
ENDBRANCH   9  10
ENDBRANCH   8   9
ENDBRANCH   3   8
TORSDOF 5
ENDMDL
MODEL      197
REMARK 921   NORMALIZED FREE ENERGY PREDICTED BY IDOCK:   -2.92 KCAL/MOL
REMARK 922        TOTAL FREE ENERGY PREDICTED BY IDOCK:   -4.38 KCAL/MOL
REMARK 923 INTER-LIGAND FREE ENERGY PREDICTED BY IDOCK:   -4.16 KCAL/MOL
REMARK 924 INTRA-LIGAND FREE ENERGY PREDICTED BY IDOCK:   -0.22 KCAL/MOL
REMARK 927      BINDING AFFINITY PREDICTED BY RF-SCORE:    0.00 PKD
ROOT
ATOM      1  N   CYS A   1     -10.490  15.324  64.407  1.00  0.00    -0.435 NA 
ATOM      2  H2  CYS A   1      -9.583  15.633  64.758  1.00  0.00     0.000 HD 
ATOM      3  CA  CYS A   1     -11.183  14.476  65.429  1.00  0.00    -0.342 C  
ATOM      4  H1  CYS A   1     -10.386  14.883  63.493  1.00  0.00     0.000 HD 
ATOM      5  O   CYS A   1     -12.587  14.198  63.518  1.00  0.00    -0.834 OA 
ATOM      6  C   CYS A   1     -12.567  14.108  64.873  1.00  0.00    -0.342 C  
ATOM      7  OXT CYS A   1     -13.529  13.760  65.538  1.00  0.00    -0.591 OA 
ENDROOT
BRANCH   3   8
ATOM      8  CB  CYS A   1     -11.340  15.139  66.805  1.00  0.00    -0.248 C  
BRANCH   8   9
ATOM      9  SG  CYS A   1     -11.024  13.947  68.158  1.00  0.00    -0.258 SA 
BRANCH   9  10
ATOM     10  SG  CYS A   1      -9.429  12.877  67.417  1.00  0.00    -0.206 SA 
BRANCH  10  11
ATOM     11  CB  CYS A   1      -9.461  11.384  68.471  1.00  0.00    -0.183 C  
BRANCH  11  12
ATOM     12  CA  CYS A   1      -8.044  10.880  68.780  1.00  0.00    -0.145 C  
ATOM     13  N   CYS A   1      -7.264  10.527  67.549  1.00  0.00    -0.089 NA 
ATOM     14  C   CYS A   1      -8.190   9.615  69.628  1.00  0.00    -0.144 C  
ATOM     15  H2  CYS A   1      -7.237  11.313  66.898  1.00  0.00     0.000 HD 
ATOM     16  H1  CYS A   1      -6.323  10.192  67.755  1.00  0.00     0.000 HD 
ATOM     17  OXT CYS A   1      -8.497   9.592  70.808  1.00  0.00    -0.232 OA 
ATOM     18  O   CYS A   1      -7.984   8.494  68.886  1.00  0.00    -0.113 OA 
ENDBRANCH  11  12
ENDBRANCH  10  11
ENDBRANCH   9  10
ENDBRANCH   8   9
ENDBRANCH   3   8
TORSDOF 5
ENDMDL
MODEL      198
REMARK 921   NORMALIZED FREE ENERGY PREDICTED BY IDOCK:   -2.91 KCAL/MOL
REMARK 922        TOTAL FREE ENERGY PREDICTED BY IDOCK:   -4.38 KCAL/MOL
REMARK 923 INTER-LIGAND FREE ENERGY PREDICTED BY IDOCK:   -4.15 KCAL/MOL
REMARK 924 INTRA-LIGAND FREE ENERGY PREDICTED BY IDOCK:   -0.23 KCAL/MOL
REMARK 927      BINDING AFFINITY PREDICTED BY RF-SCORE:    0.00 PKD
ROOT
ATOM      1  N   CYS A   1      -7.463  14.247  70.186  1.00  0.00    -0.167 NA 
ATOM      2  H2  CYS A   1      -8.293  14.783  70.440  1.00  0.00     0.000 HD 
ATOM      3  CA  CYS A   1      -7.495  13.892  68.731  1.00  0.00    -0.114 C  
ATOM      4  H1  CYS A   1      -7.349  13.450  70.813  1.00  0.00     0.000 HD 
ATOM      5  O   CYS A   1      -5.639  12.610  69.514  1.00  0.00    -0.078 OA 
ATOM      6  C   CYS A   1      -6.188  13.156  68.398  1.00  0.00    -0.083 C  
ATOM      7  OXT CYS A   1      -5.700  13.047  67.285  1.00  0.00    -0.334 OA 
ENDROOT
BRANCH   3   8
ATOM      8  CB  CYS A   1      -7.666  15.091  67.788  1.00  0.00    -0.153 C  
BRANCH   8   9
ATOM      9  SG  CYS A   1      -9.320  15.853  67.973  1.00  0.00    -0.201 SA 
BRANCH   9  10
ATOM     10  SG  CYS A   1     -10.096  15.649  66.077  1.00  0.00    -0.361 SA 
BRANCH  10  11
ATOM     11  CB  CYS A   1      -9.786  13.880  65.736  1.00  0.00    -0.239 C  
BRANCH  11  12
ATOM     12  CA  CYS A   1     -10.906  13.263  64.886  1.00  0.00    -0.345 C  
ATOM     13  N   CYS A   1     -11.480  14.222  63.886  1.00  0.00    -0.549 NA 
ATOM     14  C   CYS A   1     -12.024  12.849  65.843  1.00  0.00    -0.448 C  
ATOM     15  H2  CYS A   1     -10.746  14.613  63.294  1.00  0.00     0.000 HD 
ATOM     16  H1  CYS A   1     -12.224  13.811  63.321  1.00  0.00     0.000 HD 
ATOM     17  OXT CYS A   1     -11.995  11.877  66.579  1.00  0.00    -0.588 OA 
ATOM     18  O   CYS A   1     -13.054  13.737  65.816  1.00  0.00    -0.493 OA 
ENDBRANCH  11  12
ENDBRANCH  10  11
ENDBRANCH   9  10
ENDBRANCH   8   9
ENDBRANCH   3   8
TORSDOF 5
ENDMDL
MODEL      199
REMARK 921   NORMALIZED FREE ENERGY PREDICTED BY IDOCK:   -2.91 KCAL/MOL
REMARK 922        TOTAL FREE ENERGY PREDICTED BY IDOCK:   -4.38 KCAL/MOL
REMARK 923 INTER-LIGAND FREE ENERGY PREDICTED BY IDOCK:   -3.77 KCAL/MOL
REMARK 924 INTRA-LIGAND FREE ENERGY PREDICTED BY IDOCK:   -0.61 KCAL/MOL
REMARK 927      BINDING AFFINITY PREDICTED BY RF-SCORE:    0.00 PKD
ROOT
ATOM      1  N   CYS A   1     -11.698   7.033  69.710  1.00  0.00    -0.580 NA 
ATOM      2  H2  CYS A   1     -11.163   7.120  68.846  1.00  0.00     0.000 HD 
ATOM      3  CA  CYS A   1     -10.831   7.333  70.894  1.00  0.00    -0.243 C  
ATOM      4  H1  CYS A   1     -12.166   6.127  69.749  1.00  0.00     0.000 HD 
ATOM      5  O   CYS A   1     -12.814   6.498  71.930  1.00  0.00    -0.301 OA 
ATOM      6  C   CYS A   1     -11.711   7.259  72.152  1.00  0.00    -0.285 C  
ATOM      7  OXT CYS A   1     -11.463   7.789  73.223  1.00  0.00    -0.295 OA 
ENDROOT
BRANCH   3   8
ATOM      8  CB  CYS A   1     -10.126   8.696  70.838  1.00  0.00    -0.211 C  
BRANCH   8   9
ATOM      9  SG  CYS A   1     -11.259  10.006  70.245  1.00  0.00    -0.332 SA 
BRANCH   9  10
ATOM     10  SG  CYS A   1     -10.126  10.919  68.789  1.00  0.00    -0.198 SA 
BRANCH  10  11
ATOM     11  CB  CYS A   1      -9.240   9.496  68.059  1.00  0.00    -0.129 C  
BRANCH  11  12
ATOM     12  CA  CYS A   1      -9.931   8.993  66.783  1.00  0.00    -0.263 C  
ATOM     13  N   CYS A   1     -10.794   7.790  67.018  1.00  0.00    -0.471 NA 
ATOM     14  C   CYS A   1      -8.828   8.602  65.798  1.00  0.00    -0.193 C  
ATOM     15  H2  CYS A   1     -11.477   7.970  67.755  1.00  0.00     0.000 HD 
ATOM     16  H1  CYS A   1     -11.253   7.456  66.170  1.00  0.00     0.000 HD 
ATOM     17  OXT CYS A   1      -8.142   9.386  65.163  1.00  0.00    -0.117 OA 
ATOM     18  O   CYS A   1      -8.664   7.253  65.748  1.00  0.00    -0.154 OA 
ENDBRANCH  11  12
ENDBRANCH  10  11
ENDBRANCH   9  10
ENDBRANCH   8   9
ENDBRANCH   3   8
TORSDOF 5
ENDMDL
MODEL      200
REMARK 921   NORMALIZED FREE ENERGY PREDICTED BY IDOCK:   -2.91 KCAL/MOL
REMARK 922        TOTAL FREE ENERGY PREDICTED BY IDOCK:   -4.38 KCAL/MOL
REMARK 923 INTER-LIGAND FREE ENERGY PREDICTED BY IDOCK:   -4.16 KCAL/MOL
REMARK 924 INTRA-LIGAND FREE ENERGY PREDICTED BY IDOCK:   -0.22 KCAL/MOL
REMARK 927      BINDING AFFINITY PREDICTED BY RF-SCORE:    0.00 PKD
ROOT
ATOM      1  N   CYS A   1     -10.269  15.450  65.940  1.00  0.00    -0.317 NA 
ATOM      2  H2  CYS A   1      -9.477  15.411  66.583  1.00  0.00     0.000 HD 
ATOM      3  CA  CYS A   1     -11.000  14.143  65.933  1.00  0.00    -0.297 C  
ATOM      4  H1  CYS A   1      -9.964  15.768  65.020  1.00  0.00     0.000 HD 
ATOM      5  O   CYS A   1     -12.034  15.299  64.118  1.00  0.00    -0.485 OA 
ATOM      6  C   CYS A   1     -12.219  14.292  65.009  1.00  0.00    -0.433 C  
ATOM      7  OXT CYS A   1     -13.221  13.596  65.040  1.00  0.00    -0.729 OA 
ENDROOT
BRANCH   3   8
ATOM      8  CB  CYS A   1     -11.459  13.664  67.318  1.00  0.00    -0.343 C  
BRANCH   8   9
ATOM      9  SG  CYS A   1     -11.363  11.842  67.458  1.00  0.00    -0.310 SA 
BRANCH   9  10
ATOM     10  SG  CYS A   1     -10.089  11.365  65.912  1.00  0.00    -0.254 SA 
BRANCH  10  11
ATOM     11  CB  CYS A   1      -9.129   9.986  66.632  1.00  0.00    -0.147 C  
BRANCH  11  12
ATOM     12  CA  CYS A   1      -9.031   8.798  65.664  1.00  0.00    -0.200 C  
ATOM     13  N   CYS A   1      -9.888   7.638  66.070  1.00  0.00    -0.422 NA 
ATOM     14  C   CYS A   1      -7.573   8.335  65.665  1.00  0.00    -0.083 C  
ATOM     15  H2  CYS A   1     -10.859   7.928  66.193  1.00  0.00     0.000 HD 
ATOM     16  H1  CYS A   1      -9.822   6.849  65.426  1.00  0.00     0.000 HD 
ATOM     17  OXT CYS A   1      -6.651   8.912  65.111  1.00  0.00    -0.064 OA 
ATOM     18  O   CYS A   1      -7.411   7.210  66.412  1.00  0.00    -0.076 OA 
ENDBRANCH  11  12
ENDBRANCH  10  11
ENDBRANCH   9  10
ENDBRANCH   8   9
ENDBRANCH   3   8
TORSDOF 5
ENDMDL
MODEL      201
REMARK 921   NORMALIZED FREE ENERGY PREDICTED BY IDOCK:   -2.91 KCAL/MOL
REMARK 922        TOTAL FREE ENERGY PREDICTED BY IDOCK:   -4.37 KCAL/MOL
REMARK 923 INTER-LIGAND FREE ENERGY PREDICTED BY IDOCK:   -4.18 KCAL/MOL
REMARK 924 INTRA-LIGAND FREE ENERGY PREDICTED BY IDOCK:   -0.19 KCAL/MOL
REMARK 927      BINDING AFFINITY PREDICTED BY RF-SCORE:    0.00 PKD
ROOT
ATOM      1  N   CYS A   1      -8.939  10.807  69.623  1.00  0.00    -0.368 NA 
ATOM      2  H2  CYS A   1      -8.328  10.111  70.052  1.00  0.00     0.000 HD 
ATOM      3  CA  CYS A   1     -10.045  10.135  68.868  1.00  0.00    -0.200 C  
ATOM      4  H1  CYS A   1      -8.392  11.468  69.071  1.00  0.00     0.000 HD 
ATOM      5  O   CYS A   1     -10.312  12.416  68.214  1.00  0.00    -0.215 OA 
ATOM      6  C   CYS A   1     -10.968  11.231  68.313  1.00  0.00    -0.224 C  
ATOM      7  OXT CYS A   1     -12.132  11.076  67.981  1.00  0.00    -0.615 OA 
ENDROOT
BRANCH   3   8
ATOM      8  CB  CYS A   1     -10.868   9.140  69.699  1.00  0.00    -0.197 C  
BRANCH   8   9
ATOM      9  SG  CYS A   1     -11.646   9.959  71.139  1.00  0.00    -0.384 SA 
BRANCH   9  10
ATOM     10  SG  CYS A   1     -12.975   8.522  71.778  1.00  0.00    -0.364 SA 
BRANCH  10  11
ATOM     11  CB  CYS A   1     -12.100   6.981  71.329  1.00  0.00    -0.361 C  
BRANCH  11  12
ATOM     12  CA  CYS A   1     -11.480   6.303  72.559  1.00  0.00    -0.261 C  
ATOM     13  N   CYS A   1     -10.936   7.282  73.557  1.00  0.00    -0.555 NA 
ATOM     14  C   CYS A   1     -10.321   5.438  72.062  1.00  0.00    -0.213 C  
ATOM     15  H2  CYS A   1     -11.652   7.955  73.833  1.00  0.00     0.000 HD 
ATOM     16  H1  CYS A   1     -10.524   6.831  74.374  1.00  0.00     0.000 HD 
ATOM     17  OXT CYS A   1     -10.438   4.369  71.485  1.00  0.00    -0.085 OA 
ATOM     18  O   CYS A   1      -9.121   6.034  72.296  1.00  0.00    -0.142 OA 
ENDBRANCH  11  12
ENDBRANCH  10  11
ENDBRANCH   9  10
ENDBRANCH   8   9
ENDBRANCH   3   8
TORSDOF 5
ENDMDL
MODEL      202
REMARK 921   NORMALIZED FREE ENERGY PREDICTED BY IDOCK:   -2.89 KCAL/MOL
REMARK 922        TOTAL FREE ENERGY PREDICTED BY IDOCK:   -4.35 KCAL/MOL
REMARK 923 INTER-LIGAND FREE ENERGY PREDICTED BY IDOCK:   -4.14 KCAL/MOL
REMARK 924 INTRA-LIGAND FREE ENERGY PREDICTED BY IDOCK:   -0.21 KCAL/MOL
REMARK 927      BINDING AFFINITY PREDICTED BY RF-SCORE:    0.00 PKD
ROOT
ATOM      1  N   CYS A   1     -10.073  10.137  64.368  1.00  0.00    -0.418 NA 
ATOM      2  H2  CYS A   1      -9.903   9.290  64.911  1.00  0.00     0.000 HD 
ATOM      3  CA  CYS A   1     -10.226  11.318  65.276  1.00  0.00    -0.274 C  
ATOM      4  H1  CYS A   1     -10.852   9.996  63.724  1.00  0.00     0.000 HD 
ATOM      5  O   CYS A   1     -10.857  12.232  63.162  1.00  0.00    -0.377 OA 
ATOM      6  C   CYS A   1     -10.402  12.567  64.397  1.00  0.00    -0.352 C  
ATOM      7  OXT CYS A   1     -10.187  13.716  64.746  1.00  0.00    -0.392 OA 
ENDROOT
BRANCH   3   8
ATOM      8  CB  CYS A   1      -9.054  11.532  66.245  1.00  0.00    -0.208 C  
BRANCH   8   9
ATOM      9  SG  CYS A   1      -9.619  11.511  67.986  1.00  0.00    -0.186 SA 
BRANCH   9  10
ATOM     10  SG  CYS A   1     -10.887   9.890  68.001  1.00  0.00    -0.211 SA 
BRANCH  10  11
ATOM     11  CB  CYS A   1     -10.658   9.254  69.700  1.00  0.00    -0.229 C  
BRANCH  11  12
ATOM     12  CA  CYS A   1     -11.973   9.271  70.493  1.00  0.00    -0.066 C  
ATOM     13  N   CYS A   1     -12.100  10.463  71.393  1.00  0.00    -0.355 NA 
ATOM     14  C   CYS A   1     -11.991   8.014  71.363  1.00  0.00    -0.298 C  
ATOM     15  H2  CYS A   1     -11.980  11.330  70.869  1.00  0.00     0.000 HD 
ATOM     16  H1  CYS A   1     -12.973  10.473  71.920  1.00  0.00     0.000 HD 
ATOM     17  OXT CYS A   1     -12.204   6.882  70.960  1.00  0.00    -0.373 OA 
ATOM     18  O   CYS A   1     -11.685   8.302  72.657  1.00  0.00    -0.403 OA 
ENDBRANCH  11  12
ENDBRANCH  10  11
ENDBRANCH   9  10
ENDBRANCH   8   9
ENDBRANCH   3   8
TORSDOF 5
ENDMDL
MODEL      203
REMARK 921   NORMALIZED FREE ENERGY PREDICTED BY IDOCK:   -2.89 KCAL/MOL
REMARK 922        TOTAL FREE ENERGY PREDICTED BY IDOCK:   -4.35 KCAL/MOL
REMARK 923 INTER-LIGAND FREE ENERGY PREDICTED BY IDOCK:   -4.03 KCAL/MOL
REMARK 924 INTRA-LIGAND FREE ENERGY PREDICTED BY IDOCK:   -0.32 KCAL/MOL
REMARK 927      BINDING AFFINITY PREDICTED BY RF-SCORE:    0.00 PKD
ROOT
ATOM      1  N   CYS A   1      -9.758  14.620  66.437  1.00  0.00    -0.281 NA 
ATOM      2  H2  CYS A   1      -8.803  14.798  66.124  1.00  0.00     0.000 HD 
ATOM      3  CA  CYS A   1     -10.244  13.306  65.907  1.00  0.00    -0.293 C  
ATOM      4  H1  CYS A   1     -10.359  15.414  66.213  1.00  0.00     0.000 HD 
ATOM      5  O   CYS A   1     -12.237  14.232  66.842  1.00  0.00    -0.438 OA 
ATOM      6  C   CYS A   1     -11.652  13.063  66.473  1.00  0.00    -0.356 C  
ATOM      7  OXT CYS A   1     -12.200  11.977  66.571  1.00  0.00    -0.548 OA 
ENDROOT
BRANCH   3   8
ATOM      8  CB  CYS A   1      -9.341  12.111  66.244  1.00  0.00    -0.218 C  
BRANCH   8   9
ATOM      9  SG  CYS A   1      -8.830  12.138  68.001  1.00  0.00    -0.186 SA 
BRANCH   9  10
ATOM     10  SG  CYS A   1      -9.413  10.270  68.641  1.00  0.00    -0.177 SA 
BRANCH  10  11
ATOM     11  CB  CYS A   1      -9.801   9.439  67.059  1.00  0.00    -0.201 C  
BRANCH  11  12
ATOM     12  CA  CYS A   1      -9.366   7.967  67.071  1.00  0.00    -0.160 C  
ATOM     13  N   CYS A   1      -9.109   7.419  65.700  1.00  0.00    -0.387 NA 
ATOM     14  C   CYS A   1     -10.508   7.164  67.697  1.00  0.00    -0.239 C  
ATOM     15  H2  CYS A   1      -8.431   7.995  65.199  1.00  0.00     0.000 HD 
ATOM     16  H1  CYS A   1      -8.820   6.441  65.709  1.00  0.00     0.000 HD 
ATOM     17  OXT CYS A   1     -10.777   7.134  68.887  1.00  0.00    -0.211 OA 
ATOM     18  O   CYS A   1     -11.235   6.515  66.748  1.00  0.00    -0.334 OA 
ENDBRANCH  11  12
ENDBRANCH  10  11
ENDBRANCH   9  10
ENDBRANCH   8   9
ENDBRANCH   3   8
TORSDOF 5
ENDMDL
MODEL      204
REMARK 921   NORMALIZED FREE ENERGY PREDICTED BY IDOCK:   -2.89 KCAL/MOL
REMARK 922        TOTAL FREE ENERGY PREDICTED BY IDOCK:   -4.35 KCAL/MOL
REMARK 923 INTER-LIGAND FREE ENERGY PREDICTED BY IDOCK:   -4.07 KCAL/MOL
REMARK 924 INTRA-LIGAND FREE ENERGY PREDICTED BY IDOCK:   -0.28 KCAL/MOL
REMARK 927      BINDING AFFINITY PREDICTED BY RF-SCORE:    0.00 PKD
ROOT
ATOM      1  N   CYS A   1     -13.856  12.448  72.700  1.00  0.00    -0.512 NA 
ATOM      2  H2  CYS A   1     -13.966  11.682  73.365  1.00  0.00     0.000 HD 
ATOM      3  CA  CYS A   1     -12.692  12.190  71.794  1.00  0.00    -0.160 C  
ATOM      4  H1  CYS A   1     -13.819  13.342  73.191  1.00  0.00     0.000 HD 
ATOM      5  O   CYS A   1     -13.258  14.443  71.244  1.00  0.00    -0.331 OA 
ATOM      6  C   CYS A   1     -12.628  13.336  70.773  1.00  0.00    -0.280 C  
ATOM      7  OXT CYS A   1     -12.073  13.288  69.687  1.00  0.00    -0.306 OA 
ENDROOT
BRANCH   3   8
ATOM      8  CB  CYS A   1     -12.747  10.845  71.055  1.00  0.00    -0.407 C  
BRANCH   8   9
ATOM      9  SG  CYS A   1     -13.456   9.532  72.116  1.00  0.00    -0.421 SA 
BRANCH   9  10
ATOM     10  SG  CYS A   1     -12.070   8.024  71.907  1.00  0.00    -0.335 SA 
BRANCH  10  11
ATOM     11  CB  CYS A   1     -10.670   8.910  71.134  1.00  0.00    -0.263 C  
BRANCH  11  12
ATOM     12  CA  CYS A   1     -10.176   8.193  69.869  1.00  0.00    -0.204 C  
ATOM     13  N   CYS A   1     -11.164   7.203  69.331  1.00  0.00    -0.469 NA 
ATOM     14  C   CYS A   1      -8.903   7.435  70.249  1.00  0.00    -0.147 C  
ATOM     15  H2  CYS A   1     -12.070   7.645  69.169  1.00  0.00     0.000 HD 
ATOM     16  H1  CYS A   1     -10.835   6.727  68.491  1.00  0.00     0.000 HD 
ATOM     17  OXT CYS A   1      -7.809   7.944  70.434  1.00  0.00    -0.086 OA 
ATOM     18  O   CYS A   1      -9.146   6.106  70.410  1.00  0.00    -0.151 OA 
ENDBRANCH  11  12
ENDBRANCH  10  11
ENDBRANCH   9  10
ENDBRANCH   8   9
ENDBRANCH   3   8
TORSDOF 5
ENDMDL
MODEL      205
REMARK 921   NORMALIZED FREE ENERGY PREDICTED BY IDOCK:   -2.88 KCAL/MOL
REMARK 922        TOTAL FREE ENERGY PREDICTED BY IDOCK:   -4.33 KCAL/MOL
REMARK 923 INTER-LIGAND FREE ENERGY PREDICTED BY IDOCK:   -4.35 KCAL/MOL
REMARK 924 INTRA-LIGAND FREE ENERGY PREDICTED BY IDOCK:    0.02 KCAL/MOL
REMARK 927      BINDING AFFINITY PREDICTED BY RF-SCORE:    0.00 PKD
ROOT
ATOM      1  N   CYS A   1      -7.205  10.595  66.663  1.00  0.00    -0.121 NA 
ATOM      2  H2  CYS A   1      -7.139  11.394  66.032  1.00  0.00     0.000 HD 
ATOM      3  CA  CYS A   1      -7.734  11.024  67.997  1.00  0.00    -0.106 C  
ATOM      4  H1  CYS A   1      -6.314  10.099  66.702  1.00  0.00     0.000 HD 
ATOM      5  O   CYS A   1      -7.073   8.771  68.427  1.00  0.00    -0.074 OA 
ATOM      6  C   CYS A   1      -7.880   9.769  68.870  1.00  0.00    -0.087 C  
ATOM      7  OXT CYS A   1      -8.603   9.665  69.848  1.00  0.00    -0.168 OA 
ENDROOT
BRANCH   3   8
ATOM      8  CB  CYS A   1      -9.074  11.770  67.939  1.00  0.00    -0.181 C  
BRANCH   8   9
ATOM      9  SG  CYS A   1      -8.870  13.453  67.247  1.00  0.00    -0.227 SA 
BRANCH   9  10
ATOM     10  SG  CYS A   1     -10.528  14.421  67.989  1.00  0.00    -0.241 SA 
BRANCH  10  11
ATOM     11  CB  CYS A   1     -11.596  14.518  66.508  1.00  0.00    -0.371 C  
BRANCH  11  12
ATOM     12  CA  CYS A   1     -10.790  14.879  65.252  1.00  0.00    -0.386 C  
ATOM     13  N   CYS A   1      -9.904  16.073  65.445  1.00  0.00    -0.449 NA 
ATOM     14  C   CYS A   1     -11.797  15.209  64.149  1.00  0.00    -0.148 C  
ATOM     15  H2  CYS A   1      -9.288  15.942  66.248  1.00  0.00     0.000 HD 
ATOM     16  H1  CYS A   1      -9.369  16.312  64.611  1.00  0.00     0.000 HD 
ATOM     17  OXT CYS A   1     -12.461  14.390  63.535  1.00  0.00    -0.770 OA 
ATOM     18  O   CYS A   1     -11.907  16.552  63.964  1.00  0.00    -1.022 OA 
ENDBRANCH  11  12
ENDBRANCH  10  11
ENDBRANCH   9  10
ENDBRANCH   8   9
ENDBRANCH   3   8
TORSDOF 5
ENDMDL
MODEL      206
REMARK 921   NORMALIZED FREE ENERGY PREDICTED BY IDOCK:   -2.87 KCAL/MOL
REMARK 922        TOTAL FREE ENERGY PREDICTED BY IDOCK:   -4.32 KCAL/MOL
REMARK 923 INTER-LIGAND FREE ENERGY PREDICTED BY IDOCK:   -4.13 KCAL/MOL
REMARK 924 INTRA-LIGAND FREE ENERGY PREDICTED BY IDOCK:   -0.19 KCAL/MOL
REMARK 927      BINDING AFFINITY PREDICTED BY RF-SCORE:    0.00 PKD
ROOT
ATOM      1  N   CYS A   1     -11.061  16.770  64.687  1.00  0.00    -0.939 NA 
ATOM      2  H2  CYS A   1     -11.280  15.932  64.148  1.00  0.00     0.000 HD 
ATOM      3  CA  CYS A   1     -10.511  16.399  66.030  1.00  0.00    -0.323 C  
ATOM      4  H1  CYS A   1     -11.869  17.393  64.719  1.00  0.00     0.000 HD 
ATOM      5  O   CYS A   1     -10.818  18.756  66.254  1.00  0.00    -0.293 OA 
ATOM      6  C   CYS A   1     -10.133  17.698  66.758  1.00  0.00    -0.334 C  
ATOM      7  OXT CYS A   1      -9.340  17.788  67.681  1.00  0.00    -0.247 OA 
ENDROOT
BRANCH   3   8
ATOM      8  CB  CYS A   1      -9.296  15.462  65.983  1.00  0.00    -0.329 C  
BRANCH   8   9
ATOM      9  SG  CYS A   1      -9.338  14.249  67.354  1.00  0.00    -0.211 SA 
BRANCH   9  10
ATOM     10  SG  CYS A   1     -10.456  12.726  66.538  1.00  0.00    -0.266 SA 
BRANCH  10  11
ATOM     11  CB  CYS A   1      -9.350  12.119  65.215  1.00  0.00     0.125 C  
BRANCH  11  12
ATOM     12  CA  CYS A   1     -10.068  12.062  63.859  1.00  0.00    -0.369 C  
ATOM     13  N   CYS A   1     -11.447  11.481  63.950  1.00  0.00    -0.438 NA 
ATOM     14  C   CYS A   1      -9.234  11.164  62.945  1.00  0.00    -0.340 C  
ATOM     15  H2  CYS A   1     -12.009  11.983  64.638  1.00  0.00     0.000 HD 
ATOM     16  H1  CYS A   1     -11.924  11.443  63.049  1.00  0.00     0.000 HD 
ATOM     17  OXT CYS A   1      -8.181  11.482  62.416  1.00  0.00    -0.202 OA 
ATOM     18  O   CYS A   1      -9.787   9.926  62.827  1.00  0.00     0.040 OA 
ENDBRANCH  11  12
ENDBRANCH  10  11
ENDBRANCH   9  10
ENDBRANCH   8   9
ENDBRANCH   3   8
TORSDOF 5
ENDMDL
MODEL      207
REMARK 921   NORMALIZED FREE ENERGY PREDICTED BY IDOCK:   -2.86 KCAL/MOL
REMARK 922        TOTAL FREE ENERGY PREDICTED BY IDOCK:   -4.31 KCAL/MOL
REMARK 923 INTER-LIGAND FREE ENERGY PREDICTED BY IDOCK:   -4.11 KCAL/MOL
REMARK 924 INTRA-LIGAND FREE ENERGY PREDICTED BY IDOCK:   -0.20 KCAL/MOL
REMARK 927      BINDING AFFINITY PREDICTED BY RF-SCORE:    0.00 PKD
ROOT
ATOM      1  N   CYS A   1      -7.864   9.063  66.293  1.00  0.00    -0.098 NA 
ATOM      2  H2  CYS A   1      -8.795   8.935  66.692  1.00  0.00     0.000 HD 
ATOM      3  CA  CYS A   1      -7.910   8.912  64.803  1.00  0.00    -0.121 C  
ATOM      4  H1  CYS A   1      -7.192   8.453  66.758  1.00  0.00     0.000 HD 
ATOM      5  O   CYS A   1      -5.561   8.997  65.222  1.00  0.00    -0.045 OA 
ATOM      6  C   CYS A   1      -6.500   9.190  64.260  1.00  0.00    -0.083 C  
ATOM      7  OXT CYS A   1      -6.233   9.521  63.116  1.00  0.00    -0.097 OA 
ENDROOT
BRANCH   3   8
ATOM      8  CB  CYS A   1      -8.922   9.830  64.102  1.00  0.00    -0.239 C  
BRANCH   8   9
ATOM      9  SG  CYS A   1     -10.021  10.654  65.311  1.00  0.00    -0.310 SA 
BRANCH   9  10
ATOM     10  SG  CYS A   1     -11.090  11.936  64.107  1.00  0.00    -0.402 SA 
BRANCH  10  11
ATOM     11  CB  CYS A   1     -10.369  13.556  64.554  1.00  0.00    -0.358 C  
BRANCH  11  12
ATOM     12  CA  CYS A   1     -11.455  14.576  64.924  1.00  0.00    -0.396 C  
ATOM     13  N   CYS A   1     -11.111  15.975  64.509  1.00  0.00    -0.891 NA 
ATOM     14  C   CYS A   1     -11.597  14.553  66.446  1.00  0.00    -0.364 C  
ATOM     15  H2  CYS A   1     -10.896  16.017  63.512  1.00  0.00     0.000 HD 
ATOM     16  H1  CYS A   1     -11.833  16.653  64.754  1.00  0.00     0.000 HD 
ATOM     17  OXT CYS A   1     -12.150  13.676  67.088  1.00  0.00    -0.389 OA 
ATOM     18  O   CYS A   1     -10.978  15.621  67.018  1.00  0.00    -0.322 OA 
ENDBRANCH  11  12
ENDBRANCH  10  11
ENDBRANCH   9  10
ENDBRANCH   8   9
ENDBRANCH   3   8
TORSDOF 5
ENDMDL
MODEL      208
REMARK 921   NORMALIZED FREE ENERGY PREDICTED BY IDOCK:   -2.86 KCAL/MOL
REMARK 922        TOTAL FREE ENERGY PREDICTED BY IDOCK:   -4.31 KCAL/MOL
REMARK 923 INTER-LIGAND FREE ENERGY PREDICTED BY IDOCK:   -4.15 KCAL/MOL
REMARK 924 INTRA-LIGAND FREE ENERGY PREDICTED BY IDOCK:   -0.16 KCAL/MOL
REMARK 927      BINDING AFFINITY PREDICTED BY RF-SCORE:    0.00 PKD
ROOT
ATOM      1  N   CYS A   1     -13.270  15.636  70.762  1.00  0.00    -0.728 NA 
ATOM      2  H2  CYS A   1     -14.048  15.289  71.323  1.00  0.00     0.000 HD 
ATOM      3  CA  CYS A   1     -12.082  14.733  70.901  1.00  0.00    -0.324 C  
ATOM      4  H1  CYS A   1     -13.083  16.615  70.981  1.00  0.00     0.000 HD 
ATOM      5  O   CYS A   1     -11.161  16.584  69.707  1.00  0.00    -0.337 OA 
ATOM      6  C   CYS A   1     -10.976  15.266  69.977  1.00  0.00    -0.288 C  
ATOM      7  OXT CYS A   1     -10.037  14.616  69.548  1.00  0.00    -0.116 OA 
ENDROOT
BRANCH   3   8
ATOM      8  CB  CYS A   1     -12.363  13.259  70.572  1.00  0.00    -0.316 C  
BRANCH   8   9
ATOM      9  SG  CYS A   1     -13.180  12.409  71.972  1.00  0.00    -0.277 SA 
BRANCH   9  10
ATOM     10  SG  CYS A   1     -13.326  10.480  71.270  1.00  0.00    -0.090 SA 
BRANCH  10  11
ATOM     11  CB  CYS A   1     -11.580   9.939  71.302  1.00  0.00    -0.379 C  
BRANCH  11  12
ATOM     12  CA  CYS A   1     -10.939  10.011  69.909  1.00  0.00    -0.293 C  
ATOM     13  N   CYS A   1     -11.920  10.352  68.828  1.00  0.00    -0.715 NA 
ATOM     14  C   CYS A   1     -10.359   8.628  69.606  1.00  0.00    -0.213 C  
ATOM     15  H2  CYS A   1     -12.416  11.216  69.046  1.00  0.00     0.000 HD 
ATOM     16  H1  CYS A   1     -11.494  10.400  67.903  1.00  0.00     0.000 HD 
ATOM     17  OXT CYS A   1      -9.339   8.171  70.094  1.00  0.00    -0.158 OA 
ATOM     18  O   CYS A   1     -11.157   7.933  68.752  1.00  0.00     0.086 OA 
ENDBRANCH  11  12
ENDBRANCH  10  11
ENDBRANCH   9  10
ENDBRANCH   8   9
ENDBRANCH   3   8
TORSDOF 5
ENDMDL
MODEL      209
REMARK 921   NORMALIZED FREE ENERGY PREDICTED BY IDOCK:   -2.84 KCAL/MOL
REMARK 922        TOTAL FREE ENERGY PREDICTED BY IDOCK:   -4.29 KCAL/MOL
REMARK 923 INTER-LIGAND FREE ENERGY PREDICTED BY IDOCK:   -4.04 KCAL/MOL
REMARK 924 INTRA-LIGAND FREE ENERGY PREDICTED BY IDOCK:   -0.25 KCAL/MOL
REMARK 927      BINDING AFFINITY PREDICTED BY RF-SCORE:    0.00 PKD
ROOT
ATOM      1  N   CYS A   1     -12.282  12.571  70.599  1.00  0.00    -0.437 NA 
ATOM      2  H2  CYS A   1     -12.117  13.275  69.880  1.00  0.00     0.000 HD 
ATOM      3  CA  CYS A   1     -12.062  11.197  70.046  1.00  0.00    -0.359 C  
ATOM      4  H1  CYS A   1     -13.197  12.712  71.029  1.00  0.00     0.000 HD 
ATOM      5  O   CYS A   1     -13.013  10.725  72.185  1.00  0.00    -0.424 OA 
ATOM      6  C   CYS A   1     -12.252  10.193  71.194  1.00  0.00    -0.389 C  
ATOM      7  OXT CYS A   1     -11.806   9.058  71.224  1.00  0.00    -0.282 OA 
ENDROOT
BRANCH   3   8
ATOM      8  CB  CYS A   1     -10.686  10.985  69.399  1.00  0.00    -0.205 C  
BRANCH   8   9
ATOM      9  SG  CYS A   1     -10.815   9.977  67.877  1.00  0.00    -0.247 SA 
BRANCH   9  10
ATOM     10  SG  CYS A   1     -10.054  11.257  66.455  1.00  0.00    -0.225 SA 
BRANCH  10  11
ATOM     11  CB  CYS A   1      -9.058  12.399  67.478  1.00  0.00    -0.185 C  
BRANCH  11  12
ATOM     12  CA  CYS A   1      -9.440  13.865  67.225  1.00  0.00    -0.239 C  
ATOM     13  N   CYS A   1      -9.316  14.264  65.785  1.00  0.00    -0.525 NA 
ATOM     14  C   CYS A   1      -8.479  14.729  68.043  1.00  0.00    -0.151 C  
ATOM     15  H2  CYS A   1      -9.855  13.638  65.187  1.00  0.00     0.000 HD 
ATOM     16  H1  CYS A   1      -9.569  15.238  65.618  1.00  0.00     0.000 HD 
ATOM     17  OXT CYS A   1      -8.528  14.885  69.252  1.00  0.00    -0.179 OA 
ATOM     18  O   CYS A   1      -7.512  15.274  67.256  1.00  0.00    -0.191 OA 
ENDBRANCH  11  12
ENDBRANCH  10  11
ENDBRANCH   9  10
ENDBRANCH   8   9
ENDBRANCH   3   8
TORSDOF 5
ENDMDL
MODEL      210
REMARK 921   NORMALIZED FREE ENERGY PREDICTED BY IDOCK:   -2.83 KCAL/MOL
REMARK 922        TOTAL FREE ENERGY PREDICTED BY IDOCK:   -4.28 KCAL/MOL
REMARK 923 INTER-LIGAND FREE ENERGY PREDICTED BY IDOCK:   -3.94 KCAL/MOL
REMARK 924 INTRA-LIGAND FREE ENERGY PREDICTED BY IDOCK:   -0.34 KCAL/MOL
REMARK 927      BINDING AFFINITY PREDICTED BY RF-SCORE:    0.00 PKD
ROOT
ATOM      1  N   CYS A   1      -8.539  11.717  66.018  1.00  0.00    -0.374 NA 
ATOM      2  H2  CYS A   1      -8.425  12.195  65.124  1.00  0.00     0.000 HD 
ATOM      3  CA  CYS A   1      -9.469  12.485  66.907  1.00  0.00    -0.219 C  
ATOM      4  H1  CYS A   1      -7.629  11.517  66.433  1.00  0.00     0.000 HD 
ATOM      5  O   CYS A   1      -8.620  10.823  68.396  1.00  0.00    -0.128 OA 
ATOM      6  C   CYS A   1      -9.658  11.677  68.200  1.00  0.00    -0.190 C  
ATOM      7  OXT CYS A   1     -10.596  11.785  68.973  1.00  0.00    -0.204 OA 
ENDROOT
BRANCH   3   8
ATOM      8  CB  CYS A   1     -10.840  12.786  66.283  1.00  0.00    -0.275 C  
BRANCH   8   9
ATOM      9  SG  CYS A   1     -10.664  13.593  64.649  1.00  0.00    -0.413 SA 
BRANCH   9  10
ATOM     10  SG  CYS A   1     -11.055  15.562  65.104  1.00  0.00    -0.347 SA 
BRANCH  10  11
ATOM     11  CB  CYS A   1      -9.536  16.046  65.999  1.00  0.00    -0.350 C  
BRANCH  11  12
ATOM     12  CA  CYS A   1      -9.784  16.167  67.510  1.00  0.00    -0.233 C  
ATOM     13  N   CYS A   1     -11.217  15.944  67.890  1.00  0.00    -0.329 NA 
ATOM     14  C   CYS A   1      -9.401  17.591  67.917  1.00  0.00    -0.265 C  
ATOM     15  H2  CYS A   1     -11.551  15.046  67.537  1.00  0.00     0.000 HD 
ATOM     16  H1  CYS A   1     -11.380  16.024  68.894  1.00  0.00     0.000 HD 
ATOM     17  OXT CYS A   1      -8.260  18.007  68.032  1.00  0.00    -0.245 OA 
ATOM     18  O   CYS A   1     -10.503  18.370  68.090  1.00  0.00    -0.370 OA 
ENDBRANCH  11  12
ENDBRANCH  10  11
ENDBRANCH   9  10
ENDBRANCH   8   9
ENDBRANCH   3   8
TORSDOF 5
ENDMDL
MODEL      211
REMARK 921   NORMALIZED FREE ENERGY PREDICTED BY IDOCK:   -2.83 KCAL/MOL
REMARK 922        TOTAL FREE ENERGY PREDICTED BY IDOCK:   -4.27 KCAL/MOL
REMARK 923 INTER-LIGAND FREE ENERGY PREDICTED BY IDOCK:   -4.00 KCAL/MOL
REMARK 924 INTRA-LIGAND FREE ENERGY PREDICTED BY IDOCK:   -0.27 KCAL/MOL
REMARK 927      BINDING AFFINITY PREDICTED BY RF-SCORE:    0.00 PKD
ROOT
ATOM      1  N   CYS A   1     -10.547   8.719  71.564  1.00  0.00    -0.281 NA 
ATOM      2  H2  CYS A   1      -9.995   9.573  71.643  1.00  0.00     0.000 HD 
ATOM      3  CA  CYS A   1     -10.611   8.268  70.137  1.00  0.00    -0.233 C  
ATOM      4  H1  CYS A   1     -11.457   8.842  72.009  1.00  0.00     0.000 HD 
ATOM      5  O   CYS A   1     -12.188   6.815  71.187  1.00  0.00    -0.368 OA 
ATOM      6  C   CYS A   1     -11.389   6.943  70.097  1.00  0.00    -0.314 C  
ATOM      7  OXT CYS A   1     -11.327   6.112  69.206  1.00  0.00    -0.416 OA 
ENDROOT
BRANCH   3   8
ATOM      8  CB  CYS A   1      -9.242   8.083  69.467  1.00  0.00    -0.152 C  
BRANCH   8   9
ATOM      9  SG  CYS A   1      -8.650   9.646  68.721  1.00  0.00    -0.129 SA 
BRANCH   9  10
ATOM     10  SG  CYS A   1     -10.324  10.297  67.716  1.00  0.00    -0.221 SA 
BRANCH  10  11
ATOM     11  CB  CYS A   1      -9.849  10.006  65.974  1.00  0.00    -0.257 C  
BRANCH  11  12
ATOM     12  CA  CYS A   1      -9.477  11.315  65.263  1.00  0.00    -0.221 C  
ATOM     13  N   CYS A   1      -8.952  12.363  66.198  1.00  0.00    -0.423 NA 
ATOM     14  C   CYS A   1     -10.753  11.854  64.614  1.00  0.00    -0.307 C  
ATOM     15  H2  CYS A   1      -8.164  12.005  66.739  1.00  0.00     0.000 HD 
ATOM     16  H1  CYS A   1      -8.705  13.232  65.725  1.00  0.00     0.000 HD 
ATOM     17  OXT CYS A   1     -11.271  11.408  63.604  1.00  0.00    -0.402 OA 
ATOM     18  O   CYS A   1     -11.282  12.878  65.337  1.00  0.00    -0.277 OA 
ENDBRANCH  11  12
ENDBRANCH  10  11
ENDBRANCH   9  10
ENDBRANCH   8   9
ENDBRANCH   3   8
TORSDOF 5
ENDMDL
MODEL      212
REMARK 921   NORMALIZED FREE ENERGY PREDICTED BY IDOCK:   -2.82 KCAL/MOL
REMARK 922        TOTAL FREE ENERGY PREDICTED BY IDOCK:   -4.26 KCAL/MOL
REMARK 923 INTER-LIGAND FREE ENERGY PREDICTED BY IDOCK:   -3.99 KCAL/MOL
REMARK 924 INTRA-LIGAND FREE ENERGY PREDICTED BY IDOCK:   -0.27 KCAL/MOL
REMARK 927      BINDING AFFINITY PREDICTED BY RF-SCORE:    0.00 PKD
ROOT
ATOM      1  N   CYS A   1     -11.138   7.610  69.415  1.00  0.00    -0.450 NA 
ATOM      2  H2  CYS A   1     -11.187   7.599  68.396  1.00  0.00     0.000 HD 
ATOM      3  CA  CYS A   1      -9.835   8.193  69.870  1.00  0.00    -0.186 C  
ATOM      4  H1  CYS A   1     -11.340   6.683  69.790  1.00  0.00     0.000 HD 
ATOM      5  O   CYS A   1     -10.746   7.358  71.914  1.00  0.00    -0.212 OA 
ATOM      6  C   CYS A   1      -9.857   8.250  71.406  1.00  0.00    -0.184 C  
ATOM      7  OXT CYS A   1      -9.164   8.978  72.098  1.00  0.00    -0.365 OA 
ENDROOT
BRANCH   3   8
ATOM      8  CB  CYS A   1      -9.532   9.588  69.307  1.00  0.00    -0.169 C  
BRANCH   8   9
ATOM      9  SG  CYS A   1      -8.547   9.484  67.767  1.00  0.00    -0.115 SA 
BRANCH   9  10
ATOM     10  SG  CYS A   1      -9.994   9.724  66.322  1.00  0.00    -0.256 SA 
BRANCH  10  11
ATOM     11  CB  CYS A   1     -10.096  11.545  66.197  1.00  0.00    -0.229 C  
BRANCH  11  12
ATOM     12  CA  CYS A   1     -11.430  12.076  66.739  1.00  0.00    -0.345 C  
ATOM     13  N   CYS A   1     -12.393  12.461  65.656  1.00  0.00    -0.621 NA 
ATOM     14  C   CYS A   1     -11.117  13.326  67.563  1.00  0.00    -0.270 C  
ATOM     15  H2  CYS A   1     -12.545  11.685  65.012  1.00  0.00     0.000 HD 
ATOM     16  H1  CYS A   1     -13.279  12.814  66.018  1.00  0.00     0.000 HD 
ATOM     17  OXT CYS A   1     -10.619  13.328  68.677  1.00  0.00    -0.253 OA 
ATOM     18  O   CYS A   1     -11.416  14.461  66.875  1.00  0.00    -0.337 OA 
ENDBRANCH  11  12
ENDBRANCH  10  11
ENDBRANCH   9  10
ENDBRANCH   8   9
ENDBRANCH   3   8
TORSDOF 5
ENDMDL
MODEL      213
REMARK 921   NORMALIZED FREE ENERGY PREDICTED BY IDOCK:   -2.81 KCAL/MOL
REMARK 922        TOTAL FREE ENERGY PREDICTED BY IDOCK:   -4.25 KCAL/MOL
REMARK 923 INTER-LIGAND FREE ENERGY PREDICTED BY IDOCK:   -4.02 KCAL/MOL
REMARK 924 INTRA-LIGAND FREE ENERGY PREDICTED BY IDOCK:   -0.23 KCAL/MOL
REMARK 927      BINDING AFFINITY PREDICTED BY RF-SCORE:    0.00 PKD
ROOT
ATOM      1  N   CYS A   1      -9.072   6.744  65.398  1.00  0.00    -0.355 NA 
ATOM      2  H2  CYS A   1      -9.903   6.832  64.814  1.00  0.00     0.000 HD 
ATOM      3  CA  CYS A   1      -8.172   7.927  65.211  1.00  0.00    -0.145 C  
ATOM      4  H1  CYS A   1      -8.621   5.842  65.240  1.00  0.00     0.000 HD 
ATOM      5  O   CYS A   1      -6.807   6.469  66.519  1.00  0.00    -0.061 OA 
ATOM      6  C   CYS A   1      -6.983   7.770  66.170  1.00  0.00    -0.062 C  
ATOM      7  OXT CYS A   1      -6.265   8.675  66.564  1.00  0.00    -0.055 OA 
ENDROOT
BRANCH   3   8
ATOM      8  CB  CYS A   1      -8.850   9.284  65.448  1.00  0.00    -0.192 C  
BRANCH   8   9
ATOM      9  SG  CYS A   1     -10.357   9.105  66.471  1.00  0.00    -0.134 SA 
BRANCH   9  10
ATOM     10  SG  CYS A   1     -10.287  10.805  67.630  1.00  0.00    -0.215 SA 
BRANCH  10  11
ATOM     11  CB  CYS A   1     -11.514  11.874  66.798  1.00  0.00    -0.316 C  
BRANCH  11  12
ATOM     12  CA  CYS A   1     -11.144  12.123  65.329  1.00  0.00    -0.321 C  
ATOM     13  N   CYS A   1      -9.964  13.034  65.167  1.00  0.00    -0.488 NA 
ATOM     14  C   CYS A   1     -12.351  12.789  64.666  1.00  0.00    -0.459 C  
ATOM     15  H2  CYS A   1      -9.161  12.684  65.691  1.00  0.00     0.000 HD 
ATOM     16  H1  CYS A   1      -9.718  13.199  64.191  1.00  0.00     0.000 HD 
ATOM     17  OXT CYS A   1     -13.383  12.219  64.349  1.00  0.00    -0.786 OA 
ATOM     18  O   CYS A   1     -12.159  14.126  64.514  1.00  0.00    -0.430 OA 
ENDBRANCH  11  12
ENDBRANCH  10  11
ENDBRANCH   9  10
ENDBRANCH   8   9
ENDBRANCH   3   8
TORSDOF 5
ENDMDL
MODEL      214
REMARK 921   NORMALIZED FREE ENERGY PREDICTED BY IDOCK:   -2.81 KCAL/MOL
REMARK 922        TOTAL FREE ENERGY PREDICTED BY IDOCK:   -4.25 KCAL/MOL
REMARK 923 INTER-LIGAND FREE ENERGY PREDICTED BY IDOCK:   -3.55 KCAL/MOL
REMARK 924 INTRA-LIGAND FREE ENERGY PREDICTED BY IDOCK:   -0.70 KCAL/MOL
REMARK 927      BINDING AFFINITY PREDICTED BY RF-SCORE:    0.00 PKD
ROOT
ATOM      1  N   CYS A   1     -13.106  12.012  71.979  1.00  0.00    -0.427 NA 
ATOM      2  H2  CYS A   1     -13.431  11.682  72.888  1.00  0.00     0.000 HD 
ATOM      3  CA  CYS A   1     -12.526  10.879  71.189  1.00  0.00    -0.405 C  
ATOM      4  H1  CYS A   1     -12.481  12.811  72.093  1.00  0.00     0.000 HD 
ATOM      5  O   CYS A   1     -11.939  12.768  69.852  1.00  0.00    -0.321 OA 
ATOM      6  C   CYS A   1     -12.128  11.424  69.809  1.00  0.00    -0.320 C  
ATOM      7  OXT CYS A   1     -11.978  10.755  68.799  1.00  0.00    -0.414 OA 
ENDROOT
BRANCH   3   8
ATOM      8  CB  CYS A   1     -13.466   9.677  71.017  1.00  0.00    -0.163 C  
BRANCH   8   9
ATOM      9  SG  CYS A   1     -12.600   8.101  71.361  1.00  0.00    -0.245 SA 
BRANCH   9  10
ATOM     10  SG  CYS A   1     -10.764   8.761  72.016  1.00  0.00    -0.314 SA 
BRANCH  10  11
ATOM     11  CB  CYS A   1      -9.679   8.283  70.625  1.00  0.00    -0.171 C  
BRANCH  11  12
ATOM     12  CA  CYS A   1      -8.874   9.480  70.098  1.00  0.00    -0.235 C  
ATOM     13  N   CYS A   1      -9.017   9.679  68.619  1.00  0.00    -0.127 NA 
ATOM     14  C   CYS A   1      -7.401   9.201  70.399  1.00  0.00    -0.100 C  
ATOM     15  H2  CYS A   1     -10.000   9.757  68.356  1.00  0.00     0.000 HD 
ATOM     16  H1  CYS A   1      -8.483  10.474  68.269  1.00  0.00     0.000 HD 
ATOM     17  OXT CYS A   1      -6.879   9.286  71.499  1.00  0.00    -0.260 OA 
ATOM     18  O   CYS A   1      -6.736   8.790  69.286  1.00  0.00    -0.048 OA 
ENDBRANCH  11  12
ENDBRANCH  10  11
ENDBRANCH   9  10
ENDBRANCH   8   9
ENDBRANCH   3   8
TORSDOF 5
ENDMDL
MODEL      215
REMARK 921   NORMALIZED FREE ENERGY PREDICTED BY IDOCK:   -2.81 KCAL/MOL
REMARK 922        TOTAL FREE ENERGY PREDICTED BY IDOCK:   -4.25 KCAL/MOL
REMARK 923 INTER-LIGAND FREE ENERGY PREDICTED BY IDOCK:   -3.70 KCAL/MOL
REMARK 924 INTRA-LIGAND FREE ENERGY PREDICTED BY IDOCK:   -0.54 KCAL/MOL
REMARK 927      BINDING AFFINITY PREDICTED BY RF-SCORE:    0.00 PKD
ROOT
ATOM      1  N   CYS A   1      -9.406   2.870  70.000  1.00  0.00    -0.148 NA 
ATOM      2  H2  CYS A   1      -9.421   2.396  70.903  1.00  0.00     0.000 HD 
ATOM      3  CA  CYS A   1      -9.827   4.299  70.154  1.00  0.00    -0.201 C  
ATOM      4  H1  CYS A   1      -9.946   2.343  69.313  1.00  0.00     0.000 HD 
ATOM      5  O   CYS A   1      -9.759   4.055  67.779  1.00  0.00    -0.166 OA 
ATOM      6  C   CYS A   1      -9.710   4.974  68.778  1.00  0.00    -0.161 C  
ATOM      7  OXT CYS A   1      -9.607   6.174  68.583  1.00  0.00    -0.126 OA 
ENDROOT
BRANCH   3   8
ATOM      8  CB  CYS A   1      -9.015   5.093  71.187  1.00  0.00    -0.138 C  
BRANCH   8   9
ATOM      9  SG  CYS A   1     -10.043   5.553  72.630  1.00  0.00    -0.187 SA 
BRANCH   9  10
ATOM     10  SG  CYS A   1      -9.999   7.609  72.545  1.00  0.00    -0.230 SA 
BRANCH  10  11
ATOM     11  CB  CYS A   1     -11.772   8.026  72.702  1.00  0.00    -0.358 C  
BRANCH  11  12
ATOM     12  CA  CYS A   1     -12.366   8.484  71.362  1.00  0.00    -0.297 C  
ATOM     13  N   CYS A   1     -11.571   8.022  70.178  1.00  0.00    -0.470 NA 
ATOM     14  C   CYS A   1     -12.364  10.014  71.367  1.00  0.00    -0.415 C  
ATOM     15  H2  CYS A   1     -11.449   7.009  70.195  1.00  0.00     0.000 HD 
ATOM     16  H1  CYS A   1     -11.966   8.326  69.289  1.00  0.00     0.000 HD 
ATOM     17  OXT CYS A   1     -13.140  10.716  71.995  1.00  0.00    -0.481 OA 
ATOM     18  O   CYS A   1     -11.345  10.511  70.616  1.00  0.00    -0.322 OA 
ENDBRANCH  11  12
ENDBRANCH  10  11
ENDBRANCH   9  10
ENDBRANCH   8   9
ENDBRANCH   3   8
TORSDOF 5
ENDMDL
MODEL      216
REMARK 921   NORMALIZED FREE ENERGY PREDICTED BY IDOCK:   -2.80 KCAL/MOL
REMARK 922        TOTAL FREE ENERGY PREDICTED BY IDOCK:   -4.24 KCAL/MOL
REMARK 923 INTER-LIGAND FREE ENERGY PREDICTED BY IDOCK:   -4.08 KCAL/MOL
REMARK 924 INTRA-LIGAND FREE ENERGY PREDICTED BY IDOCK:   -0.16 KCAL/MOL
REMARK 927      BINDING AFFINITY PREDICTED BY RF-SCORE:    0.00 PKD
ROOT
ATOM      1  N   CYS A   1     -11.895  13.482  70.845  1.00  0.00    -0.471 NA 
ATOM      2  H2  CYS A   1     -11.481  14.184  70.231  1.00  0.00     0.000 HD 
ATOM      3  CA  CYS A   1     -12.285  12.267  70.061  1.00  0.00    -0.196 C  
ATOM      4  H1  CYS A   1     -12.652  13.892  71.393  1.00  0.00     0.000 HD 
ATOM      5  O   CYS A   1     -13.261  11.817  72.193  1.00  0.00    -0.498 OA 
ATOM      6  C   CYS A   1     -12.828  11.224  71.051  1.00  0.00    -0.300 C  
ATOM      7  OXT CYS A   1     -12.890  10.022  70.851  1.00  0.00    -0.344 OA 
ENDROOT
BRANCH   3   8
ATOM      8  CB  CYS A   1     -11.146  11.650  69.237  1.00  0.00    -0.233 C  
BRANCH   8   9
ATOM      9  SG  CYS A   1     -10.449  12.862  68.054  1.00  0.00    -0.236 SA 
BRANCH   9  10
ATOM     10  SG  CYS A   1     -10.883  11.984  66.243  1.00  0.00    -0.291 SA 
BRANCH  10  11
ATOM     11  CB  CYS A   1      -9.451  10.871  66.017  1.00  0.00    -0.203 C  
BRANCH  11  12
ATOM     12  CA  CYS A   1      -9.680   9.881  64.865  1.00  0.00    -0.262 C  
ATOM     13  N   CYS A   1      -9.220   8.491  65.185  1.00  0.00    -0.418 NA 
ATOM     14  C   CYS A   1      -8.872  10.386  63.669  1.00  0.00    -0.214 C  
ATOM     15  H2  CYS A   1      -9.652   8.154  66.046  1.00  0.00     0.000 HD 
ATOM     16  H1  CYS A   1      -9.373   7.834  64.420  1.00  0.00     0.000 HD 
ATOM     17  OXT CYS A   1      -9.175  11.335  62.965  1.00  0.00    -0.300 OA 
ATOM     18  O   CYS A   1      -7.725   9.672  63.509  1.00  0.00    -0.119 OA 
ENDBRANCH  11  12
ENDBRANCH  10  11
ENDBRANCH   9  10
ENDBRANCH   8   9
ENDBRANCH   3   8
TORSDOF 5
ENDMDL
MODEL      217
REMARK 921   NORMALIZED FREE ENERGY PREDICTED BY IDOCK:   -2.80 KCAL/MOL
REMARK 922        TOTAL FREE ENERGY PREDICTED BY IDOCK:   -4.24 KCAL/MOL
REMARK 923 INTER-LIGAND FREE ENERGY PREDICTED BY IDOCK:   -4.03 KCAL/MOL
REMARK 924 INTRA-LIGAND FREE ENERGY PREDICTED BY IDOCK:   -0.20 KCAL/MOL
REMARK 927      BINDING AFFINITY PREDICTED BY RF-SCORE:    0.00 PKD
ROOT
ATOM      1  N   CYS A   1     -11.333   9.773  69.057  1.00  0.00    -0.464 NA 
ATOM      2  H2  CYS A   1     -11.780  10.645  69.341  1.00  0.00     0.000 HD 
ATOM      3  CA  CYS A   1     -11.085   9.769  67.580  1.00  0.00    -0.049 C  
ATOM      4  H1  CYS A   1     -11.868   8.972  69.397  1.00  0.00     0.000 HD 
ATOM      5  O   CYS A   1     -10.559   7.518  68.177  1.00  0.00    -0.198 OA 
ATOM      6  C   CYS A   1     -10.345   8.469  67.231  1.00  0.00    -0.302 C  
ATOM      7  OXT CYS A   1      -9.666   8.285  66.234  1.00  0.00    -0.230 OA 
ENDROOT
BRANCH   3   8
ATOM      8  CB  CYS A   1     -10.281  10.973  67.068  1.00  0.00    -0.211 C  
BRANCH   8   9
ATOM      9  SG  CYS A   1     -11.378  12.243  66.336  1.00  0.00    -0.370 SA 
BRANCH   9  10
ATOM     10  SG  CYS A   1     -10.440  13.987  66.896  1.00  0.00    -0.278 SA 
BRANCH  10  11
ATOM     11  CB  CYS A   1     -10.545  13.897  68.719  1.00  0.00    -0.246 C  
BRANCH  11  12
ATOM     12  CA  CYS A   1     -11.814  14.581  69.248  1.00  0.00    -0.323 C  
ATOM     13  N   CYS A   1     -11.719  16.077  69.246  1.00  0.00    -0.334 NA 
ATOM     14  C   CYS A   1     -12.007  14.119  70.693  1.00  0.00    -0.315 C  
ATOM     15  H2  CYS A   1     -11.478  16.425  68.317  1.00  0.00     0.000 HD 
ATOM     16  H1  CYS A   1     -12.563  16.531  69.597  1.00  0.00     0.000 HD 
ATOM     17  OXT CYS A   1     -12.412  13.020  71.032  1.00  0.00    -0.368 OA 
ATOM     18  O   CYS A   1     -11.618  15.078  71.576  1.00  0.00    -0.347 OA 
ENDBRANCH  11  12
ENDBRANCH  10  11
ENDBRANCH   9  10
ENDBRANCH   8   9
ENDBRANCH   3   8
TORSDOF 5
ENDMDL
MODEL      218
REMARK 921   NORMALIZED FREE ENERGY PREDICTED BY IDOCK:   -2.78 KCAL/MOL
REMARK 922        TOTAL FREE ENERGY PREDICTED BY IDOCK:   -4.21 KCAL/MOL
REMARK 923 INTER-LIGAND FREE ENERGY PREDICTED BY IDOCK:   -4.31 KCAL/MOL
REMARK 924 INTRA-LIGAND FREE ENERGY PREDICTED BY IDOCK:    0.10 KCAL/MOL
REMARK 927      BINDING AFFINITY PREDICTED BY RF-SCORE:    0.00 PKD
ROOT
ATOM      1  N   CYS A   1     -10.748  11.110  63.945  1.00  0.00    -0.480 NA 
ATOM      2  H2  CYS A   1      -9.884  10.712  64.313  1.00  0.00     0.000 HD 
ATOM      3  CA  CYS A   1     -11.446  11.911  65.000  1.00  0.00    -0.244 C  
ATOM      4  H1  CYS A   1     -11.321  10.381  63.519  1.00  0.00     0.000 HD 
ATOM      5  O   CYS A   1     -13.081  11.849  63.262  1.00  0.00    -0.674 OA 
ATOM      6  C   CYS A   1     -12.693  12.543  64.362  1.00  0.00    -0.358 C  
ATOM      7  OXT CYS A   1     -13.284  13.524  64.782  1.00  0.00    -0.555 OA 
ENDROOT
BRANCH   3   8
ATOM      8  CB  CYS A   1     -10.583  13.008  65.641  1.00  0.00    -0.282 C  
BRANCH   8   9
ATOM      9  SG  CYS A   1     -11.309  13.589  67.218  1.00  0.00    -0.331 SA 
BRANCH   9  10
ATOM     10  SG  CYS A   1      -9.980  15.056  67.781  1.00  0.00    -0.229 SA 
BRANCH  10  11
ATOM     11  CB  CYS A   1      -8.394  14.374  67.178  1.00  0.00    -0.191 C  
BRANCH  11  12
ATOM     12  CA  CYS A   1      -7.194  15.018  67.886  1.00  0.00    -0.149 C  
ATOM     13  N   CYS A   1      -6.521  16.072  67.059  1.00  0.00    -0.299 NA 
ATOM     14  C   CYS A   1      -6.179  13.906  68.156  1.00  0.00    -0.128 C  
ATOM     15  H2  CYS A   1      -7.191  16.781  66.759  1.00  0.00     0.000 HD 
ATOM     16  H1  CYS A   1      -5.724  16.500  67.531  1.00  0.00     0.000 HD 
ATOM     17  OXT CYS A   1      -6.283  13.055  69.024  1.00  0.00    -0.082 OA 
ATOM     18  O   CYS A   1      -5.152  13.947  67.266  1.00  0.00    -0.306 OA 
ENDBRANCH  11  12
ENDBRANCH  10  11
ENDBRANCH   9  10
ENDBRANCH   8   9
ENDBRANCH   3   8
TORSDOF 5
ENDMDL
MODEL      219
REMARK 921   NORMALIZED FREE ENERGY PREDICTED BY IDOCK:   -2.78 KCAL/MOL
REMARK 922        TOTAL FREE ENERGY PREDICTED BY IDOCK:   -4.21 KCAL/MOL
REMARK 923 INTER-LIGAND FREE ENERGY PREDICTED BY IDOCK:   -4.03 KCAL/MOL
REMARK 924 INTRA-LIGAND FREE ENERGY PREDICTED BY IDOCK:   -0.18 KCAL/MOL
REMARK 927      BINDING AFFINITY PREDICTED BY RF-SCORE:    0.00 PKD
ROOT
ATOM      1  N   CYS A   1     -10.300  18.212  68.567  1.00  0.00    -0.367 NA 
ATOM      2  H2  CYS A   1     -10.839  17.704  69.268  1.00  0.00     0.000 HD 
ATOM      3  CA  CYS A   1      -9.260  17.320  67.960  1.00  0.00    -0.256 C  
ATOM      4  H1  CYS A   1      -9.935  19.080  68.960  1.00  0.00     0.000 HD 
ATOM      5  O   CYS A   1      -8.661  19.455  67.075  1.00  0.00    -0.277 OA 
ATOM      6  C   CYS A   1      -8.538  18.120  66.864  1.00  0.00    -0.258 C  
ATOM      7  OXT CYS A   1      -7.914  17.640  65.932  1.00  0.00    -0.531 OA 
ENDROOT
BRANCH   3   8
ATOM      8  CB  CYS A   1      -9.809  16.015  67.368  1.00  0.00    -0.236 C  
BRANCH   8   9
ATOM      9  SG  CYS A   1      -9.522  14.601  68.495  1.00  0.00    -0.219 SA 
BRANCH   9  10
ATOM     10  SG  CYS A   1      -8.955  13.120  67.183  1.00  0.00    -0.231 SA 
BRANCH  10  11
ATOM     11  CB  CYS A   1      -9.104  11.624  68.222  1.00  0.00    -0.187 C  
BRANCH  11  12
ATOM     12  CA  CYS A   1     -10.133  10.638  67.651  1.00  0.00    -0.177 C  
ATOM     13  N   CYS A   1     -10.833  11.160  66.432  1.00  0.00    -0.256 NA 
ATOM     14  C   CYS A   1     -11.184  10.403  68.738  1.00  0.00    -0.241 C  
ATOM     15  H2  CYS A   1     -10.160  11.438  65.718  1.00  0.00     0.000 HD 
ATOM     16  H1  CYS A   1     -11.516  10.504  66.053  1.00  0.00     0.000 HD 
ATOM     17  OXT CYS A   1     -11.024   9.718  69.735  1.00  0.00    -0.237 OA 
ATOM     18  O   CYS A   1     -12.323  11.102  68.485  1.00  0.00    -0.561 OA 
ENDBRANCH  11  12
ENDBRANCH  10  11
ENDBRANCH   9  10
ENDBRANCH   8   9
ENDBRANCH   3   8
TORSDOF 5
ENDMDL
MODEL      220
REMARK 921   NORMALIZED FREE ENERGY PREDICTED BY IDOCK:   -2.78 KCAL/MOL
REMARK 922        TOTAL FREE ENERGY PREDICTED BY IDOCK:   -4.21 KCAL/MOL
REMARK 923 INTER-LIGAND FREE ENERGY PREDICTED BY IDOCK:   -4.03 KCAL/MOL
REMARK 924 INTRA-LIGAND FREE ENERGY PREDICTED BY IDOCK:   -0.18 KCAL/MOL
REMARK 927      BINDING AFFINITY PREDICTED BY RF-SCORE:    0.00 PKD
ROOT
ATOM      1  N   CYS A   1     -11.480   6.536  69.208  1.00  0.00    -0.636 NA 
ATOM      2  H2  CYS A   1     -12.117   7.319  69.360  1.00  0.00     0.000 HD 
ATOM      3  CA  CYS A   1     -11.124   6.426  67.757  1.00  0.00    -0.276 C  
ATOM      4  H1  CYS A   1     -11.862   5.682  69.615  1.00  0.00     0.000 HD 
ATOM      5  O   CYS A   1     -10.194   4.416  68.649  1.00  0.00     0.013 OA 
ATOM      6  C   CYS A   1     -10.108   5.283  67.607  1.00  0.00    -0.171 C  
ATOM      7  OXT CYS A   1      -9.332   5.142  66.676  1.00  0.00    -0.127 OA 
ENDROOT
BRANCH   3   8
ATOM      8  CB  CYS A   1     -10.548   7.711  67.144  1.00  0.00    -0.340 C  
BRANCH   8   9
ATOM      9  SG  CYS A   1     -10.321   9.010  68.414  1.00  0.00    -0.194 SA 
BRANCH   9  10
ATOM     10  SG  CYS A   1      -9.530  10.553  67.305  1.00  0.00    -0.159 SA 
BRANCH  10  11
ATOM     11  CB  CYS A   1     -10.957  11.688  67.175  1.00  0.00    -0.280 C  
BRANCH  11  12
ATOM     12  CA  CYS A   1     -10.754  12.727  66.063  1.00  0.00    -0.272 C  
ATOM     13  N   CYS A   1     -11.131  14.117  66.482  1.00  0.00    -0.312 NA 
ATOM     14  C   CYS A   1     -11.656  12.322  64.897  1.00  0.00    -0.342 C  
ATOM     15  H2  CYS A   1     -10.633  14.388  67.331  1.00  0.00     0.000 HD 
ATOM     16  H1  CYS A   1     -10.996  14.807  65.743  1.00  0.00     0.000 HD 
ATOM     17  OXT CYS A   1     -11.439  11.400  64.127  1.00  0.00    -0.288 OA 
ATOM     18  O   CYS A   1     -12.777  13.091  64.846  1.00  0.00    -0.644 OA 
ENDBRANCH  11  12
ENDBRANCH  10  11
ENDBRANCH   9  10
ENDBRANCH   8   9
ENDBRANCH   3   8
TORSDOF 5
ENDMDL
MODEL      221
REMARK 921   NORMALIZED FREE ENERGY PREDICTED BY IDOCK:   -2.78 KCAL/MOL
REMARK 922        TOTAL FREE ENERGY PREDICTED BY IDOCK:   -4.21 KCAL/MOL
REMARK 923 INTER-LIGAND FREE ENERGY PREDICTED BY IDOCK:   -3.84 KCAL/MOL
REMARK 924 INTRA-LIGAND FREE ENERGY PREDICTED BY IDOCK:   -0.37 KCAL/MOL
REMARK 927      BINDING AFFINITY PREDICTED BY RF-SCORE:    0.00 PKD
ROOT
ATOM      1  N   CYS A   1      -9.855   8.976  65.489  1.00  0.00    -0.436 NA 
ATOM      2  H2  CYS A   1     -10.784   8.588  65.653  1.00  0.00     0.000 HD 
ATOM      3  CA  CYS A   1      -9.680  10.255  66.248  1.00  0.00    -0.209 C  
ATOM      4  H1  CYS A   1      -9.673   9.051  64.487  1.00  0.00     0.000 HD 
ATOM      5  O   CYS A   1      -7.725  10.221  64.879  1.00  0.00    -0.143 OA 
ATOM      6  C   CYS A   1      -8.242  10.744  66.020  1.00  0.00    -0.164 C  
ATOM      7  OXT CYS A   1      -7.633  11.516  66.743  1.00  0.00    -0.148 OA 
ENDROOT
BRANCH   3   8
ATOM      8  CB  CYS A   1      -9.953  10.141  67.755  1.00  0.00    -0.168 C  
BRANCH   8   9
ATOM      9  SG  CYS A   1     -11.513  10.983  68.214  1.00  0.00    -0.285 SA 
BRANCH   9  10
ATOM     10  SG  CYS A   1     -11.496  12.618  66.963  1.00  0.00    -0.366 SA 
BRANCH  10  11
ATOM     11  CB  CYS A   1     -10.285  13.708  67.792  1.00  0.00    -0.242 C  
BRANCH  11  12
ATOM     12  CA  CYS A   1     -10.954  14.596  68.851  1.00  0.00    -0.253 C  
ATOM     13  N   CYS A   1     -12.378  14.931  68.522  1.00  0.00    -0.586 NA 
ATOM     14  C   CYS A   1     -10.160  15.901  68.912  1.00  0.00    -0.225 C  
ATOM     15  H2  CYS A   1     -12.923  14.084  68.359  1.00  0.00     0.000 HD 
ATOM     16  H1  CYS A   1     -12.822  15.521  69.226  1.00  0.00     0.000 HD 
ATOM     17  OXT CYS A   1      -9.066  16.036  69.435  1.00  0.00    -0.251 OA 
ATOM     18  O   CYS A   1     -10.805  16.905  68.258  1.00  0.00    -0.362 OA 
ENDBRANCH  11  12
ENDBRANCH  10  11
ENDBRANCH   9  10
ENDBRANCH   8   9
ENDBRANCH   3   8
TORSDOF 5
ENDMDL
MODEL      222
REMARK 921   NORMALIZED FREE ENERGY PREDICTED BY IDOCK:   -2.78 KCAL/MOL
REMARK 922        TOTAL FREE ENERGY PREDICTED BY IDOCK:   -4.20 KCAL/MOL
REMARK 923 INTER-LIGAND FREE ENERGY PREDICTED BY IDOCK:   -4.07 KCAL/MOL
REMARK 924 INTRA-LIGAND FREE ENERGY PREDICTED BY IDOCK:   -0.14 KCAL/MOL
REMARK 927      BINDING AFFINITY PREDICTED BY RF-SCORE:    0.00 PKD
ROOT
ATOM      1  N   CYS A   1     -13.635  12.371  72.308  1.00  0.00    -0.546 NA 
ATOM      2  H2  CYS A   1     -13.937  11.722  73.035  1.00  0.00     0.000 HD 
ATOM      3  CA  CYS A   1     -12.606  11.729  71.429  1.00  0.00    -0.262 C  
ATOM      4  H1  CYS A   1     -13.344  13.257  72.722  1.00  0.00     0.000 HD 
ATOM      5  O   CYS A   1     -12.543  13.999  70.691  1.00  0.00    -0.329 OA 
ATOM      6  C   CYS A   1     -12.251  12.727  70.316  1.00  0.00    -0.277 C  
ATOM      7  OXT CYS A   1     -11.754  12.440  69.239  1.00  0.00    -0.295 OA 
ENDROOT
BRANCH   3   8
ATOM      8  CB  CYS A   1     -13.044  10.396  70.806  1.00  0.00    -0.286 C  
BRANCH   8   9
ATOM      9  SG  CYS A   1     -13.079   9.058  72.054  1.00  0.00    -0.448 SA 
BRANCH   9  10
ATOM     10  SG  CYS A   1     -11.141   8.366  71.989  1.00  0.00    -0.352 SA 
BRANCH  10  11
ATOM     11  CB  CYS A   1     -11.374   6.667  71.356  1.00  0.00    -0.289 C  
BRANCH  11  12
ATOM     12  CA  CYS A   1     -10.220   5.744  71.774  1.00  0.00    -0.197 C  
ATOM     13  N   CYS A   1      -9.921   4.681  70.760  1.00  0.00    -0.218 NA 
ATOM     14  C   CYS A   1     -10.641   5.056  73.074  1.00  0.00    -0.225 C  
ATOM     15  H2  CYS A   1      -9.745   5.093  69.843  1.00  0.00     0.000 HD 
ATOM     16  H1  CYS A   1      -9.155   4.069  71.038  1.00  0.00     0.000 HD 
ATOM     17  OXT CYS A   1     -10.667   5.585  74.173  1.00  0.00    -0.261 OA 
ATOM     18  O   CYS A   1     -11.040   3.775  72.850  1.00  0.00    -0.081 OA 
ENDBRANCH  11  12
ENDBRANCH  10  11
ENDBRANCH   9  10
ENDBRANCH   8   9
ENDBRANCH   3   8
TORSDOF 5
ENDMDL
MODEL      223
REMARK 921   NORMALIZED FREE ENERGY PREDICTED BY IDOCK:   -2.77 KCAL/MOL
REMARK 922        TOTAL FREE ENERGY PREDICTED BY IDOCK:   -4.20 KCAL/MOL
REMARK 923 INTER-LIGAND FREE ENERGY PREDICTED BY IDOCK:   -3.92 KCAL/MOL
REMARK 924 INTRA-LIGAND FREE ENERGY PREDICTED BY IDOCK:   -0.28 KCAL/MOL
REMARK 927      BINDING AFFINITY PREDICTED BY RF-SCORE:    0.00 PKD
ROOT
ATOM      1  N   CYS A   1     -12.200   8.948  70.631  1.00  0.00    -0.487 NA 
ATOM      2  H2  CYS A   1     -11.677   8.238  70.118  1.00  0.00     0.000 HD 
ATOM      3  CA  CYS A   1     -11.563  10.293  70.457  1.00  0.00    -0.338 C  
ATOM      4  H1  CYS A   1     -12.326   8.664  71.603  1.00  0.00     0.000 HD 
ATOM      5  O   CYS A   1     -13.192  10.731  72.147  1.00  0.00    -0.473 OA 
ATOM      6  C   CYS A   1     -12.436  11.324  71.187  1.00  0.00    -0.373 C  
ATOM      7  OXT CYS A   1     -12.451  12.524  70.965  1.00  0.00    -0.369 OA 
ENDROOT
BRANCH   3   8
ATOM      8  CB  CYS A   1     -11.373  10.721  68.995  1.00  0.00    -0.284 C  
BRANCH   8   9
ATOM      9  SG  CYS A   1      -9.598  10.885  68.575  1.00  0.00    -0.193 SA 
BRANCH   9  10
ATOM     10  SG  CYS A   1      -9.683  11.557  66.631  1.00  0.00    -0.204 SA 
BRANCH  10  11
ATOM     11  CB  CYS A   1      -9.369  13.346  66.842  1.00  0.00    -0.252 C  
BRANCH  11  12
ATOM     12  CA  CYS A   1      -8.456  13.622  68.046  1.00  0.00    -0.174 C  
ATOM     13  N   CYS A   1      -8.708  14.958  68.679  1.00  0.00    -0.171 NA 
ATOM     14  C   CYS A   1      -7.015  13.604  67.533  1.00  0.00    -0.143 C  
ATOM     15  H2  CYS A   1      -9.691  15.059  68.936  1.00  0.00     0.000 HD 
ATOM     16  H1  CYS A   1      -8.102  15.141  69.479  1.00  0.00     0.000 HD 
ATOM     17  OXT CYS A   1      -6.387  12.601  67.238  1.00  0.00    -0.160 OA 
ATOM     18  O   CYS A   1      -6.523  14.864  67.393  1.00  0.00    -0.295 OA 
ENDBRANCH  11  12
ENDBRANCH  10  11
ENDBRANCH   9  10
ENDBRANCH   8   9
ENDBRANCH   3   8
TORSDOF 5
ENDMDL
MODEL      224
REMARK 921   NORMALIZED FREE ENERGY PREDICTED BY IDOCK:   -2.76 KCAL/MOL
REMARK 922        TOTAL FREE ENERGY PREDICTED BY IDOCK:   -4.19 KCAL/MOL
REMARK 923 INTER-LIGAND FREE ENERGY PREDICTED BY IDOCK:   -4.06 KCAL/MOL
REMARK 924 INTRA-LIGAND FREE ENERGY PREDICTED BY IDOCK:   -0.13 KCAL/MOL
REMARK 927      BINDING AFFINITY PREDICTED BY RF-SCORE:    0.00 PKD
ROOT
ATOM      1  N   CYS A   1     -11.479   6.349  66.743  1.00  0.00    -0.746 NA 
ATOM      2  H2  CYS A   1     -11.674   7.204  67.265  1.00  0.00     0.000 HD 
ATOM      3  CA  CYS A   1     -10.189   5.741  67.201  1.00  0.00    -0.207 C  
ATOM      4  H1  CYS A   1     -11.529   6.526  65.740  1.00  0.00     0.000 HD 
ATOM      5  O   CYS A   1     -10.703   4.423  65.278  1.00  0.00    -0.262 OA 
ATOM      6  C   CYS A   1      -9.992   4.424  66.435  1.00  0.00    -0.232 C  
ATOM      7  OXT CYS A   1      -9.282   3.497  66.789  1.00  0.00    -0.157 OA 
ENDROOT
BRANCH   3   8
ATOM      8  CB  CYS A   1     -10.112   5.475  68.712  1.00  0.00    -0.191 C  
BRANCH   8   9
ATOM      9  SG  CYS A   1      -8.856   6.539  69.512  1.00  0.00    -0.137 SA 
BRANCH   9  10
ATOM     10  SG  CYS A   1     -10.011   7.678  70.779  1.00  0.00    -0.180 SA 
BRANCH  10  11
ATOM     11  CB  CYS A   1     -11.555   6.703  70.853  1.00  0.00    -0.361 C  
BRANCH  11  12
ATOM     12  CA  CYS A   1     -12.149   6.689  72.269  1.00  0.00    -0.188 C  
ATOM     13  N   CYS A   1     -12.422   8.062  72.805  1.00  0.00    -0.597 NA 
ATOM     14  C   CYS A   1     -11.122   6.019  73.182  1.00  0.00    -0.203 C  
ATOM     15  H2  CYS A   1     -13.017   8.591  72.166  1.00  0.00     0.000 HD 
ATOM     16  H1  CYS A   1     -12.817   8.052  73.745  1.00  0.00     0.000 HD 
ATOM     17  OXT CYS A   1     -10.894   4.821  73.225  1.00  0.00    -0.226 OA 
ATOM     18  O   CYS A   1     -10.441   6.936  73.920  1.00  0.00    -0.366 OA 
ENDBRANCH  11  12
ENDBRANCH  10  11
ENDBRANCH   9  10
ENDBRANCH   8   9
ENDBRANCH   3   8
TORSDOF 5
ENDMDL
MODEL      225
REMARK 921   NORMALIZED FREE ENERGY PREDICTED BY IDOCK:   -2.75 KCAL/MOL
REMARK 922        TOTAL FREE ENERGY PREDICTED BY IDOCK:   -4.17 KCAL/MOL
REMARK 923 INTER-LIGAND FREE ENERGY PREDICTED BY IDOCK:   -3.37 KCAL/MOL
REMARK 924 INTRA-LIGAND FREE ENERGY PREDICTED BY IDOCK:   -0.81 KCAL/MOL
REMARK 927      BINDING AFFINITY PREDICTED BY RF-SCORE:    0.00 PKD
ROOT
ATOM      1  N   CYS A   1     -11.135   5.978  69.385  1.00  0.00    -0.390 NA 
ATOM      2  H2  CYS A   1     -10.483   5.479  68.780  1.00  0.00     0.000 HD 
ATOM      3  CA  CYS A   1     -10.409   7.000  70.205  1.00  0.00    -0.203 C  
ATOM      4  H1  CYS A   1     -11.691   5.318  69.930  1.00  0.00     0.000 HD 
ATOM      5  O   CYS A   1     -12.585   7.032  71.187  1.00  0.00    -0.377 OA 
ATOM      6  C   CYS A   1     -11.452   7.765  71.034  1.00  0.00    -0.281 C  
ATOM      7  OXT CYS A   1     -11.298   8.875  71.518  1.00  0.00    -0.275 OA 
ENDROOT
BRANCH   3   8
ATOM      8  CB  CYS A   1      -9.572   7.994  69.387  1.00  0.00    -0.160 C  
BRANCH   8   9
ATOM      9  SG  CYS A   1     -10.556   8.737  68.034  1.00  0.00    -0.104 SA 
BRANCH   9  10
ATOM     10  SG  CYS A   1      -9.396   8.318  66.386  1.00  0.00    -0.214 SA 
BRANCH  10  11
ATOM     11  CB  CYS A   1      -8.681   6.697  66.837  1.00  0.00    -0.116 C  
BRANCH  11  12
ATOM     12  CA  CYS A   1      -9.380   5.545  66.102  1.00  0.00    -0.157 C  
ATOM     13  N   CYS A   1     -10.871   5.566  66.261  1.00  0.00    -0.701 NA 
ATOM     14  C   CYS A   1      -8.856   4.241  66.704  1.00  0.00    -0.116 C  
ATOM     15  H2  CYS A   1     -11.255   6.467  65.975  1.00  0.00     0.000 HD 
ATOM     16  H1  CYS A   1     -11.335   4.800  65.772  1.00  0.00     0.000 HD 
ATOM     17  OXT CYS A   1      -7.755   3.760  66.491  1.00  0.00    -0.086 OA 
ATOM     18  O   CYS A   1      -9.758   3.694  67.564  1.00  0.00    -0.184 OA 
ENDBRANCH  11  12
ENDBRANCH  10  11
ENDBRANCH   9  10
ENDBRANCH   8   9
ENDBRANCH   3   8
TORSDOF 5
ENDMDL
MODEL      226
REMARK 921   NORMALIZED FREE ENERGY PREDICTED BY IDOCK:   -2.75 KCAL/MOL
REMARK 922        TOTAL FREE ENERGY PREDICTED BY IDOCK:   -4.17 KCAL/MOL
REMARK 923 INTER-LIGAND FREE ENERGY PREDICTED BY IDOCK:   -3.92 KCAL/MOL
REMARK 924 INTRA-LIGAND FREE ENERGY PREDICTED BY IDOCK:   -0.25 KCAL/MOL
REMARK 927      BINDING AFFINITY PREDICTED BY RF-SCORE:    0.00 PKD
ROOT
ATOM      1  N   CYS A   1     -11.420  13.343  69.646  1.00  0.00    -0.434 NA 
ATOM      2  H2  CYS A   1     -11.074  12.947  70.520  1.00  0.00     0.000 HD 
ATOM      3  CA  CYS A   1     -11.237  12.369  68.523  1.00  0.00    -0.279 C  
ATOM      4  H1  CYS A   1     -11.004  14.260  69.482  1.00  0.00     0.000 HD 
ATOM      5  O   CYS A   1     -11.908  14.345  67.362  1.00  0.00    -0.382 OA 
ATOM      6  C   CYS A   1     -11.845  12.993  67.257  1.00  0.00    -0.363 C  
ATOM      7  OXT CYS A   1     -12.211  12.377  66.269  1.00  0.00    -0.620 OA 
ENDROOT
BRANCH   3   8
ATOM      8  CB  CYS A   1     -11.863  10.989  68.769  1.00  0.00    -0.282 C  
BRANCH   8   9
ATOM      9  SG  CYS A   1     -11.681  10.479  70.518  1.00  0.00    -0.370 SA 
BRANCH   9  10
ATOM     10  SG  CYS A   1      -9.959   9.354  70.454  1.00  0.00    -0.268 SA 
BRANCH  10  11
ATOM     11  CB  CYS A   1     -10.254   8.303  68.988  1.00  0.00    -0.217 C  
BRANCH  11  12
ATOM     12  CA  CYS A   1      -9.185   8.524  67.908  1.00  0.00    -0.139 C  
ATOM     13  N   CYS A   1      -9.701   8.306  66.518  1.00  0.00    -0.253 NA 
ATOM     14  C   CYS A   1      -8.069   7.510  68.165  1.00  0.00    -0.124 C  
ATOM     15  H2  CYS A   1     -10.523   8.884  66.340  1.00  0.00     0.000 HD 
ATOM     16  H1  CYS A   1      -8.990   8.452  65.801  1.00  0.00     0.000 HD 
ATOM     17  OXT CYS A   1      -7.239   7.588  69.057  1.00  0.00    -0.080 OA 
ATOM     18  O   CYS A   1      -8.140   6.464  67.299  1.00  0.00    -0.111 OA 
ENDBRANCH  11  12
ENDBRANCH  10  11
ENDBRANCH   9  10
ENDBRANCH   8   9
ENDBRANCH   3   8
TORSDOF 5
ENDMDL
MODEL      227
REMARK 921   NORMALIZED FREE ENERGY PREDICTED BY IDOCK:   -2.75 KCAL/MOL
REMARK 922        TOTAL FREE ENERGY PREDICTED BY IDOCK:   -4.17 KCAL/MOL
REMARK 923 INTER-LIGAND FREE ENERGY PREDICTED BY IDOCK:   -4.03 KCAL/MOL
REMARK 924 INTRA-LIGAND FREE ENERGY PREDICTED BY IDOCK:   -0.14 KCAL/MOL
REMARK 927      BINDING AFFINITY PREDICTED BY RF-SCORE:    0.00 PKD
ROOT
ATOM      1  N   CYS A   1     -12.050  13.199  70.646  1.00  0.00    -0.504 NA 
ATOM      2  H2  CYS A   1     -11.882  14.040  70.093  1.00  0.00     0.000 HD 
ATOM      3  CA  CYS A   1     -12.027  11.984  69.769  1.00  0.00    -0.300 C  
ATOM      4  H1  CYS A   1     -12.900  13.303  71.200  1.00  0.00     0.000 HD 
ATOM      5  O   CYS A   1     -12.814  11.088  71.838  1.00  0.00    -0.416 OA 
ATOM      6  C   CYS A   1     -12.210  10.752  70.669  1.00  0.00    -0.379 C  
ATOM      7  OXT CYS A   1     -11.882   9.612  70.385  1.00  0.00    -0.240 OA 
ENDROOT
BRANCH   3   8
ATOM      8  CB  CYS A   1     -10.748  11.827  68.934  1.00  0.00    -0.205 C  
BRANCH   8   9
ATOM      9  SG  CYS A   1     -11.067  12.156  67.162  1.00  0.00    -0.310 SA 
BRANCH   9  10
ATOM     10  SG  CYS A   1     -11.916  14.030  67.224  1.00  0.00    -0.379 SA 
BRANCH  10  11
ATOM     11  CB  CYS A   1     -10.447  15.098  67.431  1.00  0.00    -0.264 C  
BRANCH  11  12
ATOM     12  CA  CYS A   1      -9.856  14.980  68.843  1.00  0.00    -0.233 C  
ATOM     13  N   CYS A   1     -10.374  16.025  69.785  1.00  0.00    -0.275 NA 
ATOM     14  C   CYS A   1      -8.343  15.163  68.716  1.00  0.00    -0.175 C  
ATOM     15  H2  CYS A   1     -11.394  16.015  69.815  1.00  0.00     0.000 HD 
ATOM     16  H1  CYS A   1      -9.981  15.947  70.723  1.00  0.00     0.000 HD 
ATOM     17  OXT CYS A   1      -7.568  14.327  68.281  1.00  0.00    -0.111 OA 
ATOM     18  O   CYS A   1      -7.960  16.409  69.105  1.00  0.00    -0.239 OA 
ENDBRANCH  11  12
ENDBRANCH  10  11
ENDBRANCH   9  10
ENDBRANCH   8   9
ENDBRANCH   3   8
TORSDOF 5
ENDMDL
MODEL      228
REMARK 921   NORMALIZED FREE ENERGY PREDICTED BY IDOCK:   -2.74 KCAL/MOL
REMARK 922        TOTAL FREE ENERGY PREDICTED BY IDOCK:   -4.16 KCAL/MOL
REMARK 923 INTER-LIGAND FREE ENERGY PREDICTED BY IDOCK:   -4.05 KCAL/MOL
REMARK 924 INTRA-LIGAND FREE ENERGY PREDICTED BY IDOCK:   -0.11 KCAL/MOL
REMARK 927      BINDING AFFINITY PREDICTED BY RF-SCORE:    0.00 PKD
ROOT
ATOM      1  N   CYS A   1      -7.822   5.471  67.307  1.00  0.00    -0.100 NA 
ATOM      2  H2  CYS A   1      -7.693   6.271  67.926  1.00  0.00     0.000 HD 
ATOM      3  CA  CYS A   1      -8.868   5.770  66.277  1.00  0.00    -0.140 C  
ATOM      4  H1  CYS A   1      -7.995   4.625  67.851  1.00  0.00     0.000 HD 
ATOM      5  O   CYS A   1      -8.491   3.436  65.938  1.00  0.00    -0.104 OA 
ATOM      6  C   CYS A   1      -8.959   4.559  65.335  1.00  0.00    -0.141 C  
ATOM      7  OXT CYS A   1      -9.407   4.577  64.200  1.00  0.00    -0.148 OA 
ENDROOT
BRANCH   3   8
ATOM      8  CB  CYS A   1      -8.609   7.042  65.458  1.00  0.00    -0.081 C  
BRANCH   8   9
ATOM      9  SG  CYS A   1      -9.408   8.500  66.223  1.00  0.00    -0.224 SA 
BRANCH   9  10
ATOM     10  SG  CYS A   1      -9.256   9.902  64.723  1.00  0.00    -0.267 SA 
BRANCH  10  11
ATOM     11  CB  CYS A   1     -10.691  10.979  65.074  1.00  0.00    -0.194 C  
BRANCH  11  12
ATOM     12  CA  CYS A   1     -11.011  11.900  63.887  1.00  0.00    -0.406 C  
ATOM     13  N   CYS A   1      -9.892  12.842  63.556  1.00  0.00    -0.661 NA 
ATOM     14  C   CYS A   1     -12.233  12.732  64.278  1.00  0.00    -0.425 C  
ATOM     15  H2  CYS A   1      -9.022  12.332  63.398  1.00  0.00     0.000 HD 
ATOM     16  H1  CYS A   1     -10.106  13.453  62.768  1.00  0.00     0.000 HD 
ATOM     17  OXT CYS A   1     -13.381  12.320  64.318  1.00  0.00    -0.777 OA 
ATOM     18  O   CYS A   1     -11.879  13.996  64.633  1.00  0.00    -0.376 OA 
ENDBRANCH  11  12
ENDBRANCH  10  11
ENDBRANCH   9  10
ENDBRANCH   8   9
ENDBRANCH   3   8
TORSDOF 5
ENDMDL
MODEL      229
REMARK 921   NORMALIZED FREE ENERGY PREDICTED BY IDOCK:   -2.74 KCAL/MOL
REMARK 922        TOTAL FREE ENERGY PREDICTED BY IDOCK:   -4.16 KCAL/MOL
REMARK 923 INTER-LIGAND FREE ENERGY PREDICTED BY IDOCK:   -3.73 KCAL/MOL
REMARK 924 INTRA-LIGAND FREE ENERGY PREDICTED BY IDOCK:   -0.43 KCAL/MOL
REMARK 927      BINDING AFFINITY PREDICTED BY RF-SCORE:    0.00 PKD
ROOT
ATOM      1  N   CYS A   1     -10.612   7.545  73.142  1.00  0.00    -0.364 NA 
ATOM      2  H2  CYS A   1     -11.204   8.151  73.711  1.00  0.00     0.000 HD 
ATOM      3  CA  CYS A   1     -11.448   6.563  72.381  1.00  0.00    -0.271 C  
ATOM      4  H1  CYS A   1      -9.881   7.123  73.716  1.00  0.00     0.000 HD 
ATOM      5  O   CYS A   1      -9.238   5.753  71.976  1.00  0.00    -0.147 OA 
ATOM      6  C   CYS A   1     -10.506   5.735  71.491  1.00  0.00    -0.235 C  
ATOM      7  OXT CYS A   1     -10.836   5.120  70.491  1.00  0.00    -0.147 OA 
ENDROOT
BRANCH   3   8
ATOM      8  CB  CYS A   1     -12.547   7.197  71.517  1.00  0.00    -0.390 C  
BRANCH   8   9
ATOM      9  SG  CYS A   1     -13.141   8.768  72.245  1.00  0.00    -0.398 SA 
BRANCH   9  10
ATOM     10  SG  CYS A   1     -13.151  10.017  70.609  1.00  0.00    -0.033 SA 
BRANCH  10  11
ATOM     11  CB  CYS A   1     -11.448  10.681  70.637  1.00  0.00    -0.281 C  
BRANCH  11  12
ATOM     12  CA  CYS A   1     -10.676  10.314  69.361  1.00  0.00    -0.241 C  
ATOM     13  N   CYS A   1     -11.565  10.151  68.164  1.00  0.00    -0.672 NA 
ATOM     14  C   CYS A   1      -9.981   8.978  69.622  1.00  0.00    -0.192 C  
ATOM     15  H2  CYS A   1     -12.136  10.984  68.018  1.00  0.00     0.000 HD 
ATOM     16  H1  CYS A   1     -11.052   9.908  67.317  1.00  0.00     0.000 HD 
ATOM     17  OXT CYS A   1      -8.987   8.825  70.312  1.00  0.00    -0.143 OA 
ATOM     18  O   CYS A   1     -10.642   7.950  69.025  1.00  0.00    -0.219 OA 
ENDBRANCH  11  12
ENDBRANCH  10  11
ENDBRANCH   9  10
ENDBRANCH   8   9
ENDBRANCH   3   8
TORSDOF 5
ENDMDL
MODEL      230
REMARK 921   NORMALIZED FREE ENERGY PREDICTED BY IDOCK:   -2.73 KCAL/MOL
REMARK 922        TOTAL FREE ENERGY PREDICTED BY IDOCK:   -4.14 KCAL/MOL
REMARK 923 INTER-LIGAND FREE ENERGY PREDICTED BY IDOCK:   -3.87 KCAL/MOL
REMARK 924 INTRA-LIGAND FREE ENERGY PREDICTED BY IDOCK:   -0.28 KCAL/MOL
REMARK 927      BINDING AFFINITY PREDICTED BY RF-SCORE:    0.00 PKD
ROOT
ATOM      1  N   CYS A   1     -10.112   9.988  64.278  1.00  0.00    -0.443 NA 
ATOM      2  H2  CYS A   1     -10.752  10.749  64.054  1.00  0.00     0.000 HD 
ATOM      3  CA  CYS A   1      -9.485  10.210  65.620  1.00  0.00    -0.220 C  
ATOM      4  H1  CYS A   1      -9.444   9.849  63.518  1.00  0.00     0.000 HD 
ATOM      5  O   CYS A   1      -8.233   8.355  64.789  1.00  0.00    -0.154 OA 
ATOM      6  C   CYS A   1      -8.595   8.996  65.930  1.00  0.00    -0.154 C  
ATOM      7  OXT CYS A   1      -8.233   8.648  67.042  1.00  0.00    -0.105 OA 
ENDROOT
BRANCH   3   8
ATOM      8  CB  CYS A   1     -10.489  10.418  66.763  1.00  0.00    -0.225 C  
BRANCH   8   9
ATOM      9  SG  CYS A   1     -10.058  11.886  67.768  1.00  0.00    -0.195 SA 
BRANCH   9  10
ATOM     10  SG  CYS A   1     -11.546  11.879  69.190  1.00  0.00    -0.336 SA 
BRANCH  10  11
ATOM     11  CB  CYS A   1     -11.780  13.667  69.493  1.00  0.00    -0.322 C  
BRANCH  11  12
ATOM     12  CA  CYS A   1     -10.556  14.481  69.051  1.00  0.00    -0.247 C  
ATOM     13  N   CYS A   1      -9.911  15.230  70.178  1.00  0.00    -0.494 NA 
ATOM     14  C   CYS A   1     -11.040  15.500  68.019  1.00  0.00    -0.322 C  
ATOM     15  H2  CYS A   1      -9.672  14.600  70.945  1.00  0.00     0.000 HD 
ATOM     16  H1  CYS A   1      -9.098  15.771  69.884  1.00  0.00     0.000 HD 
ATOM     17  OXT CYS A   1     -11.335  15.245  66.863  1.00  0.00    -0.307 OA 
ATOM     18  O   CYS A   1     -11.155  16.741  68.564  1.00  0.00    -0.342 OA 
ENDBRANCH  11  12
ENDBRANCH  10  11
ENDBRANCH   9  10
ENDBRANCH   8   9
ENDBRANCH   3   8
TORSDOF 5
ENDMDL
MODEL      231
REMARK 921   NORMALIZED FREE ENERGY PREDICTED BY IDOCK:   -2.72 KCAL/MOL
REMARK 922        TOTAL FREE ENERGY PREDICTED BY IDOCK:   -4.13 KCAL/MOL
REMARK 923 INTER-LIGAND FREE ENERGY PREDICTED BY IDOCK:   -3.94 KCAL/MOL
REMARK 924 INTRA-LIGAND FREE ENERGY PREDICTED BY IDOCK:   -0.19 KCAL/MOL
REMARK 927      BINDING AFFINITY PREDICTED BY RF-SCORE:    0.00 PKD
ROOT
ATOM      1  N   CYS A   1     -11.706   9.909  68.806  1.00  0.00    -0.399 NA 
ATOM      2  H2  CYS A   1     -12.226  10.779  68.925  1.00  0.00     0.000 HD 
ATOM      3  CA  CYS A   1     -10.666  10.064  67.739  1.00  0.00    -0.280 C  
ATOM      4  H1  CYS A   1     -12.347   9.129  68.660  1.00  0.00     0.000 HD 
ATOM      5  O   CYS A   1     -10.594   7.716  68.165  1.00  0.00    -0.192 OA 
ATOM      6  C   CYS A   1      -9.872   8.751  67.662  1.00  0.00    -0.180 C  
ATOM      7  OXT CYS A   1      -8.750   8.627  67.199  1.00  0.00    -0.126 OA 
ENDROOT
BRANCH   3   8
ATOM      8  CB  CYS A   1      -9.701  11.238  67.958  1.00  0.00    -0.179 C  
BRANCH   8   9
ATOM      9  SG  CYS A   1      -9.638  12.331  66.490  1.00  0.00    -0.240 SA 
BRANCH   9  10
ATOM     10  SG  CYS A   1     -11.636  12.673  66.132  1.00  0.00    -0.412 SA 
BRANCH  10  11
ATOM     11  CB  CYS A   1     -12.108  13.680  67.583  1.00  0.00    -0.293 C  
BRANCH  11  12
ATOM     12  CA  CYS A   1     -10.880  14.307  68.260  1.00  0.00    -0.246 C  
ATOM     13  N   CYS A   1     -10.822  14.039  69.734  1.00  0.00    -0.456 NA 
ATOM     14  C   CYS A   1     -10.976  15.819  68.055  1.00  0.00    -0.330 C  
ATOM     15  H2  CYS A   1     -10.871  13.038  69.924  1.00  0.00     0.000 HD 
ATOM     16  H1  CYS A   1     -10.006  14.456  70.183  1.00  0.00     0.000 HD 
ATOM     17  OXT CYS A   1     -10.745  16.404  67.009  1.00  0.00    -0.302 OA 
ATOM     18  O   CYS A   1     -11.406  16.446  69.183  1.00  0.00    -0.308 OA 
ENDBRANCH  11  12
ENDBRANCH  10  11
ENDBRANCH   9  10
ENDBRANCH   8   9
ENDBRANCH   3   8
TORSDOF 5
ENDMDL
MODEL      232
REMARK 921   NORMALIZED FREE ENERGY PREDICTED BY IDOCK:   -2.71 KCAL/MOL
REMARK 922        TOTAL FREE ENERGY PREDICTED BY IDOCK:   -4.12 KCAL/MOL
REMARK 923 INTER-LIGAND FREE ENERGY PREDICTED BY IDOCK:   -3.73 KCAL/MOL
REMARK 924 INTRA-LIGAND FREE ENERGY PREDICTED BY IDOCK:   -0.39 KCAL/MOL
REMARK 927      BINDING AFFINITY PREDICTED BY RF-SCORE:    0.00 PKD
ROOT
ATOM      1  N   CYS A   1     -10.836   5.690  66.169  1.00  0.00    -0.686 NA 
ATOM      2  H2  CYS A   1     -11.682   5.124  66.241  1.00  0.00     0.000 HD 
ATOM      3  CA  CYS A   1     -10.879   6.821  67.150  1.00  0.00    -0.392 C  
ATOM      4  H1  CYS A   1     -10.681   5.976  65.202  1.00  0.00     0.000 HD 
ATOM      5  O   CYS A   1      -8.961   7.374  65.840  1.00  0.00    -0.153 OA 
ATOM      6  C   CYS A   1      -9.550   7.585  67.045  1.00  0.00    -0.170 C  
ATOM      7  OXT CYS A   1      -9.077   8.306  67.908  1.00  0.00    -0.133 OA 
ENDROOT
BRANCH   3   8
ATOM      8  CB  CYS A   1     -11.113   6.392  68.606  1.00  0.00    -0.311 C  
BRANCH   8   9
ATOM      9  SG  CYS A   1      -9.901   5.124  69.128  1.00  0.00    -0.199 SA 
BRANCH   9  10
ATOM     10  SG  CYS A   1      -9.341   5.812  70.985  1.00  0.00    -0.162 SA 
BRANCH  10  11
ATOM     11  CB  CYS A   1     -10.219   7.413  71.069  1.00  0.00    -0.191 C  
BRANCH  11  12
ATOM     12  CA  CYS A   1     -11.035   7.544  72.364  1.00  0.00    -0.286 C  
ATOM     13  N   CYS A   1     -10.290   7.074  73.577  1.00  0.00    -0.321 NA 
ATOM     14  C   CYS A   1     -12.280   6.670  72.203  1.00  0.00    -0.228 C  
ATOM     15  H2  CYS A   1      -9.393   7.553  73.662  1.00  0.00     0.000 HD 
ATOM     16  H1  CYS A   1     -10.833   7.161  74.437  1.00  0.00     0.000 HD 
ATOM     17  OXT CYS A   1     -13.250   6.948  71.518  1.00  0.00    -0.345 OA 
ATOM     18  O   CYS A   1     -12.156   5.500  72.885  1.00  0.00    -0.155 OA 
ENDBRANCH  11  12
ENDBRANCH  10  11
ENDBRANCH   9  10
ENDBRANCH   8   9
ENDBRANCH   3   8
TORSDOF 5
ENDMDL
MODEL      233
REMARK 921   NORMALIZED FREE ENERGY PREDICTED BY IDOCK:   -2.71 KCAL/MOL
REMARK 922        TOTAL FREE ENERGY PREDICTED BY IDOCK:   -4.12 KCAL/MOL
REMARK 923 INTER-LIGAND FREE ENERGY PREDICTED BY IDOCK:   -3.89 KCAL/MOL
REMARK 924 INTRA-LIGAND FREE ENERGY PREDICTED BY IDOCK:   -0.23 KCAL/MOL
REMARK 927      BINDING AFFINITY PREDICTED BY RF-SCORE:    0.00 PKD
ROOT
ATOM      1  N   CYS A   1      -7.588   6.495  67.781  1.00  0.00    -0.103 NA 
ATOM      2  H2  CYS A   1      -6.983   6.332  68.586  1.00  0.00     0.000 HD 
ATOM      3  CA  CYS A   1      -8.977   6.010  68.063  1.00  0.00    -0.112 C  
ATOM      4  H1  CYS A   1      -7.169   6.106  66.936  1.00  0.00     0.000 HD 
ATOM      5  O   CYS A   1      -9.093   6.515  65.733  1.00  0.00    -0.103 OA 
ATOM      6  C   CYS A   1      -9.851   6.353  66.847  1.00  0.00    -0.158 C  
ATOM      7  OXT CYS A   1     -11.067   6.453  66.854  1.00  0.00    -0.384 OA 
ENDROOT
BRANCH   3   8
ATOM      8  CB  CYS A   1      -9.609   6.595  69.334  1.00  0.00    -0.145 C  
BRANCH   8   9
ATOM      9  SG  CYS A   1      -8.478   7.776  70.157  1.00  0.00    -0.135 SA 
BRANCH   9  10
ATOM     10  SG  CYS A   1      -9.665   9.448  70.335  1.00  0.00    -0.272 SA 
BRANCH  10  11
ATOM     11  CB  CYS A   1     -11.310   8.706  70.632  1.00  0.00    -0.247 C  
BRANCH  11  12
ATOM     12  CA  CYS A   1     -11.805   8.981  72.059  1.00  0.00    -0.356 C  
ATOM     13  N   CYS A   1     -12.188   7.734  72.798  1.00  0.00    -0.591 NA 
ATOM     14  C   CYS A   1     -13.048   9.865  71.942  1.00  0.00    -0.459 C  
ATOM     15  H2  CYS A   1     -11.419   7.064  72.803  1.00  0.00     0.000 HD 
ATOM     16  H1  CYS A   1     -12.517   7.918  73.746  1.00  0.00     0.000 HD 
ATOM     17  OXT CYS A   1     -13.042  11.055  71.674  1.00  0.00    -0.446 OA 
ATOM     18  O   CYS A   1     -14.187   9.145  72.126  1.00  0.00    -0.375 OA 
ENDBRANCH  11  12
ENDBRANCH  10  11
ENDBRANCH   9  10
ENDBRANCH   8   9
ENDBRANCH   3   8
TORSDOF 5
ENDMDL
MODEL      234
REMARK 921   NORMALIZED FREE ENERGY PREDICTED BY IDOCK:   -2.71 KCAL/MOL
REMARK 922        TOTAL FREE ENERGY PREDICTED BY IDOCK:   -4.11 KCAL/MOL
REMARK 923 INTER-LIGAND FREE ENERGY PREDICTED BY IDOCK:   -3.43 KCAL/MOL
REMARK 924 INTRA-LIGAND FREE ENERGY PREDICTED BY IDOCK:   -0.68 KCAL/MOL
REMARK 927      BINDING AFFINITY PREDICTED BY RF-SCORE:    0.00 PKD
ROOT
ATOM      1  N   CYS A   1     -10.928   8.894  71.924  1.00  0.00    -0.359 NA 
ATOM      2  H2  CYS A   1     -10.222   8.165  72.025  1.00  0.00     0.000 HD 
ATOM      3  CA  CYS A   1     -10.671   9.705  70.691  1.00  0.00    -0.322 C  
ATOM      4  H1  CYS A   1     -10.998   9.442  72.783  1.00  0.00     0.000 HD 
ATOM      5  O   CYS A   1     -12.398  10.961  71.758  1.00  0.00    -0.229 OA 
ATOM      6  C   CYS A   1     -11.806  10.731  70.558  1.00  0.00    -0.356 C  
ATOM      7  OXT CYS A   1     -12.137  11.293  69.526  1.00  0.00    -0.321 OA 
ENDROOT
BRANCH   3   8
ATOM      8  CB  CYS A   1     -10.566   8.881  69.400  1.00  0.00    -0.217 C  
BRANCH   8   9
ATOM      9  SG  CYS A   1      -8.820   8.550  68.961  1.00  0.00    -0.146 SA 
BRANCH   9  10
ATOM     10  SG  CYS A   1      -7.946  10.385  69.287  1.00  0.00    -0.154 SA 
BRANCH  10  11
ATOM     11  CB  CYS A   1      -7.668  10.973  67.579  1.00  0.00    -0.114 C  
BRANCH  11  12
ATOM     12  CA  CYS A   1      -8.673  12.065  67.185  1.00  0.00    -0.183 C  
ATOM     13  N   CYS A   1      -9.519  12.525  68.334  1.00  0.00    -0.320 NA 
ATOM     14  C   CYS A   1      -9.597  11.467  66.124  1.00  0.00    -0.225 C  
ATOM     15  H2  CYS A   1      -8.938  12.829  69.116  1.00  0.00     0.000 HD 
ATOM     16  H1  CYS A   1     -10.187  13.251  68.072  1.00  0.00     0.000 HD 
ATOM     17  OXT CYS A   1      -9.295  11.272  64.958  1.00  0.00    -0.221 OA 
ATOM     18  O   CYS A   1     -10.802  11.124  66.652  1.00  0.00    -0.266 OA 
ENDBRANCH  11  12
ENDBRANCH  10  11
ENDBRANCH   9  10
ENDBRANCH   8   9
ENDBRANCH   3   8
TORSDOF 5
ENDMDL
MODEL      235
REMARK 921   NORMALIZED FREE ENERGY PREDICTED BY IDOCK:   -2.70 KCAL/MOL
REMARK 922        TOTAL FREE ENERGY PREDICTED BY IDOCK:   -4.11 KCAL/MOL
REMARK 923 INTER-LIGAND FREE ENERGY PREDICTED BY IDOCK:   -3.93 KCAL/MOL
REMARK 924 INTRA-LIGAND FREE ENERGY PREDICTED BY IDOCK:   -0.18 KCAL/MOL
REMARK 927      BINDING AFFINITY PREDICTED BY RF-SCORE:    0.00 PKD
ROOT
ATOM      1  N   CYS A   1     -11.555  14.690  65.984  1.00  0.00    -0.351 NA 
ATOM      2  H2  CYS A   1     -10.935  14.962  66.747  1.00  0.00     0.000 HD 
ATOM      3  CA  CYS A   1     -11.106  13.394  65.383  1.00  0.00    -0.287 C  
ATOM      4  H1  CYS A   1     -11.652  15.455  65.315  1.00  0.00     0.000 HD 
ATOM      5  O   CYS A   1     -12.798  14.093  63.849  1.00  0.00    -0.577 OA 
ATOM      6  C   CYS A   1     -12.120  13.004  64.296  1.00  0.00    -0.414 C  
ATOM      7  OXT CYS A   1     -12.297  11.877  63.863  1.00  0.00    -0.417 OA 
ENDROOT
BRANCH   3   8
ATOM      8  CB  CYS A   1     -10.960  12.243  66.389  1.00  0.00    -0.287 C  
BRANCH   8   9
ATOM      9  SG  CYS A   1      -9.210  11.989  66.860  1.00  0.00    -0.201 SA 
BRANCH   9  10
ATOM     10  SG  CYS A   1      -9.196   9.999  67.383  1.00  0.00    -0.137 SA 
BRANCH  10  11
ATOM     11  CB  CYS A   1      -9.916  10.051  69.063  1.00  0.00    -0.196 C  
BRANCH  11  12
ATOM     12  CA  CYS A   1      -9.559   8.795  69.871  1.00  0.00    -0.177 C  
ATOM     13  N   CYS A   1      -8.547   7.925  69.188  1.00  0.00    -0.137 NA 
ATOM     14  C   CYS A   1     -10.846   7.985  70.038  1.00  0.00    -0.235 C  
ATOM     15  H2  CYS A   1      -7.709   8.458  68.953  1.00  0.00     0.000 HD 
ATOM     16  H1  CYS A   1      -8.310   7.091  69.725  1.00  0.00     0.000 HD 
ATOM     17  OXT CYS A   1     -11.758   8.263  70.800  1.00  0.00    -0.277 OA 
ATOM     18  O   CYS A   1     -10.880   6.926  69.185  1.00  0.00    -0.233 OA 
ENDBRANCH  11  12
ENDBRANCH  10  11
ENDBRANCH   9  10
ENDBRANCH   8   9
ENDBRANCH   3   8
TORSDOF 5
ENDMDL
MODEL      236
REMARK 921   NORMALIZED FREE ENERGY PREDICTED BY IDOCK:   -2.69 KCAL/MOL
REMARK 922        TOTAL FREE ENERGY PREDICTED BY IDOCK:   -4.10 KCAL/MOL
REMARK 923 INTER-LIGAND FREE ENERGY PREDICTED BY IDOCK:   -3.75 KCAL/MOL
REMARK 924 INTRA-LIGAND FREE ENERGY PREDICTED BY IDOCK:   -0.35 KCAL/MOL
REMARK 927      BINDING AFFINITY PREDICTED BY RF-SCORE:    0.00 PKD
ROOT
ATOM      1  N   CYS A   1     -11.820  15.038  68.131  1.00  0.00    -0.498 NA 
ATOM      2  H2  CYS A   1     -11.558  14.672  67.215  1.00  0.00     0.000 HD 
ATOM      3  CA  CYS A   1     -12.238  13.924  69.040  1.00  0.00    -0.239 C  
ATOM      4  H1  CYS A   1     -12.510  15.783  68.031  1.00  0.00     0.000 HD 
ATOM      5  O   CYS A   1     -12.835  15.854  70.313  1.00  0.00    -0.335 OA 
ATOM      6  C   CYS A   1     -12.543  14.532  70.418  1.00  0.00    -0.346 C  
ATOM      7  OXT CYS A   1     -12.548  13.923  71.476  1.00  0.00    -0.341 OA 
ENDROOT
BRANCH   3   8
ATOM      8  CB  CYS A   1     -11.199  12.803  69.190  1.00  0.00    -0.237 C  
BRANCH   8   9
ATOM      9  SG  CYS A   1     -11.964  11.154  68.967  1.00  0.00    -0.241 SA 
BRANCH   9  10
ATOM     10  SG  CYS A   1     -11.669  10.297  70.815  1.00  0.00    -0.375 SA 
BRANCH  10  11
ATOM     11  CB  CYS A   1     -11.223   8.583  70.364  1.00  0.00    -0.211 C  
BRANCH  11  12
ATOM     12  CA  CYS A   1      -9.710   8.345  70.470  1.00  0.00    -0.173 C  
ATOM     13  N   CYS A   1      -8.970   9.516  71.042  1.00  0.00    -0.348 NA 
ATOM     14  C   CYS A   1      -9.191   8.101  69.052  1.00  0.00    -0.148 C  
ATOM     15  H2  CYS A   1      -9.360   9.787  71.945  1.00  0.00     0.000 HD 
ATOM     16  H1  CYS A   1      -7.965   9.357  71.112  1.00  0.00     0.000 HD 
ATOM     17  OXT CYS A   1      -9.346   7.074  68.413  1.00  0.00    -0.132 OA 
ATOM     18  O   CYS A   1      -8.567   9.204  68.557  1.00  0.00    -0.126 OA 
ENDBRANCH  11  12
ENDBRANCH  10  11
ENDBRANCH   9  10
ENDBRANCH   8   9
ENDBRANCH   3   8
TORSDOF 5
ENDMDL
MODEL      237
REMARK 921   NORMALIZED FREE ENERGY PREDICTED BY IDOCK:   -2.69 KCAL/MOL
REMARK 922        TOTAL FREE ENERGY PREDICTED BY IDOCK:   -4.09 KCAL/MOL
REMARK 923 INTER-LIGAND FREE ENERGY PREDICTED BY IDOCK:   -3.89 KCAL/MOL
REMARK 924 INTRA-LIGAND FREE ENERGY PREDICTED BY IDOCK:   -0.20 KCAL/MOL
REMARK 927      BINDING AFFINITY PREDICTED BY RF-SCORE:    0.00 PKD
ROOT
ATOM      1  N   CYS A   1      -8.440  11.392  65.657  1.00  0.00    -0.378 NA 
ATOM      2  H2  CYS A   1      -8.128  12.364  65.643  1.00  0.00     0.000 HD 
ATOM      3  CA  CYS A   1      -8.058  10.739  66.950  1.00  0.00    -0.132 C  
ATOM      4  H1  CYS A   1      -8.113  10.902  64.824  1.00  0.00     0.000 HD 
ATOM      5  O   CYS A   1      -8.838   8.882  65.668  1.00  0.00    -0.169 OA 
ATOM      6  C   CYS A   1      -8.621   9.310  66.939  1.00  0.00    -0.127 C  
ATOM      7  OXT CYS A   1      -8.834   8.623  67.925  1.00  0.00    -0.136 OA 
ENDROOT
BRANCH   3   8
ATOM      8  CB  CYS A   1      -8.550  11.476  68.204  1.00  0.00    -0.156 C  
BRANCH   8   9
ATOM      9  SG  CYS A   1     -10.320  11.920  68.064  1.00  0.00    -0.202 SA 
BRANCH   9  10
ATOM     10  SG  CYS A   1     -10.268  13.961  68.324  1.00  0.00    -0.251 SA 
BRANCH  10  11
ATOM     11  CB  CYS A   1     -11.885  14.277  69.115  1.00  0.00    -0.330 C  
BRANCH  11  12
ATOM     12  CA  CYS A   1     -11.984  15.714  69.647  1.00  0.00    -0.349 C  
ATOM     13  N   CYS A   1     -10.670  16.435  69.637  1.00  0.00    -0.331 NA 
ATOM     14  C   CYS A   1     -12.467  15.627  71.096  1.00  0.00    -0.448 C  
ATOM     15  H2  CYS A   1     -10.254  16.419  68.705  1.00  0.00     0.000 HD 
ATOM     16  H1  CYS A   1     -10.737  17.390  69.990  1.00  0.00     0.000 HD 
ATOM     17  OXT CYS A   1     -13.610  15.379  71.442  1.00  0.00    -0.479 OA 
ATOM     18  O   CYS A   1     -11.443  15.811  71.971  1.00  0.00    -0.404 OA 
ENDBRANCH  11  12
ENDBRANCH  10  11
ENDBRANCH   9  10
ENDBRANCH   8   9
ENDBRANCH   3   8
TORSDOF 5
ENDMDL
MODEL      238
REMARK 921   NORMALIZED FREE ENERGY PREDICTED BY IDOCK:   -2.69 KCAL/MOL
REMARK 922        TOTAL FREE ENERGY PREDICTED BY IDOCK:   -4.09 KCAL/MOL
REMARK 923 INTER-LIGAND FREE ENERGY PREDICTED BY IDOCK:   -4.56 KCAL/MOL
REMARK 924 INTRA-LIGAND FREE ENERGY PREDICTED BY IDOCK:    0.47 KCAL/MOL
REMARK 927      BINDING AFFINITY PREDICTED BY RF-SCORE:    0.00 PKD
ROOT
ATOM      1  N   CYS A   1     -11.102  16.860  64.496  1.00  0.00    -1.120 NA 
ATOM      2  H2  CYS A   1     -11.382  15.930  64.183  1.00  0.00     0.000 HD 
ATOM      3  CA  CYS A   1     -10.516  16.793  65.873  1.00  0.00    -0.301 C  
ATOM      4  H1  CYS A   1     -11.878  17.516  64.399  1.00  0.00     0.000 HD 
ATOM      5  O   CYS A   1     -10.703  19.148  65.527  1.00  0.00    -0.507 OA 
ATOM      6  C   CYS A   1     -10.047  18.206  66.253  1.00  0.00    -0.371 C  
ATOM      7  OXT CYS A   1      -9.214  18.472  67.103  1.00  0.00    -0.270 OA 
ENDROOT
BRANCH   3   8
ATOM      8  CB  CYS A   1      -9.349  15.806  66.020  1.00  0.00    -0.349 C  
BRANCH   8   9
ATOM      9  SG  CYS A   1      -9.614  14.668  67.429  1.00  0.00    -0.218 SA 
BRANCH   9  10
ATOM     10  SG  CYS A   1      -7.755  14.649  68.313  1.00  0.00    -0.134 SA 
BRANCH  10  11
ATOM     11  CB  CYS A   1      -7.769  16.223  69.243  1.00  0.00    -0.186 C  
BRANCH  11  12
ATOM     12  CA  CYS A   1      -6.467  17.011  69.041  1.00  0.00    -0.202 C  
ATOM     13  N   CYS A   1      -6.584  18.451  69.442  1.00  0.00    -0.245 NA 
ATOM     14  C   CYS A   1      -6.135  16.959  67.549  1.00  0.00    -0.147 C  
ATOM     15  H2  CYS A   1      -6.915  18.535  70.404  1.00  0.00     0.000 HD 
ATOM     16  H1  CYS A   1      -5.719  18.974  69.308  1.00  0.00     0.000 HD 
ATOM     17  OXT CYS A   1      -5.684  15.990  66.962  1.00  0.00    -0.340 OA 
ATOM     18  O   CYS A   1      -6.456  18.127  66.929  1.00  0.00    -0.171 OA 
ENDBRANCH  11  12
ENDBRANCH  10  11
ENDBRANCH   9  10
ENDBRANCH   8   9
ENDBRANCH   3   8
TORSDOF 5
ENDMDL
MODEL      239
REMARK 921   NORMALIZED FREE ENERGY PREDICTED BY IDOCK:   -2.68 KCAL/MOL
REMARK 922        TOTAL FREE ENERGY PREDICTED BY IDOCK:   -4.08 KCAL/MOL
REMARK 923 INTER-LIGAND FREE ENERGY PREDICTED BY IDOCK:   -3.46 KCAL/MOL
REMARK 924 INTRA-LIGAND FREE ENERGY PREDICTED BY IDOCK:   -0.62 KCAL/MOL
REMARK 927      BINDING AFFINITY PREDICTED BY RF-SCORE:    0.00 PKD
ROOT
ATOM      1  N   CYS A   1     -10.254   8.006  66.454  1.00  0.00    -0.483 NA 
ATOM      2  H2  CYS A   1     -10.587   8.664  65.750  1.00  0.00     0.000 HD 
ATOM      3  CA  CYS A   1      -8.958   8.477  67.038  1.00  0.00    -0.137 C  
ATOM      4  H1  CYS A   1     -10.225   7.060  66.072  1.00  0.00     0.000 HD 
ATOM      5  O   CYS A   1      -9.143   6.279  67.952  1.00  0.00    -0.114 OA 
ATOM      6  C   CYS A   1      -8.551   7.487  68.140  1.00  0.00    -0.123 C  
ATOM      7  OXT CYS A   1      -7.785   7.725  69.060  1.00  0.00    -0.104 OA 
ENDROOT
BRANCH   3   8
ATOM      8  CB  CYS A   1      -9.000   9.900  67.614  1.00  0.00    -0.128 C  
BRANCH   8   9
ATOM      9  SG  CYS A   1     -10.589  10.725  67.232  1.00  0.00    -0.273 SA 
BRANCH   9  10
ATOM     10  SG  CYS A   1     -11.396  10.982  69.108  1.00  0.00    -0.309 SA 
BRANCH  10  11
ATOM     11  CB  CYS A   1     -11.131   9.334  69.856  1.00  0.00    -0.181 C  
BRANCH  11  12
ATOM     12  CA  CYS A   1     -10.569   9.443  71.281  1.00  0.00    -0.330 C  
ATOM     13  N   CYS A   1      -9.108   9.118  71.362  1.00  0.00    -0.311 NA 
ATOM     14  C   CYS A   1     -11.329   8.434  72.143  1.00  0.00    -0.366 C  
ATOM     15  H2  CYS A   1      -8.570   9.694  70.714  1.00  0.00     0.000 HD 
ATOM     16  H1  CYS A   1      -8.735   9.190  72.309  1.00  0.00     0.000 HD 
ATOM     17  OXT CYS A   1     -12.473   8.571  72.543  1.00  0.00    -0.383 OA 
ATOM     18  O   CYS A   1     -10.584   7.320  72.375  1.00  0.00    -0.217 OA 
ENDBRANCH  11  12
ENDBRANCH  10  11
ENDBRANCH   9  10
ENDBRANCH   8   9
ENDBRANCH   3   8
TORSDOF 5
ENDMDL
MODEL      240
REMARK 921   NORMALIZED FREE ENERGY PREDICTED BY IDOCK:   -2.67 KCAL/MOL
REMARK 922        TOTAL FREE ENERGY PREDICTED BY IDOCK:   -4.06 KCAL/MOL
REMARK 923 INTER-LIGAND FREE ENERGY PREDICTED BY IDOCK:   -3.73 KCAL/MOL
REMARK 924 INTRA-LIGAND FREE ENERGY PREDICTED BY IDOCK:   -0.33 KCAL/MOL
REMARK 927      BINDING AFFINITY PREDICTED BY RF-SCORE:    0.00 PKD
ROOT
ATOM      1  N   CYS A   1      -9.959  12.590  63.228  1.00  0.00    -0.582 NA 
ATOM      2  H2  CYS A   1      -9.006  12.230  63.283  1.00  0.00     0.000 HD 
ATOM      3  CA  CYS A   1     -10.895  11.711  63.999  1.00  0.00    -0.392 C  
ATOM      4  H1  CYS A   1     -10.226  12.740  62.255  1.00  0.00     0.000 HD 
ATOM      5  O   CYS A   1     -12.407  13.173  62.869  1.00  0.00    -0.409 OA 
ATOM      6  C   CYS A   1     -12.293  12.346  63.940  1.00  0.00    -0.508 C  
ATOM      7  OXT CYS A   1     -13.201  12.136  64.727  1.00  0.00    -0.567 OA 
ENDROOT
BRANCH   3   8
ATOM      8  CB  CYS A   1     -10.494  11.485  65.464  1.00  0.00    -0.275 C  
BRANCH   8   9
ATOM      9  SG  CYS A   1     -10.143   9.719  65.793  1.00  0.00    -0.154 SA 
BRANCH   9  10
ATOM     10  SG  CYS A   1      -8.239   9.802  66.570  1.00  0.00    -0.121 SA 
BRANCH  10  11
ATOM     11  CB  CYS A   1      -7.832  11.573  66.369  1.00  0.00    -0.020 C  
BRANCH  11  12
ATOM     12  CA  CYS A   1      -7.581  12.254  67.723  1.00  0.00    -0.131 C  
ATOM     13  N   CYS A   1      -8.161  13.634  67.802  1.00  0.00    -0.163 NA 
ATOM     14  C   CYS A   1      -6.066  12.364  67.898  1.00  0.00    -0.093 C  
ATOM     15  H2  CYS A   1      -9.157  13.623  67.579  1.00  0.00     0.000 HD 
ATOM     16  H1  CYS A   1      -7.994  14.085  68.702  1.00  0.00     0.000 HD 
ATOM     17  OXT CYS A   1      -5.321  11.440  68.181  1.00  0.00    -0.043 OA 
ATOM     18  O   CYS A   1      -5.629  13.627  67.646  1.00  0.00    -0.274 OA 
ENDBRANCH  11  12
ENDBRANCH  10  11
ENDBRANCH   9  10
ENDBRANCH   8   9
ENDBRANCH   3   8
TORSDOF 5
ENDMDL
MODEL      241
REMARK 921   NORMALIZED FREE ENERGY PREDICTED BY IDOCK:   -2.65 KCAL/MOL
REMARK 922        TOTAL FREE ENERGY PREDICTED BY IDOCK:   -4.04 KCAL/MOL
REMARK 923 INTER-LIGAND FREE ENERGY PREDICTED BY IDOCK:   -3.58 KCAL/MOL
REMARK 924 INTRA-LIGAND FREE ENERGY PREDICTED BY IDOCK:   -0.47 KCAL/MOL
REMARK 927      BINDING AFFINITY PREDICTED BY RF-SCORE:    0.00 PKD
ROOT
ATOM      1  N   CYS A   1     -10.181   8.063  66.455  1.00  0.00    -0.483 NA 
ATOM      2  H2  CYS A   1     -11.127   8.295  66.757  1.00  0.00     0.000 HD 
ATOM      3  CA  CYS A   1      -9.622   9.159  65.601  1.00  0.00    -0.217 C  
ATOM      4  H1  CYS A   1     -10.164   7.139  66.021  1.00  0.00     0.000 HD 
ATOM      5  O   CYS A   1      -7.980   7.444  65.345  1.00  0.00    -0.110 OA 
ATOM      6  C   CYS A   1      -8.175   8.784  65.243  1.00  0.00    -0.144 C  
ATOM      7  OXT CYS A   1      -7.306   9.566  64.893  1.00  0.00    -0.103 OA 
ENDROOT
BRANCH   3   8
ATOM      8  CB  CYS A   1      -9.648  10.549  66.252  1.00  0.00    -0.187 C  
BRANCH   8   9
ATOM      9  SG  CYS A   1     -11.034  10.702  67.438  1.00  0.00    -0.269 SA 
BRANCH   9  10
ATOM     10  SG  CYS A   1     -10.054  10.641  69.247  1.00  0.00    -0.172 SA 
BRANCH  10  11
ATOM     11  CB  CYS A   1     -11.219   9.672  70.269  1.00  0.00    -0.271 C  
BRANCH  11  12
ATOM     12  CA  CYS A   1     -10.819   8.191  70.334  1.00  0.00    -0.236 C  
ATOM     13  N   CYS A   1     -11.305   7.399  69.157  1.00  0.00    -0.407 NA 
ATOM     14  C   CYS A   1     -11.456   7.606  71.596  1.00  0.00    -0.260 C  
ATOM     15  H2  CYS A   1     -10.995   7.822  68.282  1.00  0.00     0.000 HD 
ATOM     16  H1  CYS A   1     -11.038   6.415  69.201  1.00  0.00     0.000 HD 
ATOM     17  OXT CYS A   1     -11.067   7.801  72.735  1.00  0.00    -0.342 OA 
ATOM     18  O   CYS A   1     -12.561   6.870  71.297  1.00  0.00    -0.375 OA 
ENDBRANCH  11  12
ENDBRANCH  10  11
ENDBRANCH   9  10
ENDBRANCH   8   9
ENDBRANCH   3   8
TORSDOF 5
ENDMDL
MODEL      242
REMARK 921   NORMALIZED FREE ENERGY PREDICTED BY IDOCK:   -2.64 KCAL/MOL
REMARK 922        TOTAL FREE ENERGY PREDICTED BY IDOCK:   -4.03 KCAL/MOL
REMARK 923 INTER-LIGAND FREE ENERGY PREDICTED BY IDOCK:   -3.65 KCAL/MOL
REMARK 924 INTRA-LIGAND FREE ENERGY PREDICTED BY IDOCK:   -0.38 KCAL/MOL
REMARK 927      BINDING AFFINITY PREDICTED BY RF-SCORE:    0.00 PKD
ROOT
ATOM      1  N   CYS A   1      -9.154   9.008  65.936  1.00  0.00    -0.197 NA 
ATOM      2  H2  CYS A   1     -10.036   8.498  65.990  1.00  0.00     0.000 HD 
ATOM      3  CA  CYS A   1      -9.191  10.213  66.824  1.00  0.00    -0.151 C  
ATOM      4  H1  CYS A   1      -8.918   9.207  64.963  1.00  0.00     0.000 HD 
ATOM      5  O   CYS A   1      -7.161  10.552  65.613  1.00  0.00    -0.146 OA 
ATOM      6  C   CYS A   1      -7.814  10.891  66.755  1.00  0.00    -0.141 C  
ATOM      7  OXT CYS A   1      -7.354  11.650  67.593  1.00  0.00    -0.095 OA 
ENDROOT
BRANCH   3   8
ATOM      8  CB  CYS A   1      -9.546   9.914  68.288  1.00  0.00    -0.140 C  
BRANCH   8   9
ATOM      9  SG  CYS A   1     -11.239  10.479  68.691  1.00  0.00    -0.257 SA 
BRANCH   9  10
ATOM     10  SG  CYS A   1     -11.478  12.062  67.397  1.00  0.00    -0.326 SA 
BRANCH  10  11
ATOM     11  CB  CYS A   1     -10.955  13.473  68.436  1.00  0.00    -0.266 C  
BRANCH  11  12
ATOM     12  CA  CYS A   1     -12.159  14.207  69.042  1.00  0.00    -0.313 C  
ATOM     13  N   CYS A   1     -12.095  15.693  68.856  1.00  0.00    -0.584 NA 
ATOM     14  C   CYS A   1     -12.157  13.915  70.543  1.00  0.00    -0.356 C  
ATOM     15  H2  CYS A   1     -11.981  15.932  67.871  1.00  0.00     0.000 HD 
ATOM     16  H1  CYS A   1     -12.896  16.181  69.259  1.00  0.00     0.000 HD 
ATOM     17  OXT CYS A   1     -12.494  12.860  71.055  1.00  0.00    -0.371 OA 
ATOM     18  O   CYS A   1     -11.678  14.972  71.253  1.00  0.00    -0.309 OA 
ENDBRANCH  11  12
ENDBRANCH  10  11
ENDBRANCH   9  10
ENDBRANCH   8   9
ENDBRANCH   3   8
TORSDOF 5
ENDMDL
MODEL      243
REMARK 921   NORMALIZED FREE ENERGY PREDICTED BY IDOCK:   -2.63 KCAL/MOL
REMARK 922        TOTAL FREE ENERGY PREDICTED BY IDOCK:   -4.01 KCAL/MOL
REMARK 923 INTER-LIGAND FREE ENERGY PREDICTED BY IDOCK:   -3.66 KCAL/MOL
REMARK 924 INTRA-LIGAND FREE ENERGY PREDICTED BY IDOCK:   -0.35 KCAL/MOL
REMARK 927      BINDING AFFINITY PREDICTED BY RF-SCORE:    0.00 PKD
ROOT
ATOM      1  N   CYS A   1     -11.778  13.852  67.881  1.00  0.00    -0.341 NA 
ATOM      2  H2  CYS A   1     -12.482  13.825  68.618  1.00  0.00     0.000 HD 
ATOM      3  CA  CYS A   1     -10.754  12.780  68.096  1.00  0.00    -0.226 C  
ATOM      4  H1  CYS A   1     -11.392  14.793  67.793  1.00  0.00     0.000 HD 
ATOM      5  O   CYS A   1      -9.780  14.047  66.322  1.00  0.00    -0.288 OA 
ATOM      6  C   CYS A   1      -9.771  12.826  66.916  1.00  0.00    -0.234 C  
ATOM      7  OXT CYS A   1      -9.053  11.908  66.555  1.00  0.00    -0.204 OA 
ENDROOT
BRANCH   3   8
ATOM      8  CB  CYS A   1     -11.335  11.365  68.227  1.00  0.00    -0.286 C  
BRANCH   8   9
ATOM      9  SG  CYS A   1     -11.780  10.987  69.962  1.00  0.00    -0.382 SA 
BRANCH   9  10
ATOM     10  SG  CYS A   1     -10.275   9.696  70.515  1.00  0.00    -0.262 SA 
BRANCH  10  11
ATOM     11  CB  CYS A   1     -10.816   8.136  69.730  1.00  0.00    -0.190 C  
BRANCH  11  12
ATOM     12  CA  CYS A   1      -9.776   7.618  68.726  1.00  0.00    -0.153 C  
ATOM     13  N   CYS A   1      -8.659   8.588  68.484  1.00  0.00    -0.137 NA 
ATOM     14  C   CYS A   1     -10.503   7.391  67.400  1.00  0.00    -0.296 C  
ATOM     15  H2  CYS A   1      -8.215   8.858  69.363  1.00  0.00     0.000 HD 
ATOM     16  H1  CYS A   1      -7.968   8.243  67.818  1.00  0.00     0.000 HD 
ATOM     17  OXT CYS A   1     -11.254   6.460  67.160  1.00  0.00    -0.370 OA 
ATOM     18  O   CYS A   1     -10.250   8.394  66.517  1.00  0.00    -0.293 OA 
ENDBRANCH  11  12
ENDBRANCH  10  11
ENDBRANCH   9  10
ENDBRANCH   8   9
ENDBRANCH   3   8
TORSDOF 5
ENDMDL
MODEL      244
REMARK 921   NORMALIZED FREE ENERGY PREDICTED BY IDOCK:   -2.61 KCAL/MOL
REMARK 922        TOTAL FREE ENERGY PREDICTED BY IDOCK:   -3.99 KCAL/MOL
REMARK 923 INTER-LIGAND FREE ENERGY PREDICTED BY IDOCK:   -3.76 KCAL/MOL
REMARK 924 INTRA-LIGAND FREE ENERGY PREDICTED BY IDOCK:   -0.23 KCAL/MOL
REMARK 927      BINDING AFFINITY PREDICTED BY RF-SCORE:    0.00 PKD
ROOT
ATOM      1  N   CYS A   1      -7.337  15.350  66.805  1.00  0.00    -0.278 NA 
ATOM      2  H2  CYS A   1      -7.032  14.446  67.168  1.00  0.00     0.000 HD 
ATOM      3  CA  CYS A   1      -8.829  15.462  66.868  1.00  0.00    -0.253 C  
ATOM      4  H1  CYS A   1      -6.940  15.514  65.880  1.00  0.00     0.000 HD 
ATOM      5  O   CYS A   1      -8.239  17.398  65.601  1.00  0.00    -0.491 OA 
ATOM      6  C   CYS A   1      -9.215  16.868  66.382  1.00  0.00    -0.279 C  
ATOM      7  OXT CYS A   1     -10.262  17.443  66.634  1.00  0.00    -0.305 OA 
ENDROOT
BRANCH   3   8
ATOM      8  CB  CYS A   1      -9.427  15.216  68.261  1.00  0.00    -0.201 C  
BRANCH   8   9
ATOM      9  SG  CYS A   1     -10.520  13.748  68.265  1.00  0.00    -0.252 SA 
BRANCH   9  10
ATOM     10  SG  CYS A   1      -9.188  12.227  67.879  1.00  0.00    -0.196 SA 
BRANCH  10  11
ATOM     11  CB  CYS A   1     -10.176  11.132  66.799  1.00  0.00    -0.232 C  
BRANCH  11  12
ATOM     12  CA  CYS A   1      -9.453   9.806  66.524  1.00  0.00    -0.177 C  
ATOM     13  N   CYS A   1      -9.657   9.305  65.125  1.00  0.00    -0.458 NA 
ATOM     14  C   CYS A   1     -10.029   8.768  67.489  1.00  0.00    -0.198 C  
ATOM     15  H2  CYS A   1      -9.390  10.014  64.442  1.00  0.00     0.000 HD 
ATOM     16  H1  CYS A   1      -9.176   8.424  64.943  1.00  0.00     0.000 HD 
ATOM     17  OXT CYS A   1      -9.778   8.701  68.681  1.00  0.00    -0.157 OA 
ATOM     18  O   CYS A   1     -10.910   7.944  66.862  1.00  0.00    -0.288 OA 
ENDBRANCH  11  12
ENDBRANCH  10  11
ENDBRANCH   9  10
ENDBRANCH   8   9
ENDBRANCH   3   8
TORSDOF 5
ENDMDL
MODEL      245
REMARK 921   NORMALIZED FREE ENERGY PREDICTED BY IDOCK:   -2.61 KCAL/MOL
REMARK 922        TOTAL FREE ENERGY PREDICTED BY IDOCK:   -3.99 KCAL/MOL
REMARK 923 INTER-LIGAND FREE ENERGY PREDICTED BY IDOCK:   -3.61 KCAL/MOL
REMARK 924 INTRA-LIGAND FREE ENERGY PREDICTED BY IDOCK:   -0.38 KCAL/MOL
REMARK 927      BINDING AFFINITY PREDICTED BY RF-SCORE:    0.00 PKD
ROOT
ATOM      1  N   CYS A   1     -10.450   7.148  66.530  1.00  0.00    -0.504 NA 
ATOM      2  H2  CYS A   1     -10.775   6.356  67.085  1.00  0.00     0.000 HD 
ATOM      3  CA  CYS A   1      -9.198   7.721  67.121  1.00  0.00    -0.146 C  
ATOM      4  H1  CYS A   1     -11.203   7.824  66.400  1.00  0.00     0.000 HD 
ATOM      5  O   CYS A   1      -9.745   9.339  65.453  1.00  0.00    -0.251 OA 
ATOM      6  C   CYS A   1      -8.720   8.855  66.201  1.00  0.00    -0.153 C  
ATOM      7  OXT CYS A   1      -7.582   9.291  66.146  1.00  0.00    -0.094 OA 
ENDROOT
BRANCH   3   8
ATOM      8  CB  CYS A   1      -8.065   6.704  67.318  1.00  0.00    -0.121 C  
BRANCH   8   9
ATOM      9  SG  CYS A   1      -8.450   5.531  68.670  1.00  0.00    -0.103 SA 
BRANCH   9  10
ATOM     10  SG  CYS A   1      -8.883   6.806  70.226  1.00  0.00    -0.152 SA 
BRANCH  10  11
ATOM     11  CB  CYS A   1     -10.130   5.846  71.158  1.00  0.00    -0.198 C  
BRANCH  11  12
ATOM     12  CA  CYS A   1     -11.541   6.423  70.975  1.00  0.00    -0.325 C  
ATOM     13  N   CYS A   1     -11.888   6.680  69.539  1.00  0.00    -0.632 NA 
ATOM     14  C   CYS A   1     -11.583   7.757  71.721  1.00  0.00    -0.272 C  
ATOM     15  H2  CYS A   1     -11.763   5.837  68.978  1.00  0.00     0.000 HD 
ATOM     16  H1  CYS A   1     -12.826   7.063  69.418  1.00  0.00     0.000 HD 
ATOM     17  OXT CYS A   1     -11.648   7.884  72.932  1.00  0.00    -0.383 OA 
ATOM     18  O   CYS A   1     -11.488   8.808  70.862  1.00  0.00    -0.275 OA 
ENDBRANCH  11  12
ENDBRANCH  10  11
ENDBRANCH   9  10
ENDBRANCH   8   9
ENDBRANCH   3   8
TORSDOF 5
ENDMDL
MODEL      246
REMARK 921   NORMALIZED FREE ENERGY PREDICTED BY IDOCK:   -2.61 KCAL/MOL
REMARK 922        TOTAL FREE ENERGY PREDICTED BY IDOCK:   -3.99 KCAL/MOL
REMARK 923 INTER-LIGAND FREE ENERGY PREDICTED BY IDOCK:   -3.67 KCAL/MOL
REMARK 924 INTRA-LIGAND FREE ENERGY PREDICTED BY IDOCK:   -0.32 KCAL/MOL
REMARK 927      BINDING AFFINITY PREDICTED BY RF-SCORE:    0.00 PKD
ROOT
ATOM      1  N   CYS A   1     -11.093   6.355  66.900  1.00  0.00    -0.674 NA 
ATOM      2  H2  CYS A   1     -11.498   7.285  66.785  1.00  0.00     0.000 HD 
ATOM      3  CA  CYS A   1     -10.399   6.247  68.223  1.00  0.00    -0.194 C  
ATOM      4  H1  CYS A   1     -10.509   6.121  66.096  1.00  0.00     0.000 HD 
ATOM      5  O   CYS A   1      -9.739   4.219  67.149  1.00  0.00    -0.196 OA 
ATOM      6  C   CYS A   1      -9.881   4.807  68.364  1.00  0.00    -0.121 C  
ATOM      7  OXT CYS A   1      -9.607   4.253  69.416  1.00  0.00    -0.172 OA 
ENDROOT
BRANCH   3   8
ATOM      8  CB  CYS A   1     -11.278   6.599  69.432  1.00  0.00    -0.299 C  
BRANCH   8   9
ATOM      9  SG  CYS A   1     -10.713   8.143  70.237  1.00  0.00    -0.235 SA 
BRANCH   9  10
ATOM     10  SG  CYS A   1     -11.956   8.246  71.874  1.00  0.00    -0.355 SA 
BRANCH  10  11
ATOM     11  CB  CYS A   1     -10.892   7.561  73.194  1.00  0.00    -0.395 C  
BRANCH  11  12
ATOM     12  CA  CYS A   1     -10.585   6.076  72.959  1.00  0.00    -0.240 C  
ATOM     13  N   CYS A   1     -11.257   5.173  73.949  1.00  0.00    -0.427 NA 
ATOM     14  C   CYS A   1      -9.073   5.899  73.105  1.00  0.00    -0.130 C  
ATOM     15  H2  CYS A   1     -12.264   5.338  73.967  1.00  0.00     0.000 HD 
ATOM     16  H1  CYS A   1     -11.052   4.186  73.792  1.00  0.00     0.000 HD 
ATOM     17  OXT CYS A   1      -8.241   6.241  72.280  1.00  0.00    -0.109 OA 
ATOM     18  O   CYS A   1      -8.752   5.352  74.309  1.00  0.00    -0.118 OA 
ENDBRANCH  11  12
ENDBRANCH  10  11
ENDBRANCH   9  10
ENDBRANCH   8   9
ENDBRANCH   3   8
TORSDOF 5
ENDMDL
MODEL      247
REMARK 921   NORMALIZED FREE ENERGY PREDICTED BY IDOCK:   -2.61 KCAL/MOL
REMARK 922        TOTAL FREE ENERGY PREDICTED BY IDOCK:   -3.98 KCAL/MOL
REMARK 923 INTER-LIGAND FREE ENERGY PREDICTED BY IDOCK:   -3.64 KCAL/MOL
REMARK 924 INTRA-LIGAND FREE ENERGY PREDICTED BY IDOCK:   -0.35 KCAL/MOL
REMARK 927      BINDING AFFINITY PREDICTED BY RF-SCORE:    0.00 PKD
ROOT
ATOM      1  N   CYS A   1      -8.223  14.753  66.949  1.00  0.00    -0.361 NA 
ATOM      2  H2  CYS A   1      -8.276  14.020  66.241  1.00  0.00     0.000 HD 
ATOM      3  CA  CYS A   1      -9.577  15.349  67.187  1.00  0.00    -0.212 C  
ATOM      4  H1  CYS A   1      -7.501  15.431  66.704  1.00  0.00     0.000 HD 
ATOM      5  O   CYS A   1      -8.161  16.826  68.418  1.00  0.00    -0.205 OA 
ATOM      6  C   CYS A   1      -9.442  16.387  68.312  1.00  0.00    -0.217 C  
ATOM      7  OXT CYS A   1     -10.353  16.792  69.015  1.00  0.00    -0.287 OA 
ENDROOT
BRANCH   3   8
ATOM      8  CB  CYS A   1     -10.664  14.329  67.555  1.00  0.00    -0.270 C  
BRANCH   8   9
ATOM      9  SG  CYS A   1      -9.935  12.799  68.245  1.00  0.00    -0.216 SA 
BRANCH   9  10
ATOM     10  SG  CYS A   1     -11.386  12.201  69.577  1.00  0.00    -0.159 SA 
BRANCH  10  11
ATOM     11  CB  CYS A   1     -12.266  13.771  69.898  1.00  0.00    -0.321 C  
BRANCH  11  12
ATOM     12  CA  CYS A   1     -12.717  13.879  71.362  1.00  0.00    -0.365 C  
ATOM     13  N   CYS A   1     -14.196  14.071  71.508  1.00  0.00    -0.233 NA 
ATOM     14  C   CYS A   1     -12.018  15.100  71.960  1.00  0.00    -0.403 C  
ATOM     15  H2  CYS A   1     -14.708  13.334  71.022  1.00  0.00     0.000 HD 
ATOM     16  H1  CYS A   1     -14.495  14.142  72.481  1.00  0.00     0.000 HD 
ATOM     17  OXT CYS A   1     -10.841  15.151  72.279  1.00  0.00     0.020 OA 
ATOM     18  O   CYS A   1     -12.864  16.161  72.051  1.00  0.00    -0.409 OA 
ENDBRANCH  11  12
ENDBRANCH  10  11
ENDBRANCH   9  10
ENDBRANCH   8   9
ENDBRANCH   3   8
TORSDOF 5
ENDMDL
MODEL      248
REMARK 921   NORMALIZED FREE ENERGY PREDICTED BY IDOCK:   -2.60 KCAL/MOL
REMARK 922        TOTAL FREE ENERGY PREDICTED BY IDOCK:   -3.98 KCAL/MOL
REMARK 923 INTER-LIGAND FREE ENERGY PREDICTED BY IDOCK:   -3.67 KCAL/MOL
REMARK 924 INTRA-LIGAND FREE ENERGY PREDICTED BY IDOCK:   -0.31 KCAL/MOL
REMARK 927      BINDING AFFINITY PREDICTED BY RF-SCORE:    0.00 PKD
ROOT
ATOM      1  N   CYS A   1     -11.567   8.066  72.953  1.00  0.00    -0.542 NA 
ATOM      2  H2  CYS A   1     -11.009   8.766  73.442  1.00  0.00     0.000 HD 
ATOM      3  CA  CYS A   1     -11.214   8.041  71.497  1.00  0.00    -0.255 C  
ATOM      4  H1  CYS A   1     -12.559   8.204  73.145  1.00  0.00     0.000 HD 
ATOM      5  O   CYS A   1     -13.135   6.625  71.566  1.00  0.00    -0.243 OA 
ATOM      6  C   CYS A   1     -12.029   6.920  70.835  1.00  0.00    -0.381 C  
ATOM      7  OXT CYS A   1     -11.751   6.367  69.784  1.00  0.00    -0.414 OA 
ENDROOT
BRANCH   3   8
ATOM      8  CB  CYS A   1      -9.721   7.833  71.208  1.00  0.00    -0.157 C  
BRANCH   8   9
ATOM      9  SG  CYS A   1      -8.985   9.308  70.414  1.00  0.00    -0.252 SA 
BRANCH   9  10
ATOM     10  SG  CYS A   1     -10.372   9.742  68.956  1.00  0.00    -0.218 SA 
BRANCH  10  11
ATOM     11  CB  CYS A   1      -9.515   9.173  67.445  1.00  0.00    -0.143 C  
BRANCH  11  12
ATOM     12  CA  CYS A   1      -8.928  10.348  66.650  1.00  0.00    -0.141 C  
ATOM     13  N   CYS A   1      -8.897  11.628  67.431  1.00  0.00    -0.156 NA 
ATOM     14  C   CYS A   1      -9.825  10.559  65.429  1.00  0.00    -0.274 C  
ATOM     15  H2  CYS A   1      -8.402  11.503  68.315  1.00  0.00     0.000 HD 
ATOM     16  H1  CYS A   1      -8.507  12.408  66.902  1.00  0.00     0.000 HD 
ATOM     17  OXT CYS A   1      -9.842   9.848  64.438  1.00  0.00    -0.236 OA 
ATOM     18  O   CYS A   1     -10.654  11.624  65.600  1.00  0.00    -0.260 OA 
ENDBRANCH  11  12
ENDBRANCH  10  11
ENDBRANCH   9  10
ENDBRANCH   8   9
ENDBRANCH   3   8
TORSDOF 5
ENDMDL
MODEL      249
REMARK 921   NORMALIZED FREE ENERGY PREDICTED BY IDOCK:   -2.60 KCAL/MOL
REMARK 922        TOTAL FREE ENERGY PREDICTED BY IDOCK:   -3.97 KCAL/MOL
REMARK 923 INTER-LIGAND FREE ENERGY PREDICTED BY IDOCK:   -3.58 KCAL/MOL
REMARK 924 INTRA-LIGAND FREE ENERGY PREDICTED BY IDOCK:   -0.39 KCAL/MOL
REMARK 927      BINDING AFFINITY PREDICTED BY RF-SCORE:    0.00 PKD
ROOT
ATOM      1  N   CYS A   1      -8.909   6.509  65.112  1.00  0.00    -0.361 NA 
ATOM      2  H2  CYS A   1      -8.063   6.997  64.815  1.00  0.00     0.000 HD 
ATOM      3  CA  CYS A   1      -9.089   6.631  66.594  1.00  0.00    -0.145 C  
ATOM      4  H1  CYS A   1      -8.907   5.550  64.764  1.00  0.00     0.000 HD 
ATOM      5  O   CYS A   1     -10.774   5.039  66.018  1.00  0.00    -0.298 OA 
ATOM      6  C   CYS A   1     -10.414   5.945  66.964  1.00  0.00    -0.278 C  
ATOM      7  OXT CYS A   1     -11.063   6.155  67.975  1.00  0.00    -0.329 OA 
ENDROOT
BRANCH   3   8
ATOM      8  CB  CYS A   1      -9.093   8.074  67.118  1.00  0.00    -0.137 C  
BRANCH   8   9
ATOM      9  SG  CYS A   1      -8.119   8.223  68.661  1.00  0.00    -0.121 SA 
BRANCH   9  10
ATOM     10  SG  CYS A   1      -9.170   9.665  69.688  1.00  0.00    -0.225 SA 
BRANCH  10  11
ATOM     11  CB  CYS A   1     -10.576   9.974  68.561  1.00  0.00    -0.215 C  
BRANCH  11  12
ATOM     12  CA  CYS A   1     -10.738  11.470  68.255  1.00  0.00    -0.211 C  
ATOM     13  N   CYS A   1     -12.107  11.990  68.577  1.00  0.00    -0.364 NA 
ATOM     14  C   CYS A   1     -10.501  11.652  66.755  1.00  0.00    -0.230 C  
ATOM     15  H2  CYS A   1     -12.355  11.787  69.546  1.00  0.00     0.000 HD 
ATOM     16  H1  CYS A   1     -12.214  12.984  68.373  1.00  0.00     0.000 HD 
ATOM     17  OXT CYS A   1      -9.412  11.618  66.206  1.00  0.00    -0.206 OA 
ATOM     18  O   CYS A   1     -11.674  11.808  66.083  1.00  0.00    -0.462 OA 
ENDBRANCH  11  12
ENDBRANCH  10  11
ENDBRANCH   9  10
ENDBRANCH   8   9
ENDBRANCH   3   8
TORSDOF 5
ENDMDL
MODEL      250
REMARK 921   NORMALIZED FREE ENERGY PREDICTED BY IDOCK:   -2.60 KCAL/MOL
REMARK 922        TOTAL FREE ENERGY PREDICTED BY IDOCK:   -3.97 KCAL/MOL
REMARK 923 INTER-LIGAND FREE ENERGY PREDICTED BY IDOCK:   -3.71 KCAL/MOL
REMARK 924 INTRA-LIGAND FREE ENERGY PREDICTED BY IDOCK:   -0.26 KCAL/MOL
REMARK 927      BINDING AFFINITY PREDICTED BY RF-SCORE:    0.00 PKD
ROOT
ATOM      1  N   CYS A   1     -11.562   6.403  69.222  1.00  0.00    -0.607 NA 
ATOM      2  H2  CYS A   1     -12.369   7.020  69.128  1.00  0.00     0.000 HD 
ATOM      3  CA  CYS A   1     -10.890   6.218  67.896  1.00  0.00    -0.333 C  
ATOM      4  H1  CYS A   1     -11.832   5.534  69.683  1.00  0.00     0.000 HD 
ATOM      5  O   CYS A   1      -9.765   4.607  69.252  1.00  0.00    -0.170 OA 
ATOM      6  C   CYS A   1      -9.645   5.345  68.118  1.00  0.00    -0.124 C  
ATOM      7  OXT CYS A   1      -8.676   5.290  67.379  1.00  0.00    -0.109 OA 
ENDROOT
BRANCH   3   8
ATOM      8  CB  CYS A   1     -10.485   7.525  67.200  1.00  0.00    -0.336 C  
BRANCH   8   9
ATOM      9  SG  CYS A   1     -10.086   8.831  68.419  1.00  0.00    -0.195 SA 
BRANCH   9  10
ATOM     10  SG  CYS A   1      -9.552  10.401  67.200  1.00  0.00    -0.168 SA 
BRANCH  10  11
ATOM     11  CB  CYS A   1     -10.200   9.852  65.581  1.00  0.00    -0.159 C  
BRANCH  11  12
ATOM     12  CA  CYS A   1      -9.658  10.715  64.432  1.00  0.00    -0.295 C  
ATOM     13  N   CYS A   1     -10.685  10.999  63.377  1.00  0.00    -0.694 NA 
ATOM     14  C   CYS A   1      -8.514   9.935  63.783  1.00  0.00    -0.181 C  
ATOM     15  H2  CYS A   1     -11.520  11.420  63.786  1.00  0.00     0.000 HD 
ATOM     16  H1  CYS A   1     -10.325  11.573  62.614  1.00  0.00     0.000 HD 
ATOM     17  OXT CYS A   1      -7.398   9.799  64.257  1.00  0.00    -0.118 OA 
ATOM     18  O   CYS A   1      -8.907   9.357  62.616  1.00  0.00    -0.226 OA 
ENDBRANCH  11  12
ENDBRANCH  10  11
ENDBRANCH   9  10
ENDBRANCH   8   9
ENDBRANCH   3   8
TORSDOF 5
ENDMDL
MODEL      251
REMARK 921   NORMALIZED FREE ENERGY PREDICTED BY IDOCK:   -2.59 KCAL/MOL
REMARK 922        TOTAL FREE ENERGY PREDICTED BY IDOCK:   -3.96 KCAL/MOL
REMARK 923 INTER-LIGAND FREE ENERGY PREDICTED BY IDOCK:   -3.74 KCAL/MOL
REMARK 924 INTRA-LIGAND FREE ENERGY PREDICTED BY IDOCK:   -0.22 KCAL/MOL
REMARK 927      BINDING AFFINITY PREDICTED BY RF-SCORE:    0.00 PKD
ROOT
ATOM      1  N   CYS A   1      -8.933   8.066  65.501  1.00  0.00    -0.377 NA 
ATOM      2  H2  CYS A   1      -9.844   7.632  65.348  1.00  0.00     0.000 HD 
ATOM      3  CA  CYS A   1      -8.796   8.507  66.926  1.00  0.00    -0.137 C  
ATOM      4  H1  CYS A   1      -8.771   8.802  64.813  1.00  0.00     0.000 HD 
ATOM      5  O   CYS A   1      -6.863   9.480  65.917  1.00  0.00    -0.083 OA 
ATOM      6  C   CYS A   1      -7.382   9.079  67.106  1.00  0.00    -0.087 C  
ATOM      7  OXT CYS A   1      -6.791   9.188  68.169  1.00  0.00    -0.067 OA 
ENDROOT
BRANCH   3   8
ATOM      8  CB  CYS A   1      -9.040   7.400  67.961  1.00  0.00    -0.130 C  
BRANCH   8   9
ATOM      9  SG  CYS A   1     -10.709   6.671  67.774  1.00  0.00    -0.300 SA 
BRANCH   9  10
ATOM     10  SG  CYS A   1     -11.255   6.353  69.733  1.00  0.00    -0.426 SA 
BRANCH  10  11
ATOM     11  CB  CYS A   1     -10.699   7.901  70.530  1.00  0.00    -0.233 C  
BRANCH  11  12
ATOM     12  CA  CYS A   1     -11.423   8.143  71.862  1.00  0.00    -0.299 C  
ATOM     13  N   CYS A   1     -12.189   6.947  72.340  1.00  0.00    -0.507 NA 
ATOM     14  C   CYS A   1     -12.416   9.284  71.635  1.00  0.00    -0.368 C  
ATOM     15  H2  CYS A   1     -11.584   6.127  72.398  1.00  0.00     0.000 HD 
ATOM     16  H1  CYS A   1     -12.670   7.109  73.225  1.00  0.00     0.000 HD 
ATOM     17  OXT CYS A   1     -12.122  10.464  71.536  1.00  0.00    -0.353 OA 
ATOM     18  O   CYS A   1     -13.686   8.816  71.501  1.00  0.00    -0.372 OA 
ENDBRANCH  11  12
ENDBRANCH  10  11
ENDBRANCH   9  10
ENDBRANCH   8   9
ENDBRANCH   3   8
TORSDOF 5
ENDMDL
MODEL      252
REMARK 921   NORMALIZED FREE ENERGY PREDICTED BY IDOCK:   -2.59 KCAL/MOL
REMARK 922        TOTAL FREE ENERGY PREDICTED BY IDOCK:   -3.96 KCAL/MOL
REMARK 923 INTER-LIGAND FREE ENERGY PREDICTED BY IDOCK:   -3.82 KCAL/MOL
REMARK 924 INTRA-LIGAND FREE ENERGY PREDICTED BY IDOCK:   -0.15 KCAL/MOL
REMARK 927      BINDING AFFINITY PREDICTED BY RF-SCORE:    0.00 PKD
ROOT
ATOM      1  N   CYS A   1     -10.978   8.505  72.319  1.00  0.00    -0.359 NA 
ATOM      2  H2  CYS A   1     -10.986   9.490  72.585  1.00  0.00     0.000 HD 
ATOM      3  CA  CYS A   1     -11.597   8.324  70.967  1.00  0.00    -0.275 C  
ATOM      4  H1  CYS A   1     -11.397   7.935  73.055  1.00  0.00     0.000 HD 
ATOM      5  O   CYS A   1     -11.345   6.066  71.704  1.00  0.00    -0.278 OA 
ATOM      6  C   CYS A   1     -11.485   6.837  70.595  1.00  0.00    -0.351 C  
ATOM      7  OXT CYS A   1     -11.532   6.384  69.463  1.00  0.00    -0.407 OA 
ENDROOT
BRANCH   3   8
ATOM      8  CB  CYS A   1     -10.968   9.181  69.860  1.00  0.00    -0.204 C  
BRANCH   8   9
ATOM      9  SG  CYS A   1     -11.539  10.917  69.957  1.00  0.00    -0.362 SA 
BRANCH   9  10
ATOM     10  SG  CYS A   1     -11.392  11.522  67.995  1.00  0.00    -0.312 SA 
BRANCH  10  11
ATOM     11  CB  CYS A   1     -10.191  12.895  68.117  1.00  0.00    -0.239 C  
BRANCH  11  12
ATOM     12  CA  CYS A   1      -9.046  12.737  67.107  1.00  0.00    -0.219 C  
ATOM     13  N   CYS A   1      -9.526  12.530  65.702  1.00  0.00    -0.447 NA 
ATOM     14  C   CYS A   1      -8.246  11.501  67.523  1.00  0.00    -0.140 C  
ATOM     15  H2  CYS A   1     -10.159  13.279  65.420  1.00  0.00     0.000 HD 
ATOM     16  H1  CYS A   1      -8.764  12.425  65.032  1.00  0.00     0.000 HD 
ATOM     17  OXT CYS A   1      -7.473  11.448  68.466  1.00  0.00    -0.098 OA 
ATOM     18  O   CYS A   1      -8.540  10.432  66.735  1.00  0.00    -0.123 OA 
ENDBRANCH  11  12
ENDBRANCH  10  11
ENDBRANCH   9  10
ENDBRANCH   8   9
ENDBRANCH   3   8
TORSDOF 5
ENDMDL
MODEL      253
REMARK 921   NORMALIZED FREE ENERGY PREDICTED BY IDOCK:   -2.58 KCAL/MOL
REMARK 922        TOTAL FREE ENERGY PREDICTED BY IDOCK:   -3.96 KCAL/MOL
REMARK 923 INTER-LIGAND FREE ENERGY PREDICTED BY IDOCK:   -3.67 KCAL/MOL
REMARK 924 INTRA-LIGAND FREE ENERGY PREDICTED BY IDOCK:   -0.28 KCAL/MOL
REMARK 927      BINDING AFFINITY PREDICTED BY RF-SCORE:    0.00 PKD
ROOT
ATOM      1  N   CYS A   1      -8.383   4.093  68.959  1.00  0.00    -0.076 NA 
ATOM      2  H2  CYS A   1      -8.008   4.342  69.875  1.00  0.00     0.000 HD 
ATOM      3  CA  CYS A   1      -9.321   5.156  68.473  1.00  0.00    -0.125 C  
ATOM      4  H1  CYS A   1      -8.784   3.155  68.983  1.00  0.00     0.000 HD 
ATOM      5  O   CYS A   1      -9.659   3.423  66.866  1.00  0.00    -0.182 OA 
ATOM      6  C   CYS A   1      -9.790   4.760  67.065  1.00  0.00    -0.200 C  
ATOM      7  OXT CYS A   1     -10.241   5.523  66.227  1.00  0.00    -0.186 OA 
ENDROOT
BRANCH   3   8
ATOM      8  CB  CYS A   1      -8.718   6.568  68.437  1.00  0.00    -0.121 C  
BRANCH   8   9
ATOM      9  SG  CYS A   1      -9.832   7.787  69.226  1.00  0.00    -0.177 SA 
BRANCH   9  10
ATOM     10  SG  CYS A   1     -10.140   9.131  67.698  1.00  0.00    -0.236 SA 
BRANCH  10  11
ATOM     11  CB  CYS A   1      -9.774  10.722  68.522  1.00  0.00    -0.182 C  
BRANCH  11  12
ATOM     12  CA  CYS A   1     -11.040  11.572  68.697  1.00  0.00    -0.238 C  
ATOM     13  N   CYS A   1     -12.290  10.751  68.806  1.00  0.00    -0.792 NA 
ATOM     14  C   CYS A   1     -11.162  12.461  67.458  1.00  0.00    -0.294 C  
ATOM     15  H2  CYS A   1     -12.208  10.061  69.554  1.00  0.00     0.000 HD 
ATOM     16  H1  CYS A   1     -13.130  11.317  68.922  1.00  0.00     0.000 HD 
ATOM     17  OXT CYS A   1     -10.483  13.449  67.232  1.00  0.00    -0.246 OA 
ATOM     18  O   CYS A   1     -12.099  11.983  66.596  1.00  0.00    -0.615 OA 
ENDBRANCH  11  12
ENDBRANCH  10  11
ENDBRANCH   9  10
ENDBRANCH   8   9
ENDBRANCH   3   8
TORSDOF 5
ENDMDL
MODEL      254
REMARK 921   NORMALIZED FREE ENERGY PREDICTED BY IDOCK:   -2.58 KCAL/MOL
REMARK 922        TOTAL FREE ENERGY PREDICTED BY IDOCK:   -3.94 KCAL/MOL
REMARK 923 INTER-LIGAND FREE ENERGY PREDICTED BY IDOCK:   -3.74 KCAL/MOL
REMARK 924 INTRA-LIGAND FREE ENERGY PREDICTED BY IDOCK:   -0.20 KCAL/MOL
REMARK 927      BINDING AFFINITY PREDICTED BY RF-SCORE:    0.00 PKD
ROOT
ATOM      1  N   CYS A   1     -11.849  12.733  70.343  1.00  0.00    -0.550 NA 
ATOM      2  H2  CYS A   1     -11.316  13.007  69.518  1.00  0.00     0.000 HD 
ATOM      3  CA  CYS A   1     -12.232  11.287  70.261  1.00  0.00    -0.345 C  
ATOM      4  H1  CYS A   1     -12.634  13.370  70.486  1.00  0.00     0.000 HD 
ATOM      5  O   CYS A   1     -13.484  12.026  72.155  1.00  0.00    -0.476 OA 
ATOM      6  C   CYS A   1     -12.964  10.921  71.562  1.00  0.00    -0.451 C  
ATOM      7  OXT CYS A   1     -13.090   9.793  72.010  1.00  0.00    -0.414 OA 
ENDROOT
BRANCH   3   8
ATOM      8  CB  CYS A   1     -11.052  10.329  70.046  1.00  0.00    -0.311 C  
BRANCH   8   9
ATOM      9  SG  CYS A   1     -10.748  10.038  68.264  1.00  0.00    -0.239 SA 
BRANCH   9  10
ATOM     10  SG  CYS A   1      -8.811   9.341  68.273  1.00  0.00    -0.128 SA 
BRANCH  10  11
ATOM     11  CB  CYS A   1      -7.857  10.891  68.101  1.00  0.00    -0.114 C  
BRANCH  11  12
ATOM     12  CA  CYS A   1      -6.416  10.727  68.608  1.00  0.00    -0.055 C  
ATOM     13  N   CYS A   1      -6.054   9.302  68.899  1.00  0.00    -0.043 NA 
ATOM     14  C   CYS A   1      -6.303  11.522  69.910  1.00  0.00    -0.136 C  
ATOM     15  H2  CYS A   1      -6.224   8.710  68.085  1.00  0.00     0.000 HD 
ATOM     16  H1  CYS A   1      -5.097   9.194  69.235  1.00  0.00     0.000 HD 
ATOM     17  OXT CYS A   1      -6.234  12.737  69.988  1.00  0.00    -0.130 OA 
ATOM     18  O   CYS A   1      -6.341  10.702  70.995  1.00  0.00    -0.349 OA 
ENDBRANCH  11  12
ENDBRANCH  10  11
ENDBRANCH   9  10
ENDBRANCH   8   9
ENDBRANCH   3   8
TORSDOF 5
ENDMDL
MODEL      255
REMARK 921   NORMALIZED FREE ENERGY PREDICTED BY IDOCK:   -2.58 KCAL/MOL
REMARK 922        TOTAL FREE ENERGY PREDICTED BY IDOCK:   -3.94 KCAL/MOL
REMARK 923 INTER-LIGAND FREE ENERGY PREDICTED BY IDOCK:   -3.74 KCAL/MOL
REMARK 924 INTRA-LIGAND FREE ENERGY PREDICTED BY IDOCK:   -0.20 KCAL/MOL
REMARK 927      BINDING AFFINITY PREDICTED BY RF-SCORE:    0.00 PKD
ROOT
ATOM      1  N   CYS A   1     -11.525   6.498  68.977  1.00  0.00    -0.615 NA 
ATOM      2  H2  CYS A   1     -12.249   7.216  69.004  1.00  0.00     0.000 HD 
ATOM      3  CA  CYS A   1     -10.789   6.548  67.673  1.00  0.00    -0.337 C  
ATOM      4  H1  CYS A   1     -11.921   5.585  69.203  1.00  0.00     0.000 HD 
ATOM      5  O   CYS A   1      -9.947   4.535  68.641  1.00  0.00    -0.132 OA 
ATOM      6  C   CYS A   1      -9.668   5.498  67.725  1.00  0.00    -0.130 C  
ATOM      7  OXT CYS A   1      -8.664   5.498  67.032  1.00  0.00    -0.110 OA 
ENDROOT
BRANCH   3   8
ATOM      8  CB  CYS A   1     -10.193   7.921  67.331  1.00  0.00    -0.251 C  
BRANCH   8   9
ATOM      9  SG  CYS A   1      -9.789   8.866  68.846  1.00  0.00    -0.182 SA 
BRANCH   9  10
ATOM     10  SG  CYS A   1      -9.757  10.801  68.143  1.00  0.00    -0.164 SA 
BRANCH  10  11
ATOM     11  CB  CYS A   1     -11.514  11.281  68.295  1.00  0.00    -0.308 C  
BRANCH  11  12
ATOM     12  CA  CYS A   1     -11.768  12.685  67.728  1.00  0.00    -0.356 C  
ATOM     13  N   CYS A   1     -10.809  13.061  66.639  1.00  0.00    -0.273 NA 
ATOM     14  C   CYS A   1     -11.591  13.676  68.880  1.00  0.00    -0.322 C  
ATOM     15  H2  CYS A   1     -10.811  12.362  65.895  1.00  0.00     0.000 HD 
ATOM     16  H1  CYS A   1     -10.978  13.994  66.262  1.00  0.00     0.000 HD 
ATOM     17  OXT CYS A   1     -12.391  13.855  69.783  1.00  0.00    -0.329 OA 
ATOM     18  O   CYS A   1     -10.390  14.311  68.807  1.00  0.00    -0.237 OA 
ENDBRANCH  11  12
ENDBRANCH  10  11
ENDBRANCH   9  10
ENDBRANCH   8   9
ENDBRANCH   3   8
TORSDOF 5
ENDMDL
MODEL      256
REMARK 921   NORMALIZED FREE ENERGY PREDICTED BY IDOCK:   -2.56 KCAL/MOL
REMARK 922        TOTAL FREE ENERGY PREDICTED BY IDOCK:   -3.93 KCAL/MOL
REMARK 923 INTER-LIGAND FREE ENERGY PREDICTED BY IDOCK:   -3.65 KCAL/MOL
REMARK 924 INTRA-LIGAND FREE ENERGY PREDICTED BY IDOCK:   -0.28 KCAL/MOL
REMARK 927      BINDING AFFINITY PREDICTED BY RF-SCORE:    0.00 PKD
ROOT
ATOM      1  N   CYS A   1     -10.320  15.249  67.637  1.00  0.00    -0.247 NA 
ATOM      2  H2  CYS A   1      -9.700  15.838  67.081  1.00  0.00     0.000 HD 
ATOM      3  CA  CYS A   1     -10.925  14.176  66.785  1.00  0.00    -0.300 C  
ATOM      4  H1  CYS A   1     -10.999  15.822  68.139  1.00  0.00     0.000 HD 
ATOM      5  O   CYS A   1     -12.154  13.945  68.819  1.00  0.00    -0.354 OA 
ATOM      6  C   CYS A   1     -11.783  13.282  67.694  1.00  0.00    -0.366 C  
ATOM      7  OXT CYS A   1     -12.115  12.134  67.448  1.00  0.00    -0.553 OA 
ENDROOT
BRANCH   3   8
ATOM      8  CB  CYS A   1      -9.904  13.313  66.029  1.00  0.00    -0.263 C  
BRANCH   8   9
ATOM      9  SG  CYS A   1      -8.503  12.842  67.109  1.00  0.00    -0.153 SA 
BRANCH   9  10
ATOM     10  SG  CYS A   1      -8.803  10.818  67.333  1.00  0.00    -0.128 SA 
BRANCH  10  11
ATOM     11  CB  CYS A   1      -8.005  10.153  65.829  1.00  0.00    -0.140 C  
BRANCH  11  12
ATOM     12  CA  CYS A   1      -8.963   9.260  65.027  1.00  0.00    -0.197 C  
ATOM     13  N   CYS A   1      -8.745   7.797  65.271  1.00  0.00    -0.361 NA 
ATOM     14  C   CYS A   1      -8.706   9.538  63.545  1.00  0.00    -0.220 C  
ATOM     15  H2  CYS A   1      -8.795   7.583  66.268  1.00  0.00     0.000 HD 
ATOM     16  H1  CYS A   1      -9.381   7.205  64.739  1.00  0.00     0.000 HD 
ATOM     17  OXT CYS A   1      -9.070  10.535  62.943  1.00  0.00    -0.217 OA 
ATOM     18  O   CYS A   1      -7.964   8.550  62.977  1.00  0.00    -0.148 OA 
ENDBRANCH  11  12
ENDBRANCH  10  11
ENDBRANCH   9  10
ENDBRANCH   8   9
ENDBRANCH   3   8
TORSDOF 5
ENDMDL
MODEL      257
REMARK 921   NORMALIZED FREE ENERGY PREDICTED BY IDOCK:   -2.55 KCAL/MOL
REMARK 922        TOTAL FREE ENERGY PREDICTED BY IDOCK:   -3.91 KCAL/MOL
REMARK 923 INTER-LIGAND FREE ENERGY PREDICTED BY IDOCK:   -3.99 KCAL/MOL
REMARK 924 INTRA-LIGAND FREE ENERGY PREDICTED BY IDOCK:    0.09 KCAL/MOL
REMARK 927      BINDING AFFINITY PREDICTED BY RF-SCORE:    0.00 PKD
ROOT
ATOM      1  N   CYS A   1      -9.476  11.918  68.104  1.00  0.00    -0.190 NA 
ATOM      2  H2  CYS A   1      -9.973  12.590  68.688  1.00  0.00     0.000 HD 
ATOM      3  CA  CYS A   1     -10.242  11.654  66.844  1.00  0.00    -0.214 C  
ATOM      4  H1  CYS A   1      -9.246  11.082  68.642  1.00  0.00     0.000 HD 
ATOM      5  O   CYS A   1      -8.526   9.996  66.739  1.00  0.00    -0.125 OA 
ATOM      6  C   CYS A   1      -9.407  10.697  65.979  1.00  0.00    -0.186 C  
ATOM      7  OXT CYS A   1      -9.517  10.555  64.772  1.00  0.00    -0.212 OA 
ENDROOT
BRANCH   3   8
ATOM      8  CB  CYS A   1     -10.588  12.911  66.035  1.00  0.00    -0.270 C  
BRANCH   8   9
ATOM      9  SG  CYS A   1     -11.178  14.261  67.122  1.00  0.00    -0.336 SA 
BRANCH   9  10
ATOM     10  SG  CYS A   1      -9.784  15.733  66.765  1.00  0.00    -0.249 SA 
BRANCH  10  11
ATOM     11  CB  CYS A   1     -10.411  17.099  67.805  1.00  0.00    -0.362 C  
BRANCH  11  12
ATOM     12  CA  CYS A   1      -9.331  18.162  68.056  1.00  0.00    -0.283 C  
ATOM     13  N   CYS A   1      -9.736  19.181  69.078  1.00  0.00    -0.390 NA 
ATOM     14  C   CYS A   1      -9.095  18.886  66.730  1.00  0.00    -0.312 C  
ATOM     15  H2  CYS A   1     -10.014  18.730  69.951  1.00  0.00     0.000 HD 
ATOM     16  H1  CYS A   1      -9.018  19.886  69.244  1.00  0.00     0.000 HD 
ATOM     17  OXT CYS A   1      -8.481  18.431  65.780  1.00  0.00    -0.468 OA 
ATOM     18  O   CYS A   1      -9.705  20.102  66.714  1.00  0.00    -0.395 OA 
ENDBRANCH  11  12
ENDBRANCH  10  11
ENDBRANCH   9  10
ENDBRANCH   8   9
ENDBRANCH   3   8
TORSDOF 5
ENDMDL
MODEL      258
REMARK 921   NORMALIZED FREE ENERGY PREDICTED BY IDOCK:   -2.55 KCAL/MOL
REMARK 922        TOTAL FREE ENERGY PREDICTED BY IDOCK:   -3.90 KCAL/MOL
REMARK 923 INTER-LIGAND FREE ENERGY PREDICTED BY IDOCK:   -3.35 KCAL/MOL
REMARK 924 INTRA-LIGAND FREE ENERGY PREDICTED BY IDOCK:   -0.55 KCAL/MOL
REMARK 927      BINDING AFFINITY PREDICTED BY RF-SCORE:    0.00 PKD
ROOT
ATOM      1  N   CYS A   1     -10.908  13.833  68.813  1.00  0.00    -0.256 NA 
ATOM      2  H2  CYS A   1     -10.970  13.259  69.654  1.00  0.00     0.000 HD 
ATOM      3  CA  CYS A   1     -10.437  13.012  67.652  1.00  0.00    -0.225 C  
ATOM      4  H1  CYS A   1     -10.349  14.668  68.994  1.00  0.00     0.000 HD 
ATOM      5  O   CYS A   1     -10.366  15.224  66.756  1.00  0.00    -0.268 OA 
ATOM      6  C   CYS A   1     -10.439  13.913  66.408  1.00  0.00    -0.284 C  
ATOM      7  OXT CYS A   1     -10.478  13.525  65.252  1.00  0.00    -0.307 OA 
ENDROOT
BRANCH   3   8
ATOM      8  CB  CYS A   1     -11.278  11.756  67.380  1.00  0.00    -0.297 C  
BRANCH   8   9
ATOM      9  SG  CYS A   1     -11.151  10.559  68.758  1.00  0.00    -0.271 SA 
BRANCH   9  10
ATOM     10  SG  CYS A   1      -9.992   9.075  67.925  1.00  0.00    -0.189 SA 
BRANCH  10  11
ATOM     11  CB  CYS A   1     -10.075   9.492  66.147  1.00  0.00    -0.256 C  
BRANCH  11  12
ATOM     12  CA  CYS A   1      -8.683   9.789  65.570  1.00  0.00    -0.149 C  
ATOM     13  N   CYS A   1      -8.516  11.217  65.146  1.00  0.00    -0.375 NA 
ATOM     14  C   CYS A   1      -8.508   8.903  64.336  1.00  0.00    -0.153 C  
ATOM     15  H2  CYS A   1      -8.736  11.853  65.913  1.00  0.00     0.000 HD 
ATOM     16  H1  CYS A   1      -7.592  11.414  64.763  1.00  0.00     0.000 HD 
ATOM     17  OXT CYS A   1      -8.285   7.704  64.357  1.00  0.00    -0.122 OA 
ATOM     18  O   CYS A   1      -8.684   9.611  63.188  1.00  0.00    -0.199 OA 
ENDBRANCH  11  12
ENDBRANCH  10  11
ENDBRANCH   9  10
ENDBRANCH   8   9
ENDBRANCH   3   8
TORSDOF 5
ENDMDL
MODEL      259
REMARK 921   NORMALIZED FREE ENERGY PREDICTED BY IDOCK:   -2.54 KCAL/MOL
REMARK 922        TOTAL FREE ENERGY PREDICTED BY IDOCK:   -3.90 KCAL/MOL
REMARK 923 INTER-LIGAND FREE ENERGY PREDICTED BY IDOCK:   -3.89 KCAL/MOL
REMARK 924 INTRA-LIGAND FREE ENERGY PREDICTED BY IDOCK:   -0.01 KCAL/MOL
REMARK 927      BINDING AFFINITY PREDICTED BY RF-SCORE:    0.00 PKD
ROOT
ATOM      1  N   CYS A   1      -8.505  17.857  65.707  1.00  0.00    -0.434 NA 
ATOM      2  H2  CYS A   1      -8.089  16.927  65.675  1.00  0.00     0.000 HD 
ATOM      3  CA  CYS A   1      -9.770  17.837  66.510  1.00  0.00    -0.320 C  
ATOM      4  H1  CYS A   1      -8.611  18.232  64.763  1.00  0.00     0.000 HD 
ATOM      5  O   CYS A   1      -9.823  20.026  65.557  1.00  0.00    -0.303 OA 
ATOM      6  C   CYS A   1     -10.304  19.276  66.582  1.00  0.00    -0.438 C  
ATOM      7  OXT CYS A   1     -11.073  19.704  67.427  1.00  0.00    -0.398 OA 
ENDROOT
BRANCH   3   8
ATOM      8  CB  CYS A   1      -9.612  17.273  67.929  1.00  0.00    -0.269 C  
BRANCH   8   9
ATOM      9  SG  CYS A   1     -11.026  16.203  68.381  1.00  0.00    -0.353 SA 
BRANCH   9  10
ATOM     10  SG  CYS A   1     -10.211  14.322  68.198  1.00  0.00    -0.236 SA 
BRANCH  10  11
ATOM     11  CB  CYS A   1      -8.784  14.640  67.100  1.00  0.00    -0.222 C  
BRANCH  11  12
ATOM     12  CA  CYS A   1      -7.492  14.861  67.899  1.00  0.00    -0.141 C  
ATOM     13  N   CYS A   1      -6.455  15.631  67.139  1.00  0.00    -0.302 NA 
ATOM     14  C   CYS A   1      -6.918  13.479  68.218  1.00  0.00    -0.108 C  
ATOM     15  H2  CYS A   1      -6.833  16.519  66.806  1.00  0.00     0.000 HD 
ATOM     16  H1  CYS A   1      -5.597  15.777  67.670  1.00  0.00     0.000 HD 
ATOM     17  OXT CYS A   1      -7.355  12.714  69.062  1.00  0.00    -0.057 OA 
ATOM     18  O   CYS A   1      -5.874  13.175  67.401  1.00  0.00    -0.303 OA 
ENDBRANCH  11  12
ENDBRANCH  10  11
ENDBRANCH   9  10
ENDBRANCH   8   9
ENDBRANCH   3   8
TORSDOF 5
ENDMDL
MODEL      260
REMARK 921   NORMALIZED FREE ENERGY PREDICTED BY IDOCK:   -2.54 KCAL/MOL
REMARK 922        TOTAL FREE ENERGY PREDICTED BY IDOCK:   -3.90 KCAL/MOL
REMARK 923 INTER-LIGAND FREE ENERGY PREDICTED BY IDOCK:   -3.58 KCAL/MOL
REMARK 924 INTRA-LIGAND FREE ENERGY PREDICTED BY IDOCK:   -0.32 KCAL/MOL
REMARK 927      BINDING AFFINITY PREDICTED BY RF-SCORE:    0.00 PKD
ROOT
ATOM      1  N   CYS A   1      -8.745   7.535  69.473  1.00  0.00    -0.137 NA 
ATOM      2  H2  CYS A   1      -8.087   8.307  69.588  1.00  0.00     0.000 HD 
ATOM      3  CA  CYS A   1      -9.963   7.758  70.317  1.00  0.00    -0.189 C  
ATOM      4  H1  CYS A   1      -8.278   6.643  69.634  1.00  0.00     0.000 HD 
ATOM      5  O   CYS A   1     -10.290   5.519  69.554  1.00  0.00    -0.236 OA 
ATOM      6  C   CYS A   1     -10.942   6.606  70.042  1.00  0.00    -0.311 C  
ATOM      7  OXT CYS A   1     -12.145   6.634  70.245  1.00  0.00    -0.350 OA 
ENDROOT
BRANCH   3   8
ATOM      8  CB  CYS A   1     -10.667   9.101  70.077  1.00  0.00    -0.232 C  
BRANCH   8   9
ATOM      9  SG  CYS A   1      -9.628  10.226  69.073  1.00  0.00    -0.212 SA 
BRANCH   9  10
ATOM     10  SG  CYS A   1     -10.484  10.042  67.210  1.00  0.00    -0.253 SA 
BRANCH  10  11
ATOM     11  CB  CYS A   1     -11.270  11.679  66.998  1.00  0.00    -0.314 C  
BRANCH  11  12
ATOM     12  CA  CYS A   1     -10.419  12.606  66.117  1.00  0.00    -0.258 C  
ATOM     13  N   CYS A   1      -9.407  11.867  65.294  1.00  0.00    -0.430 NA 
ATOM     14  C   CYS A   1      -9.670  13.555  67.053  1.00  0.00    -0.251 C  
ATOM     15  H2  CYS A   1      -9.854  11.140  64.734  1.00  0.00     0.000 HD 
ATOM     16  H1  CYS A   1      -8.843  12.483  64.709  1.00  0.00     0.000 HD 
ATOM     17  OXT CYS A   1     -10.166  14.504  67.638  1.00  0.00    -0.225 OA 
ATOM     18  O   CYS A   1      -8.370  13.181  67.200  1.00  0.00    -0.181 OA 
ENDBRANCH  11  12
ENDBRANCH  10  11
ENDBRANCH   9  10
ENDBRANCH   8   9
ENDBRANCH   3   8
TORSDOF 5
ENDMDL
MODEL      261
REMARK 921   NORMALIZED FREE ENERGY PREDICTED BY IDOCK:   -2.53 KCAL/MOL
REMARK 922        TOTAL FREE ENERGY PREDICTED BY IDOCK:   -3.88 KCAL/MOL
REMARK 923 INTER-LIGAND FREE ENERGY PREDICTED BY IDOCK:   -3.25 KCAL/MOL
REMARK 924 INTRA-LIGAND FREE ENERGY PREDICTED BY IDOCK:   -0.63 KCAL/MOL
REMARK 927      BINDING AFFINITY PREDICTED BY RF-SCORE:    0.00 PKD
ROOT
ATOM      1  N   CYS A   1      -8.636   7.316  69.720  1.00  0.00    -0.140 NA 
ATOM      2  H2  CYS A   1      -7.774   7.714  70.093  1.00  0.00     0.000 HD 
ATOM      3  CA  CYS A   1      -9.127   8.129  68.561  1.00  0.00    -0.136 C  
ATOM      4  H1  CYS A   1      -9.320   7.188  70.466  1.00  0.00     0.000 HD 
ATOM      5  O   CYS A   1     -10.958   6.642  68.937  1.00  0.00    -0.263 OA 
ATOM      6  C   CYS A   1     -10.379   7.437  68.000  1.00  0.00    -0.199 C  
ATOM      7  OXT CYS A   1     -10.824   7.582  66.873  1.00  0.00    -0.345 OA 
ENDROOT
BRANCH   3   8
ATOM      8  CB  CYS A   1      -8.098   8.322  67.439  1.00  0.00    -0.121 C  
BRANCH   8   9
ATOM      9  SG  CYS A   1      -7.684  10.091  67.213  1.00  0.00    -0.095 SA 
BRANCH   9  10
ATOM     10  SG  CYS A   1      -9.027  11.005  68.477  1.00  0.00    -0.164 SA 
BRANCH  10  11
ATOM     11  CB  CYS A   1      -9.585  12.422  67.465  1.00  0.00    -0.185 C  
BRANCH  11  12
ATOM     12  CA  CYS A   1     -10.898  12.113  66.732  1.00  0.00    -0.248 C  
ATOM     13  N   CYS A   1     -11.468  10.773  67.089  1.00  0.00    -0.363 NA 
ATOM     14  C   CYS A   1     -10.589  12.114  65.234  1.00  0.00    -0.281 C  
ATOM     15  H2  CYS A   1     -11.585  10.685  68.099  1.00  0.00     0.000 HD 
ATOM     16  H1  CYS A   1     -12.340  10.568  66.602  1.00  0.00     0.000 HD 
ATOM     17  OXT CYS A   1     -10.401  13.110  64.555  1.00  0.00    -0.381 OA 
ATOM     18  O   CYS A   1     -10.497  10.847  64.746  1.00  0.00    -0.328 OA 
ENDBRANCH  11  12
ENDBRANCH  10  11
ENDBRANCH   9  10
ENDBRANCH   8   9
ENDBRANCH   3   8
TORSDOF 5
ENDMDL
MODEL      262
REMARK 921   NORMALIZED FREE ENERGY PREDICTED BY IDOCK:   -2.53 KCAL/MOL
REMARK 922        TOTAL FREE ENERGY PREDICTED BY IDOCK:   -3.88 KCAL/MOL
REMARK 923 INTER-LIGAND FREE ENERGY PREDICTED BY IDOCK:   -3.69 KCAL/MOL
REMARK 924 INTRA-LIGAND FREE ENERGY PREDICTED BY IDOCK:   -0.19 KCAL/MOL
REMARK 927      BINDING AFFINITY PREDICTED BY RF-SCORE:    0.00 PKD
ROOT
ATOM      1  N   CYS A   1     -10.020   8.626  66.026  1.00  0.00    -0.460 NA 
ATOM      2  H2  CYS A   1     -10.373   7.703  65.772  1.00  0.00     0.000 HD 
ATOM      3  CA  CYS A   1     -10.523   9.022  67.380  1.00  0.00    -0.269 C  
ATOM      4  H1  CYS A   1     -10.223   9.300  65.287  1.00  0.00     0.000 HD 
ATOM      5  O   CYS A   1      -9.511  11.045  66.616  1.00  0.00    -0.179 OA 
ATOM      6  C   CYS A   1      -9.898  10.380  67.735  1.00  0.00    -0.168 C  
ATOM      7  OXT CYS A   1      -9.773  10.831  68.862  1.00  0.00    -0.188 OA 
ENDROOT
BRANCH   3   8
ATOM      8  CB  CYS A   1     -10.220   8.009  68.493  1.00  0.00    -0.207 C  
BRANCH   8   9
ATOM      9  SG  CYS A   1     -10.819   6.337  68.052  1.00  0.00    -0.321 SA 
BRANCH   9  10
ATOM     10  SG  CYS A   1      -9.951   5.176  69.513  1.00  0.00    -0.246 SA 
BRANCH  10  11
ATOM     11  CB  CYS A   1      -9.993   6.299  70.955  1.00  0.00    -0.186 C  
BRANCH  11  12
ATOM     12  CA  CYS A   1     -11.174   5.983  71.884  1.00  0.00    -0.282 C  
ATOM     13  N   CYS A   1     -11.709   7.195  72.586  1.00  0.00    -0.505 NA 
ATOM     14  C   CYS A   1     -10.664   5.007  72.945  1.00  0.00    -0.242 C  
ATOM     15  H2  CYS A   1     -11.958   7.924  71.915  1.00  0.00     0.000 HD 
ATOM     16  H1  CYS A   1     -12.493   6.985  73.203  1.00  0.00     0.000 HD 
ATOM     17  OXT CYS A   1     -10.442   3.821  72.762  1.00  0.00    -0.164 OA 
ATOM     18  O   CYS A   1     -10.433   5.637  74.129  1.00  0.00    -0.270 OA 
ENDBRANCH  11  12
ENDBRANCH  10  11
ENDBRANCH   9  10
ENDBRANCH   8   9
ENDBRANCH   3   8
TORSDOF 5
ENDMDL
MODEL      263
REMARK 921   NORMALIZED FREE ENERGY PREDICTED BY IDOCK:   -2.52 KCAL/MOL
REMARK 922        TOTAL FREE ENERGY PREDICTED BY IDOCK:   -3.88 KCAL/MOL
REMARK 923 INTER-LIGAND FREE ENERGY PREDICTED BY IDOCK:   -3.71 KCAL/MOL
REMARK 924 INTRA-LIGAND FREE ENERGY PREDICTED BY IDOCK:   -0.16 KCAL/MOL
REMARK 927      BINDING AFFINITY PREDICTED BY RF-SCORE:    0.00 PKD
ROOT
ATOM      1  N   CYS A   1     -12.081  13.781  71.516  1.00  0.00    -0.295 NA 
ATOM      2  H2  CYS A   1     -11.802  14.694  71.157  1.00  0.00     0.000 HD 
ATOM      3  CA  CYS A   1     -12.569  12.908  70.400  1.00  0.00    -0.074 C  
ATOM      4  H1  CYS A   1     -12.741  13.889  72.286  1.00  0.00     0.000 HD 
ATOM      5  O   CYS A   1     -13.142  11.619  72.326  1.00  0.00    -0.375 OA 
ATOM      6  C   CYS A   1     -12.901  11.530  70.992  1.00  0.00    -0.263 C  
ATOM      7  OXT CYS A   1     -12.963  10.485  70.365  1.00  0.00    -0.314 OA 
ENDROOT
BRANCH   3   8
ATOM      8  CB  CYS A   1     -11.577  12.746  69.240  1.00  0.00    -0.314 C  
BRANCH   8   9
ATOM      9  SG  CYS A   1     -11.865  13.999  67.937  1.00  0.00    -0.363 SA 
BRANCH   9  10
ATOM     10  SG  CYS A   1     -11.856  12.847  66.231  1.00  0.00    -0.413 SA 
BRANCH  10  11
ATOM     11  CB  CYS A   1     -10.099  12.933  65.733  1.00  0.00    -0.287 C  
BRANCH  11  12
ATOM     12  CA  CYS A   1      -9.168  13.004  66.952  1.00  0.00    -0.236 C  
ATOM     13  N   CYS A   1      -8.058  13.998  66.787  1.00  0.00    -0.348 NA 
ATOM     14  C   CYS A   1      -8.543  11.618  67.124  1.00  0.00    -0.164 C  
ATOM     15  H2  CYS A   1      -8.428  14.921  66.557  1.00  0.00     0.000 HD 
ATOM     16  H1  CYS A   1      -7.440  14.044  67.597  1.00  0.00     0.000 HD 
ATOM     17  OXT CYS A   1      -9.117  10.638  67.570  1.00  0.00    -0.139 OA 
ATOM     18  O   CYS A   1      -7.264  11.591  66.663  1.00  0.00    -0.132 OA 
ENDBRANCH  11  12
ENDBRANCH  10  11
ENDBRANCH   9  10
ENDBRANCH   8   9
ENDBRANCH   3   8
TORSDOF 5
ENDMDL
MODEL      264
REMARK 921   NORMALIZED FREE ENERGY PREDICTED BY IDOCK:   -2.52 KCAL/MOL
REMARK 922        TOTAL FREE ENERGY PREDICTED BY IDOCK:   -3.87 KCAL/MOL
REMARK 923 INTER-LIGAND FREE ENERGY PREDICTED BY IDOCK:   -3.55 KCAL/MOL
REMARK 924 INTRA-LIGAND FREE ENERGY PREDICTED BY IDOCK:   -0.32 KCAL/MOL
REMARK 927      BINDING AFFINITY PREDICTED BY RF-SCORE:    0.00 PKD
ROOT
ATOM      1  N   CYS A   1     -10.133   9.905  64.083  1.00  0.00    -0.394 NA 
ATOM      2  H2  CYS A   1     -10.837  10.643  64.067  1.00  0.00     0.000 HD 
ATOM      3  CA  CYS A   1      -9.032  10.255  65.037  1.00  0.00    -0.196 C  
ATOM      4  H1  CYS A   1      -9.818   9.694  63.135  1.00  0.00     0.000 HD 
ATOM      5  O   CYS A   1      -8.146   8.327  63.942  1.00  0.00    -0.151 OA 
ATOM      6  C   CYS A   1      -8.048   9.075  65.071  1.00  0.00    -0.137 C  
ATOM      7  OXT CYS A   1      -7.260   8.835  65.971  1.00  0.00    -0.085 OA 
ENDROOT
BRANCH   3   8
ATOM      8  CB  CYS A   1      -9.504  10.573  66.463  1.00  0.00    -0.166 C  
BRANCH   8   9
ATOM      9  SG  CYS A   1      -8.750  12.121  67.083  1.00  0.00    -0.195 SA 
BRANCH   9  10
ATOM     10  SG  CYS A   1     -10.259  12.888  68.254  1.00  0.00    -0.244 SA 
BRANCH  10  11
ATOM     11  CB  CYS A   1     -10.126  14.678  67.906  1.00  0.00    -0.225 C  
BRANCH  11  12
ATOM     12  CA  CYS A   1      -9.117  14.964  66.786  1.00  0.00    -0.270 C  
ATOM     13  N   CYS A   1      -8.151  16.058  67.130  1.00  0.00    -0.180 NA 
ATOM     14  C   CYS A   1      -9.917  15.405  65.559  1.00  0.00    -0.344 C  
ATOM     15  H2  CYS A   1      -7.673  15.858  68.009  1.00  0.00     0.000 HD 
ATOM     16  H1  CYS A   1      -7.481  16.247  66.385  1.00  0.00     0.000 HD 
ATOM     17  OXT CYS A   1     -10.565  14.664  64.838  1.00  0.00    -0.416 OA 
ATOM     18  O   CYS A   1      -9.863  16.753  65.391  1.00  0.00    -0.547 OA 
ENDBRANCH  11  12
ENDBRANCH  10  11
ENDBRANCH   9  10
ENDBRANCH   8   9
ENDBRANCH   3   8
TORSDOF 5
ENDMDL
MODEL      265
REMARK 921   NORMALIZED FREE ENERGY PREDICTED BY IDOCK:   -2.51 KCAL/MOL
REMARK 922        TOTAL FREE ENERGY PREDICTED BY IDOCK:   -3.86 KCAL/MOL
REMARK 923 INTER-LIGAND FREE ENERGY PREDICTED BY IDOCK:   -3.71 KCAL/MOL
REMARK 924 INTRA-LIGAND FREE ENERGY PREDICTED BY IDOCK:   -0.15 KCAL/MOL
REMARK 927      BINDING AFFINITY PREDICTED BY RF-SCORE:    0.00 PKD
ROOT
ATOM      1  N   CYS A   1      -6.860  11.359  66.126  1.00  0.00    -0.371 NA 
ATOM      2  H2  CYS A   1      -6.589  12.176  65.579  1.00  0.00     0.000 HD 
ATOM      3  CA  CYS A   1      -7.235  11.762  67.519  1.00  0.00    -0.123 C  
ATOM      4  H1  CYS A   1      -6.136  10.641  66.075  1.00  0.00     0.000 HD 
ATOM      5  O   CYS A   1      -7.204   9.380  67.683  1.00  0.00    -0.082 OA 
ATOM      6  C   CYS A   1      -7.705  10.502  68.262  1.00  0.00    -0.101 C  
ATOM      7  OXT CYS A   1      -8.416  10.487  69.254  1.00  0.00    -0.157 OA 
ENDROOT
BRANCH   3   8
ATOM      8  CB  CYS A   1      -8.324  12.842  67.596  1.00  0.00    -0.175 C  
BRANCH   8   9
ATOM      9  SG  CYS A   1      -7.594  14.514  67.742  1.00  0.00    -0.175 SA 
BRANCH   9  10
ATOM     10  SG  CYS A   1      -9.165  15.597  68.512  1.00  0.00    -0.206 SA 
BRANCH  10  11
ATOM     11  CB  CYS A   1      -9.934  16.268  66.995  1.00  0.00    -0.255 C  
BRANCH  11  12
ATOM     12  CA  CYS A   1      -9.364  17.647  66.633  1.00  0.00    -0.278 C  
ATOM     13  N   CYS A   1      -8.797  18.376  67.815  1.00  0.00    -0.274 NA 
ATOM     14  C   CYS A   1     -10.517  18.479  66.071  1.00  0.00    -0.400 C  
ATOM     15  H2  CYS A   1      -8.098  17.806  68.292  1.00  0.00     0.000 HD 
ATOM     16  H1  CYS A   1      -8.418  19.292  67.574  1.00  0.00     0.000 HD 
ATOM     17  OXT CYS A   1     -11.003  18.346  64.959  1.00  0.00    -0.644 OA 
ATOM     18  O   CYS A   1     -10.982  19.367  66.990  1.00  0.00    -0.467 OA 
ENDBRANCH  11  12
ENDBRANCH  10  11
ENDBRANCH   9  10
ENDBRANCH   8   9
ENDBRANCH   3   8
TORSDOF 5
ENDMDL
MODEL      266
REMARK 921   NORMALIZED FREE ENERGY PREDICTED BY IDOCK:   -2.50 KCAL/MOL
REMARK 922        TOTAL FREE ENERGY PREDICTED BY IDOCK:   -3.85 KCAL/MOL
REMARK 923 INTER-LIGAND FREE ENERGY PREDICTED BY IDOCK:   -3.89 KCAL/MOL
REMARK 924 INTRA-LIGAND FREE ENERGY PREDICTED BY IDOCK:    0.04 KCAL/MOL
REMARK 927      BINDING AFFINITY PREDICTED BY RF-SCORE:    0.00 PKD
ROOT
ATOM      1  N   CYS A   1      -9.908  12.439  69.037  1.00  0.00    -0.400 NA 
ATOM      2  H2  CYS A   1      -9.415  12.979  69.748  1.00  0.00     0.000 HD 
ATOM      3  CA  CYS A   1     -10.432  13.343  67.963  1.00  0.00    -0.239 C  
ATOM      4  H1  CYS A   1     -10.616  11.844  69.469  1.00  0.00     0.000 HD 
ATOM      5  O   CYS A   1     -11.461  11.262  67.404  1.00  0.00    -0.450 OA 
ATOM      6  C   CYS A   1     -11.094  12.465  66.891  1.00  0.00    -0.287 C  
ATOM      7  OXT CYS A   1     -11.292  12.790  65.731  1.00  0.00    -0.297 OA 
ENDROOT
BRANCH   3   8
ATOM      8  CB  CYS A   1      -9.368  14.238  67.312  1.00  0.00    -0.213 C  
BRANCH   8   9
ATOM      9  SG  CYS A   1      -9.052  15.735  68.317  1.00  0.00    -0.190 SA 
BRANCH   9  10
ATOM     10  SG  CYS A   1      -8.724  17.158  66.867  1.00  0.00    -0.244 SA 
BRANCH  10  11
ATOM     11  CB  CYS A   1      -6.964  17.571  67.141  1.00  0.00    -0.171 C  
BRANCH  11  12
ATOM     12  CA  CYS A   1      -6.729  19.089  67.118  1.00  0.00    -0.197 C  
ATOM     13  N   CYS A   1      -7.413  19.807  68.242  1.00  0.00    -0.310 NA 
ATOM     14  C   CYS A   1      -7.301  19.614  65.800  1.00  0.00    -0.304 C  
ATOM     15  H2  CYS A   1      -7.145  19.410  69.143  1.00  0.00     0.000 HD 
ATOM     16  H1  CYS A   1      -7.256  20.814  68.226  1.00  0.00     0.000 HD 
ATOM     17  OXT CYS A   1      -6.783  19.478  64.704  1.00  0.00    -0.373 OA 
ATOM     18  O   CYS A   1      -8.505  20.218  65.989  1.00  0.00    -0.217 OA 
ENDBRANCH  11  12
ENDBRANCH  10  11
ENDBRANCH   9  10
ENDBRANCH   8   9
ENDBRANCH   3   8
TORSDOF 5
ENDMDL
MODEL      267
REMARK 921   NORMALIZED FREE ENERGY PREDICTED BY IDOCK:   -2.50 KCAL/MOL
REMARK 922        TOTAL FREE ENERGY PREDICTED BY IDOCK:   -3.85 KCAL/MOL
REMARK 923 INTER-LIGAND FREE ENERGY PREDICTED BY IDOCK:   -3.70 KCAL/MOL
REMARK 924 INTRA-LIGAND FREE ENERGY PREDICTED BY IDOCK:   -0.15 KCAL/MOL
REMARK 927      BINDING AFFINITY PREDICTED BY RF-SCORE:    0.00 PKD
ROOT
ATOM      1  N   CYS A   1      -9.156   7.638  65.618  1.00  0.00    -0.391 NA 
ATOM      2  H2  CYS A   1      -9.779   7.576  66.424  1.00  0.00     0.000 HD 
ATOM      3  CA  CYS A   1      -9.156   9.030  65.064  1.00  0.00    -0.111 C  
ATOM      4  H1  CYS A   1      -9.384   6.913  64.937  1.00  0.00     0.000 HD 
ATOM      5  O   CYS A   1      -7.932   7.833  63.399  1.00  0.00    -0.139 OA 
ATOM      6  C   CYS A   1      -8.146   9.074  63.907  1.00  0.00    -0.159 C  
ATOM      7  OXT CYS A   1      -7.610  10.081  63.471  1.00  0.00    -0.140 OA 
ENDROOT
BRANCH   3   8
ATOM      8  CB  CYS A   1      -8.814  10.122  66.088  1.00  0.00    -0.145 C  
BRANCH   8   9
ATOM      9  SG  CYS A   1     -10.314  10.717  66.951  1.00  0.00    -0.251 SA 
BRANCH   9  10
ATOM     10  SG  CYS A   1      -9.599  11.073  68.848  1.00  0.00    -0.119 SA 
BRANCH  10  11
ATOM     11  CB  CYS A   1     -10.896  10.307  69.885  1.00  0.00    -0.302 C  
BRANCH  11  12
ATOM     12  CA  CYS A   1     -12.156  11.182  69.953  1.00  0.00    -0.344 C  
ATOM     13  N   CYS A   1     -11.857  12.620  70.254  1.00  0.00    -0.537 NA 
ATOM     14  C   CYS A   1     -13.027  10.631  71.083  1.00  0.00    -0.387 C  
ATOM     15  H2  CYS A   1     -11.186  13.000  69.586  1.00  0.00     0.000 HD 
ATOM     16  H1  CYS A   1     -12.695  13.200  70.300  1.00  0.00     0.000 HD 
ATOM     17  OXT CYS A   1     -13.692   9.610  71.024  1.00  0.00    -0.274 OA 
ATOM     18  O   CYS A   1     -12.932  11.399  72.201  1.00  0.00    -0.395 OA 
ENDBRANCH  11  12
ENDBRANCH  10  11
ENDBRANCH   9  10
ENDBRANCH   8   9
ENDBRANCH   3   8
TORSDOF 5
ENDMDL
MODEL      268
REMARK 921   NORMALIZED FREE ENERGY PREDICTED BY IDOCK:   -2.48 KCAL/MOL
REMARK 922        TOTAL FREE ENERGY PREDICTED BY IDOCK:   -3.82 KCAL/MOL
REMARK 923 INTER-LIGAND FREE ENERGY PREDICTED BY IDOCK:   -3.32 KCAL/MOL
REMARK 924 INTRA-LIGAND FREE ENERGY PREDICTED BY IDOCK:   -0.51 KCAL/MOL
REMARK 927      BINDING AFFINITY PREDICTED BY RF-SCORE:    0.00 PKD
ROOT
ATOM      1  N   CYS A   1     -10.950   9.395  71.516  1.00  0.00    -0.372 NA 
ATOM      2  H2  CYS A   1     -10.128   8.849  71.774  1.00  0.00     0.000 HD 
ATOM      3  CA  CYS A   1     -10.677  10.199  70.282  1.00  0.00    -0.293 C  
ATOM      4  H1  CYS A   1     -11.278   9.943  72.312  1.00  0.00     0.000 HD 
ATOM      5  O   CYS A   1     -12.789  11.067  70.982  1.00  0.00    -0.359 OA 
ATOM      6  C   CYS A   1     -11.972  10.936  69.905  1.00  0.00    -0.353 C  
ATOM      7  OXT CYS A   1     -12.243  11.371  68.797  1.00  0.00    -0.502 OA 
ENDROOT
BRANCH   3   8
ATOM      8  CB  CYS A   1     -10.184   9.376  69.083  1.00  0.00    -0.202 C  
BRANCH   8   9
ATOM      9  SG  CYS A   1      -8.491   8.741  69.363  1.00  0.00    -0.127 SA 
BRANCH   9  10
ATOM     10  SG  CYS A   1      -8.588   6.877  68.495  1.00  0.00    -0.122 SA 
BRANCH  10  11
ATOM     11  CB  CYS A   1      -8.226   5.785  69.915  1.00  0.00    -0.115 C  
BRANCH  11  12
ATOM     12  CA  CYS A   1      -9.507   5.382  70.660  1.00  0.00    -0.166 C  
ATOM     13  N   CYS A   1     -10.730   6.078  70.144  1.00  0.00    -0.282 NA 
ATOM     14  C   CYS A   1      -9.319   5.775  72.126  1.00  0.00    -0.146 C  
ATOM     15  H2  CYS A   1     -10.833   5.936  69.139  1.00  0.00     0.000 HD 
ATOM     16  H1  CYS A   1     -11.581   5.810  70.639  1.00  0.00     0.000 HD 
ATOM     17  OXT CYS A   1      -8.619   5.181  72.930  1.00  0.00    -0.115 OA 
ATOM     18  O   CYS A   1      -9.996   6.916  72.423  1.00  0.00    -0.165 OA 
ENDBRANCH  11  12
ENDBRANCH  10  11
ENDBRANCH   9  10
ENDBRANCH   8   9
ENDBRANCH   3   8
TORSDOF 5
ENDMDL
MODEL      269
REMARK 921   NORMALIZED FREE ENERGY PREDICTED BY IDOCK:   -2.47 KCAL/MOL
REMARK 922        TOTAL FREE ENERGY PREDICTED BY IDOCK:   -3.81 KCAL/MOL
REMARK 923 INTER-LIGAND FREE ENERGY PREDICTED BY IDOCK:   -3.51 KCAL/MOL
REMARK 924 INTRA-LIGAND FREE ENERGY PREDICTED BY IDOCK:   -0.30 KCAL/MOL
REMARK 927      BINDING AFFINITY PREDICTED BY RF-SCORE:    0.00 PKD
ROOT
ATOM      1  N   CYS A   1      -9.418   2.476  65.447  1.00  0.00    -0.346 NA 
ATOM      2  H2  CYS A   1      -8.852   2.657  66.276  1.00  0.00     0.000 HD 
ATOM      3  CA  CYS A   1      -9.640   3.742  64.678  1.00  0.00    -0.173 C  
ATOM      4  H1  CYS A   1     -10.274   1.982  65.702  1.00  0.00     0.000 HD 
ATOM      5  O   CYS A   1     -11.110   2.224  63.567  1.00  0.00    -0.195 OA 
ATOM      6  C   CYS A   1     -10.431   3.389  63.409  1.00  0.00    -0.241 C  
ATOM      7  OXT CYS A   1     -10.473   4.060  62.390  1.00  0.00    -0.191 OA 
ENDROOT
BRANCH   3   8
ATOM      8  CB  CYS A   1      -8.353   4.486  64.293  1.00  0.00    -0.114 C  
BRANCH   8   9
ATOM      9  SG  CYS A   1      -8.240   6.104  65.141  1.00  0.00    -0.127 SA 
BRANCH   9  10
ATOM     10  SG  CYS A   1      -7.790   5.541  67.070  1.00  0.00    -0.101 SA 
BRANCH  10  11
ATOM     11  CB  CYS A   1      -8.967   6.552  68.037  1.00  0.00    -0.116 C  
BRANCH  11  12
ATOM     12  CA  CYS A   1     -10.351   5.890  68.115  1.00  0.00    -0.210 C  
ATOM     13  N   CYS A   1     -11.406   6.645  67.364  1.00  0.00    -0.763 NA 
ATOM     14  C   CYS A   1     -10.751   5.854  69.590  1.00  0.00    -0.345 C  
ATOM     15  H2  CYS A   1     -11.127   6.793  66.394  1.00  0.00     0.000 HD 
ATOM     16  H1  CYS A   1     -12.325   6.205  67.417  1.00  0.00     0.000 HD 
ATOM     17  OXT CYS A   1     -10.295   5.088  70.424  1.00  0.00    -0.265 OA 
ATOM     18  O   CYS A   1     -11.654   6.827  69.883  1.00  0.00    -0.322 OA 
ENDBRANCH  11  12
ENDBRANCH  10  11
ENDBRANCH   9  10
ENDBRANCH   8   9
ENDBRANCH   3   8
TORSDOF 5
ENDMDL
MODEL      270
REMARK 921   NORMALIZED FREE ENERGY PREDICTED BY IDOCK:   -2.47 KCAL/MOL
REMARK 922        TOTAL FREE ENERGY PREDICTED BY IDOCK:   -3.81 KCAL/MOL
REMARK 923 INTER-LIGAND FREE ENERGY PREDICTED BY IDOCK:   -3.47 KCAL/MOL
REMARK 924 INTRA-LIGAND FREE ENERGY PREDICTED BY IDOCK:   -0.34 KCAL/MOL
REMARK 927      BINDING AFFINITY PREDICTED BY RF-SCORE:    0.00 PKD
ROOT
ATOM      1  N   CYS A   1      -8.181   9.404  66.153  1.00  0.00    -0.110 NA 
ATOM      2  H2  CYS A   1      -7.852  10.351  66.342  1.00  0.00     0.000 HD 
ATOM      3  CA  CYS A   1      -9.299   9.044  67.082  1.00  0.00    -0.147 C  
ATOM      4  H1  CYS A   1      -7.399   8.748  66.160  1.00  0.00     0.000 HD 
ATOM      5  O   CYS A   1      -8.840   6.952  66.026  1.00  0.00    -0.156 OA 
ATOM      6  C   CYS A   1      -9.798   7.643  66.697  1.00  0.00    -0.213 C  
ATOM      7  OXT CYS A   1     -10.896   7.182  66.964  1.00  0.00    -0.351 OA 
ENDROOT
BRANCH   3   8
ATOM      8  CB  CYS A   1     -10.476  10.030  67.072  1.00  0.00    -0.238 C  
BRANCH   8   9
ATOM      9  SG  CYS A   1     -10.586  10.951  68.651  1.00  0.00    -0.210 SA 
BRANCH   9  10
ATOM     10  SG  CYS A   1      -9.669   9.655  69.962  1.00  0.00    -0.249 SA 
BRANCH  10  11
ATOM     11  CB  CYS A   1     -11.095   9.009  70.905  1.00  0.00    -0.280 C  
BRANCH  11  12
ATOM     12  CA  CYS A   1     -11.343   7.523  70.610  1.00  0.00    -0.281 C  
ATOM     13  N   CYS A   1     -12.785   7.133  70.728  1.00  0.00    -0.602 NA 
ATOM     14  C   CYS A   1     -10.548   6.720  71.641  1.00  0.00    -0.214 C  
ATOM     15  H2  CYS A   1     -13.371   7.724  70.138  1.00  0.00     0.000 HD 
ATOM     16  H1  CYS A   1     -12.949   6.146  70.532  1.00  0.00     0.000 HD 
ATOM     17  OXT CYS A   1      -9.338   6.560  71.628  1.00  0.00    -0.148 OA 
ATOM     18  O   CYS A   1     -11.356   6.237  72.623  1.00  0.00    -0.267 OA 
ENDBRANCH  11  12
ENDBRANCH  10  11
ENDBRANCH   9  10
ENDBRANCH   8   9
ENDBRANCH   3   8
TORSDOF 5
ENDMDL
MODEL      271
REMARK 921   NORMALIZED FREE ENERGY PREDICTED BY IDOCK:   -2.47 KCAL/MOL
REMARK 922        TOTAL FREE ENERGY PREDICTED BY IDOCK:   -3.80 KCAL/MOL
REMARK 923 INTER-LIGAND FREE ENERGY PREDICTED BY IDOCK:   -4.14 KCAL/MOL
REMARK 924 INTRA-LIGAND FREE ENERGY PREDICTED BY IDOCK:    0.34 KCAL/MOL
REMARK 927      BINDING AFFINITY PREDICTED BY RF-SCORE:    0.00 PKD
ROOT
ATOM      1  N   CYS A   1      -9.471  11.939  68.157  1.00  0.00    -0.190 NA 
ATOM      2  H2  CYS A   1      -9.796  12.612  68.852  1.00  0.00     0.000 HD 
ATOM      3  CA  CYS A   1     -10.385  11.930  66.970  1.00  0.00    -0.212 C  
ATOM      4  H1  CYS A   1      -9.329  11.024  68.588  1.00  0.00     0.000 HD 
ATOM      5  O   CYS A   1      -8.976  10.054  66.525  1.00  0.00    -0.141 OA 
ATOM      6  C   CYS A   1      -9.800  10.958  65.935  1.00  0.00    -0.236 C  
ATOM      7  OXT CYS A   1     -10.044  10.964  64.739  1.00  0.00    -0.273 OA 
ENDROOT
BRANCH   3   8
ATOM      8  CB  CYS A   1     -10.598  13.306  66.323  1.00  0.00    -0.289 C  
BRANCH   8   9
ATOM      9  SG  CYS A   1     -10.873  14.601  67.587  1.00  0.00    -0.292 SA 
BRANCH   9  10
ATOM     10  SG  CYS A   1     -12.052  13.614  68.955  1.00  0.00    -0.229 SA 
BRANCH  10  11
ATOM     11  CB  CYS A   1     -12.277  14.892  70.243  1.00  0.00    -0.335 C  
BRANCH  11  12
ATOM     12  CA  CYS A   1     -13.564  14.664  71.049  1.00  0.00    -0.276 C  
ATOM     13  N   CYS A   1     -13.947  15.844  71.891  1.00  0.00    -0.297 NA 
ATOM     14  C   CYS A   1     -13.307  13.479  71.982  1.00  0.00    -0.475 C  
ATOM     15  H2  CYS A   1     -14.018  16.688  71.322  1.00  0.00     0.000 HD 
ATOM     16  H1  CYS A   1     -14.801  15.691  72.426  1.00  0.00     0.000 HD 
ATOM     17  OXT CYS A   1     -13.269  12.309  71.638  1.00  0.00    -0.398 OA 
ATOM     18  O   CYS A   1     -13.070  13.892  73.256  1.00  0.00    -0.501 OA 
ENDBRANCH  11  12
ENDBRANCH  10  11
ENDBRANCH   9  10
ENDBRANCH   8   9
ENDBRANCH   3   8
TORSDOF 5
ENDMDL
MODEL      272
REMARK 921   NORMALIZED FREE ENERGY PREDICTED BY IDOCK:   -2.47 KCAL/MOL
REMARK 922        TOTAL FREE ENERGY PREDICTED BY IDOCK:   -3.80 KCAL/MOL
REMARK 923 INTER-LIGAND FREE ENERGY PREDICTED BY IDOCK:   -3.63 KCAL/MOL
REMARK 924 INTRA-LIGAND FREE ENERGY PREDICTED BY IDOCK:   -0.17 KCAL/MOL
REMARK 927      BINDING AFFINITY PREDICTED BY RF-SCORE:    0.00 PKD
ROOT
ATOM      1  N   CYS A   1      -7.405  11.542  69.345  1.00  0.00    -0.334 NA 
ATOM      2  H2  CYS A   1      -7.447  12.464  69.779  1.00  0.00     0.000 HD 
ATOM      3  CA  CYS A   1      -8.461  11.413  68.290  1.00  0.00    -0.154 C  
ATOM      4  H1  CYS A   1      -7.430  10.812  70.058  1.00  0.00     0.000 HD 
ATOM      5  O   CYS A   1      -7.639   9.176  68.446  1.00  0.00    -0.081 OA 
ATOM      6  C   CYS A   1      -8.295  10.037  67.626  1.00  0.00    -0.114 C  
ATOM      7  OXT CYS A   1      -8.706   9.730  66.519  1.00  0.00    -0.126 OA 
ENDROOT
BRANCH   3   8
ATOM      8  CB  CYS A   1      -8.424  12.510  67.217  1.00  0.00    -0.185 C  
BRANCH   8   9
ATOM      9  SG  CYS A   1     -10.104  13.138  66.851  1.00  0.00    -0.249 SA 
BRANCH   9  10
ATOM     10  SG  CYS A   1     -10.327  14.609  68.274  1.00  0.00    -0.234 SA 
BRANCH  10  11
ATOM     11  CB  CYS A   1     -11.964  14.202  68.977  1.00  0.00    -0.340 C  
BRANCH  11  12
ATOM     12  CA  CYS A   1     -11.929  14.171  70.512  1.00  0.00    -0.323 C  
ATOM     13  N   CYS A   1     -12.994  13.299  71.106  1.00  0.00    -0.263 NA 
ATOM     14  C   CYS A   1     -12.163  15.603  70.997  1.00  0.00    -0.412 C  
ATOM     15  H2  CYS A   1     -12.947  12.355  70.722  1.00  0.00     0.000 HD 
ATOM     16  H1  CYS A   1     -12.970  13.279  72.126  1.00  0.00     0.000 HD 
ATOM     17  OXT CYS A   1     -11.339  16.502  70.958  1.00  0.00    -0.307 OA 
ATOM     18  O   CYS A   1     -13.438  15.775  71.439  1.00  0.00    -0.511 OA 
ENDBRANCH  11  12
ENDBRANCH  10  11
ENDBRANCH   9  10
ENDBRANCH   8   9
ENDBRANCH   3   8
TORSDOF 5
ENDMDL
MODEL      273
REMARK 921   NORMALIZED FREE ENERGY PREDICTED BY IDOCK:   -2.47 KCAL/MOL
REMARK 922        TOTAL FREE ENERGY PREDICTED BY IDOCK:   -3.80 KCAL/MOL
REMARK 923 INTER-LIGAND FREE ENERGY PREDICTED BY IDOCK:   -3.31 KCAL/MOL
REMARK 924 INTRA-LIGAND FREE ENERGY PREDICTED BY IDOCK:   -0.49 KCAL/MOL
REMARK 927      BINDING AFFINITY PREDICTED BY RF-SCORE:    0.00 PKD
ROOT
ATOM      1  N   CYS A   1      -7.426   7.457  70.694  1.00  0.00    -0.077 NA 
ATOM      2  H2  CYS A   1      -7.646   6.910  69.862  1.00  0.00     0.000 HD 
ATOM      3  CA  CYS A   1      -8.588   7.457  71.640  1.00  0.00    -0.116 C  
ATOM      4  H1  CYS A   1      -7.095   8.386  70.432  1.00  0.00     0.000 HD 
ATOM      5  O   CYS A   1      -7.140   9.077  72.632  1.00  0.00    -0.328 OA 
ATOM      6  C   CYS A   1      -8.167   8.230  72.900  1.00  0.00    -0.165 C  
ATOM      7  OXT CYS A   1      -8.685   8.128  74.000  1.00  0.00    -0.258 OA 
ENDROOT
BRANCH   3   8
ATOM      8  CB  CYS A   1      -9.086   6.060  72.036  1.00  0.00    -0.143 C  
BRANCH   8   9
ATOM      9  SG  CYS A   1     -10.872   6.079  72.434  1.00  0.00    -0.262 SA 
BRANCH   9  10
ATOM     10  SG  CYS A   1     -11.690   6.782  70.681  1.00  0.00    -0.375 SA 
BRANCH  10  11
ATOM     11  CB  CYS A   1     -10.842   5.749  69.434  1.00  0.00    -0.323 C  
BRANCH  11  12
ATOM     12  CA  CYS A   1     -10.496   6.554  68.173  1.00  0.00    -0.217 C  
ATOM     13  N   CYS A   1     -11.489   6.366  67.065  1.00  0.00    -0.702 NA 
ATOM     14  C   CYS A   1      -9.136   6.058  67.680  1.00  0.00    -0.109 C  
ATOM     15  H2  CYS A   1     -12.435   6.578  67.385  1.00  0.00     0.000 HD 
ATOM     16  H1  CYS A   1     -11.259   6.901  66.228  1.00  0.00     0.000 HD 
ATOM     17  OXT CYS A   1      -8.061   6.327  68.192  1.00  0.00    -0.113 OA 
ATOM     18  O   CYS A   1      -9.269   5.225  66.613  1.00  0.00    -0.124 OA 
ENDBRANCH  11  12
ENDBRANCH  10  11
ENDBRANCH   9  10
ENDBRANCH   8   9
ENDBRANCH   3   8
TORSDOF 5
ENDMDL
MODEL      274
REMARK 921   NORMALIZED FREE ENERGY PREDICTED BY IDOCK:   -2.46 KCAL/MOL
REMARK 922        TOTAL FREE ENERGY PREDICTED BY IDOCK:   -3.79 KCAL/MOL
REMARK 923 INTER-LIGAND FREE ENERGY PREDICTED BY IDOCK:   -3.16 KCAL/MOL
REMARK 924 INTRA-LIGAND FREE ENERGY PREDICTED BY IDOCK:   -0.64 KCAL/MOL
REMARK 927      BINDING AFFINITY PREDICTED BY RF-SCORE:    0.00 PKD
ROOT
ATOM      1  N   CYS A   1     -10.011   7.621  70.428  1.00  0.00    -0.188 NA 
ATOM      2  H2  CYS A   1      -9.841   6.637  70.219  1.00  0.00     0.000 HD 
ATOM      3  CA  CYS A   1     -11.440   7.830  70.828  1.00  0.00    -0.272 C  
ATOM      4  H1  CYS A   1      -9.699   8.207  69.654  1.00  0.00     0.000 HD 
ATOM      5  O   CYS A   1     -10.649  10.074  70.620  1.00  0.00    -0.295 OA 
ATOM      6  C   CYS A   1     -11.611   9.311  71.200  1.00  0.00    -0.327 C  
ATOM      7  OXT CYS A   1     -12.496   9.767  71.906  1.00  0.00    -0.381 OA 
ENDROOT
BRANCH   3   8
ATOM      8  CB  CYS A   1     -11.910   6.948  71.993  1.00  0.00    -0.310 C  
BRANCH   8   9
ATOM      9  SG  CYS A   1     -10.706   6.970  73.372  1.00  0.00    -0.305 SA 
BRANCH   9  10
ATOM     10  SG  CYS A   1     -10.337   4.963  73.644  1.00  0.00    -0.241 SA 
BRANCH  10  11
ATOM     11  CB  CYS A   1      -9.176   4.609  72.276  1.00  0.00    -0.126 C  
BRANCH  11  12
ATOM     12  CA  CYS A   1      -9.707   3.499  71.357  1.00  0.00    -0.166 C  
ATOM     13  N   CYS A   1      -8.910   2.232  71.447  1.00  0.00    -0.068 NA 
ATOM     14  C   CYS A   1      -9.613   4.019  69.922  1.00  0.00    -0.211 C  
ATOM     15  H2  CYS A   1      -8.851   1.908  72.413  1.00  0.00     0.000 HD 
ATOM     16  H1  CYS A   1      -9.263   1.495  70.836  1.00  0.00     0.000 HD 
ATOM     17  OXT CYS A   1     -10.360   4.843  69.422  1.00  0.00    -0.207 OA 
ATOM     18  O   CYS A   1      -8.546   3.483  69.270  1.00  0.00    -0.063 OA 
ENDBRANCH  11  12
ENDBRANCH  10  11
ENDBRANCH   9  10
ENDBRANCH   8   9
ENDBRANCH   3   8
TORSDOF 5
ENDMDL
MODEL      275
REMARK 921   NORMALIZED FREE ENERGY PREDICTED BY IDOCK:   -2.42 KCAL/MOL
REMARK 922        TOTAL FREE ENERGY PREDICTED BY IDOCK:   -3.75 KCAL/MOL
REMARK 923 INTER-LIGAND FREE ENERGY PREDICTED BY IDOCK:   -3.31 KCAL/MOL
REMARK 924 INTRA-LIGAND FREE ENERGY PREDICTED BY IDOCK:   -0.44 KCAL/MOL
REMARK 927      BINDING AFFINITY PREDICTED BY RF-SCORE:    0.00 PKD
ROOT
ATOM      1  N   CYS A   1      -9.715   5.951  69.064  1.00  0.00    -0.131 NA 
ATOM      2  H2  CYS A   1     -10.111   6.884  68.952  1.00  0.00     0.000 HD 
ATOM      3  CA  CYS A   1      -8.948   5.860  70.348  1.00  0.00    -0.147 C  
ATOM      4  H1  CYS A   1      -9.183   5.689  68.234  1.00  0.00     0.000 HD 
ATOM      5  O   CYS A   1      -8.383   3.798  69.285  1.00  0.00    -0.063 OA 
ATOM      6  C   CYS A   1      -8.444   4.416  70.493  1.00  0.00    -0.077 C  
ATOM      7  OXT CYS A   1      -8.118   3.881  71.540  1.00  0.00    -0.067 OA 
ENDROOT
BRANCH   3   8
ATOM      8  CB  CYS A   1      -9.749   6.255  71.597  1.00  0.00    -0.161 C  
BRANCH   8   9
ATOM      9  SG  CYS A   1     -11.443   6.790  71.158  1.00  0.00    -0.333 SA 
BRANCH   9  10
ATOM     10  SG  CYS A   1     -11.619   8.548  72.214  1.00  0.00    -0.354 SA 
BRANCH  10  11
ATOM     11  CB  CYS A   1     -12.298   9.677  70.946  1.00  0.00    -0.263 C  
BRANCH  11  12
ATOM     12  CA  CYS A   1     -11.190  10.491  70.262  1.00  0.00    -0.313 C  
ATOM     13  N   CYS A   1     -11.440  11.969  70.296  1.00  0.00    -0.497 NA 
ATOM     14  C   CYS A   1     -11.146  10.051  68.798  1.00  0.00    -0.173 C  
ATOM     15  H2  CYS A   1     -11.590  12.290  71.253  1.00  0.00     0.000 HD 
ATOM     16  H1  CYS A   1     -10.704  12.509  69.841  1.00  0.00     0.000 HD 
ATOM     17  OXT CYS A   1     -10.677   9.000  68.393  1.00  0.00    -0.186 OA 
ATOM     18  O   CYS A   1     -11.749  10.962  67.988  1.00  0.00    -0.540 OA 
ENDBRANCH  11  12
ENDBRANCH  10  11
ENDBRANCH   9  10
ENDBRANCH   8   9
ENDBRANCH   3   8
TORSDOF 5
ENDMDL
MODEL      276
REMARK 921   NORMALIZED FREE ENERGY PREDICTED BY IDOCK:   -2.41 KCAL/MOL
REMARK 922        TOTAL FREE ENERGY PREDICTED BY IDOCK:   -3.72 KCAL/MOL
REMARK 923 INTER-LIGAND FREE ENERGY PREDICTED BY IDOCK:   -3.13 KCAL/MOL
REMARK 924 INTRA-LIGAND FREE ENERGY PREDICTED BY IDOCK:   -0.59 KCAL/MOL
REMARK 927      BINDING AFFINITY PREDICTED BY RF-SCORE:    0.00 PKD
ROOT
ATOM      1  N   CYS A   1      -8.641   4.139  68.895  1.00  0.00    -0.082 NA 
ATOM      2  H2  CYS A   1      -8.616   4.830  69.645  1.00  0.00     0.000 HD 
ATOM      3  CA  CYS A   1      -9.521   4.611  67.778  1.00  0.00    -0.152 C  
ATOM      4  H1  CYS A   1      -8.886   3.221  69.266  1.00  0.00     0.000 HD 
ATOM      5  O   CYS A   1      -9.072   2.355  67.137  1.00  0.00    -0.147 OA 
ATOM      6  C   CYS A   1      -9.455   3.565  66.654  1.00  0.00    -0.156 C  
ATOM      7  OXT CYS A   1      -9.725   3.768  65.481  1.00  0.00    -0.177 OA 
ENDROOT
BRANCH   3   8
ATOM      8  CB  CYS A   1      -9.153   5.993  67.219  1.00  0.00    -0.111 C  
BRANCH   8   9
ATOM      9  SG  CYS A   1     -10.641   7.033  66.983  1.00  0.00    -0.334 SA 
BRANCH   9  10
ATOM     10  SG  CYS A   1     -10.340   8.523  68.370  1.00  0.00    -0.177 SA 
BRANCH  10  11
ATOM     11  CB  CYS A   1     -10.047   7.559  69.896  1.00  0.00    -0.193 C  
BRANCH  11  12
ATOM     12  CA  CYS A   1     -11.293   6.762  70.309  1.00  0.00    -0.352 C  
ATOM     13  N   CYS A   1     -12.473   7.634  70.617  1.00  0.00    -0.521 NA 
ATOM     14  C   CYS A   1     -10.932   5.986  71.577  1.00  0.00    -0.277 C  
ATOM     15  H2  CYS A   1     -12.681   8.254  69.834  1.00  0.00     0.000 HD 
ATOM     16  H1  CYS A   1     -13.300   7.103  70.891  1.00  0.00     0.000 HD 
ATOM     17  OXT CYS A   1     -10.232   4.987  71.615  1.00  0.00    -0.199 OA 
ATOM     18  O   CYS A   1     -11.449   6.581  72.686  1.00  0.00    -0.251 OA 
ENDBRANCH  11  12
ENDBRANCH  10  11
ENDBRANCH   9  10
ENDBRANCH   8   9
ENDBRANCH   3   8
TORSDOF 5
ENDMDL
MODEL      277
REMARK 921   NORMALIZED FREE ENERGY PREDICTED BY IDOCK:   -2.39 KCAL/MOL
REMARK 922        TOTAL FREE ENERGY PREDICTED BY IDOCK:   -3.70 KCAL/MOL
REMARK 923 INTER-LIGAND FREE ENERGY PREDICTED BY IDOCK:   -3.14 KCAL/MOL
REMARK 924 INTRA-LIGAND FREE ENERGY PREDICTED BY IDOCK:   -0.56 KCAL/MOL
REMARK 927      BINDING AFFINITY PREDICTED BY RF-SCORE:    0.00 PKD
ROOT
ATOM      1  N   CYS A   1     -10.296  12.933  68.975  1.00  0.00    -0.436 NA 
ATOM      2  H2  CYS A   1      -9.544  13.616  69.075  1.00  0.00     0.000 HD 
ATOM      3  CA  CYS A   1      -9.932  11.902  67.952  1.00  0.00    -0.191 C  
ATOM      4  H1  CYS A   1     -11.184  13.404  68.802  1.00  0.00     0.000 HD 
ATOM      5  O   CYS A   1     -12.225  11.391  68.376  1.00  0.00    -0.571 OA 
ATOM      6  C   CYS A   1     -11.065  10.865  67.905  1.00  0.00    -0.302 C  
ATOM      7  OXT CYS A   1     -10.965   9.723  67.487  1.00  0.00    -0.275 OA 
ENDROOT
BRANCH   3   8
ATOM      8  CB  CYS A   1      -8.595  11.192  68.212  1.00  0.00    -0.146 C  
BRANCH   8   9
ATOM      9  SG  CYS A   1      -7.380  11.557  66.892  1.00  0.00    -0.117 SA 
BRANCH   9  10
ATOM     10  SG  CYS A   1      -7.826  10.114  65.494  1.00  0.00    -0.151 SA 
BRANCH  10  11
ATOM     11  CB  CYS A   1      -7.116   8.616  66.265  1.00  0.00    -0.078 C  
BRANCH  11  12
ATOM     12  CA  CYS A   1      -8.108   7.445  66.247  1.00  0.00    -0.117 C  
ATOM     13  N   CYS A   1      -9.508   7.867  65.915  1.00  0.00    -0.423 NA 
ATOM     14  C   CYS A   1      -8.115   6.837  67.650  1.00  0.00    -0.116 C  
ATOM     15  H2  CYS A   1      -9.534   8.380  65.034  1.00  0.00     0.000 HD 
ATOM     16  H1  CYS A   1     -10.167   7.088  65.903  1.00  0.00     0.000 HD 
ATOM     17  OXT CYS A   1      -7.234   6.133  68.116  1.00  0.00    -0.079 OA 
ATOM     18  O   CYS A   1      -9.215   7.222  68.352  1.00  0.00    -0.138 OA 
ENDBRANCH  11  12
ENDBRANCH  10  11
ENDBRANCH   9  10
ENDBRANCH   8   9
ENDBRANCH   3   8
TORSDOF 5
ENDMDL
MODEL      278
REMARK 921   NORMALIZED FREE ENERGY PREDICTED BY IDOCK:   -2.38 KCAL/MOL
REMARK 922        TOTAL FREE ENERGY PREDICTED BY IDOCK:   -3.69 KCAL/MOL
REMARK 923 INTER-LIGAND FREE ENERGY PREDICTED BY IDOCK:   -3.22 KCAL/MOL
REMARK 924 INTRA-LIGAND FREE ENERGY PREDICTED BY IDOCK:   -0.47 KCAL/MOL
REMARK 927      BINDING AFFINITY PREDICTED BY RF-SCORE:    0.00 PKD
ROOT
ATOM      1  N   CYS A   1     -11.551   9.012  72.017  1.00  0.00    -0.364 NA 
ATOM      2  H2  CYS A   1     -11.159   9.951  72.089  1.00  0.00     0.000 HD 
ATOM      3  CA  CYS A   1     -11.223   8.409  70.685  1.00  0.00    -0.255 C  
ATOM      4  H1  CYS A   1     -12.547   9.025  72.240  1.00  0.00     0.000 HD 
ATOM      5  O   CYS A   1     -12.774   6.828  71.576  1.00  0.00    -0.355 OA 
ATOM      6  C   CYS A   1     -11.773   6.975  70.670  1.00  0.00    -0.338 C  
ATOM      7  OXT CYS A   1     -11.391   6.077  69.937  1.00  0.00    -0.400 OA 
ENDROOT
BRANCH   3   8
ATOM      8  CB  CYS A   1      -9.725   8.390  70.349  1.00  0.00    -0.173 C  
BRANCH   8   9
ATOM      9  SG  CYS A   1      -9.247   9.851  69.355  1.00  0.00    -0.226 SA 
BRANCH   9  10
ATOM     10  SG  CYS A   1     -10.896  10.099  68.147  1.00  0.00    -0.255 SA 
BRANCH  10  11
ATOM     11  CB  CYS A   1     -10.463   9.060  66.707  1.00  0.00    -0.200 C  
BRANCH  11  12
ATOM     12  CA  CYS A   1      -8.964   8.729  66.678  1.00  0.00    -0.139 C  
ATOM     13  N   CYS A   1      -8.256   9.316  65.494  1.00  0.00    -0.119 NA 
ATOM     14  C   CYS A   1      -8.839   7.206  66.600  1.00  0.00    -0.132 C  
ATOM     15  H2  CYS A   1      -8.408  10.324  65.443  1.00  0.00     0.000 HD 
ATOM     16  H1  CYS A   1      -7.260   9.096  65.476  1.00  0.00     0.000 HD 
ATOM     17  OXT CYS A   1      -9.030   6.436  67.526  1.00  0.00    -0.118 OA 
ATOM     18  O   CYS A   1      -8.535   6.799  65.338  1.00  0.00    -0.145 OA 
ENDBRANCH  11  12
ENDBRANCH  10  11
ENDBRANCH   9  10
ENDBRANCH   8   9
ENDBRANCH   3   8
TORSDOF 5
ENDMDL
MODEL      279
REMARK 921   NORMALIZED FREE ENERGY PREDICTED BY IDOCK:   -2.38 KCAL/MOL
REMARK 922        TOTAL FREE ENERGY PREDICTED BY IDOCK:   -3.69 KCAL/MOL
REMARK 923 INTER-LIGAND FREE ENERGY PREDICTED BY IDOCK:   -3.51 KCAL/MOL
REMARK 924 INTRA-LIGAND FREE ENERGY PREDICTED BY IDOCK:   -0.19 KCAL/MOL
REMARK 927      BINDING AFFINITY PREDICTED BY RF-SCORE:    0.00 PKD
ROOT
ATOM      1  N   CYS A   1     -10.263  12.418  68.753  1.00  0.00    -0.393 NA 
ATOM      2  H2  CYS A   1      -9.616  11.629  68.753  1.00  0.00     0.000 HD 
ATOM      3  CA  CYS A   1     -10.550  12.858  67.350  1.00  0.00    -0.233 C  
ATOM      4  H1  CYS A   1      -9.921  13.159  69.365  1.00  0.00     0.000 HD 
ATOM      5  O   CYS A   1     -11.569  14.595  68.632  1.00  0.00    -0.284 OA 
ATOM      6  C   CYS A   1     -11.584  13.993  67.416  1.00  0.00    -0.368 C  
ATOM      7  OXT CYS A   1     -12.317  14.337  66.503  1.00  0.00    -0.445 OA 
ENDROOT
BRANCH   3   8
ATOM      8  CB  CYS A   1     -11.066  11.744  66.427  1.00  0.00    -0.307 C  
BRANCH   8   9
ATOM      9  SG  CYS A   1      -9.855  10.378  66.292  1.00  0.00    -0.228 SA 
BRANCH   9  10
ATOM     10  SG  CYS A   1     -10.660   8.970  67.560  1.00  0.00    -0.175 SA 
BRANCH  10  11
ATOM     11  CB  CYS A   1      -9.177   8.023  68.054  1.00  0.00    -0.135 C  
BRANCH  11  12
ATOM     12  CA  CYS A   1      -9.513   6.551  68.334  1.00  0.00    -0.120 C  
ATOM     13  N   CYS A   1     -10.892   6.169  67.888  1.00  0.00    -0.306 NA 
ATOM     14  C   CYS A   1      -9.429   6.349  69.847  1.00  0.00    -0.154 C  
ATOM     15  H2  CYS A   1     -11.032   6.393  66.903  1.00  0.00     0.000 HD 
ATOM     16  H1  CYS A   1     -11.115   5.191  68.074  1.00  0.00     0.000 HD 
ATOM     17  OXT CYS A   1      -8.395   6.274  70.491  1.00  0.00    -0.125 OA 
ATOM     18  O   CYS A   1     -10.666   6.311  70.411  1.00  0.00    -0.232 OA 
ENDBRANCH  11  12
ENDBRANCH  10  11
ENDBRANCH   9  10
ENDBRANCH   8   9
ENDBRANCH   3   8
TORSDOF 5
ENDMDL
MODEL      280
REMARK 921   NORMALIZED FREE ENERGY PREDICTED BY IDOCK:   -2.38 KCAL/MOL
REMARK 922        TOTAL FREE ENERGY PREDICTED BY IDOCK:   -3.69 KCAL/MOL
REMARK 923 INTER-LIGAND FREE ENERGY PREDICTED BY IDOCK:   -3.52 KCAL/MOL
REMARK 924 INTRA-LIGAND FREE ENERGY PREDICTED BY IDOCK:   -0.16 KCAL/MOL
REMARK 927      BINDING AFFINITY PREDICTED BY RF-SCORE:    0.00 PKD
ROOT
ATOM      1  N   CYS A   1     -12.121   7.814  70.465  1.00  0.00    -0.492 NA 
ATOM      2  H2  CYS A   1     -11.341   7.246  70.133  1.00  0.00     0.000 HD 
ATOM      3  CA  CYS A   1     -11.615   9.014  71.207  1.00  0.00    -0.317 C  
ATOM      4  H1  CYS A   1     -12.780   7.239  70.992  1.00  0.00     0.000 HD 
ATOM      5  O   CYS A   1     -13.960   9.108  71.650  1.00  0.00    -0.360 OA 
ATOM      6  C   CYS A   1     -12.831   9.862  71.612  1.00  0.00    -0.436 C  
ATOM      7  OXT CYS A   1     -12.806  11.050  71.887  1.00  0.00    -0.416 OA 
ENDROOT
BRANCH   3   8
ATOM      8  CB  CYS A   1     -10.624   9.879  70.415  1.00  0.00    -0.302 C  
BRANCH   8   9
ATOM      9  SG  CYS A   1     -11.367  10.484  68.856  1.00  0.00    -0.230 SA 
BRANCH   9  10
ATOM     10  SG  CYS A   1     -10.594   9.164  67.478  1.00  0.00    -0.192 SA 
BRANCH  10  11
ATOM     11  CB  CYS A   1      -9.750  10.294  66.314  1.00  0.00    -0.209 C  
BRANCH  11  12
ATOM     12  CA  CYS A   1      -8.431   9.697  65.801  1.00  0.00    -0.133 C  
ATOM     13  N   CYS A   1      -8.368   8.206  65.942  1.00  0.00    -0.124 NA 
ATOM     14  C   CYS A   1      -7.306  10.302  66.642  1.00  0.00    -0.109 C  
ATOM     15  H2  CYS A   1      -9.168   7.764  65.489  1.00  0.00     0.000 HD 
ATOM     16  H1  CYS A   1      -7.491   7.811  65.602  1.00  0.00     0.000 HD 
ATOM     17  OXT CYS A   1      -6.879  11.440  66.532  1.00  0.00    -0.130 OA 
ATOM     18  O   CYS A   1      -6.862   9.424  67.581  1.00  0.00    -0.074 OA 
ENDBRANCH  11  12
ENDBRANCH  10  11
ENDBRANCH   9  10
ENDBRANCH   8   9
ENDBRANCH   3   8
TORSDOF 5
ENDMDL
MODEL      281
REMARK 921   NORMALIZED FREE ENERGY PREDICTED BY IDOCK:   -2.36 KCAL/MOL
REMARK 922        TOTAL FREE ENERGY PREDICTED BY IDOCK:   -3.67 KCAL/MOL
REMARK 923 INTER-LIGAND FREE ENERGY PREDICTED BY IDOCK:   -3.30 KCAL/MOL
REMARK 924 INTRA-LIGAND FREE ENERGY PREDICTED BY IDOCK:   -0.37 KCAL/MOL
REMARK 927      BINDING AFFINITY PREDICTED BY RF-SCORE:    0.00 PKD
ROOT
ATOM      1  N   CYS A   1      -8.161  11.124  65.498  1.00  0.00    -0.365 NA 
ATOM      2  H2  CYS A   1      -8.370  12.078  65.202  1.00  0.00     0.000 HD 
ATOM      3  CA  CYS A   1      -8.093  11.044  66.992  1.00  0.00    -0.136 C  
ATOM      4  H1  CYS A   1      -7.330  10.777  65.018  1.00  0.00     0.000 HD 
ATOM      5  O   CYS A   1      -7.294   8.890  66.343  1.00  0.00    -0.086 OA 
ATOM      6  C   CYS A   1      -7.853   9.575  67.374  1.00  0.00    -0.102 C  
ATOM      7  OXT CYS A   1      -8.105   9.074  68.458  1.00  0.00    -0.105 OA 
ENDROOT
BRANCH   3   8
ATOM      8  CB  CYS A   1      -9.343  11.567  67.715  1.00  0.00    -0.168 C  
BRANCH   8   9
ATOM      9  SG  CYS A   1     -10.872  10.884  66.977  1.00  0.00    -0.243 SA 
BRANCH   9  10
ATOM     10  SG  CYS A   1     -11.608  12.507  65.946  1.00  0.00    -0.421 SA 
BRANCH  10  11
ATOM     11  CB  CYS A   1     -11.832  13.729  67.287  1.00  0.00    -0.401 C  
BRANCH  11  12
ATOM     12  CA  CYS A   1     -11.112  15.049  66.977  1.00  0.00    -0.334 C  
ATOM     13  N   CYS A   1     -10.342  15.009  65.692  1.00  0.00    -0.325 NA 
ATOM     14  C   CYS A   1     -10.122  15.301  68.116  1.00  0.00    -0.229 C  
ATOM     15  H2  CYS A   1     -10.943  14.732  64.916  1.00  0.00     0.000 HD 
ATOM     16  H1  CYS A   1      -9.863  15.886  65.486  1.00  0.00     0.000 HD 
ATOM     17  OXT CYS A   1     -10.421  15.683  69.236  1.00  0.00    -0.215 OA 
ATOM     18  O   CYS A   1      -8.850  14.995  67.744  1.00  0.00    -0.165 OA 
ENDBRANCH  11  12
ENDBRANCH  10  11
ENDBRANCH   9  10
ENDBRANCH   8   9
ENDBRANCH   3   8
TORSDOF 5
ENDMDL
MODEL      282
REMARK 921   NORMALIZED FREE ENERGY PREDICTED BY IDOCK:   -2.35 KCAL/MOL
REMARK 922        TOTAL FREE ENERGY PREDICTED BY IDOCK:   -3.65 KCAL/MOL
REMARK 923 INTER-LIGAND FREE ENERGY PREDICTED BY IDOCK:   -3.38 KCAL/MOL
REMARK 924 INTRA-LIGAND FREE ENERGY PREDICTED BY IDOCK:   -0.27 KCAL/MOL
REMARK 927      BINDING AFFINITY PREDICTED BY RF-SCORE:    0.00 PKD
ROOT
ATOM      1  N   CYS A   1      -9.962  15.355  68.744  1.00  0.00    -0.201 NA 
ATOM      2  H2  CYS A   1      -9.252  15.423  69.474  1.00  0.00     0.000 HD 
ATOM      3  CA  CYS A   1      -9.435  15.896  67.451  1.00  0.00    -0.219 C  
ATOM      4  H1  CYS A   1     -10.835  15.781  69.056  1.00  0.00     0.000 HD 
ATOM      5  O   CYS A   1     -11.746  15.573  66.948  1.00  0.00    -0.017 OA 
ATOM      6  C   CYS A   1     -10.518  15.695  66.380  1.00  0.00    -0.305 C  
ATOM      7  OXT CYS A   1     -10.328  15.664  65.175  1.00  0.00    -0.383 OA 
ENDROOT
BRANCH   3   8
ATOM      8  CB  CYS A   1      -8.121  15.255  66.981  1.00  0.00    -0.218 C  
BRANCH   8   9
ATOM      9  SG  CYS A   1      -7.553  13.969  68.153  1.00  0.00    -0.160 SA 
BRANCH   9  10
ATOM     10  SG  CYS A   1      -7.942  12.240  67.106  1.00  0.00    -0.131 SA 
BRANCH  10  11
ATOM     11  CB  CYS A   1      -9.070  11.361  68.245  1.00  0.00    -0.179 C  
BRANCH  11  12
ATOM     12  CA  CYS A   1     -10.399  12.111  68.416  1.00  0.00    -0.229 C  
ATOM     13  N   CYS A   1     -10.940  12.037  69.812  1.00  0.00    -0.450 NA 
ATOM     14  C   CYS A   1     -11.413  11.453  67.479  1.00  0.00    -0.260 C  
ATOM     15  H2  CYS A   1     -10.248  12.364  70.488  1.00  0.00     0.000 HD 
ATOM     16  H1  CYS A   1     -11.822  12.536  69.925  1.00  0.00     0.000 HD 
ATOM     17  OXT CYS A   1     -11.446  11.593  66.267  1.00  0.00    -0.362 OA 
ATOM     18  O   CYS A   1     -12.260  10.635  68.161  1.00  0.00    -0.265 OA 
ENDBRANCH  11  12
ENDBRANCH  10  11
ENDBRANCH   9  10
ENDBRANCH   8   9
ENDBRANCH   3   8
TORSDOF 5
ENDMDL
MODEL      283
REMARK 921   NORMALIZED FREE ENERGY PREDICTED BY IDOCK:   -2.34 KCAL/MOL
REMARK 922        TOTAL FREE ENERGY PREDICTED BY IDOCK:   -3.64 KCAL/MOL
REMARK 923 INTER-LIGAND FREE ENERGY PREDICTED BY IDOCK:   -2.99 KCAL/MOL
REMARK 924 INTRA-LIGAND FREE ENERGY PREDICTED BY IDOCK:   -0.64 KCAL/MOL
REMARK 927      BINDING AFFINITY PREDICTED BY RF-SCORE:    0.00 PKD
ROOT
ATOM      1  N   CYS A   1      -9.402   8.732  65.107  1.00  0.00    -0.430 NA 
ATOM      2  H2  CYS A   1      -9.898   8.969  65.966  1.00  0.00     0.000 HD 
ATOM      3  CA  CYS A   1      -8.235   9.649  64.906  1.00  0.00    -0.143 C  
ATOM      4  H1  CYS A   1     -10.051   8.696  64.320  1.00  0.00     0.000 HD 
ATOM      5  O   CYS A   1      -8.307   8.476  62.828  1.00  0.00    -0.186 OA 
ATOM      6  C   CYS A   1      -7.490   9.192  63.642  1.00  0.00    -0.106 C  
ATOM      7  OXT CYS A   1      -6.326   9.444  63.376  1.00  0.00    -0.090 OA 
ENDROOT
BRANCH   3   8
ATOM      8  CB  CYS A   1      -7.258   9.704  66.089  1.00  0.00    -0.098 C  
BRANCH   8   9
ATOM      9  SG  CYS A   1      -7.232  11.366  66.855  1.00  0.00    -0.133 SA 
BRANCH   9  10
ATOM     10  SG  CYS A   1      -8.458  11.101  68.487  1.00  0.00    -0.155 SA 
BRANCH  10  11
ATOM     11  CB  CYS A   1     -10.106  11.441  67.774  1.00  0.00    -0.181 C  
BRANCH  11  12
ATOM     12  CA  CYS A   1     -10.036  12.498  66.663  1.00  0.00    -0.236 C  
ATOM     13  N   CYS A   1     -10.236  13.895  67.168  1.00  0.00    -0.256 NA 
ATOM     14  C   CYS A   1     -11.157  12.185  65.671  1.00  0.00    -0.316 C  
ATOM     15  H2  CYS A   1      -9.577  14.109  67.917  1.00  0.00     0.000 HD 
ATOM     16  H1  CYS A   1     -10.189  14.597  66.429  1.00  0.00     0.000 HD 
ATOM     17  OXT CYS A   1     -11.144  11.275  64.858  1.00  0.00    -0.227 OA 
ATOM     18  O   CYS A   1     -12.214  13.026  65.837  1.00  0.00    -0.439 OA 
ENDBRANCH  11  12
ENDBRANCH  10  11
ENDBRANCH   9  10
ENDBRANCH   8   9
ENDBRANCH   3   8
TORSDOF 5
ENDMDL
MODEL      284
REMARK 921   NORMALIZED FREE ENERGY PREDICTED BY IDOCK:   -2.32 KCAL/MOL
REMARK 922        TOTAL FREE ENERGY PREDICTED BY IDOCK:   -3.61 KCAL/MOL
REMARK 923 INTER-LIGAND FREE ENERGY PREDICTED BY IDOCK:   -3.37 KCAL/MOL
REMARK 924 INTRA-LIGAND FREE ENERGY PREDICTED BY IDOCK:   -0.25 KCAL/MOL
REMARK 927      BINDING AFFINITY PREDICTED BY RF-SCORE:    0.00 PKD
ROOT
ATOM      1  N   CYS A   1      -7.681   6.126  68.119  1.00  0.00    -0.101 NA 
ATOM      2  H2  CYS A   1      -7.545   5.865  69.095  1.00  0.00     0.000 HD 
ATOM      3  CA  CYS A   1      -8.200   4.961  67.334  1.00  0.00    -0.106 C  
ATOM      4  H1  CYS A   1      -6.829   6.544  67.741  1.00  0.00     0.000 HD 
ATOM      5  O   CYS A   1      -7.715   6.542  65.612  1.00  0.00    -0.085 OA 
ATOM      6  C   CYS A   1      -8.454   5.439  65.895  1.00  0.00    -0.127 C  
ATOM      7  OXT CYS A   1      -9.200   4.904  65.092  1.00  0.00    -0.156 OA 
ENDROOT
BRANCH   3   8
ATOM      8  CB  CYS A   1      -9.481   4.332  67.901  1.00  0.00    -0.165 C  
BRANCH   8   9
ATOM      9  SG  CYS A   1      -9.676   4.712  69.681  1.00  0.00    -0.223 SA 
BRANCH   9  10
ATOM     10  SG  CYS A   1     -11.129   6.169  69.648  1.00  0.00    -0.413 SA 
BRANCH  10  11
ATOM     11  CB  CYS A   1     -11.594   6.271  71.413  1.00  0.00    -0.278 C  
BRANCH  11  12
ATOM     12  CA  CYS A   1     -11.814   7.725  71.857  1.00  0.00    -0.297 C  
ATOM     13  N   CYS A   1     -12.248   8.621  70.737  1.00  0.00    -0.488 NA 
ATOM     14  C   CYS A   1     -10.476   8.241  72.388  1.00  0.00    -0.334 C  
ATOM     15  H2  CYS A   1     -13.080   8.251  70.276  1.00  0.00     0.000 HD 
ATOM     16  H1  CYS A   1     -12.394   9.587  71.032  1.00  0.00     0.000 HD 
ATOM     17  OXT CYS A   1      -9.986   7.946  73.466  1.00  0.00    -0.296 OA 
ATOM     18  O   CYS A   1      -9.859   9.045  71.480  1.00  0.00    -0.296 OA 
ENDBRANCH  11  12
ENDBRANCH  10  11
ENDBRANCH   9  10
ENDBRANCH   8   9
ENDBRANCH   3   8
TORSDOF 5
ENDMDL
MODEL      285
REMARK 921   NORMALIZED FREE ENERGY PREDICTED BY IDOCK:   -2.32 KCAL/MOL
REMARK 922        TOTAL FREE ENERGY PREDICTED BY IDOCK:   -3.61 KCAL/MOL
REMARK 923 INTER-LIGAND FREE ENERGY PREDICTED BY IDOCK:   -3.36 KCAL/MOL
REMARK 924 INTRA-LIGAND FREE ENERGY PREDICTED BY IDOCK:   -0.25 KCAL/MOL
REMARK 927      BINDING AFFINITY PREDICTED BY RF-SCORE:    0.00 PKD
ROOT
ATOM      1  N   CYS A   1      -9.144  11.352  64.830  1.00  0.00    -0.407 NA 
ATOM      2  H2  CYS A   1      -8.464  10.792  64.316  1.00  0.00     0.000 HD 
ATOM      3  CA  CYS A   1     -10.135  10.466  65.521  1.00  0.00    -0.283 C  
ATOM      4  H1  CYS A   1      -9.561  12.054  64.218  1.00  0.00     0.000 HD 
ATOM      5  O   CYS A   1     -11.095  12.629  65.841  1.00  0.00    -0.274 OA 
ATOM      6  C   CYS A   1     -11.080  11.364  66.334  1.00  0.00    -0.240 C  
ATOM      7  OXT CYS A   1     -11.753  11.005  67.288  1.00  0.00    -0.504 OA 
ENDROOT
BRANCH   3   8
ATOM      8  CB  CYS A   1      -9.509   9.409  66.442  1.00  0.00    -0.201 C  
BRANCH   8   9
ATOM      9  SG  CYS A   1      -8.091  10.094  67.374  1.00  0.00    -0.114 SA 
BRANCH   9  10
ATOM     10  SG  CYS A   1      -7.897   8.738  68.910  1.00  0.00    -0.105 SA 
BRANCH  10  11
ATOM     11  CB  CYS A   1      -8.924   7.349  68.311  1.00  0.00    -0.130 C  
BRANCH  11  12
ATOM     12  CA  CYS A   1      -9.390   6.451  69.466  1.00  0.00    -0.143 C  
ATOM     13  N   CYS A   1      -9.577   5.020  69.059  1.00  0.00    -0.137 NA 
ATOM     14  C   CYS A   1     -10.740   6.990  69.940  1.00  0.00    -0.240 C  
ATOM     15  H2  CYS A   1      -8.729   4.650  68.629  1.00  0.00     0.000 HD 
ATOM     16  H1  CYS A   1      -9.887   4.424  69.826  1.00  0.00     0.000 HD 
ATOM     17  OXT CYS A   1     -10.900   7.998  70.609  1.00  0.00    -0.226 OA 
ATOM     18  O   CYS A   1     -11.768   6.229  69.477  1.00  0.00    -0.360 OA 
ENDBRANCH  11  12
ENDBRANCH  10  11
ENDBRANCH   9  10
ENDBRANCH   8   9
ENDBRANCH   3   8
TORSDOF 5
ENDMDL
MODEL      286
REMARK 921   NORMALIZED FREE ENERGY PREDICTED BY IDOCK:   -2.30 KCAL/MOL
REMARK 922        TOTAL FREE ENERGY PREDICTED BY IDOCK:   -3.59 KCAL/MOL
REMARK 923 INTER-LIGAND FREE ENERGY PREDICTED BY IDOCK:   -3.47 KCAL/MOL
REMARK 924 INTRA-LIGAND FREE ENERGY PREDICTED BY IDOCK:   -0.12 KCAL/MOL
REMARK 927      BINDING AFFINITY PREDICTED BY RF-SCORE:    0.00 PKD
ROOT
ATOM      1  N   CYS A   1      -7.840  12.451  68.685  1.00  0.00    -0.260 NA 
ATOM      2  H2  CYS A   1      -7.541  11.577  69.119  1.00  0.00     0.000 HD 
ATOM      3  CA  CYS A   1      -8.993  12.207  67.760  1.00  0.00    -0.179 C  
ATOM      4  H1  CYS A   1      -7.044  12.922  68.252  1.00  0.00     0.000 HD 
ATOM      5  O   CYS A   1      -8.436  14.477  67.272  1.00  0.00    -0.191 OA 
ATOM      6  C   CYS A   1      -9.441  13.566  67.199  1.00  0.00    -0.244 C  
ATOM      7  OXT CYS A   1     -10.540  13.811  66.729  1.00  0.00    -0.271 OA 
ENDROOT
BRANCH   3   8
ATOM      8  CB  CYS A   1     -10.190  11.498  68.409  1.00  0.00    -0.205 C  
BRANCH   8   9
ATOM      9  SG  CYS A   1     -10.364   9.784  67.790  1.00  0.00    -0.240 SA 
BRANCH   9  10
ATOM     10  SG  CYS A   1     -10.199   8.688  69.524  1.00  0.00    -0.213 SA 
BRANCH  10  11
ATOM     11  CB  CYS A   1     -10.900   7.078  69.014  1.00  0.00    -0.182 C  
BRANCH  11  12
ATOM     12  CA  CYS A   1     -11.666   6.406  70.163  1.00  0.00    -0.303 C  
ATOM     13  N   CYS A   1     -12.517   7.363  70.941  1.00  0.00    -0.540 NA 
ATOM     14  C   CYS A   1     -10.624   5.814  71.114  1.00  0.00    -0.251 C  
ATOM     15  H2  CYS A   1     -13.155   7.867  70.324  1.00  0.00     0.000 HD 
ATOM     16  H1  CYS A   1     -13.025   6.916  71.704  1.00  0.00     0.000 HD 
ATOM     17  OXT CYS A   1      -9.974   4.803  70.905  1.00  0.00    -0.193 OA 
ATOM     18  O   CYS A   1     -10.467   6.590  72.220  1.00  0.00    -0.197 OA 
ENDBRANCH  11  12
ENDBRANCH  10  11
ENDBRANCH   9  10
ENDBRANCH   8   9
ENDBRANCH   3   8
TORSDOF 5
ENDMDL
MODEL      287
REMARK 921   NORMALIZED FREE ENERGY PREDICTED BY IDOCK:   -2.29 KCAL/MOL
REMARK 922        TOTAL FREE ENERGY PREDICTED BY IDOCK:   -3.57 KCAL/MOL
REMARK 923 INTER-LIGAND FREE ENERGY PREDICTED BY IDOCK:   -3.38 KCAL/MOL
REMARK 924 INTRA-LIGAND FREE ENERGY PREDICTED BY IDOCK:   -0.20 KCAL/MOL
REMARK 927      BINDING AFFINITY PREDICTED BY RF-SCORE:    0.00 PKD
ROOT
ATOM      1  N   CYS A   1     -10.895   9.236  71.542  1.00  0.00    -0.363 NA 
ATOM      2  H2  CYS A   1     -10.136   8.574  71.704  1.00  0.00     0.000 HD 
ATOM      3  CA  CYS A   1     -10.749   9.880  70.198  1.00  0.00    -0.308 C  
ATOM      4  H1  CYS A   1     -10.965   9.893  72.320  1.00  0.00     0.000 HD 
ATOM      5  O   CYS A   1     -12.512  11.161  71.172  1.00  0.00    -0.382 OA 
ATOM      6  C   CYS A   1     -11.958  10.803  69.985  1.00  0.00    -0.347 C  
ATOM      7  OXT CYS A   1     -12.372  11.192  68.905  1.00  0.00    -0.512 OA 
ENDROOT
BRANCH   3   8
ATOM      8  CB  CYS A   1     -10.643   8.891  69.028  1.00  0.00    -0.183 C  
BRANCH   8   9
ATOM      9  SG  CYS A   1      -9.035   8.018  69.038  1.00  0.00    -0.144 SA 
BRANCH   9  10
ATOM     10  SG  CYS A   1      -8.430   8.220  67.081  1.00  0.00    -0.124 SA 
BRANCH  10  11
ATOM     11  CB  CYS A   1      -7.794   6.546  66.713  1.00  0.00    -0.104 C  
BRANCH  11  12
ATOM     12  CA  CYS A   1      -8.874   5.655  66.083  1.00  0.00    -0.142 C  
ATOM     13  N   CYS A   1     -10.254   6.226  66.213  1.00  0.00    -0.421 NA 
ATOM     14  C   CYS A   1      -8.843   4.316  66.822  1.00  0.00    -0.116 C  
ATOM     15  H2  CYS A   1     -10.294   7.172  65.831  1.00  0.00     0.000 HD 
ATOM     16  H1  CYS A   1     -10.972   5.634  65.794  1.00  0.00     0.000 HD 
ATOM     17  OXT CYS A   1      -7.993   3.453  66.677  1.00  0.00    -0.080 OA 
ATOM     18  O   CYS A   1      -9.864   4.219  67.715  1.00  0.00    -0.151 OA 
ENDBRANCH  11  12
ENDBRANCH  10  11
ENDBRANCH   9  10
ENDBRANCH   8   9
ENDBRANCH   3   8
TORSDOF 5
ENDMDL
MODEL      288
REMARK 921   NORMALIZED FREE ENERGY PREDICTED BY IDOCK:   -2.28 KCAL/MOL
REMARK 922        TOTAL FREE ENERGY PREDICTED BY IDOCK:   -3.56 KCAL/MOL
REMARK 923 INTER-LIGAND FREE ENERGY PREDICTED BY IDOCK:   -3.47 KCAL/MOL
REMARK 924 INTRA-LIGAND FREE ENERGY PREDICTED BY IDOCK:   -0.09 KCAL/MOL
REMARK 927      BINDING AFFINITY PREDICTED BY RF-SCORE:    0.00 PKD
ROOT
ATOM      1  N   CYS A   1     -12.121  13.956  69.180  1.00  0.00    -0.372 NA 
ATOM      2  H2  CYS A   1     -12.203  14.693  68.479  1.00  0.00     0.000 HD 
ATOM      3  CA  CYS A   1     -11.774  12.652  68.529  1.00  0.00    -0.330 C  
ATOM      4  H1  CYS A   1     -12.956  13.927  69.764  1.00  0.00     0.000 HD 
ATOM      5  O   CYS A   1     -12.244  11.978  70.770  1.00  0.00    -0.377 OA 
ATOM      6  C   CYS A   1     -11.590  11.607  69.640  1.00  0.00    -0.330 C  
ATOM      7  OXT CYS A   1     -10.962  10.566  69.537  1.00  0.00    -0.228 OA 
ENDROOT
BRANCH   3   8
ATOM      8  CB  CYS A   1     -10.516  12.695  67.649  1.00  0.00    -0.219 C  
BRANCH   8   9
ATOM      9  SG  CYS A   1     -10.346  14.314  66.811  1.00  0.00    -0.277 SA 
BRANCH   9  10
ATOM     10  SG  CYS A   1      -8.450  14.885  67.372  1.00  0.00    -0.209 SA 
BRANCH  10  11
ATOM     11  CB  CYS A   1      -7.996  13.562  68.549  1.00  0.00    -0.119 C  
BRANCH  11  12
ATOM     12  CA  CYS A   1      -6.534  13.686  69.003  1.00  0.00    -0.106 C  
ATOM     13  N   CYS A   1      -6.264  14.941  69.777  1.00  0.00    -0.132 NA 
ATOM     14  C   CYS A   1      -5.670  13.710  67.741  1.00  0.00    -0.090 C  
ATOM     15  H2  CYS A   1      -6.900  15.024  70.570  1.00  0.00     0.000 HD 
ATOM     16  H1  CYS A   1      -5.293  15.023  70.078  1.00  0.00     0.000 HD 
ATOM     17  OXT CYS A   1      -5.412  12.741  67.047  1.00  0.00    -0.344 OA 
ATOM     18  O   CYS A   1      -5.256  14.972  67.448  1.00  0.00    -0.336 OA 
ENDBRANCH  11  12
ENDBRANCH  10  11
ENDBRANCH   9  10
ENDBRANCH   8   9
ENDBRANCH   3   8
TORSDOF 5
ENDMDL
MODEL      289
REMARK 921   NORMALIZED FREE ENERGY PREDICTED BY IDOCK:   -2.26 KCAL/MOL
REMARK 922        TOTAL FREE ENERGY PREDICTED BY IDOCK:   -3.53 KCAL/MOL
REMARK 923 INTER-LIGAND FREE ENERGY PREDICTED BY IDOCK:   -3.34 KCAL/MOL
REMARK 924 INTRA-LIGAND FREE ENERGY PREDICTED BY IDOCK:   -0.19 KCAL/MOL
REMARK 927      BINDING AFFINITY PREDICTED BY RF-SCORE:    0.00 PKD
ROOT
ATOM      1  N   CYS A   1      -7.659   7.698  69.372  1.00  0.00    -0.093 NA 
ATOM      2  H2  CYS A   1      -6.872   8.325  69.209  1.00  0.00     0.000 HD 
ATOM      3  CA  CYS A   1      -8.585   8.277  70.397  1.00  0.00    -0.134 C  
ATOM      4  H1  CYS A   1      -7.326   6.758  69.588  1.00  0.00     0.000 HD 
ATOM      5  O   CYS A   1      -9.460   6.072  70.130  1.00  0.00    -0.155 OA 
ATOM      6  C   CYS A   1      -9.782   7.325  70.541  1.00  0.00    -0.176 C  
ATOM      7  OXT CYS A   1     -10.880   7.627  70.981  1.00  0.00    -0.236 OA 
ENDROOT
BRANCH   3   8
ATOM      8  CB  CYS A   1      -9.087   9.691  70.073  1.00  0.00    -0.237 C  
BRANCH   8   9
ATOM      9  SG  CYS A   1      -9.372   9.901  68.277  1.00  0.00    -0.132 SA 
BRANCH   9  10
ATOM     10  SG  CYS A   1      -9.030  11.915  68.026  1.00  0.00    -0.190 SA 
BRANCH  10  11
ATOM     11  CB  CYS A   1     -10.434  12.400  66.959  1.00  0.00    -0.220 C  
BRANCH  11  12
ATOM     12  CA  CYS A   1     -10.854  13.857  67.204  1.00  0.00    -0.284 C  
ATOM     13  N   CYS A   1     -12.341  14.035  67.271  1.00  0.00    -0.540 NA 
ATOM     14  C   CYS A   1     -10.328  14.681  66.028  1.00  0.00    -0.305 C  
ATOM     15  H2  CYS A   1     -12.751  13.416  67.970  1.00  0.00     0.000 HD 
ATOM     16  H1  CYS A   1     -12.619  15.003  67.433  1.00  0.00     0.000 HD 
ATOM     17  OXT CYS A   1      -9.164  15.005  65.860  1.00  0.00    -0.280 OA 
ATOM     18  O   CYS A   1     -11.321  14.975  65.146  1.00  0.00    -0.360 OA 
ENDBRANCH  11  12
ENDBRANCH  10  11
ENDBRANCH   9  10
ENDBRANCH   8   9
ENDBRANCH   3   8
TORSDOF 5
ENDMDL
MODEL      290
REMARK 921   NORMALIZED FREE ENERGY PREDICTED BY IDOCK:   -2.24 KCAL/MOL
REMARK 922        TOTAL FREE ENERGY PREDICTED BY IDOCK:   -3.51 KCAL/MOL
REMARK 923 INTER-LIGAND FREE ENERGY PREDICTED BY IDOCK:   -3.44 KCAL/MOL
REMARK 924 INTRA-LIGAND FREE ENERGY PREDICTED BY IDOCK:   -0.07 KCAL/MOL
REMARK 927      BINDING AFFINITY PREDICTED BY RF-SCORE:    0.00 PKD
ROOT
ATOM      1  N   CYS A   1      -7.943   8.688  65.355  1.00  0.00    -0.104 NA 
ATOM      2  H2  CYS A   1      -7.522   8.114  66.086  1.00  0.00     0.000 HD 
ATOM      3  CA  CYS A   1      -9.267   9.223  65.808  1.00  0.00    -0.224 C  
ATOM      4  H1  CYS A   1      -7.975   8.173  64.474  1.00  0.00     0.000 HD 
ATOM      5  O   CYS A   1      -9.252   9.827  63.498  1.00  0.00    -0.263 OA 
ATOM      6  C   CYS A   1      -9.809  10.135  64.698  1.00  0.00    -0.291 C  
ATOM      7  OXT CYS A   1     -10.645  11.012  64.846  1.00  0.00    -0.302 OA 
ENDROOT
BRANCH   3   8
ATOM      8  CB  CYS A   1      -9.219   9.996  67.134  1.00  0.00    -0.141 C  
BRANCH   8   9
ATOM      9  SG  CYS A   1     -10.833   9.937  67.996  1.00  0.00    -0.211 SA 
BRANCH   9  10
ATOM     10  SG  CYS A   1     -10.607  11.408  69.419  1.00  0.00     0.032 SA 
BRANCH  10  11
ATOM     11  CB  CYS A   1     -10.432  12.904  68.383  1.00  0.00    -0.251 C  
BRANCH  11  12
ATOM     12  CA  CYS A   1     -11.721  13.739  68.371  1.00  0.00    -0.358 C  
ATOM     13  N   CYS A   1     -11.885  14.547  67.119  1.00  0.00    -0.402 NA 
ATOM     14  C   CYS A   1     -11.643  14.705  69.554  1.00  0.00    -0.310 C  
ATOM     15  H2  CYS A   1     -11.829  13.952  66.292  1.00  0.00     0.000 HD 
ATOM     16  H1  CYS A   1     -12.741  15.101  67.112  1.00  0.00     0.000 HD 
ATOM     17  OXT CYS A   1     -11.806  14.400  70.724  1.00  0.00    -0.299 OA 
ATOM     18  O   CYS A   1     -11.313  15.961  69.147  1.00  0.00    -0.317 OA 
ENDBRANCH  11  12
ENDBRANCH  10  11
ENDBRANCH   9  10
ENDBRANCH   8   9
ENDBRANCH   3   8
TORSDOF 5
ENDMDL
MODEL      291
REMARK 921   NORMALIZED FREE ENERGY PREDICTED BY IDOCK:   -2.23 KCAL/MOL
REMARK 922        TOTAL FREE ENERGY PREDICTED BY IDOCK:   -3.50 KCAL/MOL
REMARK 923 INTER-LIGAND FREE ENERGY PREDICTED BY IDOCK:   -2.95 KCAL/MOL
REMARK 924 INTRA-LIGAND FREE ENERGY PREDICTED BY IDOCK:   -0.55 KCAL/MOL
REMARK 927      BINDING AFFINITY PREDICTED BY RF-SCORE:    0.00 PKD
ROOT
ATOM      1  N   CYS A   1      -9.031   7.950  72.960  1.00  0.00    -0.199 NA 
ATOM      2  H2  CYS A   1      -9.538   8.484  73.666  1.00  0.00     0.000 HD 
ATOM      3  CA  CYS A   1      -9.346   6.491  73.083  1.00  0.00    -0.134 C  
ATOM      4  H1  CYS A   1      -8.035   8.171  72.995  1.00  0.00     0.000 HD 
ATOM      5  O   CYS A   1      -7.557   6.481  71.501  1.00  0.00    -0.091 OA 
ATOM      6  C   CYS A   1      -8.614   5.755  71.949  1.00  0.00    -0.134 C  
ATOM      7  OXT CYS A   1      -8.913   4.657  71.508  1.00  0.00    -0.127 OA 
ENDROOT
BRANCH   3   8
ATOM      8  CB  CYS A   1     -10.844   6.157  73.030  1.00  0.00    -0.257 C  
BRANCH   8   9
ATOM      9  SG  CYS A   1     -11.768   7.399  72.052  1.00  0.00    -0.298 SA 
BRANCH   9  10
ATOM     10  SG  CYS A   1     -11.778   6.542  70.180  1.00  0.00    -0.224 SA 
BRANCH  10  11
ATOM     11  CB  CYS A   1     -10.489   7.512  69.320  1.00  0.00    -0.214 C  
BRANCH  11  12
ATOM     12  CA  CYS A   1     -10.175   6.932  67.933  1.00  0.00    -0.174 C  
ATOM     13  N   CYS A   1     -11.382   6.369  67.246  1.00  0.00    -0.731 NA 
ATOM     14  C   CYS A   1      -9.171   5.797  68.136  1.00  0.00    -0.109 C  
ATOM     15  H2  CYS A   1     -12.127   7.064  67.189  1.00  0.00     0.000 HD 
ATOM     16  H1  CYS A   1     -11.173   5.984  66.324  1.00  0.00     0.000 HD 
ATOM     17  OXT CYS A   1      -7.985   5.943  68.385  1.00  0.00    -0.103 OA 
ATOM     18  O   CYS A   1      -9.774   4.581  68.055  1.00  0.00    -0.159 OA 
ENDBRANCH  11  12
ENDBRANCH  10  11
ENDBRANCH   9  10
ENDBRANCH   8   9
ENDBRANCH   3   8
TORSDOF 5
ENDMDL
MODEL      292
REMARK 921   NORMALIZED FREE ENERGY PREDICTED BY IDOCK:   -2.23 KCAL/MOL
REMARK 922        TOTAL FREE ENERGY PREDICTED BY IDOCK:   -3.50 KCAL/MOL
REMARK 923 INTER-LIGAND FREE ENERGY PREDICTED BY IDOCK:   -3.28 KCAL/MOL
REMARK 924 INTRA-LIGAND FREE ENERGY PREDICTED BY IDOCK:   -0.22 KCAL/MOL
REMARK 927      BINDING AFFINITY PREDICTED BY RF-SCORE:    0.00 PKD
ROOT
ATOM      1  N   CYS A   1     -10.310  18.205  66.263  1.00  0.00    -0.404 NA 
ATOM      2  H2  CYS A   1     -10.305  17.512  65.514  1.00  0.00     0.000 HD 
ATOM      3  CA  CYS A   1      -9.235  17.902  67.261  1.00  0.00    -0.254 C  
ATOM      4  H1  CYS A   1     -11.245  18.290  66.662  1.00  0.00     0.000 HD 
ATOM      5  O   CYS A   1     -10.453  19.641  68.355  1.00  0.00    -0.419 OA 
ATOM      6  C   CYS A   1      -9.246  19.019  68.317  1.00  0.00    -0.334 C  
ATOM      7  OXT CYS A   1      -8.314  19.314  69.047  1.00  0.00    -0.338 OA 
ENDROOT
BRANCH   3   8
ATOM      8  CB  CYS A   1      -7.827  17.775  66.662  1.00  0.00    -0.244 C  
BRANCH   8   9
ATOM      9  SG  CYS A   1      -7.043  16.190  67.136  1.00  0.00    -0.215 SA 
BRANCH   9  10
ATOM     10  SG  CYS A   1      -8.662  14.921  67.209  1.00  0.00    -0.220 SA 
BRANCH  10  11
ATOM     11  CB  CYS A   1      -7.861  13.285  67.052  1.00  0.00     0.068 C  
BRANCH  11  12
ATOM     12  CA  CYS A   1      -8.815  12.148  67.443  1.00  0.00    -0.181 C  
ATOM     13  N   CYS A   1      -9.626  12.456  68.666  1.00  0.00    -0.394 NA 
ATOM     14  C   CYS A   1      -7.954  10.919  67.741  1.00  0.00    -0.111 C  
ATOM     15  H2  CYS A   1     -10.133  13.334  68.554  1.00  0.00     0.000 HD 
ATOM     16  H1  CYS A   1     -10.260  11.699  68.925  1.00  0.00     0.000 HD 
ATOM     17  OXT CYS A   1      -7.407  10.223  66.902  1.00  0.00    -0.093 OA 
ATOM     18  O   CYS A   1      -7.824  10.718  69.080  1.00  0.00    -0.139 OA 
ENDBRANCH  11  12
ENDBRANCH  10  11
ENDBRANCH   9  10
ENDBRANCH   8   9
ENDBRANCH   3   8
TORSDOF 5
ENDMDL
MODEL      293
REMARK 921   NORMALIZED FREE ENERGY PREDICTED BY IDOCK:   -2.21 KCAL/MOL
REMARK 922        TOTAL FREE ENERGY PREDICTED BY IDOCK:   -3.48 KCAL/MOL
REMARK 923 INTER-LIGAND FREE ENERGY PREDICTED BY IDOCK:   -3.66 KCAL/MOL
REMARK 924 INTRA-LIGAND FREE ENERGY PREDICTED BY IDOCK:    0.18 KCAL/MOL
REMARK 927      BINDING AFFINITY PREDICTED BY RF-SCORE:    0.00 PKD
ROOT
ATOM      1  N   CYS A   1     -11.458   6.629  67.430  1.00  0.00    -0.740 NA 
ATOM      2  H2  CYS A   1     -11.599   7.453  68.016  1.00  0.00     0.000 HD 
ATOM      3  CA  CYS A   1     -10.268   5.851  67.901  1.00  0.00    -0.184 C  
ATOM      4  H1  CYS A   1     -11.426   6.895  66.445  1.00  0.00     0.000 HD 
ATOM      5  O   CYS A   1     -10.789   4.763  65.840  1.00  0.00    -0.304 OA 
ATOM      6  C   CYS A   1     -10.157   4.590  67.030  1.00  0.00    -0.138 C  
ATOM      7  OXT CYS A   1      -9.568   3.566  67.336  1.00  0.00    -0.210 OA 
ENDROOT
BRANCH   3   8
ATOM      8  CB  CYS A   1     -10.315   5.451  69.382  1.00  0.00    -0.269 C  
BRANCH   8   9
ATOM      9  SG  CYS A   1     -11.480   6.506  70.320  1.00  0.00    -0.397 SA 
BRANCH   9  10
ATOM     10  SG  CYS A   1     -10.991   6.053  72.267  1.00  0.00    -0.279 SA 
BRANCH  10  11
ATOM     11  CB  CYS A   1     -10.227   7.615  72.832  1.00  0.00    -0.298 C  
BRANCH  11  12
ATOM     12  CA  CYS A   1      -9.146   7.365  73.893  1.00  0.00    -0.252 C  
ATOM     13  N   CYS A   1      -8.523   8.628  74.406  1.00  0.00    -0.307 NA 
ATOM     14  C   CYS A   1      -8.050   6.529  73.232  1.00  0.00    -0.109 C  
ATOM     15  H2  CYS A   1      -9.236   9.269  74.756  1.00  0.00     0.000 HD 
ATOM     16  H1  CYS A   1      -7.805   8.461  75.111  1.00  0.00     0.000 HD 
ATOM     17  OXT CYS A   1      -8.129   5.338  72.978  1.00  0.00    -0.104 OA 
ATOM     18  O   CYS A   1      -6.972   7.293  72.906  1.00  0.00    -0.067 OA 
ENDBRANCH  11  12
ENDBRANCH  10  11
ENDBRANCH   9  10
ENDBRANCH   8   9
ENDBRANCH   3   8
TORSDOF 5
ENDMDL
MODEL      294
REMARK 921   NORMALIZED FREE ENERGY PREDICTED BY IDOCK:   -2.20 KCAL/MOL
REMARK 922        TOTAL FREE ENERGY PREDICTED BY IDOCK:   -3.46 KCAL/MOL
REMARK 923 INTER-LIGAND FREE ENERGY PREDICTED BY IDOCK:   -3.30 KCAL/MOL
REMARK 924 INTRA-LIGAND FREE ENERGY PREDICTED BY IDOCK:   -0.16 KCAL/MOL
REMARK 927      BINDING AFFINITY PREDICTED BY RF-SCORE:    0.00 PKD
ROOT
ATOM      1  N   CYS A   1      -8.775  12.264  68.564  1.00  0.00    -0.338 NA 
ATOM      2  H2  CYS A   1      -8.032  11.900  69.162  1.00  0.00     0.000 HD 
ATOM      3  CA  CYS A   1      -9.838  11.228  68.362  1.00  0.00    -0.199 C  
ATOM      4  H1  CYS A   1      -8.382  12.640  67.701  1.00  0.00     0.000 HD 
ATOM      5  O   CYS A   1     -10.490  12.918  66.807  1.00  0.00    -0.251 OA 
ATOM      6  C   CYS A   1     -10.956  11.861  67.520  1.00  0.00    -0.247 C  
ATOM      7  OXT CYS A   1     -12.111  11.471  67.468  1.00  0.00    -0.614 OA 
ENDROOT
BRANCH   3   8
ATOM      8  CB  CYS A   1     -10.428  10.661  69.661  1.00  0.00    -0.179 C  
BRANCH   8   9
ATOM      9  SG  CYS A   1     -10.179   8.851  69.770  1.00  0.00    -0.209 SA 
BRANCH   9  10
ATOM     10  SG  CYS A   1      -9.410   8.643  71.669  1.00  0.00    -0.280 SA 
BRANCH  10  11
ATOM     11  CB  CYS A   1      -8.451   7.095  71.515  1.00  0.00    -0.115 C  
BRANCH  11  12
ATOM     12  CA  CYS A   1      -9.094   5.949  72.309  1.00  0.00    -0.141 C  
ATOM     13  N   CYS A   1     -10.587   5.906  72.173  1.00  0.00    -0.211 NA 
ATOM     14  C   CYS A   1      -8.758   6.177  73.783  1.00  0.00    -0.123 C  
ATOM     15  H2  CYS A   1     -10.862   5.867  71.191  1.00  0.00     0.000 HD 
ATOM     16  H1  CYS A   1     -11.014   5.144  72.701  1.00  0.00     0.000 HD 
ATOM     17  OXT CYS A   1      -7.670   5.973  74.296  1.00  0.00    -0.097 OA 
ATOM     18  O   CYS A   1      -9.820   6.693  74.459  1.00  0.00    -0.298 OA 
ENDBRANCH  11  12
ENDBRANCH  10  11
ENDBRANCH   9  10
ENDBRANCH   8   9
ENDBRANCH   3   8
TORSDOF 5
ENDMDL
MODEL      295
REMARK 921   NORMALIZED FREE ENERGY PREDICTED BY IDOCK:   -2.19 KCAL/MOL
REMARK 922        TOTAL FREE ENERGY PREDICTED BY IDOCK:   -3.45 KCAL/MOL
REMARK 923 INTER-LIGAND FREE ENERGY PREDICTED BY IDOCK:   -3.25 KCAL/MOL
REMARK 924 INTRA-LIGAND FREE ENERGY PREDICTED BY IDOCK:   -0.20 KCAL/MOL
REMARK 927      BINDING AFFINITY PREDICTED BY RF-SCORE:    0.00 PKD
ROOT
ATOM      1  N   CYS A   1      -9.830  12.622  64.567  1.00  0.00    -0.549 NA 
ATOM      2  H2  CYS A   1      -9.710  11.733  64.081  1.00  0.00     0.000 HD 
ATOM      3  CA  CYS A   1     -10.984  12.544  65.520  1.00  0.00    -0.287 C  
ATOM      4  H1  CYS A   1      -9.888  13.389  63.897  1.00  0.00     0.000 HD 
ATOM      5  O   CYS A   1     -10.457  14.872  65.568  1.00  0.00    -0.309 OA 
ATOM      6  C   CYS A   1     -11.063  13.882  66.272  1.00  0.00    -0.304 C  
ATOM      7  OXT CYS A   1     -11.610  14.058  67.349  1.00  0.00    -0.327 OA 
ENDROOT
BRANCH   3   8
ATOM      8  CB  CYS A   1     -10.899  11.390  66.529  1.00  0.00    -0.283 C  
BRANCH   8   9
ATOM      9  SG  CYS A   1      -9.180  10.783  66.701  1.00  0.00    -0.169 SA 
BRANCH   9  10
ATOM     10  SG  CYS A   1      -9.208   9.093  65.527  1.00  0.00    -0.201 SA 
BRANCH  10  11
ATOM     11  CB  CYS A   1      -9.872   7.845  66.687  1.00  0.00    -0.241 C  
BRANCH  11  12
ATOM     12  CA  CYS A   1      -8.748   7.041  67.358  1.00  0.00    -0.120 C  
ATOM     13  N   CYS A   1      -7.443   7.133  66.626  1.00  0.00    -0.086 NA 
ATOM     14  C   CYS A   1      -9.186   5.576  67.368  1.00  0.00    -0.110 C  
ATOM     15  H2  CYS A   1      -7.167   8.107  66.496  1.00  0.00     0.000 HD 
ATOM     16  H1  CYS A   1      -6.697   6.599  67.072  1.00  0.00     0.000 HD 
ATOM     17  OXT CYS A   1     -10.025   5.097  68.113  1.00  0.00    -0.151 OA 
ATOM     18  O   CYS A   1      -8.555   4.864  66.396  1.00  0.00    -0.111 OA 
ENDBRANCH  11  12
ENDBRANCH  10  11
ENDBRANCH   9  10
ENDBRANCH   8   9
ENDBRANCH   3   8
TORSDOF 5
ENDMDL
MODEL      296
REMARK 921   NORMALIZED FREE ENERGY PREDICTED BY IDOCK:   -2.16 KCAL/MOL
REMARK 922        TOTAL FREE ENERGY PREDICTED BY IDOCK:   -3.41 KCAL/MOL
REMARK 923 INTER-LIGAND FREE ENERGY PREDICTED BY IDOCK:   -3.81 KCAL/MOL
REMARK 924 INTRA-LIGAND FREE ENERGY PREDICTED BY IDOCK:    0.40 KCAL/MOL
REMARK 927      BINDING AFFINITY PREDICTED BY RF-SCORE:    0.00 PKD
ROOT
ATOM      1  N   CYS A   1      -5.510  14.266  67.500  1.00  0.00    -0.341 NA 
ATOM      2  H2  CYS A   1      -5.403  13.359  67.047  1.00  0.00     0.000 HD 
ATOM      3  CA  CYS A   1      -6.957  14.648  67.569  1.00  0.00    -0.168 C  
ATOM      4  H1  CYS A   1      -4.911  14.960  67.052  1.00  0.00     0.000 HD 
ATOM      5  O   CYS A   1      -5.879  16.659  68.275  1.00  0.00    -0.113 OA 
ATOM      6  C   CYS A   1      -7.055  15.982  68.326  1.00  0.00    -0.120 C  
ATOM      7  OXT CYS A   1      -8.052  16.406  68.889  1.00  0.00    -0.216 OA 
ENDROOT
BRANCH   3   8
ATOM      8  CB  CYS A   1      -7.859  13.605  68.243  1.00  0.00    -0.141 C  
BRANCH   8   9
ATOM      9  SG  CYS A   1      -7.800  12.004  67.359  1.00  0.00    -0.170 SA 
BRANCH   9  10
ATOM     10  SG  CYS A   1      -9.466  12.123  66.155  1.00  0.00    -0.194 SA 
BRANCH  10  11
ATOM     11  CB  CYS A   1      -9.871  13.903  66.255  1.00  0.00    -0.306 C  
BRANCH  11  12
ATOM     12  CA  CYS A   1     -11.305  14.131  66.755  1.00  0.00    -0.343 C  
ATOM     13  N   CYS A   1     -11.383  14.348  68.236  1.00  0.00    -0.273 NA 
ATOM     14  C   CYS A   1     -12.105  12.872  66.417  1.00  0.00    -0.329 C  
ATOM     15  H2  CYS A   1     -10.771  15.112  68.524  1.00  0.00     0.000 HD 
ATOM     16  H1  CYS A   1     -12.335  14.499  68.567  1.00  0.00     0.000 HD 
ATOM     17  OXT CYS A   1     -12.501  12.568  65.303  1.00  0.00    -0.608 OA 
ATOM     18  O   CYS A   1     -12.285  12.089  67.514  1.00  0.00    -0.490 OA 
ENDBRANCH  11  12
ENDBRANCH  10  11
ENDBRANCH   9  10
ENDBRANCH   8   9
ENDBRANCH   3   8
TORSDOF 5
ENDMDL
MODEL      297
REMARK 921   NORMALIZED FREE ENERGY PREDICTED BY IDOCK:   -2.15 KCAL/MOL
REMARK 922        TOTAL FREE ENERGY PREDICTED BY IDOCK:   -3.40 KCAL/MOL
REMARK 923 INTER-LIGAND FREE ENERGY PREDICTED BY IDOCK:   -3.48 KCAL/MOL
REMARK 924 INTRA-LIGAND FREE ENERGY PREDICTED BY IDOCK:    0.08 KCAL/MOL
REMARK 927      BINDING AFFINITY PREDICTED BY RF-SCORE:    0.00 PKD
ROOT
ATOM      1  N   CYS A   1     -11.946  15.411  67.247  1.00  0.00    -0.070 NA 
ATOM      2  H2  CYS A   1     -12.705  15.121  67.864  1.00  0.00     0.000 HD 
ATOM      3  CA  CYS A   1     -10.628  15.292  67.949  1.00  0.00    -0.260 C  
ATOM      4  H1  CYS A   1     -12.137  16.336  66.861  1.00  0.00     0.000 HD 
ATOM      5  O   CYS A   1     -10.022  16.443  65.947  1.00  0.00    -0.322 OA 
ATOM      6  C   CYS A   1      -9.527  15.669  66.946  1.00  0.00    -0.229 C  
ATOM      7  OXT CYS A   1      -8.353  15.344  67.027  1.00  0.00    -0.199 OA 
ENDROOT
BRANCH   3   8
ATOM      8  CB  CYS A   1     -10.341  13.901  68.531  1.00  0.00    -0.244 C  
BRANCH   8   9
ATOM      9  SG  CYS A   1     -11.325  12.610  67.685  1.00  0.00    -0.331 SA 
BRANCH   9  10
ATOM     10  SG  CYS A   1     -10.595  12.711  65.764  1.00  0.00    -0.278 SA 
BRANCH  10  11
ATOM     11  CB  CYS A   1      -9.363  11.361  65.761  1.00  0.00    -0.228 C  
BRANCH  11  12
ATOM     12  CA  CYS A   1      -9.870  10.133  64.991  1.00  0.00    -0.322 C  
ATOM     13  N   CYS A   1      -9.962   8.903  65.843  1.00  0.00    -0.445 NA 
ATOM     14  C   CYS A   1      -8.868   9.859  63.868  1.00  0.00    -0.227 C  
ATOM     15  H2  CYS A   1     -10.534   9.075  66.671  1.00  0.00     0.000 HD 
ATOM     16  H1  CYS A   1     -10.300   8.088  65.331  1.00  0.00     0.000 HD 
ATOM     17  OXT CYS A   1      -8.768  10.510  62.841  1.00  0.00    -0.177 OA 
ATOM     18  O   CYS A   1      -8.051   8.816  64.177  1.00  0.00    -0.147 OA 
ENDBRANCH  11  12
ENDBRANCH  10  11
ENDBRANCH   9  10
ENDBRANCH   8   9
ENDBRANCH   3   8
TORSDOF 5
ENDMDL
MODEL      298
REMARK 921   NORMALIZED FREE ENERGY PREDICTED BY IDOCK:   -2.15 KCAL/MOL
REMARK 922        TOTAL FREE ENERGY PREDICTED BY IDOCK:   -3.40 KCAL/MOL
REMARK 923 INTER-LIGAND FREE ENERGY PREDICTED BY IDOCK:   -3.16 KCAL/MOL
REMARK 924 INTRA-LIGAND FREE ENERGY PREDICTED BY IDOCK:   -0.23 KCAL/MOL
REMARK 927      BINDING AFFINITY PREDICTED BY RF-SCORE:    0.00 PKD
ROOT
ATOM      1  N   CYS A   1      -8.633   8.833  65.255  1.00  0.00    -0.180 NA 
ATOM      2  H2  CYS A   1      -8.361   7.892  65.540  1.00  0.00     0.000 HD 
ATOM      3  CA  CYS A   1      -8.954   9.670  66.456  1.00  0.00    -0.147 C  
ATOM      4  H1  CYS A   1      -9.377   8.792  64.558  1.00  0.00     0.000 HD 
ATOM      5  O   CYS A   1      -9.670  11.077  64.665  1.00  0.00    -0.230 OA 
ATOM      6  C   CYS A   1      -9.280  11.089  65.966  1.00  0.00    -0.193 C  
ATOM      7  OXT CYS A   1      -9.224  12.103  66.642  1.00  0.00    -0.198 OA 
ENDROOT
BRANCH   3   8
ATOM      8  CB  CYS A   1      -7.834   9.732  67.505  1.00  0.00    -0.095 C  
BRANCH   8   9
ATOM      9  SG  CYS A   1      -8.230   8.698  68.962  1.00  0.00    -0.124 SA 
BRANCH   9  10
ATOM     10  SG  CYS A   1      -9.880   9.661  69.730  1.00  0.00    -0.243 SA 
BRANCH  10  11
ATOM     11  CB  CYS A   1     -10.966   8.254  70.157  1.00  0.00    -0.222 C  
BRANCH  11  12
ATOM     12  CA  CYS A   1     -11.391   8.294  71.632  1.00  0.00    -0.272 C  
ATOM     13  N   CYS A   1     -10.229   8.265  72.578  1.00  0.00    -0.310 NA 
ATOM     14  C   CYS A   1     -12.245   7.052  71.890  1.00  0.00    -0.327 C  
ATOM     15  H2  CYS A   1      -9.570   9.015  72.368  1.00  0.00     0.000 HD 
ATOM     16  H1  CYS A   1     -10.511   8.292  73.558  1.00  0.00     0.000 HD 
ATOM     17  OXT CYS A   1     -13.398   6.902  71.522  1.00  0.00    -0.329 OA 
ATOM     18  O   CYS A   1     -11.538   6.092  72.545  1.00  0.00    -0.295 OA 
ENDBRANCH  11  12
ENDBRANCH  10  11
ENDBRANCH   9  10
ENDBRANCH   8   9
ENDBRANCH   3   8
TORSDOF 5
ENDMDL
MODEL      299
REMARK 921   NORMALIZED FREE ENERGY PREDICTED BY IDOCK:   -2.13 KCAL/MOL
REMARK 922        TOTAL FREE ENERGY PREDICTED BY IDOCK:   -3.37 KCAL/MOL
REMARK 923 INTER-LIGAND FREE ENERGY PREDICTED BY IDOCK:   -3.10 KCAL/MOL
REMARK 924 INTRA-LIGAND FREE ENERGY PREDICTED BY IDOCK:   -0.27 KCAL/MOL
REMARK 927      BINDING AFFINITY PREDICTED BY RF-SCORE:    0.00 PKD
ROOT
ATOM      1  N   CYS A   1     -10.475  16.008  69.460  1.00  0.00    -0.264 NA 
ATOM      2  H2  CYS A   1     -11.292  15.571  69.888  1.00  0.00     0.000 HD 
ATOM      3  CA  CYS A   1      -9.975  15.177  68.319  1.00  0.00    -0.223 C  
ATOM      4  H1  CYS A   1      -9.772  16.217  70.170  1.00  0.00     0.000 HD 
ATOM      5  O   CYS A   1      -8.238  16.799  68.549  1.00  0.00    -0.220 OA 
ATOM      6  C   CYS A   1      -8.797  15.924  67.674  1.00  0.00    -0.174 C  
ATOM      7  OXT CYS A   1      -8.389  15.756  66.536  1.00  0.00    -0.272 OA 
ENDROOT
BRANCH   3   8
ATOM      8  CB  CYS A   1     -11.032  14.862  67.251  1.00  0.00    -0.323 C  
BRANCH   8   9
ATOM      9  SG  CYS A   1     -10.892  13.133  66.666  1.00  0.00    -0.283 SA 
BRANCH   9  10
ATOM     10  SG  CYS A   1     -11.203  12.071  68.402  1.00  0.00    -0.288 SA 
BRANCH  10  11
ATOM     11  CB  CYS A   1      -9.691  11.047  68.487  1.00  0.00    -0.189 C  
BRANCH  11  12
ATOM     12  CA  CYS A   1      -9.686   9.955  67.408  1.00  0.00    -0.162 C  
ATOM     13  N   CYS A   1     -11.018   9.287  67.242  1.00  0.00    -0.348 NA 
ATOM     14  C   CYS A   1      -8.674   8.894  67.844  1.00  0.00    -0.129 C  
ATOM     15  H2  CYS A   1     -11.749   9.975  67.061  1.00  0.00     0.000 HD 
ATOM     16  H1  CYS A   1     -11.014   8.562  66.525  1.00  0.00     0.000 HD 
ATOM     17  OXT CYS A   1      -7.461   9.012  67.784  1.00  0.00    -0.084 OA 
ATOM     18  O   CYS A   1      -9.295   7.801  68.365  1.00  0.00    -0.144 OA 
ENDBRANCH  11  12
ENDBRANCH  10  11
ENDBRANCH   9  10
ENDBRANCH   8   9
ENDBRANCH   3   8
TORSDOF 5
ENDMDL
MODEL      300
REMARK 921   NORMALIZED FREE ENERGY PREDICTED BY IDOCK:   -2.11 KCAL/MOL
REMARK 922        TOTAL FREE ENERGY PREDICTED BY IDOCK:   -3.34 KCAL/MOL
REMARK 923 INTER-LIGAND FREE ENERGY PREDICTED BY IDOCK:   -3.20 KCAL/MOL
REMARK 924 INTRA-LIGAND FREE ENERGY PREDICTED BY IDOCK:   -0.14 KCAL/MOL
REMARK 927      BINDING AFFINITY PREDICTED BY RF-SCORE:    0.00 PKD
ROOT
ATOM      1  N   CYS A   1      -8.382   4.495  69.046  1.00  0.00    -0.079 NA 
ATOM      2  H2  CYS A   1      -8.049   4.975  69.883  1.00  0.00     0.000 HD 
ATOM      3  CA  CYS A   1      -9.315   5.378  68.275  1.00  0.00    -0.114 C  
ATOM      4  H1  CYS A   1      -8.769   3.583  69.290  1.00  0.00     0.000 HD 
ATOM      5  O   CYS A   1      -9.557   3.289  67.143  1.00  0.00    -0.183 OA 
ATOM      6  C   CYS A   1      -9.718   4.630  66.995  1.00  0.00    -0.195 C  
ATOM      7  OXT CYS A   1     -10.147   5.148  65.976  1.00  0.00    -0.185 OA 
ENDROOT
BRANCH   3   8
ATOM      8  CB  CYS A   1      -8.735   6.751  67.908  1.00  0.00    -0.120 C  
BRANCH   8   9
ATOM      9  SG  CYS A   1     -10.040   8.033  67.856  1.00  0.00    -0.205 SA 
BRANCH   9  10
ATOM     10  SG  CYS A   1      -9.389   9.360  69.289  1.00  0.00    -0.175 SA 
BRANCH  10  11
ATOM     11  CB  CYS A   1     -10.689   9.199  70.564  1.00  0.00    -0.238 C  
BRANCH  11  12
ATOM     12  CA  CYS A   1     -11.942  10.010  70.200  1.00  0.00    -0.131 C  
ATOM     13  N   CYS A   1     -11.695  11.489  70.168  1.00  0.00    -0.423 NA 
ATOM     14  C   CYS A   1     -12.991   9.726  71.276  1.00  0.00    -0.380 C  
ATOM     15  H2  CYS A   1     -10.921  11.715  69.543  1.00  0.00     0.000 HD 
ATOM     16  H1  CYS A   1     -12.527  12.027  69.927  1.00  0.00     0.000 HD 
ATOM     17  OXT CYS A   1     -13.638   8.697  71.373  1.00  0.00    -0.318 OA 
ATOM     18  O   CYS A   1     -13.083  10.755  72.161  1.00  0.00    -0.460 OA 
ENDBRANCH  11  12
ENDBRANCH  10  11
ENDBRANCH   9  10
ENDBRANCH   8   9
ENDBRANCH   3   8
TORSDOF 5
ENDMDL
MODEL      301
REMARK 921   NORMALIZED FREE ENERGY PREDICTED BY IDOCK:   -2.11 KCAL/MOL
REMARK 922        TOTAL FREE ENERGY PREDICTED BY IDOCK:   -3.34 KCAL/MOL
REMARK 923 INTER-LIGAND FREE ENERGY PREDICTED BY IDOCK:   -3.19 KCAL/MOL
REMARK 924 INTRA-LIGAND FREE ENERGY PREDICTED BY IDOCK:   -0.15 KCAL/MOL
REMARK 927      BINDING AFFINITY PREDICTED BY RF-SCORE:    0.00 PKD
ROOT
ATOM      1  N   CYS A   1      -7.821  14.657  69.714  1.00  0.00    -0.402 NA 
ATOM      2  H2  CYS A   1      -8.379  15.506  69.812  1.00  0.00     0.000 HD 
ATOM      3  CA  CYS A   1      -8.236  13.899  68.490  1.00  0.00    -0.131 C  
ATOM      4  H1  CYS A   1      -7.848  14.113  70.577  1.00  0.00     0.000 HD 
ATOM      5  O   CYS A   1      -6.763  12.352  69.557  1.00  0.00    -0.080 OA 
ATOM      6  C   CYS A   1      -7.312  12.679  68.358  1.00  0.00    -0.118 C  
ATOM      7  OXT CYS A   1      -7.101  12.058  67.330  1.00  0.00    -0.130 OA 
ENDROOT
BRANCH   3   8
ATOM      8  CB  CYS A   1      -8.196  14.718  67.192  1.00  0.00    -0.211 C  
BRANCH   8   9
ATOM      9  SG  CYS A   1      -9.826  15.467  66.828  1.00  0.00    -0.251 SA 
BRANCH   9  10
ATOM     10  SG  CYS A   1      -9.752  17.201  67.935  1.00  0.00    -0.279 SA 
BRANCH  10  11
ATOM     11  CB  CYS A   1      -9.100  18.395  66.714  1.00  0.00    -0.292 C  
BRANCH  11  12
ATOM     12  CA  CYS A   1      -7.617  18.705  66.961  1.00  0.00    -0.226 C  
ATOM     13  N   CYS A   1      -6.696  17.676  66.375  1.00  0.00    -0.230 NA 
ATOM     14  C   CYS A   1      -7.406  18.723  68.476  1.00  0.00    -0.297 C  
ATOM     15  H2  CYS A   1      -6.881  17.548  65.380  1.00  0.00     0.000 HD 
ATOM     16  H1  CYS A   1      -5.711  17.883  66.540  1.00  0.00     0.000 HD 
ATOM     17  OXT CYS A   1      -7.758  19.620  69.224  1.00  0.00    -0.312 OA 
ATOM     18  O   CYS A   1      -6.815  17.577  68.908  1.00  0.00    -0.225 OA 
ENDBRANCH  11  12
ENDBRANCH  10  11
ENDBRANCH   9  10
ENDBRANCH   8   9
ENDBRANCH   3   8
TORSDOF 5
ENDMDL
MODEL      302
REMARK 921   NORMALIZED FREE ENERGY PREDICTED BY IDOCK:   -2.11 KCAL/MOL
REMARK 922        TOTAL FREE ENERGY PREDICTED BY IDOCK:   -3.34 KCAL/MOL
REMARK 923 INTER-LIGAND FREE ENERGY PREDICTED BY IDOCK:   -3.05 KCAL/MOL
REMARK 924 INTRA-LIGAND FREE ENERGY PREDICTED BY IDOCK:   -0.29 KCAL/MOL
REMARK 927      BINDING AFFINITY PREDICTED BY RF-SCORE:    0.00 PKD
ROOT
ATOM      1  N   CYS A   1     -10.831  12.105  69.316  1.00  0.00    -0.434 NA 
ATOM      2  H2  CYS A   1     -10.477  11.574  70.112  1.00  0.00     0.000 HD 
ATOM      3  CA  CYS A   1      -9.749  12.307  68.300  1.00  0.00    -0.219 C  
ATOM      4  H1  CYS A   1     -11.278  12.966  69.634  1.00  0.00     0.000 HD 
ATOM      5  O   CYS A   1     -11.485  13.717  67.464  1.00  0.00    -0.296 OA 
ATOM      6  C   CYS A   1     -10.364  13.042  67.099  1.00  0.00    -0.243 C  
ATOM      7  OXT CYS A   1      -9.913  13.050  65.966  1.00  0.00    -0.272 OA 
ENDROOT
BRANCH   3   8
ATOM      8  CB  CYS A   1      -9.077  11.012  67.821  1.00  0.00    -0.147 C  
BRANCH   8   9
ATOM      9  SG  CYS A   1     -10.319   9.738  67.389  1.00  0.00    -0.254 SA 
BRANCH   9  10
ATOM     10  SG  CYS A   1     -10.160   8.436  68.975  1.00  0.00    -0.206 SA 
BRANCH  10  11
ATOM     11  CB  CYS A   1     -10.298   6.815  68.140  1.00  0.00    -0.188 C  
BRANCH  11  12
ATOM     12  CA  CYS A   1      -9.213   6.636  67.069  1.00  0.00    -0.135 C  
ATOM     13  N   CYS A   1      -9.720   5.968  65.825  1.00  0.00    -0.370 NA 
ATOM     14  C   CYS A   1      -8.124   5.748  67.673  1.00  0.00    -0.102 C  
ATOM     15  H2  CYS A   1     -10.527   6.467  65.448  1.00  0.00     0.000 HD 
ATOM     16  H1  CYS A   1      -8.999   5.850  65.114  1.00  0.00     0.000 HD 
ATOM     17  OXT CYS A   1      -7.302   6.108  68.500  1.00  0.00    -0.082 OA 
ATOM     18  O   CYS A   1      -8.212   4.472  67.212  1.00  0.00    -0.101 OA 
ENDBRANCH  11  12
ENDBRANCH  10  11
ENDBRANCH   9  10
ENDBRANCH   8   9
ENDBRANCH   3   8
TORSDOF 5
ENDMDL
MODEL      303
REMARK 921   NORMALIZED FREE ENERGY PREDICTED BY IDOCK:   -2.08 KCAL/MOL
REMARK 922        TOTAL FREE ENERGY PREDICTED BY IDOCK:   -3.31 KCAL/MOL
REMARK 923 INTER-LIGAND FREE ENERGY PREDICTED BY IDOCK:   -2.96 KCAL/MOL
REMARK 924 INTRA-LIGAND FREE ENERGY PREDICTED BY IDOCK:   -0.34 KCAL/MOL
REMARK 927      BINDING AFFINITY PREDICTED BY RF-SCORE:    0.00 PKD
ROOT
ATOM      1  N   CYS A   1      -9.659   2.923  66.895  1.00  0.00    -0.408 NA 
ATOM      2  H2  CYS A   1     -10.448   2.848  67.538  1.00  0.00     0.000 HD 
ATOM      3  CA  CYS A   1      -9.020   4.273  67.007  1.00  0.00    -0.123 C  
ATOM      4  H1  CYS A   1      -9.946   2.669  65.950  1.00  0.00     0.000 HD 
ATOM      5  O   CYS A   1      -7.919   3.360  65.096  1.00  0.00    -0.085 OA 
ATOM      6  C   CYS A   1      -7.799   4.294  66.074  1.00  0.00    -0.094 C  
ATOM      7  OXT CYS A   1      -6.848   5.052  66.169  1.00  0.00    -0.058 OA 
ENDROOT
BRANCH   3   8
ATOM      8  CB  CYS A   1      -8.588   4.656  68.430  1.00  0.00    -0.097 C  
BRANCH   8   9
ATOM      9  SG  CYS A   1      -8.813   6.447  68.735  1.00  0.00    -0.123 SA 
BRANCH   9  10
ATOM     10  SG  CYS A   1     -10.819   6.694  68.346  1.00  0.00    -0.239 SA 
BRANCH  10  11
ATOM     11  CB  CYS A   1     -11.547   6.509  70.012  1.00  0.00    -0.390 C  
BRANCH  11  12
ATOM     12  CA  CYS A   1     -10.475   6.581  71.109  1.00  0.00    -0.220 C  
ATOM     13  N   CYS A   1     -10.594   5.479  72.119  1.00  0.00    -0.219 NA 
ATOM     14  C   CYS A   1     -10.662   7.913  71.836  1.00  0.00    -0.237 C  
ATOM     15  H2  CYS A   1     -10.588   4.566  71.664  1.00  0.00     0.000 HD 
ATOM     16  H1  CYS A   1      -9.881   5.527  72.848  1.00  0.00     0.000 HD 
ATOM     17  OXT CYS A   1     -10.341   9.005  71.397  1.00  0.00    -0.271 OA 
ATOM     18  O   CYS A   1     -11.288   7.742  73.032  1.00  0.00    -0.399 OA 
ENDBRANCH  11  12
ENDBRANCH  10  11
ENDBRANCH   9  10
ENDBRANCH   8   9
ENDBRANCH   3   8
TORSDOF 5
ENDMDL
MODEL      304
REMARK 921   NORMALIZED FREE ENERGY PREDICTED BY IDOCK:   -2.08 KCAL/MOL
REMARK 922        TOTAL FREE ENERGY PREDICTED BY IDOCK:   -3.30 KCAL/MOL
REMARK 923 INTER-LIGAND FREE ENERGY PREDICTED BY IDOCK:   -2.97 KCAL/MOL
REMARK 924 INTRA-LIGAND FREE ENERGY PREDICTED BY IDOCK:   -0.34 KCAL/MOL
REMARK 927      BINDING AFFINITY PREDICTED BY RF-SCORE:    0.00 PKD
ROOT
ATOM      1  N   CYS A   1      -7.217   7.528  71.018  1.00  0.00    -0.065 NA 
ATOM      2  H2  CYS A   1      -7.171   8.109  70.181  1.00  0.00     0.000 HD 
ATOM      3  CA  CYS A   1      -8.594   6.964  71.190  1.00  0.00    -0.131 C  
ATOM      4  H1  CYS A   1      -6.868   8.042  71.828  1.00  0.00     0.000 HD 
ATOM      5  O   CYS A   1      -7.553   6.363  73.252  1.00  0.00    -0.090 OA 
ATOM      6  C   CYS A   1      -8.575   6.042  72.418  1.00  0.00    -0.120 C  
ATOM      7  OXT CYS A   1      -9.373   5.148  72.646  1.00  0.00    -0.137 OA 
ENDROOT
BRANCH   3   8
ATOM      8  CB  CYS A   1      -9.120   6.190  69.972  1.00  0.00    -0.147 C  
BRANCH   8   9
ATOM      9  SG  CYS A   1     -10.759   6.812  69.446  1.00  0.00    -0.272 SA 
BRANCH   9  10
ATOM     10  SG  CYS A   1     -10.608   8.820  69.874  1.00  0.00    -0.223 SA 
BRANCH  10  11
ATOM     11  CB  CYS A   1      -9.696   9.444  68.418  1.00  0.00    -0.149 C  
BRANCH  11  12
ATOM     12  CA  CYS A   1     -10.545   9.362  67.141  1.00  0.00    -0.224 C  
ATOM     13  N   CYS A   1      -9.870   8.609  66.035  1.00  0.00    -0.459 NA 
ATOM     14  C   CYS A   1     -10.780  10.796  66.664  1.00  0.00    -0.207 C  
ATOM     15  H2  CYS A   1      -9.591   7.678  66.346  1.00  0.00     0.000 HD 
ATOM     16  H1  CYS A   1     -10.434   8.555  65.186  1.00  0.00     0.000 HD 
ATOM     17  OXT CYS A   1     -11.555  11.589  67.174  1.00  0.00    -0.516 OA 
ATOM     18  O   CYS A   1      -9.972  11.109  65.615  1.00  0.00    -0.226 OA 
ENDBRANCH  11  12
ENDBRANCH  10  11
ENDBRANCH   9  10
ENDBRANCH   8   9
ENDBRANCH   3   8
TORSDOF 5
ENDMDL
MODEL      305
REMARK 921   NORMALIZED FREE ENERGY PREDICTED BY IDOCK:   -2.07 KCAL/MOL
REMARK 922        TOTAL FREE ENERGY PREDICTED BY IDOCK:   -3.29 KCAL/MOL
REMARK 923 INTER-LIGAND FREE ENERGY PREDICTED BY IDOCK:   -3.21 KCAL/MOL
REMARK 924 INTRA-LIGAND FREE ENERGY PREDICTED BY IDOCK:   -0.08 KCAL/MOL
REMARK 927      BINDING AFFINITY PREDICTED BY RF-SCORE:    0.00 PKD
ROOT
ATOM      1  N   CYS A   1      -7.694  14.581  69.751  1.00  0.00    -0.387 NA 
ATOM      2  H2  CYS A   1      -8.273  15.405  69.916  1.00  0.00     0.000 HD 
ATOM      3  CA  CYS A   1      -7.406  14.429  68.289  1.00  0.00    -0.122 C  
ATOM      4  H1  CYS A   1      -8.115  13.759  70.186  1.00  0.00     0.000 HD 
ATOM      5  O   CYS A   1      -6.572  12.375  69.175  1.00  0.00    -0.093 OA 
ATOM      6  C   CYS A   1      -6.472  13.221  68.118  1.00  0.00    -0.112 C  
ATOM      7  OXT CYS A   1      -5.745  13.017  67.159  1.00  0.00    -0.349 OA 
ENDROOT
BRANCH   3   8
ATOM      8  CB  CYS A   1      -6.773  15.666  67.635  1.00  0.00    -0.178 C  
BRANCH   8   9
ATOM      9  SG  CYS A   1      -8.048  16.883  67.143  1.00  0.00    -0.201 SA 
BRANCH   9  10
ATOM     10  SG  CYS A   1      -7.770  18.374  68.535  1.00  0.00    -0.302 SA 
BRANCH  10  11
ATOM     11  CB  CYS A   1      -6.094  18.970  68.111  1.00  0.00    -0.217 C  
BRANCH  11  12
ATOM     12  CA  CYS A   1      -6.146  20.224  67.226  1.00  0.00    -0.186 C  
ATOM     13  N   CYS A   1      -7.136  21.242  67.708  1.00  0.00    -0.311 NA 
ATOM     14  C   CYS A   1      -6.570  19.772  65.828  1.00  0.00    -0.242 C  
ATOM     15  H2  CYS A   1      -6.958  21.490  68.681  1.00  0.00     0.000 HD 
ATOM     16  H1  CYS A   1      -7.170  22.074  67.119  1.00  0.00     0.000 HD 
ATOM     17  OXT CYS A   1      -5.854  19.192  65.029  1.00  0.00    -0.209 OA 
ATOM     18  O   CYS A   1      -7.880  20.053  65.593  1.00  0.00    -0.305 OA 
ENDBRANCH  11  12
ENDBRANCH  10  11
ENDBRANCH   9  10
ENDBRANCH   8   9
ENDBRANCH   3   8
TORSDOF 5
ENDMDL
MODEL      306
REMARK 921   NORMALIZED FREE ENERGY PREDICTED BY IDOCK:   -2.07 KCAL/MOL
REMARK 922        TOTAL FREE ENERGY PREDICTED BY IDOCK:   -3.29 KCAL/MOL
REMARK 923 INTER-LIGAND FREE ENERGY PREDICTED BY IDOCK:   -3.14 KCAL/MOL
REMARK 924 INTRA-LIGAND FREE ENERGY PREDICTED BY IDOCK:   -0.15 KCAL/MOL
REMARK 927      BINDING AFFINITY PREDICTED BY RF-SCORE:    0.00 PKD
ROOT
ATOM      1  N   CYS A   1      -9.773   5.578  68.980  1.00  0.00    -0.135 NA 
ATOM      2  H2  CYS A   1      -9.861   6.485  68.522  1.00  0.00     0.000 HD 
ATOM      3  CA  CYS A   1      -8.335   5.274  69.268  1.00  0.00    -0.091 C  
ATOM      4  H1  CYS A   1     -10.257   4.859  68.441  1.00  0.00     0.000 HD 
ATOM      5  O   CYS A   1      -9.394   3.198  69.788  1.00  0.00    -0.142 OA 
ATOM      6  C   CYS A   1      -8.280   3.937  70.023  1.00  0.00    -0.056 C  
ATOM      7  OXT CYS A   1      -7.359   3.560  70.730  1.00  0.00    -0.037 OA 
ENDROOT
BRANCH   3   8
ATOM      8  CB  CYS A   1      -7.607   6.355  70.080  1.00  0.00    -0.096 C  
BRANCH   8   9
ATOM      9  SG  CYS A   1      -8.720   7.121  71.316  1.00  0.00    -0.128 SA 
BRANCH   9  10
ATOM     10  SG  CYS A   1      -9.327   8.828  70.339  1.00  0.00    -0.194 SA 
BRANCH  10  11
ATOM     11  CB  CYS A   1     -10.646   9.441  71.447  1.00  0.00    -0.311 C  
BRANCH  11  12
ATOM     12  CA  CYS A   1     -11.970   9.639  70.695  1.00  0.00    -0.229 C  
ATOM     13  N   CYS A   1     -11.858  10.601  69.551  1.00  0.00    -0.413 NA 
ATOM     14  C   CYS A   1     -12.977  10.207  71.696  1.00  0.00    -0.456 C  
ATOM     15  H2  CYS A   1     -11.114  10.320  68.911  1.00  0.00     0.000 HD 
ATOM     16  H1  CYS A   1     -12.738  10.731  69.052  1.00  0.00     0.000 HD 
ATOM     17  OXT CYS A   1     -13.528   9.569  72.578  1.00  0.00    -0.426 OA 
ATOM     18  O   CYS A   1     -13.151  11.544  71.519  1.00  0.00    -0.422 OA 
ENDBRANCH  11  12
ENDBRANCH  10  11
ENDBRANCH   9  10
ENDBRANCH   8   9
ENDBRANCH   3   8
TORSDOF 5
ENDMDL
MODEL      307
REMARK 921   NORMALIZED FREE ENERGY PREDICTED BY IDOCK:   -2.06 KCAL/MOL
REMARK 922        TOTAL FREE ENERGY PREDICTED BY IDOCK:   -3.27 KCAL/MOL
REMARK 923 INTER-LIGAND FREE ENERGY PREDICTED BY IDOCK:   -3.06 KCAL/MOL
REMARK 924 INTRA-LIGAND FREE ENERGY PREDICTED BY IDOCK:   -0.21 KCAL/MOL
REMARK 927      BINDING AFFINITY PREDICTED BY RF-SCORE:    0.00 PKD
ROOT
ATOM      1  N   CYS A   1      -7.345   4.551  64.912  1.00  0.00    -0.071 NA 
ATOM      2  H2  CYS A   1      -6.654   4.926  65.562  1.00  0.00     0.000 HD 
ATOM      3  CA  CYS A   1      -8.699   4.516  65.553  1.00  0.00    -0.127 C  
ATOM      4  H1  CYS A   1      -7.032   3.656  64.537  1.00  0.00     0.000 HD 
ATOM      5  O   CYS A   1      -9.076   3.307  63.528  1.00  0.00    -0.092 OA 
ATOM      6  C   CYS A   1      -9.703   4.016  64.502  1.00  0.00    -0.182 C  
ATOM      7  OXT CYS A   1     -10.909   4.203  64.528  1.00  0.00    -0.259 OA 
ENDROOT
BRANCH   3   8
ATOM      8  CB  CYS A   1      -9.171   5.863  66.117  1.00  0.00    -0.150 C  
BRANCH   8   9
ATOM      9  SG  CYS A   1      -8.271   7.259  65.346  1.00  0.00    -0.121 SA 
BRANCH   9  10
ATOM     10  SG  CYS A   1      -8.547   8.757  66.730  1.00  0.00    -0.117 SA 
BRANCH  10  11
ATOM     11  CB  CYS A   1     -10.205   9.382  66.278  1.00  0.00    -0.214 C  
BRANCH  11  12
ATOM     12  CA  CYS A   1     -10.116  10.657  65.427  1.00  0.00    -0.291 C  
ATOM     13  N   CYS A   1      -8.708  11.029  65.071  1.00  0.00    -0.364 NA 
ATOM     14  C   CYS A   1     -10.713  11.795  66.256  1.00  0.00    -0.270 C  
ATOM     15  H2  CYS A   1      -8.231  10.251  64.613  1.00  0.00     0.000 HD 
ATOM     16  H1  CYS A   1      -8.650  11.876  64.506  1.00  0.00     0.000 HD 
ATOM     17  OXT CYS A   1     -11.904  11.967  66.460  1.00  0.00    -0.585 OA 
ATOM     18  O   CYS A   1      -9.741  12.579  66.794  1.00  0.00    -0.221 OA 
ENDBRANCH  11  12
ENDBRANCH  10  11
ENDBRANCH   9  10
ENDBRANCH   8   9
ENDBRANCH   3   8
TORSDOF 5
ENDMDL
MODEL      308
REMARK 921   NORMALIZED FREE ENERGY PREDICTED BY IDOCK:   -2.06 KCAL/MOL
REMARK 922        TOTAL FREE ENERGY PREDICTED BY IDOCK:   -3.27 KCAL/MOL
REMARK 923 INTER-LIGAND FREE ENERGY PREDICTED BY IDOCK:   -2.99 KCAL/MOL
REMARK 924 INTRA-LIGAND FREE ENERGY PREDICTED BY IDOCK:   -0.29 KCAL/MOL
REMARK 927      BINDING AFFINITY PREDICTED BY RF-SCORE:    0.00 PKD
ROOT
ATOM      1  N   CYS A   1      -8.960   7.989  65.674  1.00  0.00    -0.355 NA 
ATOM      2  H2  CYS A   1      -9.140   8.793  66.276  1.00  0.00     0.000 HD 
ATOM      3  CA  CYS A   1      -8.032   7.027  66.349  1.00  0.00    -0.109 C  
ATOM      4  H1  CYS A   1      -8.651   8.299  64.752  1.00  0.00     0.000 HD 
ATOM      5  O   CYS A   1      -8.153   6.132  64.138  1.00  0.00    -0.120 OA 
ATOM      6  C   CYS A   1      -7.864   5.810  65.426  1.00  0.00    -0.107 C  
ATOM      7  OXT CYS A   1      -7.502   4.699  65.776  1.00  0.00    -0.079 OA 
ENDROOT
BRANCH   3   8
ATOM      8  CB  CYS A   1      -8.496   6.561  67.736  1.00  0.00    -0.118 C  
BRANCH   8   9
ATOM      9  SG  CYS A   1     -10.188   5.866  67.671  1.00  0.00    -0.212 SA 
BRANCH   9  10
ATOM     10  SG  CYS A   1     -11.104   6.833  69.241  1.00  0.00    -0.210 SA 
BRANCH  10  11
ATOM     11  CB  CYS A   1      -9.994   8.263  69.496  1.00  0.00    -0.187 C  
BRANCH  11  12
ATOM     12  CA  CYS A   1     -10.774   9.516  69.919  1.00  0.00    -0.240 C  
ATOM     13  N   CYS A   1     -12.218   9.238  70.212  1.00  0.00    -0.432 NA 
ATOM     14  C   CYS A   1     -10.707  10.504  68.753  1.00  0.00    -0.216 C  
ATOM     15  H2  CYS A   1     -12.312   8.499  70.908  1.00  0.00     0.000 HD 
ATOM     16  H1  CYS A   1     -12.735  10.071  70.493  1.00  0.00     0.000 HD 
ATOM     17  OXT CYS A   1      -9.730  11.168  68.449  1.00  0.00    -0.177 OA 
ATOM     18  O   CYS A   1     -11.871  10.519  68.049  1.00  0.00    -0.425 OA 
ENDBRANCH  11  12
ENDBRANCH  10  11
ENDBRANCH   9  10
ENDBRANCH   8   9
ENDBRANCH   3   8
TORSDOF 5
ENDMDL
MODEL      309
REMARK 921   NORMALIZED FREE ENERGY PREDICTED BY IDOCK:   -2.05 KCAL/MOL
REMARK 922        TOTAL FREE ENERGY PREDICTED BY IDOCK:   -3.26 KCAL/MOL
REMARK 923 INTER-LIGAND FREE ENERGY PREDICTED BY IDOCK:   -3.06 KCAL/MOL
REMARK 924 INTRA-LIGAND FREE ENERGY PREDICTED BY IDOCK:   -0.20 KCAL/MOL
REMARK 927      BINDING AFFINITY PREDICTED BY RF-SCORE:    0.00 PKD
ROOT
ATOM      1  N   CYS A   1      -9.042  11.107  64.520  1.00  0.00    -0.367 NA 
ATOM      2  H2  CYS A   1      -8.323  10.542  64.972  1.00  0.00     0.000 HD 
ATOM      3  CA  CYS A   1     -10.361  10.921  65.205  1.00  0.00    -0.278 C  
ATOM      4  H1  CYS A   1      -9.058  10.924  63.516  1.00  0.00     0.000 HD 
ATOM      5  O   CYS A   1     -10.980  12.175  63.269  1.00  0.00    -0.415 OA 
ATOM      6  C   CYS A   1     -11.378  11.852  64.527  1.00  0.00    -0.316 C  
ATOM      7  OXT CYS A   1     -12.420  12.247  65.025  1.00  0.00    -0.535 OA 
ENDROOT
BRANCH   3   8
ATOM      8  CB  CYS A   1     -10.337  11.196  66.715  1.00  0.00    -0.241 C  
BRANCH   8   9
ATOM      9  SG  CYS A   1      -9.835   9.708  67.655  1.00  0.00    -0.173 SA 
BRANCH   9  10
ATOM     10  SG  CYS A   1      -8.564  10.505  69.064  1.00  0.00    -0.145 SA 
BRANCH  10  11
ATOM     11  CB  CYS A   1      -7.406   9.119  69.347  1.00  0.00    -0.076 C  
BRANCH  11  12
ATOM     12  CA  CYS A   1      -7.439   8.642  70.806  1.00  0.00    -0.080 C  
ATOM     13  N   CYS A   1      -6.119   8.113  71.281  1.00  0.00    -0.034 NA 
ATOM     14  C   CYS A   1      -8.462   7.509  70.888  1.00  0.00    -0.125 C  
ATOM     15  H2  CYS A   1      -5.378   8.801  71.139  1.00  0.00     0.000 HD 
ATOM     16  H1  CYS A   1      -6.141   7.797  72.250  1.00  0.00     0.000 HD 
ATOM     17  OXT CYS A   1      -9.673   7.652  70.867  1.00  0.00    -0.172 OA 
ATOM     18  O   CYS A   1      -7.853   6.294  70.935  1.00  0.00    -0.102 OA 
ENDBRANCH  11  12
ENDBRANCH  10  11
ENDBRANCH   9  10
ENDBRANCH   8   9
ENDBRANCH   3   8
TORSDOF 5
ENDMDL
MODEL      310
REMARK 921   NORMALIZED FREE ENERGY PREDICTED BY IDOCK:   -2.02 KCAL/MOL
REMARK 922        TOTAL FREE ENERGY PREDICTED BY IDOCK:   -3.23 KCAL/MOL
REMARK 923 INTER-LIGAND FREE ENERGY PREDICTED BY IDOCK:   -3.06 KCAL/MOL
REMARK 924 INTRA-LIGAND FREE ENERGY PREDICTED BY IDOCK:   -0.17 KCAL/MOL
REMARK 927      BINDING AFFINITY PREDICTED BY RF-SCORE:    0.00 PKD
ROOT
ATOM      1  N   CYS A   1      -9.487   2.419  66.054  1.00  0.00    -0.366 NA 
ATOM      2  H2  CYS A   1      -9.581   2.525  67.064  1.00  0.00     0.000 HD 
ATOM      3  CA  CYS A   1      -9.908   3.676  65.356  1.00  0.00    -0.085 C  
ATOM      4  H1  CYS A   1      -9.972   1.579  65.738  1.00  0.00     0.000 HD 
ATOM      5  O   CYS A   1      -9.644   2.160  63.530  1.00  0.00    -0.097 OA 
ATOM      6  C   CYS A   1      -9.672   3.479  63.850  1.00  0.00    -0.157 C  
ATOM      7  OXT CYS A   1      -9.544   4.374  63.030  1.00  0.00    -0.137 OA 
ENDROOT
BRANCH   3   8
ATOM      8  CB  CYS A   1      -9.180   4.942  65.831  1.00  0.00    -0.155 C  
BRANCH   8   9
ATOM      9  SG  CYS A   1     -10.298   6.036  66.780  1.00  0.00    -0.238 SA 
BRANCH   9  10
ATOM     10  SG  CYS A   1      -9.371   7.863  66.583  1.00  0.00    -0.205 SA 
BRANCH  10  11
ATOM     11  CB  CYS A   1     -10.657   9.003  67.206  1.00  0.00    -0.231 C  
BRANCH  11  12
ATOM     12  CA  CYS A   1     -10.505   9.260  68.712  1.00  0.00    -0.210 C  
ATOM     13  N   CYS A   1     -11.366   8.363  69.550  1.00  0.00    -0.412 NA 
ATOM     14  C   CYS A   1     -10.934  10.706  68.969  1.00  0.00    -0.248 C  
ATOM     15  H2  CYS A   1     -11.193   7.382  69.329  1.00  0.00     0.000 HD 
ATOM     16  H1  CYS A   1     -11.265   8.535  70.551  1.00  0.00     0.000 HD 
ATOM     17  OXT CYS A   1     -10.273  11.694  68.695  1.00  0.00    -0.209 OA 
ATOM     18  O   CYS A   1     -12.184  10.765  69.502  1.00  0.00    -0.314 OA 
ENDBRANCH  11  12
ENDBRANCH  10  11
ENDBRANCH   9  10
ENDBRANCH   8   9
ENDBRANCH   3   8
TORSDOF 5
ENDMDL
MODEL      311
REMARK 921   NORMALIZED FREE ENERGY PREDICTED BY IDOCK:   -2.02 KCAL/MOL
REMARK 922        TOTAL FREE ENERGY PREDICTED BY IDOCK:   -3.23 KCAL/MOL
REMARK 923 INTER-LIGAND FREE ENERGY PREDICTED BY IDOCK:   -2.71 KCAL/MOL
REMARK 924 INTRA-LIGAND FREE ENERGY PREDICTED BY IDOCK:   -0.52 KCAL/MOL
REMARK 927      BINDING AFFINITY PREDICTED BY RF-SCORE:    0.00 PKD
ROOT
ATOM      1  N   CYS A   1      -9.886   8.585  69.898  1.00  0.00    -0.183 NA 
ATOM      2  H2  CYS A   1     -10.378   8.537  69.005  1.00  0.00     0.000 HD 
ATOM      3  CA  CYS A   1     -10.838   8.358  71.032  1.00  0.00    -0.238 C  
ATOM      4  H1  CYS A   1      -9.351   9.451  69.962  1.00  0.00     0.000 HD 
ATOM      5  O   CYS A   1      -8.855   9.037  72.176  1.00  0.00    -0.376 OA 
ATOM      6  C   CYS A   1     -10.025   8.366  72.336  1.00  0.00    -0.310 C  
ATOM      7  OXT CYS A   1     -10.373   7.862  73.391  1.00  0.00    -0.311 OA 
ENDROOT
BRANCH   3   8
ATOM      8  CB  CYS A   1     -11.643   7.054  70.935  1.00  0.00    -0.328 C  
BRANCH   8   9
ATOM      9  SG  CYS A   1     -11.212   6.117  69.423  1.00  0.00    -0.301 SA 
BRANCH   9  10
ATOM     10  SG  CYS A   1     -10.056   4.594  70.183  1.00  0.00    -0.131 SA 
BRANCH  10  11
ATOM     11  CB  CYS A   1      -8.592   5.505  70.792  1.00  0.00    -0.126 C  
BRANCH  11  12
ATOM     12  CA  CYS A   1      -7.998   4.849  72.046  1.00  0.00    -0.110 C  
ATOM     13  N   CYS A   1      -8.980   4.740  73.173  1.00  0.00    -0.114 NA 
ATOM     14  C   CYS A   1      -6.838   5.732  72.511  1.00  0.00    -0.078 C  
ATOM     15  H2  CYS A   1      -9.825   4.253  72.873  1.00  0.00     0.000 HD 
ATOM     16  H1  CYS A   1      -8.585   4.304  74.006  1.00  0.00     0.000 HD 
ATOM     17  OXT CYS A   1      -5.743   5.793  71.977  1.00  0.00    -0.021 OA 
ATOM     18  O   CYS A   1      -7.194   6.495  73.579  1.00  0.00    -0.081 OA 
ENDBRANCH  11  12
ENDBRANCH  10  11
ENDBRANCH   9  10
ENDBRANCH   8   9
ENDBRANCH   3   8
TORSDOF 5
ENDMDL
MODEL      312
REMARK 921   NORMALIZED FREE ENERGY PREDICTED BY IDOCK:   -2.02 KCAL/MOL
REMARK 922        TOTAL FREE ENERGY PREDICTED BY IDOCK:   -3.22 KCAL/MOL
REMARK 923 INTER-LIGAND FREE ENERGY PREDICTED BY IDOCK:   -3.02 KCAL/MOL
REMARK 924 INTRA-LIGAND FREE ENERGY PREDICTED BY IDOCK:   -0.20 KCAL/MOL
REMARK 927      BINDING AFFINITY PREDICTED BY RF-SCORE:    0.00 PKD
ROOT
ATOM      1  N   CYS A   1     -11.604   6.959  69.251  1.00  0.00    -0.581 NA 
ATOM      2  H2  CYS A   1     -11.306   6.611  68.340  1.00  0.00     0.000 HD 
ATOM      3  CA  CYS A   1     -11.350   5.933  70.312  1.00  0.00    -0.162 C  
ATOM      4  H1  CYS A   1     -12.568   7.290  69.206  1.00  0.00     0.000 HD 
ATOM      5  O   CYS A   1     -12.633   7.563  71.495  1.00  0.00    -0.328 OA 
ATOM      6  C   CYS A   1     -11.748   6.547  71.664  1.00  0.00    -0.324 C  
ATOM      7  OXT CYS A   1     -11.351   6.174  72.756  1.00  0.00    -0.264 OA 
ENDROOT
BRANCH   3   8
ATOM      8  CB  CYS A   1      -9.899   5.435  70.380  1.00  0.00    -0.205 C  
BRANCH   8   9
ATOM      9  SG  CYS A   1      -8.753   6.785  70.842  1.00  0.00    -0.142 SA 
BRANCH   9  10
ATOM     10  SG  CYS A   1      -7.327   6.655  69.363  1.00  0.00    -0.094 SA 
BRANCH  10  11
ATOM     11  CB  CYS A   1      -6.566   8.316  69.432  1.00  0.00    -0.042 C  
BRANCH  11  12
ATOM     12  CA  CYS A   1      -7.137   9.153  70.586  1.00  0.00    -0.099 C  
ATOM     13  N   CYS A   1      -7.590  10.515  70.155  1.00  0.00    -0.433 NA 
ATOM     14  C   CYS A   1      -6.018   9.327  71.614  1.00  0.00    -0.062 C  
ATOM     15  H2  CYS A   1      -8.258  10.451  69.387  1.00  0.00     0.000 HD 
ATOM     16  H1  CYS A   1      -7.969  11.071  70.922  1.00  0.00     0.000 HD 
ATOM     17  OXT CYS A   1      -5.629   8.463  72.383  1.00  0.00    -0.039 OA 
ATOM     18  O   CYS A   1      -5.462  10.565  71.536  1.00  0.00    -0.243 OA 
ENDBRANCH  11  12
ENDBRANCH  10  11
ENDBRANCH   9  10
ENDBRANCH   8   9
ENDBRANCH   3   8
TORSDOF 5
ENDMDL
MODEL      313
REMARK 921   NORMALIZED FREE ENERGY PREDICTED BY IDOCK:   -2.00 KCAL/MOL
REMARK 922        TOTAL FREE ENERGY PREDICTED BY IDOCK:   -3.20 KCAL/MOL
REMARK 923 INTER-LIGAND FREE ENERGY PREDICTED BY IDOCK:   -2.66 KCAL/MOL
REMARK 924 INTRA-LIGAND FREE ENERGY PREDICTED BY IDOCK:   -0.55 KCAL/MOL
REMARK 927      BINDING AFFINITY PREDICTED BY RF-SCORE:    0.00 PKD
ROOT
ATOM      1  N   CYS A   1      -9.696   7.148  70.992  1.00  0.00    -0.166 NA 
ATOM      2  H2  CYS A   1      -9.262   6.284  71.320  1.00  0.00     0.000 HD 
ATOM      3  CA  CYS A   1     -10.920   7.456  71.799  1.00  0.00    -0.234 C  
ATOM      4  H1  CYS A   1      -9.854   7.106  69.985  1.00  0.00     0.000 HD 
ATOM      5  O   CYS A   1     -11.063   9.069  70.044  1.00  0.00    -0.239 OA 
ATOM      6  C   CYS A   1     -11.479   8.800  71.309  1.00  0.00    -0.292 C  
ATOM      7  OXT CYS A   1     -12.216   9.536  71.945  1.00  0.00    -0.374 OA 
ENDROOT
BRANCH   3   8
ATOM      8  CB  CYS A   1     -10.683   7.519  73.315  1.00  0.00    -0.382 C  
BRANCH   8   9
ATOM      9  SG  CYS A   1      -9.877   5.993  73.926  1.00  0.00    -0.221 SA 
BRANCH   9  10
ATOM     10  SG  CYS A   1     -11.320   4.573  73.555  1.00  0.00    -0.175 SA 
BRANCH  10  11
ATOM     11  CB  CYS A   1     -10.333   3.221  72.820  1.00  0.00    -0.156 C  
BRANCH  11  12
ATOM     12  CA  CYS A   1      -9.144   3.763  72.013  1.00  0.00    -0.116 C  
ATOM     13  N   CYS A   1      -9.450   3.926  70.555  1.00  0.00    -0.166 NA 
ATOM     14  C   CYS A   1      -8.007   2.748  72.149  1.00  0.00    -0.054 C  
ATOM     15  H2  CYS A   1     -10.277   4.509  70.420  1.00  0.00     0.000 HD 
ATOM     16  H1  CYS A   1      -8.660   4.286  70.019  1.00  0.00     0.000 HD 
ATOM     17  OXT CYS A   1      -7.314   2.598  73.142  1.00  0.00    -0.039 OA 
ATOM     18  O   CYS A   1      -7.889   1.983  71.031  1.00  0.00    -0.042 OA 
ENDBRANCH  11  12
ENDBRANCH  10  11
ENDBRANCH   9  10
ENDBRANCH   8   9
ENDBRANCH   3   8
TORSDOF 5
ENDMDL
MODEL      314
REMARK 921   NORMALIZED FREE ENERGY PREDICTED BY IDOCK:   -1.99 KCAL/MOL
REMARK 922        TOTAL FREE ENERGY PREDICTED BY IDOCK:   -3.19 KCAL/MOL
REMARK 923 INTER-LIGAND FREE ENERGY PREDICTED BY IDOCK:   -3.32 KCAL/MOL
REMARK 924 INTRA-LIGAND FREE ENERGY PREDICTED BY IDOCK:    0.13 KCAL/MOL
REMARK 927      BINDING AFFINITY PREDICTED BY RF-SCORE:    0.00 PKD
ROOT
ATOM      1  N   CYS A   1     -11.458   6.630  67.431  1.00  0.00    -0.740 NA 
ATOM      2  H2  CYS A   1     -11.606   7.456  68.012  1.00  0.00     0.000 HD 
ATOM      3  CA  CYS A   1     -10.267   5.860  67.913  1.00  0.00    -0.184 C  
ATOM      4  H1  CYS A   1     -11.422   6.891  66.445  1.00  0.00     0.000 HD 
ATOM      5  O   CYS A   1     -10.772   4.759  65.855  1.00  0.00    -0.318 OA 
ATOM      6  C   CYS A   1     -10.145   4.595  67.049  1.00  0.00    -0.167 C  
ATOM      7  OXT CYS A   1      -9.554   3.575  67.364  1.00  0.00    -0.210 OA 
ENDROOT
BRANCH   3   8
ATOM      8  CB  CYS A   1     -10.321   5.467  69.396  1.00  0.00    -0.278 C  
BRANCH   8   9
ATOM      9  SG  CYS A   1     -11.503   6.517  70.319  1.00  0.00    -0.397 SA 
BRANCH   9  10
ATOM     10  SG  CYS A   1     -11.021   6.080  72.272  1.00  0.00    -0.279 SA 
BRANCH  10  11
ATOM     11  CB  CYS A   1      -9.410   5.239  72.079  1.00  0.00    -0.137 C  
BRANCH  11  12
ATOM     12  CA  CYS A   1      -9.184   4.190  73.177  1.00  0.00    -0.110 C  
ATOM     13  N   CYS A   1      -7.854   3.505  73.071  1.00  0.00    -0.065 NA 
ATOM     14  C   CYS A   1     -10.277   3.131  73.021  1.00  0.00    -0.153 C  
ATOM     15  H2  CYS A   1      -7.094   4.187  73.056  1.00  0.00     0.000 HD 
ATOM     16  H1  CYS A   1      -7.705   2.809  73.800  1.00  0.00     0.000 HD 
ATOM     17  OXT CYS A   1     -11.445   3.273  73.344  1.00  0.00    -0.172 OA 
ATOM     18  O   CYS A   1      -9.797   2.008  72.422  1.00  0.00    -0.106 OA 
ENDBRANCH  11  12
ENDBRANCH  10  11
ENDBRANCH   9  10
ENDBRANCH   8   9
ENDBRANCH   3   8
TORSDOF 5
ENDMDL
MODEL      315
REMARK 921   NORMALIZED FREE ENERGY PREDICTED BY IDOCK:   -1.99 KCAL/MOL
REMARK 922        TOTAL FREE ENERGY PREDICTED BY IDOCK:   -3.19 KCAL/MOL
REMARK 923 INTER-LIGAND FREE ENERGY PREDICTED BY IDOCK:   -3.03 KCAL/MOL
REMARK 924 INTRA-LIGAND FREE ENERGY PREDICTED BY IDOCK:   -0.16 KCAL/MOL
REMARK 927      BINDING AFFINITY PREDICTED BY RF-SCORE:    0.00 PKD
ROOT
ATOM      1  N   CYS A   1     -10.694   8.339  72.684  1.00  0.00    -0.346 NA 
ATOM      2  H2  CYS A   1     -10.886   9.159  72.108  1.00  0.00     0.000 HD 
ATOM      3  CA  CYS A   1     -10.895   7.085  71.891  1.00  0.00    -0.224 C  
ATOM      4  H1  CYS A   1     -11.230   8.381  73.552  1.00  0.00     0.000 HD 
ATOM      5  O   CYS A   1     -10.599   6.232  74.102  1.00  0.00    -0.267 OA 
ATOM      6  C   CYS A   1     -10.517   5.896  72.789  1.00  0.00    -0.209 C  
ATOM      7  OXT CYS A   1     -10.202   4.784  72.397  1.00  0.00    -0.182 OA 
ENDROOT
BRANCH   3   8
ATOM      8  CB  CYS A   1     -10.089   7.021  70.586  1.00  0.00    -0.191 C  
BRANCH   8   9
ATOM      9  SG  CYS A   1     -11.010   6.132  69.278  1.00  0.00    -0.382 SA 
BRANCH   9  10
ATOM     10  SG  CYS A   1      -9.484   5.300  68.175  1.00  0.00    -0.128 SA 
BRANCH  10  11
ATOM     11  CB  CYS A   1     -10.028   5.647  66.465  1.00  0.00    -0.176 C  
BRANCH  11  12
ATOM     12  CA  CYS A   1      -9.988   4.385  65.591  1.00  0.00    -0.236 C  
ATOM     13  N   CYS A   1      -9.709   3.137  66.374  1.00  0.00    -0.407 NA 
ATOM     14  C   CYS A   1      -8.858   4.573  64.579  1.00  0.00    -0.151 C  
ATOM     15  H2  CYS A   1     -10.377   3.031  67.139  1.00  0.00     0.000 HD 
ATOM     16  H1  CYS A   1      -9.683   2.299  65.794  1.00  0.00     0.000 HD 
ATOM     17  OXT CYS A   1      -8.905   5.296  63.598  1.00  0.00    -0.050 OA 
ATOM     18  O   CYS A   1      -7.752   3.864  64.933  1.00  0.00    -0.079 OA 
ENDBRANCH  11  12
ENDBRANCH  10  11
ENDBRANCH   9  10
ENDBRANCH   8   9
ENDBRANCH   3   8
TORSDOF 5
ENDMDL
MODEL      316
REMARK 921   NORMALIZED FREE ENERGY PREDICTED BY IDOCK:   -1.98 KCAL/MOL
REMARK 922        TOTAL FREE ENERGY PREDICTED BY IDOCK:   -3.17 KCAL/MOL
REMARK 923 INTER-LIGAND FREE ENERGY PREDICTED BY IDOCK:   -2.88 KCAL/MOL
REMARK 924 INTRA-LIGAND FREE ENERGY PREDICTED BY IDOCK:   -0.29 KCAL/MOL
REMARK 927      BINDING AFFINITY PREDICTED BY RF-SCORE:    0.00 PKD
ROOT
ATOM      1  N   CYS A   1      -9.671   8.633  65.750  1.00  0.00    -0.461 NA 
ATOM      2  H2  CYS A   1     -10.559   8.592  66.252  1.00  0.00     0.000 HD 
ATOM      3  CA  CYS A   1      -8.974   9.929  66.025  1.00  0.00    -0.149 C  
ATOM      4  H1  CYS A   1      -9.814   8.432  64.760  1.00  0.00     0.000 HD 
ATOM      5  O   CYS A   1      -7.633   9.005  64.279  1.00  0.00    -0.109 OA 
ATOM      6  C   CYS A   1      -7.617   9.895  65.305  1.00  0.00    -0.130 C  
ATOM      7  OXT CYS A   1      -6.647  10.580  65.587  1.00  0.00    -0.124 OA 
ENDROOT
BRANCH   3   8
ATOM      8  CB  CYS A   1      -8.759  10.232  67.515  1.00  0.00    -0.125 C  
BRANCH   8   9
ATOM      9  SG  CYS A   1      -8.698   8.693  68.504  1.00  0.00    -0.139 SA 
BRANCH   9  10
ATOM     10  SG  CYS A   1     -10.532   8.718  69.439  1.00  0.00    -0.209 SA 
BRANCH  10  11
ATOM     11  CB  CYS A   1     -10.076   9.218  71.138  1.00  0.00    -0.304 C  
BRANCH  11  12
ATOM     12  CA  CYS A   1      -9.590   8.022  71.969  1.00  0.00    -0.201 C  
ATOM     13  N   CYS A   1     -10.465   7.733  73.151  1.00  0.00    -0.360 NA 
ATOM     14  C   CYS A   1      -8.193   8.369  72.485  1.00  0.00    -0.134 C  
ATOM     15  H2  CYS A   1     -11.436   7.606  72.863  1.00  0.00     0.000 HD 
ATOM     16  H1  CYS A   1     -10.142   6.939  73.703  1.00  0.00     0.000 HD 
ATOM     17  OXT CYS A   1      -7.174   8.366  71.814  1.00  0.00    -0.080 OA 
ATOM     18  O   CYS A   1      -8.226   8.739  73.794  1.00  0.00    -0.356 OA 
ENDBRANCH  11  12
ENDBRANCH  10  11
ENDBRANCH   9  10
ENDBRANCH   8   9
ENDBRANCH   3   8
TORSDOF 5
ENDMDL
MODEL      317
REMARK 921   NORMALIZED FREE ENERGY PREDICTED BY IDOCK:   -1.97 KCAL/MOL
REMARK 922        TOTAL FREE ENERGY PREDICTED BY IDOCK:   -3.16 KCAL/MOL
REMARK 923 INTER-LIGAND FREE ENERGY PREDICTED BY IDOCK:   -3.17 KCAL/MOL
REMARK 924 INTRA-LIGAND FREE ENERGY PREDICTED BY IDOCK:    0.01 KCAL/MOL
REMARK 927      BINDING AFFINITY PREDICTED BY RF-SCORE:    0.00 PKD
ROOT
ATOM      1  N   CYS A   1      -8.822  12.261  68.543  1.00  0.00    -0.343 NA 
ATOM      2  H2  CYS A   1      -8.126  11.859  69.172  1.00  0.00     0.000 HD 
ATOM      3  CA  CYS A   1      -9.804  11.216  68.113  1.00  0.00    -0.180 C  
ATOM      4  H1  CYS A   1      -8.364  12.752  67.775  1.00  0.00     0.000 HD 
ATOM      5  O   CYS A   1     -10.381  13.051  66.698  1.00  0.00    -0.253 OA 
ATOM      6  C   CYS A   1     -10.863  11.899  67.233  1.00  0.00    -0.247 C  
ATOM      7  OXT CYS A   1     -11.985  11.473  67.015  1.00  0.00    -0.556 OA 
ENDROOT
BRANCH   3   8
ATOM      8  CB  CYS A   1     -10.494  10.477  69.269  1.00  0.00    -0.235 C  
BRANCH   8   9
ATOM      9  SG  CYS A   1     -10.106   8.688  69.241  1.00  0.00    -0.206 SA 
BRANCH   9  10
ATOM     10  SG  CYS A   1      -9.605   8.333  71.206  1.00  0.00    -0.184 SA 
BRANCH  10  11
ATOM     11  CB  CYS A   1      -8.408   6.960  71.043  1.00  0.00    -0.126 C  
BRANCH  11  12
ATOM     12  CA  CYS A   1      -8.933   5.672  71.693  1.00  0.00    -0.136 C  
ATOM     13  N   CYS A   1      -7.889   4.600  71.796  1.00  0.00    -0.095 NA 
ATOM     14  C   CYS A   1     -10.065   5.149  70.808  1.00  0.00    -0.233 C  
ATOM     15  H2  CYS A   1      -7.062   4.944  72.284  1.00  0.00     0.000 HD 
ATOM     16  H1  CYS A   1      -8.238   3.744  72.228  1.00  0.00     0.000 HD 
ATOM     17  OXT CYS A   1     -11.188   5.621  70.750  1.00  0.00    -0.205 OA 
ATOM     18  O   CYS A   1      -9.652   4.105  70.039  1.00  0.00    -0.173 OA 
ENDBRANCH  11  12
ENDBRANCH  10  11
ENDBRANCH   9  10
ENDBRANCH   8   9
ENDBRANCH   3   8
TORSDOF 5
ENDMDL
MODEL      318
REMARK 921   NORMALIZED FREE ENERGY PREDICTED BY IDOCK:   -1.97 KCAL/MOL
REMARK 922        TOTAL FREE ENERGY PREDICTED BY IDOCK:   -3.16 KCAL/MOL
REMARK 923 INTER-LIGAND FREE ENERGY PREDICTED BY IDOCK:   -3.44 KCAL/MOL
REMARK 924 INTRA-LIGAND FREE ENERGY PREDICTED BY IDOCK:    0.28 KCAL/MOL
REMARK 927      BINDING AFFINITY PREDICTED BY RF-SCORE:    0.00 PKD
ROOT
ATOM      1  N   CYS A   1     -10.592   8.016  67.596  1.00  0.00    -0.408 NA 
ATOM      2  H2  CYS A   1     -10.427   7.067  67.934  1.00  0.00     0.000 HD 
ATOM      3  CA  CYS A   1     -10.433   9.004  68.710  1.00  0.00    -0.206 C  
ATOM      4  H1  CYS A   1     -11.488   8.068  67.110  1.00  0.00     0.000 HD 
ATOM      5  O   CYS A   1     -11.331  10.364  66.965  1.00  0.00    -0.222 OA 
ATOM      6  C   CYS A   1     -10.619  10.411  68.120  1.00  0.00    -0.211 C  
ATOM      7  OXT CYS A   1     -10.207  11.447  68.616  1.00  0.00    -0.198 OA 
ENDROOT
BRANCH   3   8
ATOM      8  CB  CYS A   1      -9.086   8.925  69.441  1.00  0.00    -0.145 C  
BRANCH   8   9
ATOM      9  SG  CYS A   1      -8.662   7.197  69.871  1.00  0.00    -0.142 SA 
BRANCH   9  10
ATOM     10  SG  CYS A   1      -8.593   7.276  71.927  1.00  0.00    -0.114 SA 
BRANCH  10  11
ATOM     11  CB  CYS A   1      -9.552   5.790  72.389  1.00  0.00    -0.149 C  
BRANCH  11  12
ATOM     12  CA  CYS A   1     -10.879   6.160  73.068  1.00  0.00    -0.257 C  
ATOM     13  N   CYS A   1     -11.817   4.998  73.196  1.00  0.00    -0.465 NA 
ATOM     14  C   CYS A   1     -11.552   7.220  72.194  1.00  0.00    -0.286 C  
ATOM     15  H2  CYS A   1     -11.367   4.219  73.677  1.00  0.00     0.000 HD 
ATOM     16  H1  CYS A   1     -12.698   5.245  73.647  1.00  0.00     0.000 HD 
ATOM     17  OXT CYS A   1     -11.216   8.391  72.125  1.00  0.00    -0.310 OA 
ATOM     18  O   CYS A   1     -12.556   6.684  71.450  1.00  0.00    -0.325 OA 
ENDBRANCH  11  12
ENDBRANCH  10  11
ENDBRANCH   9  10
ENDBRANCH   8   9
ENDBRANCH   3   8
TORSDOF 5
ENDMDL
MODEL      319
REMARK 921   NORMALIZED FREE ENERGY PREDICTED BY IDOCK:   -1.96 KCAL/MOL
REMARK 922        TOTAL FREE ENERGY PREDICTED BY IDOCK:   -3.14 KCAL/MOL
REMARK 923 INTER-LIGAND FREE ENERGY PREDICTED BY IDOCK:   -2.58 KCAL/MOL
REMARK 924 INTRA-LIGAND FREE ENERGY PREDICTED BY IDOCK:   -0.56 KCAL/MOL
REMARK 927      BINDING AFFINITY PREDICTED BY RF-SCORE:    0.00 PKD
ROOT
ATOM      1  N   CYS A   1     -10.995   6.397  69.163  1.00  0.00    -0.325 NA 
ATOM      2  H2  CYS A   1     -10.236   6.112  68.544  1.00  0.00     0.000 HD 
ATOM      3  CA  CYS A   1     -10.487   7.331  70.218  1.00  0.00    -0.219 C  
ATOM      4  H1  CYS A   1     -11.484   5.577  69.525  1.00  0.00     0.000 HD 
ATOM      5  O   CYS A   1     -12.707   6.887  70.976  1.00  0.00    -0.356 OA 
ATOM      6  C   CYS A   1     -11.688   7.779  71.066  1.00  0.00    -0.281 C  
ATOM      7  OXT CYS A   1     -11.734   8.788  71.752  1.00  0.00    -0.300 OA 
ENDROOT
BRANCH   3   8
ATOM      8  CB  CYS A   1      -9.752   8.565  69.674  1.00  0.00    -0.179 C  
BRANCH   8   9
ATOM      9  SG  CYS A   1     -10.528   9.175  68.132  1.00  0.00    -0.188 SA 
BRANCH   9  10
ATOM     10  SG  CYS A   1      -8.916   9.979  67.136  1.00  0.00    -0.134 SA 
BRANCH  10  11
ATOM     11  CB  CYS A   1      -8.352   8.559  66.132  1.00  0.00    -0.119 C  
BRANCH  11  12
ATOM     12  CA  CYS A   1      -7.745   7.453  67.007  1.00  0.00    -0.111 C  
ATOM     13  N   CYS A   1      -6.251   7.376  66.903  1.00  0.00    -0.045 NA 
ATOM     14  C   CYS A   1      -8.324   6.124  66.521  1.00  0.00    -0.113 C  
ATOM     15  H2  CYS A   1      -5.825   8.280  67.110  1.00  0.00     0.000 HD 
ATOM     16  H1  CYS A   1      -5.848   6.641  67.484  1.00  0.00     0.000 HD 
ATOM     17  OXT CYS A   1      -9.457   5.728  66.741  1.00  0.00    -0.133 OA 
ATOM     18  O   CYS A   1      -7.429   5.442  65.757  1.00  0.00    -0.079 OA 
ENDBRANCH  11  12
ENDBRANCH  10  11
ENDBRANCH   9  10
ENDBRANCH   8   9
ENDBRANCH   3   8
TORSDOF 5
ENDMDL
MODEL      320
REMARK 921   NORMALIZED FREE ENERGY PREDICTED BY IDOCK:   -1.96 KCAL/MOL
REMARK 922        TOTAL FREE ENERGY PREDICTED BY IDOCK:   -3.14 KCAL/MOL
REMARK 923 INTER-LIGAND FREE ENERGY PREDICTED BY IDOCK:   -2.91 KCAL/MOL
REMARK 924 INTRA-LIGAND FREE ENERGY PREDICTED BY IDOCK:   -0.24 KCAL/MOL
REMARK 927      BINDING AFFINITY PREDICTED BY RF-SCORE:    0.00 PKD
ROOT
ATOM      1  N   CYS A   1      -8.809  12.018  67.835  1.00  0.00    -0.167 NA 
ATOM      2  H2  CYS A   1      -8.245  11.477  68.491  1.00  0.00     0.000 HD 
ATOM      3  CA  CYS A   1     -10.015  11.236  67.414  1.00  0.00    -0.182 C  
ATOM      4  H1  CYS A   1      -8.233  12.354  67.063  1.00  0.00     0.000 HD 
ATOM      5  O   CYS A   1     -10.098  13.108  65.935  1.00  0.00    -0.283 OA 
ATOM      6  C   CYS A   1     -10.858  12.131  66.493  1.00  0.00    -0.270 C  
ATOM      7  OXT CYS A   1     -12.048  11.990  66.263  1.00  0.00    -0.596 OA 
ENDROOT
BRANCH   3   8
ATOM      8  CB  CYS A   1     -10.883  10.731  68.576  1.00  0.00    -0.228 C  
BRANCH   8   9
ATOM      9  SG  CYS A   1     -10.520   8.979  68.964  1.00  0.00    -0.196 SA 
BRANCH   9  10
ATOM     10  SG  CYS A   1      -9.439   9.145  70.708  1.00  0.00    -0.277 SA 
BRANCH  10  11
ATOM     11  CB  CYS A   1      -8.878   7.424  70.963  1.00  0.00    -0.143 C  
BRANCH  11  12
ATOM     12  CA  CYS A   1      -9.151   6.551  69.730  1.00  0.00    -0.142 C  
ATOM     13  N   CYS A   1      -9.555   5.150  70.081  1.00  0.00    -0.166 NA 
ATOM     14  C   CYS A   1      -7.850   6.483  68.928  1.00  0.00    -0.110 C  
ATOM     15  H2  CYS A   1     -10.357   5.150  70.712  1.00  0.00     0.000 HD 
ATOM     16  H1  CYS A   1      -9.736   4.570  69.261  1.00  0.00     0.000 HD 
ATOM     17  OXT CYS A   1      -7.402   7.384  68.238  1.00  0.00    -0.094 OA 
ATOM     18  O   CYS A   1      -7.212   5.297  69.118  1.00  0.00    -0.055 OA 
ENDBRANCH  11  12
ENDBRANCH  10  11
ENDBRANCH   9  10
ENDBRANCH   8   9
ENDBRANCH   3   8
TORSDOF 5
ENDMDL
MODEL      321
REMARK 921   NORMALIZED FREE ENERGY PREDICTED BY IDOCK:   -1.95 KCAL/MOL
REMARK 922        TOTAL FREE ENERGY PREDICTED BY IDOCK:   -3.13 KCAL/MOL
REMARK 923 INTER-LIGAND FREE ENERGY PREDICTED BY IDOCK:   -2.60 KCAL/MOL
REMARK 924 INTRA-LIGAND FREE ENERGY PREDICTED BY IDOCK:   -0.53 KCAL/MOL
REMARK 927      BINDING AFFINITY PREDICTED BY RF-SCORE:    0.00 PKD
ROOT
ATOM      1  N   CYS A   1      -9.310   8.684  65.089  1.00  0.00    -0.408 NA 
ATOM      2  H2  CYS A   1      -9.764   8.934  65.968  1.00  0.00     0.000 HD 
ATOM      3  CA  CYS A   1      -8.115   9.556  64.852  1.00  0.00    -0.131 C  
ATOM      4  H1  CYS A   1      -9.988   8.681  64.327  1.00  0.00     0.000 HD 
ATOM      5  O   CYS A   1      -8.310   8.405  62.769  1.00  0.00    -0.183 OA 
ATOM      6  C   CYS A   1      -7.436   9.080  63.558  1.00  0.00    -0.103 C  
ATOM      7  OXT CYS A   1      -6.273   9.287  63.251  1.00  0.00    -0.089 OA 
ENDROOT
BRANCH   3   8
ATOM      8  CB  CYS A   1      -7.094   9.560  65.999  1.00  0.00    -0.092 C  
BRANCH   8   9
ATOM      9  SG  CYS A   1      -6.944  11.223  66.750  1.00  0.00    -0.128 SA 
BRANCH   9  10
ATOM     10  SG  CYS A   1      -6.503  10.765  68.708  1.00  0.00    -0.051 SA 
BRANCH  10  11
ATOM     11  CB  CYS A   1      -8.136  10.247  69.345  1.00  0.00    -0.163 C  
BRANCH  11  12
ATOM     12  CA  CYS A   1      -9.280  10.765  68.462  1.00  0.00    -0.174 C  
ATOM     13  N   CYS A   1      -9.798  12.103  68.897  1.00  0.00    -0.417 NA 
ATOM     14  C   CYS A   1     -10.424   9.756  68.566  1.00  0.00    -0.210 C  
ATOM     15  H2  CYS A   1      -9.042  12.786  68.952  1.00  0.00     0.000 HD 
ATOM     16  H1  CYS A   1     -10.558  12.447  68.310  1.00  0.00     0.000 HD 
ATOM     17  OXT CYS A   1     -10.449   8.663  68.024  1.00  0.00    -0.223 OA 
ATOM     18  O   CYS A   1     -11.407  10.205  69.391  1.00  0.00    -0.226 OA 
ENDBRANCH  11  12
ENDBRANCH  10  11
ENDBRANCH   9  10
ENDBRANCH   8   9
ENDBRANCH   3   8
TORSDOF 5
ENDMDL
MODEL      322
REMARK 921   NORMALIZED FREE ENERGY PREDICTED BY IDOCK:   -1.90 KCAL/MOL
REMARK 922        TOTAL FREE ENERGY PREDICTED BY IDOCK:   -3.08 KCAL/MOL
REMARK 923 INTER-LIGAND FREE ENERGY PREDICTED BY IDOCK:   -2.86 KCAL/MOL
REMARK 924 INTRA-LIGAND FREE ENERGY PREDICTED BY IDOCK:   -0.22 KCAL/MOL
REMARK 927      BINDING AFFINITY PREDICTED BY RF-SCORE:    0.00 PKD
ROOT
ATOM      1  N   CYS A   1      -7.944   4.581  65.118  1.00  0.00    -0.096 NA 
ATOM      2  H2  CYS A   1      -7.265   4.527  65.878  1.00  0.00     0.000 HD 
ATOM      3  CA  CYS A   1      -9.065   3.615  65.350  1.00  0.00    -0.147 C  
ATOM      4  H1  CYS A   1      -7.477   4.476  64.217  1.00  0.00     0.000 HD 
ATOM      5  O   CYS A   1      -9.504   4.359  63.124  1.00  0.00    -0.142 OA 
ATOM      6  C   CYS A   1     -10.086   3.799  64.216  1.00  0.00    -0.218 C  
ATOM      7  OXT CYS A   1     -11.261   3.474  64.261  1.00  0.00    -0.207 OA 
ENDROOT
BRANCH   3   8
ATOM      8  CB  CYS A   1      -9.769   3.772  66.706  1.00  0.00    -0.120 C  
BRANCH   8   9
ATOM      9  SG  CYS A   1     -10.335   5.493  66.967  1.00  0.00    -0.269 SA 
BRANCH   9  10
ATOM     10  SG  CYS A   1      -9.399   5.985  68.732  1.00  0.00    -0.122 SA 
BRANCH  10  11
ATOM     11  CB  CYS A   1     -10.818   6.146  69.874  1.00  0.00    -0.353 C  
BRANCH  11  12
ATOM     12  CA  CYS A   1     -11.281   7.605  69.999  1.00  0.00    -0.134 C  
ATOM     13  N   CYS A   1     -10.419   8.563  69.233  1.00  0.00    -0.222 NA 
ATOM     14  C   CYS A   1     -11.204   7.977  71.480  1.00  0.00    -0.255 C  
ATOM     15  H2  CYS A   1     -10.349   8.285  68.253  1.00  0.00     0.000 HD 
ATOM     16  H1  CYS A   1     -10.727   9.531  69.316  1.00  0.00     0.000 HD 
ATOM     17  OXT CYS A   1     -11.991   7.614  72.339  1.00  0.00    -0.299 OA 
ATOM     18  O   CYS A   1     -10.105   8.734  71.745  1.00  0.00    -0.277 OA 
ENDBRANCH  11  12
ENDBRANCH  10  11
ENDBRANCH   9  10
ENDBRANCH   8   9
ENDBRANCH   3   8
TORSDOF 5
ENDMDL
MODEL      323
REMARK 921   NORMALIZED FREE ENERGY PREDICTED BY IDOCK:   -1.90 KCAL/MOL
REMARK 922        TOTAL FREE ENERGY PREDICTED BY IDOCK:   -3.07 KCAL/MOL
REMARK 923 INTER-LIGAND FREE ENERGY PREDICTED BY IDOCK:   -3.65 KCAL/MOL
REMARK 924 INTRA-LIGAND FREE ENERGY PREDICTED BY IDOCK:    0.58 KCAL/MOL
REMARK 927      BINDING AFFINITY PREDICTED BY RF-SCORE:    0.00 PKD
ROOT
ATOM      1  N   CYS A   1      -8.307  10.663  68.710  1.00  0.00    -0.136 NA 
ATOM      2  H2  CYS A   1      -8.106  11.628  68.976  1.00  0.00     0.000 HD 
ATOM      3  CA  CYS A   1      -9.648  10.572  68.048  1.00  0.00    -0.148 C  
ATOM      4  H1  CYS A   1      -8.189  10.042  69.511  1.00  0.00     0.000 HD 
ATOM      5  O   CYS A   1      -9.077   8.271  68.332  1.00  0.00    -0.136 OA 
ATOM      6  C   CYS A   1      -9.856   9.115  67.607  1.00  0.00    -0.172 C  
ATOM      7  OXT CYS A   1     -10.626   8.740  66.738  1.00  0.00    -0.258 OA 
ENDROOT
BRANCH   3   8
ATOM      8  CB  CYS A   1      -9.826  11.506  66.842  1.00  0.00    -0.197 C  
BRANCH   8   9
ATOM      9  SG  CYS A   1     -11.416  12.409  66.930  1.00  0.00    -0.369 SA 
BRANCH   9  10
ATOM     10  SG  CYS A   1     -10.791  14.334  67.303  1.00  0.00    -0.289 SA 
BRANCH  10  11
ATOM     11  CB  CYS A   1     -11.558  14.666  68.929  1.00  0.00    -0.310 C  
BRANCH  11  12
ATOM     12  CA  CYS A   1     -10.669  15.564  69.802  1.00  0.00    -0.295 C  
ATOM     13  N   CYS A   1     -11.454  16.453  70.719  1.00  0.00    -0.548 NA 
ATOM     14  C   CYS A   1      -9.860  16.453  68.856  1.00  0.00    -0.260 C  
ATOM     15  H2  CYS A   1     -12.096  15.907  71.294  1.00  0.00     0.000 HD 
ATOM     16  H1  CYS A   1     -10.864  17.050  71.298  1.00  0.00     0.000 HD 
ATOM     17  OXT CYS A   1      -8.904  16.087  68.192  1.00  0.00    -0.174 OA 
ATOM     18  O   CYS A   1     -10.372  17.712  68.800  1.00  0.00    -0.362 OA 
ENDBRANCH  11  12
ENDBRANCH  10  11
ENDBRANCH   9  10
ENDBRANCH   8   9
ENDBRANCH   3   8
TORSDOF 5
ENDMDL
MODEL      324
REMARK 921   NORMALIZED FREE ENERGY PREDICTED BY IDOCK:   -1.90 KCAL/MOL
REMARK 922        TOTAL FREE ENERGY PREDICTED BY IDOCK:   -3.07 KCAL/MOL
REMARK 923 INTER-LIGAND FREE ENERGY PREDICTED BY IDOCK:   -2.69 KCAL/MOL
REMARK 924 INTRA-LIGAND FREE ENERGY PREDICTED BY IDOCK:   -0.37 KCAL/MOL
REMARK 927      BINDING AFFINITY PREDICTED BY RF-SCORE:    0.00 PKD
ROOT
ATOM      1  N   CYS A   1      -9.168   8.305  65.628  1.00  0.00    -0.405 NA 
ATOM      2  H2  CYS A   1      -9.804   8.165  66.414  1.00  0.00     0.000 HD 
ATOM      3  CA  CYS A   1      -8.005   9.153  66.042  1.00  0.00    -0.103 C  
ATOM      4  H1  CYS A   1      -9.678   8.655  64.817  1.00  0.00     0.000 HD 
ATOM      5  O   CYS A   1      -7.708   9.025  63.676  1.00  0.00    -0.112 OA 
ATOM      6  C   CYS A   1      -7.052   9.262  64.841  1.00  0.00    -0.101 C  
ATOM      7  OXT CYS A   1      -5.866   9.543  64.901  1.00  0.00    -0.062 OA 
ENDROOT
BRANCH   3   8
ATOM      8  CB  CYS A   1      -7.237   8.627  67.263  1.00  0.00    -0.080 C  
BRANCH   8   9
ATOM      9  SG  CYS A   1      -7.047   6.808  67.196  1.00  0.00    -0.081 SA 
BRANCH   9  10
ATOM     10  SG  CYS A   1      -8.331   6.192  68.682  1.00  0.00    -0.114 SA 
BRANCH  10  11
ATOM     11  CB  CYS A   1      -8.995   7.786  69.284  1.00  0.00    -0.139 C  
BRANCH  11  12
ATOM     12  CA  CYS A   1     -10.494   7.925  68.981  1.00  0.00    -0.198 C  
ATOM     13  N   CYS A   1     -10.950   9.352  68.916  1.00  0.00    -0.422 NA 
ATOM     14  C   CYS A   1     -11.250   7.236  70.119  1.00  0.00    -0.239 C  
ATOM     15  H2  CYS A   1     -10.392   9.882  68.246  1.00  0.00     0.000 HD 
ATOM     16  H1  CYS A   1     -11.945   9.444  68.715  1.00  0.00     0.000 HD 
ATOM     17  OXT CYS A   1     -11.353   6.030  70.265  1.00  0.00    -0.353 OA 
ATOM     18  O   CYS A   1     -11.762   8.143  70.994  1.00  0.00    -0.285 OA 
ENDBRANCH  11  12
ENDBRANCH  10  11
ENDBRANCH   9  10
ENDBRANCH   8   9
ENDBRANCH   3   8
TORSDOF 5
ENDMDL
MODEL      325
REMARK 921   NORMALIZED FREE ENERGY PREDICTED BY IDOCK:   -1.88 KCAL/MOL
REMARK 922        TOTAL FREE ENERGY PREDICTED BY IDOCK:   -3.05 KCAL/MOL
REMARK 923 INTER-LIGAND FREE ENERGY PREDICTED BY IDOCK:   -3.06 KCAL/MOL
REMARK 924 INTRA-LIGAND FREE ENERGY PREDICTED BY IDOCK:    0.01 KCAL/MOL
REMARK 927      BINDING AFFINITY PREDICTED BY RF-SCORE:    0.00 PKD
ROOT
ATOM      1  N   CYS A   1     -10.206  16.800  69.495  1.00  0.00    -0.217 NA 
ATOM      2  H2  CYS A   1     -11.172  16.495  69.617  1.00  0.00     0.000 HD 
ATOM      3  CA  CYS A   1      -9.773  16.606  68.074  1.00  0.00    -0.241 C  
ATOM      4  H1  CYS A   1      -9.602  16.353  70.185  1.00  0.00     0.000 HD 
ATOM      5  O   CYS A   1      -7.718  17.182  69.146  1.00  0.00    -0.209 OA 
ATOM      6  C   CYS A   1      -8.343  17.154  67.941  1.00  0.00    -0.207 C  
ATOM      7  OXT CYS A   1      -7.812  17.503  66.899  1.00  0.00    -0.205 OA 
ENDROOT
BRANCH   3   8
ATOM      8  CB  CYS A   1     -10.681  17.279  67.035  1.00  0.00    -0.152 C  
BRANCH   8   9
ATOM      9  SG  CYS A   1     -10.345  16.647  65.350  1.00  0.00    -0.083 SA 
BRANCH   9  10
ATOM     10  SG  CYS A   1     -11.984  15.449  65.012  1.00  0.00     0.165 SA 
BRANCH  10  11
ATOM     11  CB  CYS A   1     -11.623  14.013  66.085  1.00  0.00    -0.367 C  
BRANCH  11  12
ATOM     12  CA  CYS A   1     -10.212  13.461  65.836  1.00  0.00    -0.299 C  
ATOM     13  N   CYS A   1     -10.011  12.975  64.432  1.00  0.00    -0.622 NA 
ATOM     14  C   CYS A   1     -10.018  12.275  66.782  1.00  0.00    -0.205 C  
ATOM     15  H2  CYS A   1     -10.240  13.706  63.758  1.00  0.00     0.000 HD 
ATOM     16  H1  CYS A   1      -9.073  12.609  64.267  1.00  0.00     0.000 HD 
ATOM     17  OXT CYS A   1      -9.815  12.358  67.982  1.00  0.00    -0.194 OA 
ATOM     18  O   CYS A   1     -10.151  11.091  66.125  1.00  0.00    -0.221 OA 
ENDBRANCH  11  12
ENDBRANCH  10  11
ENDBRANCH   9  10
ENDBRANCH   8   9
ENDBRANCH   3   8
TORSDOF 5
ENDMDL
MODEL      326
REMARK 921   NORMALIZED FREE ENERGY PREDICTED BY IDOCK:   -1.88 KCAL/MOL
REMARK 922        TOTAL FREE ENERGY PREDICTED BY IDOCK:   -3.04 KCAL/MOL
REMARK 923 INTER-LIGAND FREE ENERGY PREDICTED BY IDOCK:   -2.91 KCAL/MOL
REMARK 924 INTRA-LIGAND FREE ENERGY PREDICTED BY IDOCK:   -0.13 KCAL/MOL
REMARK 927      BINDING AFFINITY PREDICTED BY RF-SCORE:    0.00 PKD
ROOT
ATOM      1  N   CYS A   1     -11.701   8.314  70.461  1.00  0.00    -0.464 NA 
ATOM      2  H2  CYS A   1     -11.001   7.581  70.345  1.00  0.00     0.000 HD 
ATOM      3  CA  CYS A   1     -11.039   9.633  70.720  1.00  0.00    -0.334 C  
ATOM      4  H1  CYS A   1     -12.389   8.042  71.164  1.00  0.00     0.000 HD 
ATOM      5  O   CYS A   1     -13.336  10.144  71.123  1.00  0.00    -0.376 OA 
ATOM      6  C   CYS A   1     -12.139  10.702  70.807  1.00  0.00    -0.374 C  
ATOM      7  OXT CYS A   1     -11.979  11.900  70.639  1.00  0.00    -0.342 OA 
ENDROOT
BRANCH   3   8
ATOM      8  CB  CYS A   1     -10.005  10.043  69.662  1.00  0.00    -0.236 C  
BRANCH   8   9
ATOM      9  SG  CYS A   1     -10.626   9.735  67.968  1.00  0.00    -0.242 SA 
BRANCH   9  10
ATOM     10  SG  CYS A   1      -9.815   7.890  67.548  1.00  0.00    -0.186 SA 
BRANCH  10  11
ATOM     11  CB  CYS A   1      -8.070   8.318  67.213  1.00  0.00    -0.109 C  
BRANCH  11  12
ATOM     12  CA  CYS A   1      -7.424   7.332  66.230  1.00  0.00    -0.083 C  
ATOM     13  N   CYS A   1      -7.951   5.935  66.368  1.00  0.00    -0.101 NA 
ATOM     14  C   CYS A   1      -5.925   7.306  66.535  1.00  0.00    -0.036 C  
ATOM     15  H2  CYS A   1      -8.968   5.920  66.283  1.00  0.00     0.000 HD 
ATOM     16  H1  CYS A   1      -7.521   5.280  65.714  1.00  0.00     0.000 HD 
ATOM     17  OXT CYS A   1      -5.132   8.183  66.236  1.00  0.00    -0.024 OA 
ATOM     18  O   CYS A   1      -5.582   6.194  67.238  1.00  0.00    -0.008 OA 
ENDBRANCH  11  12
ENDBRANCH  10  11
ENDBRANCH   9  10
ENDBRANCH   8   9
ENDBRANCH   3   8
TORSDOF 5
ENDMDL
MODEL      327
REMARK 921   NORMALIZED FREE ENERGY PREDICTED BY IDOCK:   -1.87 KCAL/MOL
REMARK 922        TOTAL FREE ENERGY PREDICTED BY IDOCK:   -3.03 KCAL/MOL
REMARK 923 INTER-LIGAND FREE ENERGY PREDICTED BY IDOCK:   -2.58 KCAL/MOL
REMARK 924 INTRA-LIGAND FREE ENERGY PREDICTED BY IDOCK:   -0.44 KCAL/MOL
REMARK 927      BINDING AFFINITY PREDICTED BY RF-SCORE:    0.00 PKD
ROOT
ATOM      1  N   CYS A   1      -8.914   9.945  66.103  1.00  0.00    -0.146 NA 
ATOM      2  H2  CYS A   1      -8.672   8.961  65.987  1.00  0.00     0.000 HD 
ATOM      3  CA  CYS A   1     -10.401  10.123  66.097  1.00  0.00    -0.167 C  
ATOM      4  H1  CYS A   1      -8.418  10.516  65.417  1.00  0.00     0.000 HD 
ATOM      5  O   CYS A   1      -9.632  12.382  66.019  1.00  0.00    -0.242 OA 
ATOM      6  C   CYS A   1     -10.698  11.609  66.351  1.00  0.00    -0.272 C  
ATOM      7  OXT CYS A   1     -11.750  12.059  66.775  1.00  0.00    -0.523 OA 
ENDROOT
BRANCH   3   8
ATOM      8  CB  CYS A   1     -11.147   9.265  67.129  1.00  0.00     0.340 C  
BRANCH   8   9
ATOM      9  SG  CYS A   1     -10.024   8.692  68.456  1.00  0.00    -0.188 SA 
BRANCH   9  10
ATOM     10  SG  CYS A   1     -10.666   6.759  68.751  1.00  0.00    -0.234 SA 
BRANCH  10  11
ATOM     11  CB  CYS A   1     -10.895   6.177  67.033  1.00  0.00    -0.356 C  
BRANCH  11  12
ATOM     12  CA  CYS A   1      -9.564   5.749  66.398  1.00  0.00    -0.153 C  
ATOM     13  N   CYS A   1      -9.204   6.558  65.188  1.00  0.00    -0.151 NA 
ATOM     14  C   CYS A   1      -9.719   4.290  65.966  1.00  0.00    -0.211 C  
ATOM     15  H2  CYS A   1      -9.201   7.555  65.405  1.00  0.00     0.000 HD 
ATOM     16  H1  CYS A   1      -8.320   6.273  64.767  1.00  0.00     0.000 HD 
ATOM     17  OXT CYS A   1      -9.713   3.329  66.717  1.00  0.00    -0.096 OA 
ATOM     18  O   CYS A   1      -9.919   4.190  64.624  1.00  0.00    -0.182 OA 
ENDBRANCH  11  12
ENDBRANCH  10  11
ENDBRANCH   9  10
ENDBRANCH   8   9
ENDBRANCH   3   8
TORSDOF 5
ENDMDL
MODEL      328
REMARK 921   NORMALIZED FREE ENERGY PREDICTED BY IDOCK:   -1.86 KCAL/MOL
REMARK 922        TOTAL FREE ENERGY PREDICTED BY IDOCK:   -3.02 KCAL/MOL
REMARK 923 INTER-LIGAND FREE ENERGY PREDICTED BY IDOCK:   -2.45 KCAL/MOL
REMARK 924 INTRA-LIGAND FREE ENERGY PREDICTED BY IDOCK:   -0.56 KCAL/MOL
REMARK 927      BINDING AFFINITY PREDICTED BY RF-SCORE:    0.00 PKD
ROOT
ATOM      1  N   CYS A   1      -8.568   6.851  67.789  1.00  0.00    -0.122 NA 
ATOM      2  H2  CYS A   1      -8.367   7.207  68.724  1.00  0.00     0.000 HD 
ATOM      3  CA  CYS A   1      -9.663   5.830  67.842  1.00  0.00    -0.120 C  
ATOM      4  H1  CYS A   1      -7.710   6.528  67.341  1.00  0.00     0.000 HD 
ATOM      5  O   CYS A   1      -8.908   5.632  65.585  1.00  0.00    -0.152 OA 
ATOM      6  C   CYS A   1      -9.967   5.393  66.401  1.00  0.00    -0.191 C  
ATOM      7  OXT CYS A   1     -11.007   4.880  66.020  1.00  0.00    -0.245 OA 
ENDROOT
BRANCH   3   8
ATOM      8  CB  CYS A   1     -10.953   6.316  68.517  1.00  0.00    -0.340 C  
BRANCH   8   9
ATOM      9  SG  CYS A   1     -10.599   7.562  69.810  1.00  0.00    -0.239 SA 
BRANCH   9  10
ATOM     10  SG  CYS A   1     -11.527   6.741  71.454  1.00  0.00    -0.310 SA 
BRANCH  10  11
ATOM     11  CB  CYS A   1     -10.112   6.012  72.355  1.00  0.00    -0.175 C  
BRANCH  11  12
ATOM     12  CA  CYS A   1      -9.639   4.705  71.703  1.00  0.00    -0.161 C  
ATOM     13  N   CYS A   1      -9.868   3.501  72.567  1.00  0.00    -0.147 NA 
ATOM     14  C   CYS A   1      -8.134   4.839  71.464  1.00  0.00    -0.103 C  
ATOM     15  H2  CYS A   1     -10.847   3.436  72.847  1.00  0.00     0.000 HD 
ATOM     16  H1  CYS A   1      -9.554   2.633  72.134  1.00  0.00     0.000 HD 
ATOM     17  OXT CYS A   1      -7.619   5.508  70.584  1.00  0.00    -0.084 OA 
ATOM     18  O   CYS A   1      -7.421   4.151  72.396  1.00  0.00    -0.064 OA 
ENDBRANCH  11  12
ENDBRANCH  10  11
ENDBRANCH   9  10
ENDBRANCH   8   9
ENDBRANCH   3   8
TORSDOF 5
ENDMDL
MODEL      329
REMARK 921   NORMALIZED FREE ENERGY PREDICTED BY IDOCK:   -1.85 KCAL/MOL
REMARK 922        TOTAL FREE ENERGY PREDICTED BY IDOCK:   -3.01 KCAL/MOL
REMARK 923 INTER-LIGAND FREE ENERGY PREDICTED BY IDOCK:   -2.75 KCAL/MOL
REMARK 924 INTRA-LIGAND FREE ENERGY PREDICTED BY IDOCK:   -0.26 KCAL/MOL
REMARK 927      BINDING AFFINITY PREDICTED BY RF-SCORE:    0.00 PKD
ROOT
ATOM      1  N   CYS A   1      -9.783   8.909  72.162  1.00  0.00    -0.282 NA 
ATOM      2  H2  CYS A   1      -9.620   9.864  71.839  1.00  0.00     0.000 HD 
ATOM      3  CA  CYS A   1     -11.245   8.587  72.124  1.00  0.00    -0.362 C  
ATOM      4  H1  CYS A   1      -9.341   8.761  73.069  1.00  0.00     0.000 HD 
ATOM      5  O   CYS A   1     -10.350   6.698  73.278  1.00  0.00    -0.210 OA 
ATOM      6  C   CYS A   1     -11.414   7.119  72.546  1.00  0.00    -0.258 C  
ATOM      7  OXT CYS A   1     -12.374   6.413  72.287  1.00  0.00    -0.252 OA 
ENDROOT
BRANCH   3   8
ATOM      8  CB  CYS A   1     -11.911   8.811  70.759  1.00  0.00    -0.178 C  
BRANCH   8   9
ATOM      9  SG  CYS A   1     -11.069  10.136  69.818  1.00  0.00    -0.294 SA 
BRANCH   9  10
ATOM     10  SG  CYS A   1     -10.431   9.126  68.141  1.00  0.00    -0.188 SA 
BRANCH  10  11
ATOM     11  CB  CYS A   1      -8.710   8.705  68.593  1.00  0.00    -0.138 C  
BRANCH  11  12
ATOM     12  CA  CYS A   1      -8.133   7.618  67.674  1.00  0.00    -0.121 C  
ATOM     13  N   CYS A   1      -8.912   7.449  66.405  1.00  0.00    -0.157 NA 
ATOM     14  C   CYS A   1      -8.190   6.299  68.446  1.00  0.00    -0.116 C  
ATOM     15  H2  CYS A   1      -8.997   8.337  65.909  1.00  0.00     0.000 HD 
ATOM     16  H1  CYS A   1      -8.528   6.727  65.795  1.00  0.00     0.000 HD 
ATOM     17  OXT CYS A   1      -7.440   5.983  69.355  1.00  0.00    -0.084 OA 
ATOM     18  O   CYS A   1      -9.226   5.524  68.027  1.00  0.00    -0.108 OA 
ENDBRANCH  11  12
ENDBRANCH  10  11
ENDBRANCH   9  10
ENDBRANCH   8   9
ENDBRANCH   3   8
TORSDOF 5
ENDMDL
MODEL      330
REMARK 921   NORMALIZED FREE ENERGY PREDICTED BY IDOCK:   -1.82 KCAL/MOL
REMARK 922        TOTAL FREE ENERGY PREDICTED BY IDOCK:   -2.97 KCAL/MOL
REMARK 923 INTER-LIGAND FREE ENERGY PREDICTED BY IDOCK:   -2.79 KCAL/MOL
REMARK 924 INTRA-LIGAND FREE ENERGY PREDICTED BY IDOCK:   -0.19 KCAL/MOL
REMARK 927      BINDING AFFINITY PREDICTED BY RF-SCORE:    0.00 PKD
ROOT
ATOM      1  N   CYS A   1      -9.430   4.345  74.434  1.00  0.00    -0.110 NA 
ATOM      2  H2  CYS A   1      -9.875   4.732  75.266  1.00  0.00     0.000 HD 
ATOM      3  CA  CYS A   1     -10.430   4.198  73.328  1.00  0.00    -0.176 C  
ATOM      4  H1  CYS A   1      -8.928   3.488  74.666  1.00  0.00     0.000 HD 
ATOM      5  O   CYS A   1      -8.530   3.060  72.435  1.00  0.00    -0.073 OA 
ATOM      6  C   CYS A   1      -9.683   3.685  72.086  1.00  0.00    -0.163 C  
ATOM      7  OXT CYS A   1     -10.067   3.796  70.933  1.00  0.00    -0.105 OA 
ENDROOT
BRANCH   3   8
ATOM      8  CB  CYS A   1     -11.186   5.487  72.978  1.00  0.00    -0.293 C  
BRANCH   8   9
ATOM      9  SG  CYS A   1     -10.339   6.960  73.658  1.00  0.00    -0.376 SA 
BRANCH   9  10
ATOM     10  SG  CYS A   1     -10.970   8.442  72.376  1.00  0.00    -0.314 SA 
BRANCH  10  11
ATOM     11  CB  CYS A   1     -10.972   7.568  70.770  1.00  0.00    -0.252 C  
BRANCH  11  12
ATOM     12  CA  CYS A   1      -9.607   7.662  70.073  1.00  0.00    -0.164 C  
ATOM     13  N   CYS A   1      -8.660   6.575  70.486  1.00  0.00    -0.141 NA 
ATOM     14  C   CYS A   1      -8.990   9.005  70.468  1.00  0.00    -0.213 C  
ATOM     15  H2  CYS A   1      -9.079   5.655  70.345  1.00  0.00     0.000 HD 
ATOM     16  H1  CYS A   1      -7.754   6.638  70.023  1.00  0.00     0.000 HD 
ATOM     17  OXT CYS A   1      -9.331  10.091  70.030  1.00  0.00    -0.217 OA 
ATOM     18  O   CYS A   1      -8.032   8.849  71.421  1.00  0.00    -0.190 OA 
ENDBRANCH  11  12
ENDBRANCH  10  11
ENDBRANCH   9  10
ENDBRANCH   8   9
ENDBRANCH   3   8
TORSDOF 5
ENDMDL
MODEL      331
REMARK 921   NORMALIZED FREE ENERGY PREDICTED BY IDOCK:   -1.81 KCAL/MOL
REMARK 922        TOTAL FREE ENERGY PREDICTED BY IDOCK:   -2.95 KCAL/MOL
REMARK 923 INTER-LIGAND FREE ENERGY PREDICTED BY IDOCK:   -2.76 KCAL/MOL
REMARK 924 INTRA-LIGAND FREE ENERGY PREDICTED BY IDOCK:   -0.19 KCAL/MOL
REMARK 927      BINDING AFFINITY PREDICTED BY RF-SCORE:    0.00 PKD
ROOT
ATOM      1  N   CYS A   1     -10.077   8.494  66.709  1.00  0.00    -0.277 NA 
ATOM      2  H2  CYS A   1     -10.089   7.666  67.307  1.00  0.00     0.000 HD 
ATOM      3  CA  CYS A   1     -10.788   9.630  67.377  1.00  0.00    -0.172 C  
ATOM      4  H1  CYS A   1     -10.427   8.265  65.778  1.00  0.00     0.000 HD 
ATOM      5  O   CYS A   1     -10.429  10.492  65.179  1.00  0.00    -0.270 OA 
ATOM      6  C   CYS A   1     -10.668  10.861  66.464  1.00  0.00    -0.209 C  
ATOM      7  OXT CYS A   1     -10.787  12.022  66.820  1.00  0.00    -0.243 OA 
ENDROOT
BRANCH   3   8
ATOM      8  CB  CYS A   1     -10.263   9.975  68.777  1.00  0.00    -0.186 C  
BRANCH   8   9
ATOM      9  SG  CYS A   1      -9.396   8.550  69.532  1.00  0.00    -0.161 SA 
BRANCH   9  10
ATOM     10  SG  CYS A   1     -10.255   8.473  71.401  1.00  0.00    -0.259 SA 
BRANCH  10  11
ATOM     11  CB  CYS A   1     -11.116   6.861  71.350  1.00  0.00    -0.250 C  
BRANCH  11  12
ATOM     12  CA  CYS A   1     -10.131   5.689  71.461  1.00  0.00    -0.201 C  
ATOM     13  N   CYS A   1     -10.365   4.625  70.432  1.00  0.00    -0.135 NA 
ATOM     14  C   CYS A   1     -10.327   5.065  72.844  1.00  0.00    -0.193 C  
ATOM     15  H2  CYS A   1     -10.356   5.020  69.491  1.00  0.00     0.000 HD 
ATOM     16  H1  CYS A   1      -9.710   3.846  70.507  1.00  0.00     0.000 HD 
ATOM     17  OXT CYS A   1      -9.935   5.545  73.894  1.00  0.00    -0.167 OA 
ATOM     18  O   CYS A   1     -11.049   3.914  72.770  1.00  0.00    -0.039 OA 
ENDBRANCH  11  12
ENDBRANCH  10  11
ENDBRANCH   9  10
ENDBRANCH   8   9
ENDBRANCH   3   8
TORSDOF 5
ENDMDL
MODEL      332
REMARK 921   NORMALIZED FREE ENERGY PREDICTED BY IDOCK:   -1.79 KCAL/MOL
REMARK 922        TOTAL FREE ENERGY PREDICTED BY IDOCK:   -2.93 KCAL/MOL
REMARK 923 INTER-LIGAND FREE ENERGY PREDICTED BY IDOCK:   -2.78 KCAL/MOL
REMARK 924 INTRA-LIGAND FREE ENERGY PREDICTED BY IDOCK:   -0.15 KCAL/MOL
REMARK 927      BINDING AFFINITY PREDICTED BY RF-SCORE:    0.00 PKD
ROOT
ATOM      1  N   CYS A   1      -9.566   8.458  70.480  1.00  0.00    -0.167 NA 
ATOM      2  H2  CYS A   1      -8.900   8.419  69.708  1.00  0.00     0.000 HD 
ATOM      3  CA  CYS A   1     -10.845   7.777  70.100  1.00  0.00    -0.244 C  
ATOM      4  H1  CYS A   1      -9.680   9.419  70.803  1.00  0.00     0.000 HD 
ATOM      5  O   CYS A   1     -11.426   8.802  72.177  1.00  0.00    -0.354 OA 
ATOM      6  C   CYS A   1     -11.773   7.802  71.325  1.00  0.00    -0.288 C  
ATOM      7  OXT CYS A   1     -12.713   7.049  71.518  1.00  0.00    -0.368 OA 
ENDROOT
BRANCH   3   8
ATOM      8  CB  CYS A   1     -10.675   6.331  69.613  1.00  0.00    -0.306 C  
BRANCH   8   9
ATOM      9  SG  CYS A   1     -10.877   6.212  67.797  1.00  0.00    -0.299 SA 
BRANCH   9  10
ATOM     10  SG  CYS A   1      -9.090   5.364  67.227  1.00  0.00    -0.111 SA 
BRANCH  10  11
ATOM     11  CB  CYS A   1      -9.478   4.779  65.539  1.00  0.00    -0.163 C  
BRANCH  11  12
ATOM     12  CA  CYS A   1      -8.290   4.037  64.910  1.00  0.00    -0.105 C  
ATOM     13  N   CYS A   1      -8.046   4.422  63.482  1.00  0.00    -0.090 NA 
ATOM     14  C   CYS A   1      -8.618   2.544  64.950  1.00  0.00    -0.100 C  
ATOM     15  H2  CYS A   1      -7.934   5.432  63.392  1.00  0.00     0.000 HD 
ATOM     16  H1  CYS A   1      -7.257   3.929  63.065  1.00  0.00     0.000 HD 
ATOM     17  OXT CYS A   1      -8.579   1.841  65.947  1.00  0.00    -0.100 OA 
ATOM     18  O   CYS A   1      -9.017   2.091  63.731  1.00  0.00    -0.089 OA 
ENDBRANCH  11  12
ENDBRANCH  10  11
ENDBRANCH   9  10
ENDBRANCH   8   9
ENDBRANCH   3   8
TORSDOF 5
ENDMDL
MODEL      333
REMARK 921   NORMALIZED FREE ENERGY PREDICTED BY IDOCK:   -1.78 KCAL/MOL
REMARK 922        TOTAL FREE ENERGY PREDICTED BY IDOCK:   -2.91 KCAL/MOL
REMARK 923 INTER-LIGAND FREE ENERGY PREDICTED BY IDOCK:   -2.69 KCAL/MOL
REMARK 924 INTRA-LIGAND FREE ENERGY PREDICTED BY IDOCK:   -0.22 KCAL/MOL
REMARK 927      BINDING AFFINITY PREDICTED BY RF-SCORE:    0.00 PKD
ROOT
ATOM      1  N   CYS A   1      -9.996   8.560  66.033  1.00  0.00    -0.465 NA 
ATOM      2  H2  CYS A   1     -10.118   7.556  65.901  1.00  0.00     0.000 HD 
ATOM      3  CA  CYS A   1     -10.645   9.003  67.309  1.00  0.00    -0.231 C  
ATOM      4  H1  CYS A   1     -10.306   9.068  65.204  1.00  0.00     0.000 HD 
ATOM      5  O   CYS A   1     -10.075  11.087  66.293  1.00  0.00    -0.219 OA 
ATOM      6  C   CYS A   1     -10.360  10.502  67.485  1.00  0.00    -0.223 C  
ATOM      7  OXT CYS A   1     -10.399  11.112  68.542  1.00  0.00    -0.178 OA 
ENDROOT
BRANCH   3   8
ATOM      8  CB  CYS A   1     -10.179   8.240  68.557  1.00  0.00    -0.208 C  
BRANCH   8   9
ATOM      9  SG  CYS A   1     -11.108   6.676  68.766  1.00  0.00    -0.183 SA 
BRANCH   9  10
ATOM     10  SG  CYS A   1     -10.399   6.001  70.577  1.00  0.00    -0.236 SA 
BRANCH  10  11
ATOM     11  CB  CYS A   1      -8.960   4.997  70.062  1.00  0.00    -0.110 C  
BRANCH  11  12
ATOM     12  CA  CYS A   1      -9.333   3.518  69.893  1.00  0.00    -0.177 C  
ATOM     13  N   CYS A   1      -8.565   2.610  70.807  1.00  0.00    -0.057 NA 
ATOM     14  C   CYS A   1      -9.002   3.131  68.451  1.00  0.00    -0.138 C  
ATOM     15  H2  CYS A   1      -8.667   2.903  71.780  1.00  0.00     0.000 HD 
ATOM     16  H1  CYS A   1      -8.814   1.627  70.695  1.00  0.00     0.000 HD 
ATOM     17  OXT CYS A   1      -9.655   3.447  67.470  1.00  0.00    -0.208 OA 
ATOM     18  O   CYS A   1      -7.843   2.421  68.382  1.00  0.00    -0.054 OA 
ENDBRANCH  11  12
ENDBRANCH  10  11
ENDBRANCH   9  10
ENDBRANCH   8   9
ENDBRANCH   3   8
TORSDOF 5
ENDMDL
MODEL      334
REMARK 921   NORMALIZED FREE ENERGY PREDICTED BY IDOCK:   -1.76 KCAL/MOL
REMARK 922        TOTAL FREE ENERGY PREDICTED BY IDOCK:   -2.89 KCAL/MOL
REMARK 923 INTER-LIGAND FREE ENERGY PREDICTED BY IDOCK:   -2.98 KCAL/MOL
REMARK 924 INTRA-LIGAND FREE ENERGY PREDICTED BY IDOCK:    0.09 KCAL/MOL
REMARK 927      BINDING AFFINITY PREDICTED BY RF-SCORE:    0.00 PKD
ROOT
ATOM      1  N   CYS A   1      -8.825   7.902  69.193  1.00  0.00    -0.141 NA 
ATOM      2  H2  CYS A   1      -9.629   8.194  68.636  1.00  0.00     0.000 HD 
ATOM      3  CA  CYS A   1      -7.549   8.287  68.509  1.00  0.00    -0.100 C  
ATOM      4  H1  CYS A   1      -8.896   6.911  69.427  1.00  0.00     0.000 HD 
ATOM      5  O   CYS A   1      -6.760   6.913  70.296  1.00  0.00    -0.050 OA 
ATOM      6  C   CYS A   1      -6.385   7.889  69.430  1.00  0.00    -0.035 C  
ATOM      7  OXT CYS A   1      -5.259   8.360  69.394  1.00  0.00    -0.029 OA 
ENDROOT
BRANCH   3   8
ATOM      8  CB  CYS A   1      -7.441   9.777  68.156  1.00  0.00    -0.081 C  
BRANCH   8   9
ATOM      9  SG  CYS A   1      -9.094  10.552  68.030  1.00  0.00    -0.141 SA 
BRANCH   9  10
ATOM     10  SG  CYS A   1      -9.394  10.581  65.993  1.00  0.00    -0.188 SA 
BRANCH  10  11
ATOM     11  CB  CYS A   1     -11.024  11.398  65.868  1.00  0.00    -0.207 C  
BRANCH  11  12
ATOM     12  CA  CYS A   1     -10.890  12.927  65.822  1.00  0.00    -0.269 C  
ATOM     13  N   CYS A   1     -10.059  13.478  66.942  1.00  0.00    -0.251 NA 
ATOM     14  C   CYS A   1     -12.299  13.508  65.946  1.00  0.00    -0.456 C  
ATOM     15  H2  CYS A   1      -9.141  13.032  66.967  1.00  0.00     0.000 HD 
ATOM     16  H1  CYS A   1      -9.970  14.493  66.910  1.00  0.00     0.000 HD 
ATOM     17  OXT CYS A   1     -13.137  13.517  65.059  1.00  0.00    -0.736 OA 
ATOM     18  O   CYS A   1     -12.533  13.978  67.201  1.00  0.00    -0.293 OA 
ENDBRANCH  11  12
ENDBRANCH  10  11
ENDBRANCH   9  10
ENDBRANCH   8   9
ENDBRANCH   3   8
TORSDOF 5
ENDMDL
MODEL      335
REMARK 921   NORMALIZED FREE ENERGY PREDICTED BY IDOCK:   -1.76 KCAL/MOL
REMARK 922        TOTAL FREE ENERGY PREDICTED BY IDOCK:   -2.88 KCAL/MOL
REMARK 923 INTER-LIGAND FREE ENERGY PREDICTED BY IDOCK:   -2.18 KCAL/MOL
REMARK 924 INTRA-LIGAND FREE ENERGY PREDICTED BY IDOCK:   -0.71 KCAL/MOL
REMARK 927      BINDING AFFINITY PREDICTED BY RF-SCORE:    0.00 PKD
ROOT
ATOM      1  N   CYS A   1      -9.529   2.403  66.029  1.00  0.00    -0.366 NA 
ATOM      2  H2  CYS A   1      -9.368   2.893  66.910  1.00  0.00     0.000 HD 
ATOM      3  CA  CYS A   1      -8.961   3.187  64.886  1.00  0.00    -0.137 C  
ATOM      4  H1  CYS A   1     -10.516   2.166  65.930  1.00  0.00     0.000 HD 
ATOM      5  O   CYS A   1     -10.180   1.473  63.756  1.00  0.00    -0.133 OA 
ATOM      6  C   CYS A   1      -9.167   2.364  63.605  1.00  0.00    -0.097 C  
ATOM      7  OXT CYS A   1      -8.530   2.491  62.571  1.00  0.00    -0.073 OA 
ENDROOT
BRANCH   3   8
ATOM      8  CB  CYS A   1      -7.475   3.544  65.036  1.00  0.00    -0.073 C  
BRANCH   8   9
ATOM      9  SG  CYS A   1      -7.262   5.234  65.705  1.00  0.00    -0.069 SA 
BRANCH   9  10
ATOM     10  SG  CYS A   1      -7.350   4.901  67.735  1.00  0.00    -0.075 SA 
BRANCH  10  11
ATOM     11  CB  CYS A   1      -8.498   6.215  68.278  1.00  0.00    -0.113 C  
BRANCH  11  12
ATOM     12  CA  CYS A   1      -9.933   5.688  68.426  1.00  0.00    -0.156 C  
ATOM     13  N   CYS A   1     -10.012   4.191  68.419  1.00  0.00    -0.002 NA 
ATOM     14  C   CYS A   1     -10.731   6.212  67.232  1.00  0.00    -0.335 C  
ATOM     15  H2  CYS A   1      -9.401   3.791  69.132  1.00  0.00     0.000 HD 
ATOM     16  H1  CYS A   1     -10.965   3.842  68.518  1.00  0.00     0.000 HD 
ATOM     17  OXT CYS A   1     -11.126   7.359  67.098  1.00  0.00    -0.263 OA 
ATOM     18  O   CYS A   1     -10.911   5.244  66.293  1.00  0.00    -0.285 OA 
ENDBRANCH  11  12
ENDBRANCH  10  11
ENDBRANCH   9  10
ENDBRANCH   8   9
ENDBRANCH   3   8
TORSDOF 5
ENDMDL
MODEL      336
REMARK 921   NORMALIZED FREE ENERGY PREDICTED BY IDOCK:   -1.73 KCAL/MOL
REMARK 922        TOTAL FREE ENERGY PREDICTED BY IDOCK:   -2.86 KCAL/MOL
REMARK 923 INTER-LIGAND FREE ENERGY PREDICTED BY IDOCK:   -2.54 KCAL/MOL
REMARK 924 INTRA-LIGAND FREE ENERGY PREDICTED BY IDOCK:   -0.32 KCAL/MOL
REMARK 927      BINDING AFFINITY PREDICTED BY RF-SCORE:    0.00 PKD
ROOT
ATOM      1  N   CYS A   1      -9.072   8.906  71.297  1.00  0.00    -0.239 NA 
ATOM      2  H2  CYS A   1      -9.522   9.022  70.388  1.00  0.00     0.000 HD 
ATOM      3  CA  CYS A   1      -9.843   7.938  72.141  1.00  0.00    -0.205 C  
ATOM      4  H1  CYS A   1      -8.915   9.815  71.734  1.00  0.00     0.000 HD 
ATOM      5  O   CYS A   1      -8.262   8.810  73.704  1.00  0.00    -0.366 OA 
ATOM      6  C   CYS A   1      -9.077   7.751  73.460  1.00  0.00    -0.283 C  
ATOM      7  OXT CYS A   1      -9.184   6.796  74.213  1.00  0.00    -0.186 OA 
ENDROOT
BRANCH   3   8
ATOM      8  CB  CYS A   1     -10.080   6.570  71.484  1.00  0.00    -0.190 C  
BRANCH   8   9
ATOM      9  SG  CYS A   1     -11.484   6.630  70.312  1.00  0.00    -0.388 SA 
BRANCH   9  10
ATOM     10  SG  CYS A   1     -10.633   5.883  68.593  1.00  0.00    -0.255 SA 
BRANCH  10  11
ATOM     11  CB  CYS A   1      -9.015   5.293  69.205  1.00  0.00    -0.103 C  
BRANCH  11  12
ATOM     12  CA  CYS A   1      -7.934   5.377  68.117  1.00  0.00    -0.095 C  
ATOM     13  N   CYS A   1      -7.202   4.084  67.916  1.00  0.00    -0.059 NA 
ATOM     14  C   CYS A   1      -6.921   6.430  68.568  1.00  0.00    -0.080 C  
ATOM     15  H2  CYS A   1      -7.854   3.323  67.724  1.00  0.00     0.000 HD 
ATOM     16  H1  CYS A   1      -6.484   4.140  67.194  1.00  0.00     0.000 HD 
ATOM     17  OXT CYS A   1      -7.100   7.637  68.536  1.00  0.00    -0.076 OA 
ATOM     18  O   CYS A   1      -5.794   5.854  69.066  1.00  0.00    -0.014 OA 
ENDBRANCH  11  12
ENDBRANCH  10  11
ENDBRANCH   9  10
ENDBRANCH   8   9
ENDBRANCH   3   8
TORSDOF 5
ENDMDL
MODEL      337
REMARK 921   NORMALIZED FREE ENERGY PREDICTED BY IDOCK:   -1.73 KCAL/MOL
REMARK 922        TOTAL FREE ENERGY PREDICTED BY IDOCK:   -2.85 KCAL/MOL
REMARK 923 INTER-LIGAND FREE ENERGY PREDICTED BY IDOCK:   -2.60 KCAL/MOL
REMARK 924 INTRA-LIGAND FREE ENERGY PREDICTED BY IDOCK:   -0.25 KCAL/MOL
REMARK 927      BINDING AFFINITY PREDICTED BY RF-SCORE:    0.00 PKD
ROOT
ATOM      1  N   CYS A   1      -7.602   8.486  67.930  1.00  0.00    -0.097 NA 
ATOM      2  H2  CYS A   1      -7.705   9.415  68.337  1.00  0.00     0.000 HD 
ATOM      3  CA  CYS A   1      -8.510   8.328  66.749  1.00  0.00    -0.122 C  
ATOM      4  H1  CYS A   1      -7.715   7.769  68.648  1.00  0.00     0.000 HD 
ATOM      5  O   CYS A   1      -7.703   6.102  67.055  1.00  0.00    -0.098 OA 
ATOM      6  C   CYS A   1      -8.251   6.942  66.140  1.00  0.00    -0.121 C  
ATOM      7  OXT CYS A   1      -8.513   6.611  64.995  1.00  0.00    -0.106 OA 
ENDROOT
BRANCH   3   8
ATOM      8  CB  CYS A   1      -8.340   9.406  65.669  1.00  0.00    -0.124 C  
BRANCH   8   9
ATOM      9  SG  CYS A   1      -9.945  10.174  65.238  1.00  0.00    -0.267 SA 
BRANCH   9  10
ATOM     10  SG  CYS A   1      -9.737  12.063  66.030  1.00  0.00    -0.236 SA 
BRANCH  10  11
ATOM     11  CB  CYS A   1     -11.365  12.316  66.822  1.00  0.00    -0.339 C  
BRANCH  11  12
ATOM     12  CA  CYS A   1     -11.221  12.863  68.250  1.00  0.00    -0.270 C  
ATOM     13  N   CYS A   1      -9.854  13.408  68.535  1.00  0.00    -0.338 NA 
ATOM     14  C   CYS A   1     -11.476  11.697  69.207  1.00  0.00    -0.300 C  
ATOM     15  H2  CYS A   1      -9.594  14.115  67.846  1.00  0.00     0.000 HD 
ATOM     16  H1  CYS A   1      -9.759  13.771  69.483  1.00  0.00     0.000 HD 
ATOM     17  OXT CYS A   1     -12.571  11.221  69.459  1.00  0.00    -0.181 OA 
ATOM     18  O   CYS A   1     -10.313  11.210  69.717  1.00  0.00     0.002 OA 
ENDBRANCH  11  12
ENDBRANCH  10  11
ENDBRANCH   9  10
ENDBRANCH   8   9
ENDBRANCH   3   8
TORSDOF 5
ENDMDL
MODEL      338
REMARK 921   NORMALIZED FREE ENERGY PREDICTED BY IDOCK:   -1.72 KCAL/MOL
REMARK 922        TOTAL FREE ENERGY PREDICTED BY IDOCK:   -2.84 KCAL/MOL
REMARK 923 INTER-LIGAND FREE ENERGY PREDICTED BY IDOCK:   -2.58 KCAL/MOL
REMARK 924 INTRA-LIGAND FREE ENERGY PREDICTED BY IDOCK:   -0.26 KCAL/MOL
REMARK 927      BINDING AFFINITY PREDICTED BY RF-SCORE:    0.00 PKD
ROOT
ATOM      1  N   CYS A   1      -6.829   7.280  66.337  1.00  0.00    -0.060 NA 
ATOM      2  H2  CYS A   1      -6.172   7.702  66.994  1.00  0.00     0.000 HD 
ATOM      3  CA  CYS A   1      -7.841   6.452  67.068  1.00  0.00    -0.104 C  
ATOM      4  H1  CYS A   1      -6.326   6.780  65.603  1.00  0.00     0.000 HD 
ATOM      5  O   CYS A   1      -8.293   5.891  64.792  1.00  0.00    -0.138 OA 
ATOM      6  C   CYS A   1      -8.840   5.910  66.035  1.00  0.00    -0.149 C  
ATOM      7  OXT CYS A   1      -9.972   5.524  66.278  1.00  0.00    -0.163 OA 
ENDROOT
BRANCH   3   8
ATOM      8  CB  CYS A   1      -8.598   7.203  68.173  1.00  0.00    -0.129 C  
BRANCH   8   9
ATOM      9  SG  CYS A   1      -7.681   8.692  68.713  1.00  0.00    -0.099 SA 
BRANCH   9  10
ATOM     10  SG  CYS A   1      -9.125  10.153  68.575  1.00  0.00    -0.139 SA 
BRANCH  10  11
ATOM     11  CB  CYS A   1      -9.725   9.922  66.863  1.00  0.00    -0.186 C  
BRANCH  11  12
ATOM     12  CA  CYS A   1      -9.427  11.148  65.989  1.00  0.00    -0.208 C  
ATOM     13  N   CYS A   1      -8.043  11.690  66.189  1.00  0.00    -0.380 NA 
ATOM     14  C   CYS A   1     -10.425  12.238  66.384  1.00  0.00    -0.236 C  
ATOM     15  H2  CYS A   1      -7.343  10.961  66.046  1.00  0.00     0.000 HD 
ATOM     16  H1  CYS A   1      -7.846  12.505  65.608  1.00  0.00     0.000 HD 
ATOM     17  OXT CYS A   1     -11.605  12.256  66.074  1.00  0.00    -0.368 OA 
ATOM     18  O   CYS A   1      -9.845  13.176  67.180  1.00  0.00    -0.226 OA 
ENDBRANCH  11  12
ENDBRANCH  10  11
ENDBRANCH   9  10
ENDBRANCH   8   9
ENDBRANCH   3   8
TORSDOF 5
ENDMDL
MODEL      339
REMARK 921   NORMALIZED FREE ENERGY PREDICTED BY IDOCK:   -1.72 KCAL/MOL
REMARK 922        TOTAL FREE ENERGY PREDICTED BY IDOCK:   -2.84 KCAL/MOL
REMARK 923 INTER-LIGAND FREE ENERGY PREDICTED BY IDOCK:   -2.58 KCAL/MOL
REMARK 924 INTRA-LIGAND FREE ENERGY PREDICTED BY IDOCK:   -0.27 KCAL/MOL
REMARK 927      BINDING AFFINITY PREDICTED BY RF-SCORE:    0.00 PKD
ROOT
ATOM      1  N   CYS A   1      -7.801   3.404  64.934  1.00  0.00    -0.081 NA 
ATOM      2  H2  CYS A   1      -7.205   3.262  65.750  1.00  0.00     0.000 HD 
ATOM      3  CA  CYS A   1      -9.237   3.167  65.288  1.00  0.00    -0.150 C  
ATOM      4  H1  CYS A   1      -7.463   2.849  64.147  1.00  0.00     0.000 HD 
ATOM      5  O   CYS A   1      -9.339   3.370  62.911  1.00  0.00    -0.092 OA 
ATOM      6  C   CYS A   1     -10.084   3.469  64.042  1.00  0.00    -0.207 C  
ATOM      7  OXT CYS A   1     -11.273   3.745  64.043  1.00  0.00    -0.314 OA 
ENDROOT
BRANCH   3   8
ATOM      8  CB  CYS A   1      -9.746   4.001  66.472  1.00  0.00    -0.191 C  
BRANCH   8   9
ATOM      9  SG  CYS A   1      -9.196   5.742  66.344  1.00  0.00    -0.152 SA 
BRANCH   9  10
ATOM     10  SG  CYS A   1     -10.812   6.756  67.118  1.00  0.00    -0.376 SA 
BRANCH  10  11
ATOM     11  CB  CYS A   1     -10.118   7.435  68.667  1.00  0.00    -0.179 C  
BRANCH  11  12
ATOM     12  CA  CYS A   1      -9.674   6.320  69.625  1.00  0.00    -0.152 C  
ATOM     13  N   CYS A   1     -10.811   5.726  70.401  1.00  0.00    -0.300 NA 
ATOM     14  C   CYS A   1      -8.695   6.944  70.621  1.00  0.00    -0.149 C  
ATOM     15  H2  CYS A   1     -11.546   5.397  69.775  1.00  0.00     0.000 HD 
ATOM     16  H1  CYS A   1     -10.516   4.986  71.038  1.00  0.00     0.000 HD 
ATOM     17  OXT CYS A   1      -7.538   7.245  70.375  1.00  0.00    -0.085 OA 
ATOM     18  O   CYS A   1      -9.289   7.177  71.822  1.00  0.00    -0.148 OA 
ENDBRANCH  11  12
ENDBRANCH  10  11
ENDBRANCH   9  10
ENDBRANCH   8   9
ENDBRANCH   3   8
TORSDOF 5
ENDMDL
MODEL      340
REMARK 921   NORMALIZED FREE ENERGY PREDICTED BY IDOCK:   -1.72 KCAL/MOL
REMARK 922        TOTAL FREE ENERGY PREDICTED BY IDOCK:   -2.84 KCAL/MOL
REMARK 923 INTER-LIGAND FREE ENERGY PREDICTED BY IDOCK:   -2.66 KCAL/MOL
REMARK 924 INTRA-LIGAND FREE ENERGY PREDICTED BY IDOCK:   -0.18 KCAL/MOL
REMARK 927      BINDING AFFINITY PREDICTED BY RF-SCORE:    0.00 PKD
ROOT
ATOM      1  N   CYS A   1      -6.822   7.253  66.242  1.00  0.00    -0.056 NA 
ATOM      2  H2  CYS A   1      -6.296   7.832  66.897  1.00  0.00     0.000 HD 
ATOM      3  CA  CYS A   1      -7.168   5.938  66.869  1.00  0.00    -0.071 C  
ATOM      4  H1  CYS A   1      -6.323   7.180  65.354  1.00  0.00     0.000 HD 
ATOM      5  O   CYS A   1      -7.810   5.588  64.595  1.00  0.00    -0.094 OA 
ATOM      6  C   CYS A   1      -8.020   5.148  65.863  1.00  0.00    -0.108 C  
ATOM      7  OXT CYS A   1      -8.776   4.231  66.140  1.00  0.00    -0.112 OA 
ENDROOT
BRANCH   3   8
ATOM      8  CB  CYS A   1      -7.918   6.048  68.204  1.00  0.00    -0.110 C  
BRANCH   8   9
ATOM      9  SG  CYS A   1      -8.193   7.796  68.670  1.00  0.00    -0.129 SA 
BRANCH   9  10
ATOM     10  SG  CYS A   1      -8.990   7.611  70.559  1.00  0.00    -0.151 SA 
BRANCH  10  11
ATOM     11  CB  CYS A   1      -9.906   6.035  70.424  1.00  0.00    -0.179 C  
BRANCH  11  12
ATOM     12  CA  CYS A   1     -11.371   6.193  70.855  1.00  0.00    -0.287 C  
ATOM     13  N   CYS A   1     -11.988   7.475  70.381  1.00  0.00    -0.509 NA 
ATOM     14  C   CYS A   1     -11.394   6.193  72.385  1.00  0.00    -0.296 C  
ATOM     15  H2  CYS A   1     -11.893   7.571  69.369  1.00  0.00     0.000 HD 
ATOM     16  H1  CYS A   1     -12.961   7.579  70.668  1.00  0.00     0.000 HD 
ATOM     17  OXT CYS A   1     -11.253   5.208  73.090  1.00  0.00    -0.298 OA 
ATOM     18  O   CYS A   1     -11.541   7.452  72.878  1.00  0.00    -0.262 OA 
ENDBRANCH  11  12
ENDBRANCH  10  11
ENDBRANCH   9  10
ENDBRANCH   8   9
ENDBRANCH   3   8
TORSDOF 5
ENDMDL
MODEL      341
REMARK 921   NORMALIZED FREE ENERGY PREDICTED BY IDOCK:   -1.71 KCAL/MOL
REMARK 922        TOTAL FREE ENERGY PREDICTED BY IDOCK:   -2.82 KCAL/MOL
REMARK 923 INTER-LIGAND FREE ENERGY PREDICTED BY IDOCK:   -2.64 KCAL/MOL
REMARK 924 INTRA-LIGAND FREE ENERGY PREDICTED BY IDOCK:   -0.18 KCAL/MOL
REMARK 927      BINDING AFFINITY PREDICTED BY RF-SCORE:    0.00 PKD
ROOT
ATOM      1  N   CYS A   1      -8.419   7.026  67.478  1.00  0.00    -0.122 NA 
ATOM      2  H2  CYS A   1      -8.254   7.515  68.358  1.00  0.00     0.000 HD 
ATOM      3  CA  CYS A   1      -9.505   6.007  67.641  1.00  0.00    -0.112 C  
ATOM      4  H1  CYS A   1      -7.544   6.654  67.108  1.00  0.00     0.000 HD 
ATOM      5  O   CYS A   1      -8.672   5.499  65.462  1.00  0.00    -0.149 OA 
ATOM      6  C   CYS A   1      -9.756   5.364  66.268  1.00  0.00    -0.162 C  
ATOM      7  OXT CYS A   1     -10.777   4.787  65.932  1.00  0.00    -0.318 OA 
ENDROOT
BRANCH   3   8
ATOM      8  CB  CYS A   1     -10.823   6.566  68.197  1.00  0.00    -0.295 C  
BRANCH   8   9
ATOM      9  SG  CYS A   1     -10.522   7.958  69.347  1.00  0.00    -0.204 SA 
BRANCH   9  10
ATOM     10  SG  CYS A   1     -11.086   7.146  71.152  1.00  0.00    -0.263 SA 
BRANCH  10  11
ATOM     11  CB  CYS A   1      -9.467   6.855  71.951  1.00  0.00    -0.141 C  
BRANCH  11  12
ATOM     12  CA  CYS A   1      -9.625   6.168  73.315  1.00  0.00    -0.147 C  
ATOM     13  N   CYS A   1      -9.386   7.094  74.470  1.00  0.00    -0.429 NA 
ATOM     14  C   CYS A   1      -8.583   5.050  73.380  1.00  0.00    -0.109 C  
ATOM     15  H2  CYS A   1      -9.986   7.918  74.406  1.00  0.00     0.000 HD 
ATOM     16  H1  CYS A   1      -9.491   6.637  75.376  1.00  0.00     0.000 HD 
ATOM     17  OXT CYS A   1      -8.658   3.984  72.792  1.00  0.00    -0.098 OA 
ATOM     18  O   CYS A   1      -7.517   5.410  74.145  1.00  0.00    -0.089 OA 
ENDBRANCH  11  12
ENDBRANCH  10  11
ENDBRANCH   9  10
ENDBRANCH   8   9
ENDBRANCH   3   8
TORSDOF 5
ENDMDL
MODEL      342
REMARK 921   NORMALIZED FREE ENERGY PREDICTED BY IDOCK:   -1.70 KCAL/MOL
REMARK 922        TOTAL FREE ENERGY PREDICTED BY IDOCK:   -2.82 KCAL/MOL
REMARK 923 INTER-LIGAND FREE ENERGY PREDICTED BY IDOCK:   -2.55 KCAL/MOL
REMARK 924 INTRA-LIGAND FREE ENERGY PREDICTED BY IDOCK:   -0.27 KCAL/MOL
REMARK 927      BINDING AFFINITY PREDICTED BY RF-SCORE:    0.00 PKD
ROOT
ATOM      1  N   CYS A   1      -7.868   3.382  64.258  1.00  0.00    -0.081 NA 
ATOM      2  H2  CYS A   1      -7.150   3.063  64.910  1.00  0.00     0.000 HD 
ATOM      3  CA  CYS A   1      -9.233   3.129  64.820  1.00  0.00    -0.145 C  
ATOM      4  H1  CYS A   1      -7.711   2.981  63.333  1.00  0.00     0.000 HD 
ATOM      5  O   CYS A   1      -9.733   3.797  62.582  1.00  0.00    -0.112 OA 
ATOM      6  C   CYS A   1     -10.261   3.698  63.829  1.00  0.00    -0.225 C  
ATOM      7  OXT CYS A   1     -11.410   4.008  64.100  1.00  0.00    -0.250 OA 
ENDROOT
BRANCH   3   8
ATOM      8  CB  CYS A   1      -9.470   3.732  66.211  1.00  0.00    -0.179 C  
BRANCH   8   9
ATOM      9  SG  CYS A   1      -9.163   5.537  66.215  1.00  0.00    -0.156 SA 
BRANCH   9  10
ATOM     10  SG  CYS A   1     -10.827   6.248  67.196  1.00  0.00    -0.379 SA 
BRANCH  10  11
ATOM     11  CB  CYS A   1     -10.625   8.055  67.009  1.00  0.00    -0.294 C  
BRANCH  11  12
ATOM     12  CA  CYS A   1      -9.161   8.483  67.182  1.00  0.00    -0.140 C  
ATOM     13  N   CYS A   1      -8.822   8.858  68.593  1.00  0.00    -0.137 NA 
ATOM     14  C   CYS A   1      -8.942   9.711  66.298  1.00  0.00    -0.155 C  
ATOM     15  H2  CYS A   1      -9.059   8.104  69.238  1.00  0.00     0.000 HD 
ATOM     16  H1  CYS A   1      -7.848   9.142  68.708  1.00  0.00     0.000 HD 
ATOM     17  OXT CYS A   1      -8.832   9.693  65.083  1.00  0.00    -0.156 OA 
ATOM     18  O   CYS A   1      -8.933  10.856  67.033  1.00  0.00    -0.141 OA 
ENDBRANCH  11  12
ENDBRANCH  10  11
ENDBRANCH   9  10
ENDBRANCH   8   9
ENDBRANCH   3   8
TORSDOF 5
ENDMDL
MODEL      343
REMARK 921   NORMALIZED FREE ENERGY PREDICTED BY IDOCK:   -1.68 KCAL/MOL
REMARK 922        TOTAL FREE ENERGY PREDICTED BY IDOCK:   -2.78 KCAL/MOL
REMARK 923 INTER-LIGAND FREE ENERGY PREDICTED BY IDOCK:   -2.50 KCAL/MOL
REMARK 924 INTRA-LIGAND FREE ENERGY PREDICTED BY IDOCK:   -0.29 KCAL/MOL
REMARK 927      BINDING AFFINITY PREDICTED BY RF-SCORE:    0.00 PKD
ROOT
ATOM      1  N   CYS A   1      -8.426   4.099  74.128  1.00  0.00    -0.094 NA 
ATOM      2  H2  CYS A   1      -8.831   4.606  74.915  1.00  0.00     0.000 HD 
ATOM      3  CA  CYS A   1      -9.486   3.749  73.130  1.00  0.00    -0.109 C  
ATOM      4  H1  CYS A   1      -7.881   3.304  74.462  1.00  0.00     0.000 HD 
ATOM      5  O   CYS A   1      -7.607   2.526  72.308  1.00  0.00    -0.049 OA 
ATOM      6  C   CYS A   1      -8.802   3.058  71.941  1.00  0.00    -0.082 C  
ATOM      7  OXT CYS A   1      -9.259   2.970  70.813  1.00  0.00    -0.109 OA 
ENDROOT
BRANCH   3   8
ATOM      8  CB  CYS A   1     -10.307   4.946  72.628  1.00  0.00    -0.197 C  
BRANCH   8   9
ATOM      9  SG  CYS A   1      -9.290   6.465  72.553  1.00  0.00    -0.144 SA 
BRANCH   9  10
ATOM     10  SG  CYS A   1      -9.391   6.945  70.554  1.00  0.00    -0.158 SA 
BRANCH  10  11
ATOM     11  CB  CYS A   1      -9.175   8.760  70.595  1.00  0.00    -0.196 C  
BRANCH  11  12
ATOM     12  CA  CYS A   1     -10.496   9.493  70.319  1.00  0.00    -0.268 C  
ATOM     13  N   CYS A   1     -11.670   8.567  70.208  1.00  0.00    -0.471 NA 
ATOM     14  C   CYS A   1     -10.337  10.221  68.983  1.00  0.00    -0.211 C  
ATOM     15  H2  CYS A   1     -11.747   7.977  71.037  1.00  0.00     0.000 HD 
ATOM     16  H1  CYS A   1     -12.547   9.055  70.024  1.00  0.00     0.000 HD 
ATOM     17  OXT CYS A   1      -9.690  11.241  68.811  1.00  0.00    -0.205 OA 
ATOM     18  O   CYS A   1     -10.971   9.558  67.979  1.00  0.00    -0.203 OA 
ENDBRANCH  11  12
ENDBRANCH  10  11
ENDBRANCH   9  10
ENDBRANCH   8   9
ENDBRANCH   3   8
TORSDOF 5
ENDMDL
MODEL      344
REMARK 921   NORMALIZED FREE ENERGY PREDICTED BY IDOCK:   -1.67 KCAL/MOL
REMARK 922        TOTAL FREE ENERGY PREDICTED BY IDOCK:   -2.77 KCAL/MOL
REMARK 923 INTER-LIGAND FREE ENERGY PREDICTED BY IDOCK:   -2.57 KCAL/MOL
REMARK 924 INTRA-LIGAND FREE ENERGY PREDICTED BY IDOCK:   -0.21 KCAL/MOL
REMARK 927      BINDING AFFINITY PREDICTED BY RF-SCORE:    0.00 PKD
ROOT
ATOM      1  N   CYS A   1     -10.429   7.067  70.308  1.00  0.00    -0.204 NA 
ATOM      2  H2  CYS A   1     -10.158   6.099  70.135  1.00  0.00     0.000 HD 
ATOM      3  CA  CYS A   1     -11.769   7.125  70.974  1.00  0.00    -0.320 C  
ATOM      4  H1  CYS A   1     -10.360   7.614  69.449  1.00  0.00     0.000 HD 
ATOM      5  O   CYS A   1     -11.371   9.422  70.462  1.00  0.00    -0.256 OA 
ATOM      6  C   CYS A   1     -12.082   8.599  71.274  1.00  0.00    -0.290 C  
ATOM      7  OXT CYS A   1     -12.873   8.999  72.112  1.00  0.00    -0.361 OA 
ENDROOT
BRANCH   3   8
ATOM      8  CB  CYS A   1     -11.873   6.302  72.266  1.00  0.00    -0.278 C  
BRANCH   8   9
ATOM      9  SG  CYS A   1     -10.456   6.629  73.378  1.00  0.00    -0.311 SA 
BRANCH   9  10
ATOM     10  SG  CYS A   1      -8.994   5.431  72.565  1.00  0.00    -0.133 SA 
BRANCH  10  11
ATOM     11  CB  CYS A   1      -7.540   6.539  72.604  1.00  0.00    -0.101 C  
BRANCH  11  12
ATOM     12  CA  CYS A   1      -6.994   6.805  71.194  1.00  0.00    -0.070 C  
ATOM     13  N   CYS A   1      -5.551   6.428  71.042  1.00  0.00    -0.025 NA 
ATOM     14  C   CYS A   1      -7.122   8.308  70.937  1.00  0.00    -0.053 C  
ATOM     15  H2  CYS A   1      -5.398   5.456  71.314  1.00  0.00     0.000 HD 
ATOM     16  H1  CYS A   1      -5.189   6.605  70.105  1.00  0.00     0.000 HD 
ATOM     17  OXT CYS A   1      -8.162   8.892  70.686  1.00  0.00    -0.127 OA 
ATOM     18  O   CYS A   1      -5.924   8.937  71.075  1.00  0.00    -0.036 OA 
ENDBRANCH  11  12
ENDBRANCH  10  11
ENDBRANCH   9  10
ENDBRANCH   8   9
ENDBRANCH   3   8
TORSDOF 5
ENDMDL
MODEL      345
REMARK 921   NORMALIZED FREE ENERGY PREDICTED BY IDOCK:   -1.66 KCAL/MOL
REMARK 922        TOTAL FREE ENERGY PREDICTED BY IDOCK:   -2.76 KCAL/MOL
REMARK 923 INTER-LIGAND FREE ENERGY PREDICTED BY IDOCK:   -2.44 KCAL/MOL
REMARK 924 INTRA-LIGAND FREE ENERGY PREDICTED BY IDOCK:   -0.32 KCAL/MOL
REMARK 927      BINDING AFFINITY PREDICTED BY RF-SCORE:    0.00 PKD
ROOT
ATOM      1  N   CYS A   1      -7.854   7.469  67.110  1.00  0.00    -0.115 NA 
ATOM      2  H2  CYS A   1      -8.274   7.767  67.991  1.00  0.00     0.000 HD 
ATOM      3  CA  CYS A   1      -8.155   6.025  66.849  1.00  0.00    -0.105 C  
ATOM      4  H1  CYS A   1      -6.861   7.703  67.093  1.00  0.00     0.000 HD 
ATOM      5  O   CYS A   1      -6.565   6.518  65.137  1.00  0.00    -0.038 OA 
ATOM      6  C   CYS A   1      -7.563   5.662  65.478  1.00  0.00    -0.083 C  
ATOM      7  OXT CYS A   1      -7.912   4.724  64.781  1.00  0.00    -0.089 OA 
ENDROOT
BRANCH   3   8
ATOM      8  CB  CYS A   1      -9.649   5.672  66.875  1.00  0.00    -0.141 C  
BRANCH   8   9
ATOM      9  SG  CYS A   1     -10.446   6.266  68.412  1.00  0.00    -0.256 SA 
BRANCH   9  10
ATOM     10  SG  CYS A   1      -9.274   5.393  69.862  1.00  0.00    -0.142 SA 
BRANCH  10  11
ATOM     11  CB  CYS A   1      -9.039   6.777  71.033  1.00  0.00    -0.156 C  
BRANCH  11  12
ATOM     12  CA  CYS A   1      -9.968   6.653  72.250  1.00  0.00    -0.166 C  
ATOM     13  N   CYS A   1     -10.548   5.280  72.407  1.00  0.00    -0.218 NA 
ATOM     14  C   CYS A   1     -11.121   7.635  72.040  1.00  0.00    -0.255 C  
ATOM     15  H2  CYS A   1      -9.812   4.574  72.437  1.00  0.00     0.000 HD 
ATOM     16  H1  CYS A   1     -11.165   5.197  73.216  1.00  0.00     0.000 HD 
ATOM     17  OXT CYS A   1     -11.047   8.846  72.172  1.00  0.00    -0.362 OA 
ATOM     18  O   CYS A   1     -12.249   6.995  71.630  1.00  0.00    -0.319 OA 
ENDBRANCH  11  12
ENDBRANCH  10  11
ENDBRANCH   9  10
ENDBRANCH   8   9
ENDBRANCH   3   8
TORSDOF 5
ENDMDL
MODEL      346
REMARK 921   NORMALIZED FREE ENERGY PREDICTED BY IDOCK:   -1.66 KCAL/MOL
REMARK 922        TOTAL FREE ENERGY PREDICTED BY IDOCK:   -2.76 KCAL/MOL
REMARK 923 INTER-LIGAND FREE ENERGY PREDICTED BY IDOCK:   -2.21 KCAL/MOL
REMARK 924 INTRA-LIGAND FREE ENERGY PREDICTED BY IDOCK:   -0.56 KCAL/MOL
REMARK 927      BINDING AFFINITY PREDICTED BY RF-SCORE:    0.00 PKD
ROOT
ATOM      1  N   CYS A   1      -9.332   5.414  68.955  1.00  0.00    -0.123 NA 
ATOM      2  H2  CYS A   1      -9.461   6.413  68.795  1.00  0.00     0.000 HD 
ATOM      3  CA  CYS A   1      -9.179   5.134  70.419  1.00  0.00    -0.148 C  
ATOM      4  H1  CYS A   1      -8.572   5.056  68.375  1.00  0.00     0.000 HD 
ATOM      5  O   CYS A   1      -8.645   3.018  69.451  1.00  0.00    -0.059 OA 
ATOM      6  C   CYS A   1      -9.066   3.612  70.597  1.00  0.00    -0.114 C  
ATOM      7  OXT CYS A   1      -9.300   3.000  71.626  1.00  0.00    -0.105 OA 
ENDROOT
BRANCH   3   8
ATOM      8  CB  CYS A   1     -10.322   5.672  71.291  1.00  0.00    -0.228 C  
BRANCH   8   9
ATOM      9  SG  CYS A   1     -11.150   7.099  70.498  1.00  0.00    -0.280 SA 
BRANCH   9  10
ATOM     10  SG  CYS A   1     -10.353   8.685  71.540  1.00  0.00    -0.299 SA 
BRANCH  10  11
ATOM     11  CB  CYS A   1      -9.682   9.719  70.190  1.00  0.00    -0.248 C  
BRANCH  11  12
ATOM     12  CA  CYS A   1      -8.467   9.059  69.522  1.00  0.00    -0.125 C  
ATOM     13  N   CYS A   1      -7.192   9.816  69.744  1.00  0.00    -0.089 NA 
ATOM     14  C   CYS A   1      -8.743   9.024  68.018  1.00  0.00    -0.129 C  
ATOM     15  H2  CYS A   1      -7.025   9.963  70.740  1.00  0.00     0.000 HD 
ATOM     16  H1  CYS A   1      -6.385   9.377  69.300  1.00  0.00     0.000 HD 
ATOM     17  OXT CYS A   1      -9.512   8.258  67.461  1.00  0.00    -0.144 OA 
ATOM     18  O   CYS A   1      -8.055   9.999  67.365  1.00  0.00    -0.113 OA 
ENDBRANCH  11  12
ENDBRANCH  10  11
ENDBRANCH   9  10
ENDBRANCH   8   9
ENDBRANCH   3   8
TORSDOF 5
ENDMDL
MODEL      347
REMARK 921   NORMALIZED FREE ENERGY PREDICTED BY IDOCK:   -1.63 KCAL/MOL
REMARK 922        TOTAL FREE ENERGY PREDICTED BY IDOCK:   -2.73 KCAL/MOL
REMARK 923 INTER-LIGAND FREE ENERGY PREDICTED BY IDOCK:   -2.33 KCAL/MOL
REMARK 924 INTRA-LIGAND FREE ENERGY PREDICTED BY IDOCK:   -0.40 KCAL/MOL
REMARK 927      BINDING AFFINITY PREDICTED BY RF-SCORE:    0.00 PKD
ROOT
ATOM      1  N   CYS A   1      -9.967   8.742  66.668  1.00  0.00    -0.263 NA 
ATOM      2  H2  CYS A   1     -10.021   8.124  67.478  1.00  0.00     0.000 HD 
ATOM      3  CA  CYS A   1      -9.779  10.162  67.104  1.00  0.00    -0.173 C  
ATOM      4  H1  CYS A   1     -10.768   8.591  66.054  1.00  0.00     0.000 HD 
ATOM      5  O   CYS A   1     -10.183  10.411  64.764  1.00  0.00    -0.345 OA 
ATOM      6  C   CYS A   1      -9.630  11.025  65.842  1.00  0.00    -0.218 C  
ATOM      7  OXT CYS A   1      -9.106  12.127  65.794  1.00  0.00    -0.096 OA 
ENDROOT
BRANCH   3   8
ATOM      8  CB  CYS A   1      -8.574  10.389  68.028  1.00  0.00    -0.123 C  
BRANCH   8   9
ATOM      9  SG  CYS A   1      -7.698   8.820  68.376  1.00  0.00    -0.097 SA 
BRANCH   9  10
ATOM     10  SG  CYS A   1      -7.566   8.854  70.430  1.00  0.00    -0.102 SA 
BRANCH  10  11
ATOM     11  CB  CYS A   1      -8.782   7.574  70.903  1.00  0.00    -0.142 C  
BRANCH  11  12
ATOM     12  CA  CYS A   1      -9.304   6.809  69.678  1.00  0.00    -0.144 C  
ATOM     13  N   CYS A   1     -10.800   6.784  69.596  1.00  0.00    -0.252 NA 
ATOM     14  C   CYS A   1      -8.810   5.366  69.803  1.00  0.00    -0.110 C  
ATOM     15  H2  CYS A   1     -11.182   7.730  69.624  1.00  0.00     0.000 HD 
ATOM     16  H1  CYS A   1     -11.146   6.275  68.782  1.00  0.00     0.000 HD 
ATOM     17  OXT CYS A   1      -7.667   4.994  69.597  1.00  0.00    -0.063 OA 
ATOM     18  O   CYS A   1      -9.802   4.539  70.230  1.00  0.00    -0.203 OA 
ENDBRANCH  11  12
ENDBRANCH  10  11
ENDBRANCH   9  10
ENDBRANCH   8   9
ENDBRANCH   3   8
TORSDOF 5
ENDMDL
MODEL      348
REMARK 921   NORMALIZED FREE ENERGY PREDICTED BY IDOCK:   -1.61 KCAL/MOL
REMARK 922        TOTAL FREE ENERGY PREDICTED BY IDOCK:   -2.70 KCAL/MOL
REMARK 923 INTER-LIGAND FREE ENERGY PREDICTED BY IDOCK:   -2.35 KCAL/MOL
REMARK 924 INTRA-LIGAND FREE ENERGY PREDICTED BY IDOCK:   -0.35 KCAL/MOL
REMARK 927      BINDING AFFINITY PREDICTED BY RF-SCORE:    0.00 PKD
ROOT
ATOM      1  N   CYS A   1      -9.467   5.216  67.955  1.00  0.00    -0.124 NA 
ATOM      2  H2  CYS A   1      -9.680   6.197  68.140  1.00  0.00     0.000 HD 
ATOM      3  CA  CYS A   1      -8.698   5.081  66.676  1.00  0.00    -0.108 C  
ATOM      4  H1  CYS A   1     -10.317   4.654  67.997  1.00  0.00     0.000 HD 
ATOM      5  O   CYS A   1      -9.193   2.805  67.200  1.00  0.00    -0.169 OA 
ATOM      6  C   CYS A   1      -8.345   3.597  66.495  1.00  0.00    -0.104 C  
ATOM      7  OXT CYS A   1      -7.440   3.163  65.800  1.00  0.00    -0.071 OA 
ENDROOT
BRANCH   3   8
ATOM      8  CB  CYS A   1      -7.419   5.927  66.611  1.00  0.00    -0.087 C  
BRANCH   8   9
ATOM      9  SG  CYS A   1      -7.629   7.520  67.487  1.00  0.00    -0.115 SA 
BRANCH   9  10
ATOM     10  SG  CYS A   1      -8.855   8.555  66.197  1.00  0.00    -0.177 SA 
BRANCH  10  11
ATOM     11  CB  CYS A   1     -10.455   8.502  67.080  1.00  0.00    -0.292 C  
BRANCH  11  12
ATOM     12  CA  CYS A   1     -10.695   9.781  67.894  1.00  0.00    -0.258 C  
ATOM     13  N   CYS A   1      -9.811  10.918  67.475  1.00  0.00    -0.167 NA 
ATOM     14  C   CYS A   1     -10.385   9.452  69.355  1.00  0.00    -0.212 C  
ATOM     15  H2  CYS A   1      -9.902  11.100  66.475  1.00  0.00     0.000 HD 
ATOM     16  H1  CYS A   1      -9.971  11.768  68.016  1.00  0.00     0.000 HD 
ATOM     17  OXT CYS A   1     -11.102   8.800  70.096  1.00  0.00    -0.251 OA 
ATOM     18  O   CYS A   1      -9.169   9.936  69.725  1.00  0.00    -0.213 OA 
ENDBRANCH  11  12
ENDBRANCH  10  11
ENDBRANCH   9  10
ENDBRANCH   8   9
ENDBRANCH   3   8
TORSDOF 5
ENDMDL
MODEL      349
REMARK 921   NORMALIZED FREE ENERGY PREDICTED BY IDOCK:   -1.60 KCAL/MOL
REMARK 922        TOTAL FREE ENERGY PREDICTED BY IDOCK:   -2.68 KCAL/MOL
REMARK 923 INTER-LIGAND FREE ENERGY PREDICTED BY IDOCK:   -2.30 KCAL/MOL
REMARK 924 INTRA-LIGAND FREE ENERGY PREDICTED BY IDOCK:   -0.38 KCAL/MOL
REMARK 927      BINDING AFFINITY PREDICTED BY RF-SCORE:    0.00 PKD
ROOT
ATOM      1  N   CYS A   1      -9.429   7.907  69.823  1.00  0.00    -0.163 NA 
ATOM      2  H2  CYS A   1      -9.605   8.358  68.926  1.00  0.00     0.000 HD 
ATOM      3  CA  CYS A   1     -10.694   7.318  70.369  1.00  0.00    -0.236 C  
ATOM      4  H1  CYS A   1      -8.955   8.550  70.457  1.00  0.00     0.000 HD 
ATOM      5  O   CYS A   1      -9.197   7.076  72.214  1.00  0.00    -0.134 OA 
ATOM      6  C   CYS A   1     -10.347   6.591  71.678  1.00  0.00    -0.207 C  
ATOM      7  OXT CYS A   1     -11.010   5.708  72.196  1.00  0.00    -0.239 OA 
ENDROOT
BRANCH   3   8
ATOM      8  CB  CYS A   1     -11.408   6.349  69.416  1.00  0.00    -0.377 C  
BRANCH   8   9
ATOM      9  SG  CYS A   1     -10.337   5.898  68.002  1.00  0.00    -0.227 SA 
BRANCH   9  10
ATOM     10  SG  CYS A   1      -9.292   4.293  68.757  1.00  0.00    -0.162 SA 
BRANCH  10  11
ATOM     11  CB  CYS A   1      -9.470   3.067  67.413  1.00  0.00    -0.111 C  
BRANCH  11  12
ATOM     12  CA  CYS A   1      -8.162   2.894  66.627  1.00  0.00    -0.087 C  
ATOM     13  N   CYS A   1      -6.960   3.399  67.369  1.00  0.00    -0.053 NA 
ATOM     14  C   CYS A   1      -8.300   3.706  65.338  1.00  0.00    -0.105 C  
ATOM     15  H2  CYS A   1      -6.892   2.964  68.289  1.00  0.00     0.000 HD 
ATOM     16  H1  CYS A   1      -6.092   3.284  66.846  1.00  0.00     0.000 HD 
ATOM     17  OXT CYS A   1      -8.968   3.381  64.370  1.00  0.00    -0.116 OA 
ATOM     18  O   CYS A   1      -7.618   4.880  65.416  1.00  0.00    -0.083 OA 
ENDBRANCH  11  12
ENDBRANCH  10  11
ENDBRANCH   9  10
ENDBRANCH   8   9
ENDBRANCH   3   8
TORSDOF 5
ENDMDL
MODEL      350
REMARK 921   NORMALIZED FREE ENERGY PREDICTED BY IDOCK:   -1.60 KCAL/MOL
REMARK 922        TOTAL FREE ENERGY PREDICTED BY IDOCK:   -2.68 KCAL/MOL
REMARK 923 INTER-LIGAND FREE ENERGY PREDICTED BY IDOCK:   -2.46 KCAL/MOL
REMARK 924 INTRA-LIGAND FREE ENERGY PREDICTED BY IDOCK:   -0.22 KCAL/MOL
REMARK 927      BINDING AFFINITY PREDICTED BY RF-SCORE:    0.00 PKD
ROOT
ATOM      1  N   CYS A   1      -9.601   8.138  69.806  1.00  0.00    -0.170 NA 
ATOM      2  H2  CYS A   1      -9.727   8.493  68.857  1.00  0.00     0.000 HD 
ATOM      3  CA  CYS A   1     -10.847   7.453  70.277  1.00  0.00    -0.245 C  
ATOM      4  H1  CYS A   1      -9.270   8.881  70.421  1.00  0.00     0.000 HD 
ATOM      5  O   CYS A   1      -9.540   7.534  72.273  1.00  0.00    -0.147 OA 
ATOM      6  C   CYS A   1     -10.567   6.878  71.674  1.00  0.00    -0.209 C  
ATOM      7  OXT CYS A   1     -11.184   5.968  72.203  1.00  0.00    -0.263 OA 
ENDROOT
BRANCH   3   8
ATOM      8  CB  CYS A   1     -11.346   6.335  69.350  1.00  0.00    -0.378 C  
BRANCH   8   9
ATOM      9  SG  CYS A   1     -10.578   6.451  67.693  1.00  0.00    -0.314 SA 
BRANCH   9  10
ATOM     10  SG  CYS A   1      -9.456   4.727  67.624  1.00  0.00    -0.155 SA 
BRANCH  10  11
ATOM     11  CB  CYS A   1      -8.541   4.814  69.204  1.00  0.00    -0.080 C  
BRANCH  11  12
ATOM     12  CA  CYS A   1      -7.948   3.452  69.590  1.00  0.00    -0.049 C  
ATOM     13  N   CYS A   1      -7.197   2.799  68.469  1.00  0.00    -0.048 NA 
ATOM     14  C   CYS A   1      -9.117   2.543  69.972  1.00  0.00    -0.113 C  
ATOM     15  H2  CYS A   1      -6.474   3.421  68.105  1.00  0.00     0.000 HD 
ATOM     16  H1  CYS A   1      -6.802   1.894  68.727  1.00  0.00     0.000 HD 
ATOM     17  OXT CYS A   1      -9.747   2.607  71.015  1.00  0.00    -0.152 OA 
ATOM     18  O   CYS A   1      -9.412   1.669  68.972  1.00  0.00    -0.137 OA 
ENDBRANCH  11  12
ENDBRANCH  10  11
ENDBRANCH   9  10
ENDBRANCH   8   9
ENDBRANCH   3   8
TORSDOF 5
ENDMDL
MODEL      351
REMARK 921   NORMALIZED FREE ENERGY PREDICTED BY IDOCK:   -1.54 KCAL/MOL
REMARK 922        TOTAL FREE ENERGY PREDICTED BY IDOCK:   -2.60 KCAL/MOL
REMARK 923 INTER-LIGAND FREE ENERGY PREDICTED BY IDOCK:   -2.46 KCAL/MOL
REMARK 924 INTRA-LIGAND FREE ENERGY PREDICTED BY IDOCK:   -0.14 KCAL/MOL
REMARK 927      BINDING AFFINITY PREDICTED BY RF-SCORE:    0.00 PKD
ROOT
ATOM      1  N   CYS A   1      -8.161   4.178  69.314  1.00  0.00    -0.065 NA 
ATOM      2  H2  CYS A   1      -8.065   5.034  69.860  1.00  0.00     0.000 HD 
ATOM      3  CA  CYS A   1      -8.719   4.484  67.957  1.00  0.00    -0.104 C  
ATOM      4  H1  CYS A   1      -8.687   3.479  69.838  1.00  0.00     0.000 HD 
ATOM      5  O   CYS A   1      -8.785   2.098  67.994  1.00  0.00    -0.077 OA 
ATOM      6  C   CYS A   1      -8.767   3.170  67.162  1.00  0.00    -0.123 C  
ATOM      7  OXT CYS A   1      -8.803   3.079  65.946  1.00  0.00    -0.129 OA 
ENDROOT
BRANCH   3   8
ATOM      8  CB  CYS A   1      -7.927   5.536  67.167  1.00  0.00    -0.102 C  
BRANCH   8   9
ATOM      9  SG  CYS A   1      -7.505   6.976  68.215  1.00  0.00    -0.101 SA 
BRANCH   9  10
ATOM     10  SG  CYS A   1      -7.761   8.543  66.906  1.00  0.00    -0.092 SA 
BRANCH  10  11
ATOM     11  CB  CYS A   1      -9.409   9.168  67.392  1.00  0.00    -0.134 C  
BRANCH  11  12
ATOM     12  CA  CYS A   1      -9.402  10.691  67.587  1.00  0.00    -0.146 C  
ATOM     13  N   CYS A   1      -9.606  11.102  69.014  1.00  0.00    -0.382 NA 
ATOM     14  C   CYS A   1     -10.558  11.257  66.760  1.00  0.00    -0.260 C  
ATOM     15  H2  CYS A   1      -8.920  10.654  69.623  1.00  0.00     0.000 HD 
ATOM     16  H1  CYS A   1      -9.601  12.114  69.143  1.00  0.00     0.000 HD 
ATOM     17  OXT CYS A   1     -10.563  11.374  65.546  1.00  0.00    -0.268 OA 
ATOM     18  O   CYS A   1     -11.621  11.574  67.547  1.00  0.00    -0.477 OA 
ENDBRANCH  11  12
ENDBRANCH  10  11
ENDBRANCH   9  10
ENDBRANCH   8   9
ENDBRANCH   3   8
TORSDOF 5
ENDMDL
MODEL      352
REMARK 921   NORMALIZED FREE ENERGY PREDICTED BY IDOCK:   -1.52 KCAL/MOL
REMARK 922        TOTAL FREE ENERGY PREDICTED BY IDOCK:   -2.58 KCAL/MOL
REMARK 923 INTER-LIGAND FREE ENERGY PREDICTED BY IDOCK:   -2.37 KCAL/MOL
REMARK 924 INTRA-LIGAND FREE ENERGY PREDICTED BY IDOCK:   -0.21 KCAL/MOL
REMARK 927      BINDING AFFINITY PREDICTED BY RF-SCORE:    0.00 PKD
ROOT
ATOM      1  N   CYS A   1     -10.087   8.132  66.327  1.00  0.00    -0.479 NA 
ATOM      2  H2  CYS A   1     -10.225   7.253  65.827  1.00  0.00     0.000 HD 
ATOM      3  CA  CYS A   1      -9.499   7.877  67.681  1.00  0.00    -0.144 C  
ATOM      4  H1  CYS A   1     -10.952   8.673  66.338  1.00  0.00     0.000 HD 
ATOM      5  O   CYS A   1     -10.036  10.200  67.803  1.00  0.00    -0.165 OA 
ATOM      6  C   CYS A   1      -9.248   9.238  68.348  1.00  0.00    -0.131 C  
ATOM      7  OXT CYS A   1      -8.464   9.446  69.260  1.00  0.00    -0.127 OA 
ENDROOT
BRANCH   3   8
ATOM      8  CB  CYS A   1      -8.198   7.063  67.665  1.00  0.00    -0.117 C  
BRANCH   8   9
ATOM      9  SG  CYS A   1      -8.066   6.048  66.147  1.00  0.00    -0.114 SA 
BRANCH   9  10
ATOM     10  SG  CYS A   1      -7.454   4.233  66.902  1.00  0.00    -0.081 SA 
BRANCH  10  11
ATOM     11  CB  CYS A   1      -8.751   3.110  66.270  1.00  0.00    -0.131 C  
BRANCH  11  12
ATOM     12  CA  CYS A   1      -9.116   3.431  64.813  1.00  0.00    -0.136 C  
ATOM     13  N   CYS A   1     -10.579   3.696  64.620  1.00  0.00    -0.478 NA 
ATOM     14  C   CYS A   1      -8.740   2.209  63.975  1.00  0.00    -0.091 C  
ATOM     15  H2  CYS A   1     -10.901   4.434  65.247  1.00  0.00     0.000 HD 
ATOM     16  H1  CYS A   1     -10.821   3.909  63.652  1.00  0.00     0.000 HD 
ATOM     17  OXT CYS A   1      -7.604   1.894  63.660  1.00  0.00    -0.056 OA 
ATOM     18  O   CYS A   1      -9.836   1.470  63.656  1.00  0.00    -0.119 OA 
ENDBRANCH  11  12
ENDBRANCH  10  11
ENDBRANCH   9  10
ENDBRANCH   8   9
ENDBRANCH   3   8
TORSDOF 5
ENDMDL
MODEL      353
REMARK 921   NORMALIZED FREE ENERGY PREDICTED BY IDOCK:   -1.48 KCAL/MOL
REMARK 922        TOTAL FREE ENERGY PREDICTED BY IDOCK:   -2.53 KCAL/MOL
REMARK 923 INTER-LIGAND FREE ENERGY PREDICTED BY IDOCK:   -2.37 KCAL/MOL
REMARK 924 INTRA-LIGAND FREE ENERGY PREDICTED BY IDOCK:   -0.16 KCAL/MOL
REMARK 927      BINDING AFFINITY PREDICTED BY RF-SCORE:    0.00 PKD
ROOT
ATOM      1  N   CYS A   1      -7.838  15.139  69.933  1.00  0.00    -0.314 NA 
ATOM      2  H2  CYS A   1      -8.767  15.561  69.948  1.00  0.00     0.000 HD 
ATOM      3  CA  CYS A   1      -7.743  14.120  68.839  1.00  0.00    -0.091 C  
ATOM      4  H1  CYS A   1      -7.592  14.788  70.859  1.00  0.00     0.000 HD 
ATOM      5  O   CYS A   1      -5.701  13.766  70.024  1.00  0.00    -0.108 OA 
ATOM      6  C   CYS A   1      -6.305  13.581  68.822  1.00  0.00    -0.093 C  
ATOM      7  OXT CYS A   1      -5.762  13.038  67.873  1.00  0.00    -0.100 OA 
ENDROOT
BRANCH   3   8
ATOM      8  CB  CYS A   1      -8.113  14.648  67.445  1.00  0.00    -0.196 C  
BRANCH   8   9
ATOM      9  SG  CYS A   1      -9.754  14.036  66.915  1.00  0.00    -0.280 SA 
BRANCH   9  10
ATOM     10  SG  CYS A   1      -9.375  12.041  66.579  1.00  0.00    -0.224 SA 
BRANCH  10  11
ATOM     11  CB  CYS A   1     -10.858  11.253  67.300  1.00  0.00    -0.267 C  
BRANCH  11  12
ATOM     12  CA  CYS A   1     -10.584  10.716  68.713  1.00  0.00    -0.206 C  
ATOM     13  N   CYS A   1     -10.244  11.795  69.696  1.00  0.00    -0.082 NA 
ATOM     14  C   CYS A   1      -9.386   9.771  68.611  1.00  0.00    -0.147 C  
ATOM     15  H2  CYS A   1     -10.969  12.513  69.713  1.00  0.00     0.000 HD 
ATOM     16  H1  CYS A   1     -10.062  11.438  70.633  1.00  0.00     0.000 HD 
ATOM     17  OXT CYS A   1      -9.416   8.643  68.147  1.00  0.00    -0.139 OA 
ATOM     18  O   CYS A   1      -8.247  10.364  69.061  1.00  0.00    -0.121 OA 
ENDBRANCH  11  12
ENDBRANCH  10  11
ENDBRANCH   9  10
ENDBRANCH   8   9
ENDBRANCH   3   8
TORSDOF 5
ENDMDL
MODEL      354
REMARK 921   NORMALIZED FREE ENERGY PREDICTED BY IDOCK:   -1.47 KCAL/MOL
REMARK 922        TOTAL FREE ENERGY PREDICTED BY IDOCK:   -2.51 KCAL/MOL
REMARK 923 INTER-LIGAND FREE ENERGY PREDICTED BY IDOCK:   -2.50 KCAL/MOL
REMARK 924 INTRA-LIGAND FREE ENERGY PREDICTED BY IDOCK:   -0.02 KCAL/MOL
REMARK 927      BINDING AFFINITY PREDICTED BY RF-SCORE:    0.00 PKD
ROOT
ATOM      1  N   CYS A   1      -6.476   5.406  67.631  1.00  0.00    -0.046 NA 
ATOM      2  H2  CYS A   1      -5.841   5.655  66.873  1.00  0.00     0.000 HD 
ATOM      3  CA  CYS A   1      -6.467   6.464  68.691  1.00  0.00    -0.049 C  
ATOM      4  H1  CYS A   1      -6.271   4.466  67.971  1.00  0.00     0.000 HD 
ATOM      5  O   CYS A   1      -7.736   4.730  69.732  1.00  0.00    -0.058 OA 
ATOM      6  C   CYS A   1      -7.496   6.067  69.761  1.00  0.00    -0.080 C  
ATOM      7  OXT CYS A   1      -8.024   6.829  70.554  1.00  0.00    -0.110 OA 
ENDROOT
BRANCH   3   8
ATOM      8  CB  CYS A   1      -6.776   7.879  68.180  1.00  0.00    -0.064 C  
BRANCH   8   9
ATOM      9  SG  CYS A   1      -8.547   8.061  67.755  1.00  0.00    -0.128 SA 
BRANCH   9  10
ATOM     10  SG  CYS A   1      -8.954   9.958  68.442  1.00  0.00    -0.121 SA 
BRANCH  10  11
ATOM     11  CB  CYS A   1     -10.372   9.654  69.556  1.00  0.00    -0.221 C  
BRANCH  11  12
ATOM     12  CA  CYS A   1     -11.656  10.311  69.030  1.00  0.00    -0.081 C  
ATOM     13  N   CYS A   1     -11.535  10.785  67.613  1.00  0.00    -0.532 NA 
ATOM     14  C   CYS A   1     -11.937  11.526  69.915  1.00  0.00    -0.351 C  
ATOM     15  H2  CYS A   1     -11.236  10.026  66.999  1.00  0.00     0.000 HD 
ATOM     16  H1  CYS A   1     -12.389  11.221  67.264  1.00  0.00     0.000 HD 
ATOM     17  OXT CYS A   1     -12.380  11.481  71.051  1.00  0.00    -0.371 OA 
ATOM     18  O   CYS A   1     -11.581  12.683  69.296  1.00  0.00    -0.285 OA 
ENDBRANCH  11  12
ENDBRANCH  10  11
ENDBRANCH   9  10
ENDBRANCH   8   9
ENDBRANCH   3   8
TORSDOF 5
ENDMDL
MODEL      355
REMARK 921   NORMALIZED FREE ENERGY PREDICTED BY IDOCK:   -1.46 KCAL/MOL
REMARK 922        TOTAL FREE ENERGY PREDICTED BY IDOCK:   -2.50 KCAL/MOL
REMARK 923 INTER-LIGAND FREE ENERGY PREDICTED BY IDOCK:   -2.98 KCAL/MOL
REMARK 924 INTRA-LIGAND FREE ENERGY PREDICTED BY IDOCK:    0.48 KCAL/MOL
REMARK 927      BINDING AFFINITY PREDICTED BY RF-SCORE:    0.00 PKD
ROOT
ATOM      1  N   CYS A   1     -12.018  14.999  67.832  1.00  0.00    -0.499 NA 
ATOM      2  H2  CYS A   1     -12.964  14.853  68.184  1.00  0.00     0.000 HD 
ATOM      3  CA  CYS A   1     -11.019  14.853  68.939  1.00  0.00    -0.251 C  
ATOM      4  H1  CYS A   1     -11.960  15.882  67.325  1.00  0.00     0.000 HD 
ATOM      5  O   CYS A   1      -9.667  15.694  67.160  1.00  0.00    -0.220 OA 
ATOM      6  C   CYS A   1      -9.617  15.008  68.331  1.00  0.00    -0.212 C  
ATOM      7  OXT CYS A   1      -8.580  14.595  68.825  1.00  0.00    -0.165 OA 
ENDROOT
BRANCH   3   8
ATOM      8  CB  CYS A   1     -11.106  13.523  69.702  1.00  0.00     0.019 C  
BRANCH   8   9
ATOM      9  SG  CYS A   1     -11.759  12.186  68.637  1.00  0.00    -0.326 SA 
BRANCH   9  10
ATOM     10  SG  CYS A   1     -10.048  11.140  68.172  1.00  0.00    -0.186 SA 
BRANCH  10  11
ATOM     11  CB  CYS A   1     -10.502   9.442  68.673  1.00  0.00    -0.209 C  
BRANCH  11  12
ATOM     12  CA  CYS A   1     -10.432   8.465  67.491  1.00  0.00    -0.257 C  
ATOM     13  N   CYS A   1      -9.911   7.113  67.877  1.00  0.00    -0.148 NA 
ATOM     14  C   CYS A   1      -9.474   9.068  66.463  1.00  0.00    -0.206 C  
ATOM     15  H2  CYS A   1     -10.456   6.718  68.644  1.00  0.00     0.000 HD 
ATOM     16  H1  CYS A   1      -9.865   6.464  67.091  1.00  0.00     0.000 HD 
ATOM     17  OXT CYS A   1      -9.733  10.004  65.724  1.00  0.00    -0.218 OA 
ATOM     18  O   CYS A   1      -8.257   8.462  66.505  1.00  0.00    -0.102 OA 
ENDBRANCH  11  12
ENDBRANCH  10  11
ENDBRANCH   9  10
ENDBRANCH   8   9
ENDBRANCH   3   8
TORSDOF 5
ENDMDL
MODEL      356
REMARK 921   NORMALIZED FREE ENERGY PREDICTED BY IDOCK:   -1.45 KCAL/MOL
REMARK 922        TOTAL FREE ENERGY PREDICTED BY IDOCK:   -2.49 KCAL/MOL
REMARK 923 INTER-LIGAND FREE ENERGY PREDICTED BY IDOCK:   -1.76 KCAL/MOL
REMARK 924 INTRA-LIGAND FREE ENERGY PREDICTED BY IDOCK:   -0.73 KCAL/MOL
REMARK 927      BINDING AFFINITY PREDICTED BY RF-SCORE:    0.00 PKD
ROOT
ATOM      1  N   CYS A   1      -6.478   6.992  66.617  1.00  0.00    -0.049 NA 
ATOM      2  H2  CYS A   1      -5.591   7.287  67.026  1.00  0.00     0.000 HD 
ATOM      3  CA  CYS A   1      -6.780   5.574  66.992  1.00  0.00    -0.062 C  
ATOM      4  H1  CYS A   1      -6.485   7.174  65.613  1.00  0.00     0.000 HD 
ATOM      5  O   CYS A   1      -8.471   6.029  65.368  1.00  0.00    -0.147 OA 
ATOM      6  C   CYS A   1      -8.158   5.218  66.411  1.00  0.00    -0.108 C  
ATOM      7  OXT CYS A   1      -8.882   4.318  66.806  1.00  0.00    -0.111 OA 
ENDROOT
BRANCH   3   8
ATOM      8  CB  CYS A   1      -6.771   5.299  68.502  1.00  0.00    -0.054 C  
BRANCH   8   9
ATOM      9  SG  CYS A   1      -5.987   6.673  69.423  1.00  0.00    -0.023 SA 
BRANCH   9  10
ATOM     10  SG  CYS A   1      -7.617   7.589  70.285  1.00  0.00    -0.092 SA 
BRANCH  10  11
ATOM     11  CB  CYS A   1      -8.957   6.407  69.898  1.00  0.00    -0.142 C  
BRANCH  11  12
ATOM     12  CA  CYS A   1     -10.011   7.030  68.971  1.00  0.00    -0.164 C  
ATOM     13  N   CYS A   1      -9.438   8.047  68.030  1.00  0.00    -0.145 NA 
ATOM     14  C   CYS A   1     -11.036   7.732  69.862  1.00  0.00    -0.136 C  
ATOM     15  H2  CYS A   1      -8.668   7.650  67.490  1.00  0.00     0.000 HD 
ATOM     16  H1  CYS A   1     -10.138   8.460  67.414  1.00  0.00     0.000 HD 
ATOM     17  OXT CYS A   1     -11.894   7.172  70.524  1.00  0.00    -0.299 OA 
ATOM     18  O   CYS A   1     -10.845   9.079  69.871  1.00  0.00    -0.228 OA 
ENDBRANCH  11  12
ENDBRANCH  10  11
ENDBRANCH   9  10
ENDBRANCH   8   9
ENDBRANCH   3   8
TORSDOF 5
ENDMDL
MODEL      357
REMARK 921   NORMALIZED FREE ENERGY PREDICTED BY IDOCK:   -1.40 KCAL/MOL
REMARK 922        TOTAL FREE ENERGY PREDICTED BY IDOCK:   -2.43 KCAL/MOL
REMARK 923 INTER-LIGAND FREE ENERGY PREDICTED BY IDOCK:   -2.06 KCAL/MOL
REMARK 924 INTRA-LIGAND FREE ENERGY PREDICTED BY IDOCK:   -0.37 KCAL/MOL
REMARK 927      BINDING AFFINITY PREDICTED BY RF-SCORE:    0.00 PKD
ROOT
ATOM      1  N   CYS A   1      -9.241   5.267  72.226  1.00  0.00    -0.138 NA 
ATOM      2  H2  CYS A   1      -9.277   5.990  72.945  1.00  0.00     0.000 HD 
ATOM      3  CA  CYS A   1      -9.871   5.758  70.959  1.00  0.00    -0.178 C  
ATOM      4  H1  CYS A   1      -9.632   4.394  72.581  1.00  0.00     0.000 HD 
ATOM      5  O   CYS A   1      -9.538   3.442  70.482  1.00  0.00    -0.173 OA 
ATOM      6  C   CYS A   1      -9.716   4.656  69.900  1.00  0.00    -0.209 C  
ATOM      7  OXT CYS A   1      -9.763   4.822  68.692  1.00  0.00    -0.150 OA 
ENDROOT
BRANCH   3   8
ATOM      8  CB  CYS A   1      -9.282   7.072  70.425  1.00  0.00    -0.156 C  
BRANCH   8   9
ATOM      9  SG  CYS A   1      -7.564   7.316  71.005  1.00  0.00    -0.084 SA 
BRANCH   9  10
ATOM     10  SG  CYS A   1      -6.721   8.327  69.423  1.00  0.00    -0.042 SA 
BRANCH  10  11
ATOM     11  CB  CYS A   1      -7.976   8.084  68.115  1.00  0.00    -0.128 C  
BRANCH  11  12
ATOM     12  CA  CYS A   1      -8.317   9.403  67.407  1.00  0.00    -0.125 C  
ATOM     13  N   CYS A   1      -7.518  10.566  67.913  1.00  0.00    -0.090 NA 
ATOM     14  C   CYS A   1      -9.795   9.689  67.675  1.00  0.00    -0.164 C  
ATOM     15  H2  CYS A   1      -6.518  10.371  67.858  1.00  0.00     0.000 HD 
ATOM     16  H1  CYS A   1      -7.745  11.441  67.441  1.00  0.00     0.000 HD 
ATOM     17  OXT CYS A   1     -10.731   9.116  67.142  1.00  0.00    -0.255 OA 
ATOM     18  O   CYS A   1      -9.950  10.642  68.634  1.00  0.00    -0.166 OA 
ENDBRANCH  11  12
ENDBRANCH  10  11
ENDBRANCH   9  10
ENDBRANCH   8   9
ENDBRANCH   3   8
TORSDOF 5
ENDMDL
MODEL      358
REMARK 921   NORMALIZED FREE ENERGY PREDICTED BY IDOCK:   -1.35 KCAL/MOL
REMARK 922        TOTAL FREE ENERGY PREDICTED BY IDOCK:   -2.37 KCAL/MOL
REMARK 923 INTER-LIGAND FREE ENERGY PREDICTED BY IDOCK:   -2.26 KCAL/MOL
REMARK 924 INTRA-LIGAND FREE ENERGY PREDICTED BY IDOCK:   -0.11 KCAL/MOL
REMARK 927      BINDING AFFINITY PREDICTED BY RF-SCORE:    0.00 PKD
ROOT
ATOM      1  N   CYS A   1      -8.472   4.134  74.134  1.00  0.00    -0.094 NA 
ATOM      2  H2  CYS A   1      -8.758   4.643  74.971  1.00  0.00     0.000 HD 
ATOM      3  CA  CYS A   1      -9.670   3.754  73.318  1.00  0.00    -0.114 C  
ATOM      4  H1  CYS A   1      -7.866   3.351  74.384  1.00  0.00     0.000 HD 
ATOM      5  O   CYS A   1      -7.922   2.554  72.220  1.00  0.00    -0.052 OA 
ATOM      6  C   CYS A   1      -9.168   3.062  72.041  1.00  0.00    -0.106 C  
ATOM      7  OXT CYS A   1      -9.796   2.953  71.001  1.00  0.00    -0.138 OA 
ENDROOT
BRANCH   3   8
ATOM      8  CB  CYS A   1     -10.581   4.931  72.942  1.00  0.00    -0.219 C  
BRANCH   8   9
ATOM      9  SG  CYS A   1      -9.610   6.450  72.626  1.00  0.00    -0.146 SA 
BRANCH   9  10
ATOM     10  SG  CYS A   1     -10.414   7.105  70.848  1.00  0.00    -0.211 SA 
BRANCH  10  11
ATOM     11  CB  CYS A   1      -9.918   5.770  69.701  1.00  0.00    -0.189 C  
BRANCH  11  12
ATOM     12  CA  CYS A   1      -9.432   6.330  68.357  1.00  0.00    -0.118 C  
ATOM     13  N   CYS A   1      -9.258   7.819  68.369  1.00  0.00    -0.137 NA 
ATOM     14  C   CYS A   1     -10.497   5.985  67.314  1.00  0.00    -0.257 C  
ATOM     15  H2  CYS A   1      -8.639   8.107  69.128  1.00  0.00     0.000 HD 
ATOM     16  H1  CYS A   1      -8.936   8.191  67.476  1.00  0.00     0.000 HD 
ATOM     17  OXT CYS A   1     -10.677   4.879  66.831  1.00  0.00    -0.150 OA 
ATOM     18  O   CYS A   1     -11.269   7.065  67.018  1.00  0.00    -0.328 OA 
ENDBRANCH  11  12
ENDBRANCH  10  11
ENDBRANCH   9  10
ENDBRANCH   8   9
ENDBRANCH   3   8
TORSDOF 5
ENDMDL
MODEL      359
REMARK 921   NORMALIZED FREE ENERGY PREDICTED BY IDOCK:   -1.23 KCAL/MOL
REMARK 922        TOTAL FREE ENERGY PREDICTED BY IDOCK:   -2.20 KCAL/MOL
REMARK 923 INTER-LIGAND FREE ENERGY PREDICTED BY IDOCK:   -1.91 KCAL/MOL
REMARK 924 INTRA-LIGAND FREE ENERGY PREDICTED BY IDOCK:   -0.29 KCAL/MOL
REMARK 927      BINDING AFFINITY PREDICTED BY RF-SCORE:    0.00 PKD
ROOT
ATOM      1  N   CYS A   1      -7.923   3.156  64.837  1.00  0.00    -0.082 NA 
ATOM      2  H2  CYS A   1      -7.232   3.024  65.576  1.00  0.00     0.000 HD 
ATOM      3  CA  CYS A   1      -9.284   3.366  65.424  1.00  0.00    -0.152 C  
ATOM      4  H1  CYS A   1      -7.868   2.393  64.160  1.00  0.00     0.000 HD 
ATOM      5  O   CYS A   1      -9.777   3.132  63.099  1.00  0.00    -0.093 OA 
ATOM      6  C   CYS A   1     -10.259   3.633  64.266  1.00  0.00    -0.221 C  
ATOM      7  OXT CYS A   1     -11.336   4.198  64.362  1.00  0.00    -0.279 OA 
ENDROOT
BRANCH   3   8
ATOM      8  CB  CYS A   1      -9.368   4.513  66.441  1.00  0.00    -0.151 C  
BRANCH   8   9
ATOM      9  SG  CYS A   1      -8.344   5.939  65.922  1.00  0.00    -0.141 SA 
BRANCH   9  10
ATOM     10  SG  CYS A   1      -9.457   7.531  66.604  1.00  0.00    -0.184 SA 
BRANCH  10  11
ATOM     11  CB  CYS A   1      -8.718   8.925  65.680  1.00  0.00    -0.182 C  
BRANCH  11  12
ATOM     12  CA  CYS A   1      -7.199   8.759  65.525  1.00  0.00    -0.084 C  
ATOM     13  N   CYS A   1      -6.418   9.499  66.569  1.00  0.00    -0.066 NA 
ATOM     14  C   CYS A   1      -6.821   9.328  64.157  1.00  0.00    -0.091 C  
ATOM     15  H2  CYS A   1      -6.720   9.232  67.507  1.00  0.00     0.000 HD 
ATOM     16  H1  CYS A   1      -5.409   9.388  66.465  1.00  0.00     0.000 HD 
ATOM     17  OXT CYS A   1      -7.029   8.781  63.086  1.00  0.00    -0.090 OA 
ATOM     18  O   CYS A   1      -6.261  10.562  64.271  1.00  0.00    -0.096 OA 
ENDBRANCH  11  12
ENDBRANCH  10  11
ENDBRANCH   9  10
ENDBRANCH   8   9
ENDBRANCH   3   8
TORSDOF 5
ENDMDL
