MODEL        1
REMARK 921   NORMALIZED FREE ENERGY PREDICTED BY IDOCK:   -6.89 KCAL/MOL
REMARK 922        TOTAL FREE ENERGY PREDICTED BY IDOCK:   -7.71 KCAL/MOL
REMARK 923 INTER-LIGAND FREE ENERGY PREDICTED BY IDOCK:   -7.70 KCAL/MOL
REMARK 924 INTRA-LIGAND FREE ENERGY PREDICTED BY IDOCK:   -0.01 KCAL/MOL
REMARK 927      BINDING AFFINITY PREDICTED BY RF-SCORE:    0.00 PKD
ROOT
ATOM      1  N4    C A   1     -11.659  16.548  63.883  1.00  0.00    -1.578 NA 
ATOM      2  H42   C A   1     -12.457  16.712  63.269  1.00  0.00     0.000 HD 
ATOM      3  C4    C A   1     -11.508  15.366  64.547  1.00  0.00    -0.311 C  
ATOM      4  H41   C A   1     -10.945  17.262  64.024  1.00  0.00     0.000 HD 
ATOM      5  N3    C A   1     -12.414  14.460  64.369  1.00  0.00    -0.679 N  
ATOM      6  C2    C A   1     -12.308  13.244  65.000  1.00  0.00    -0.448 C  
ATOM      7  H3    C A   1     -13.210  14.650  63.760  1.00  0.00     0.000 HD 
ATOM      8  N1    C A   1     -11.294  13.068  65.966  1.00  0.00    -0.300 N  
ATOM      9  O2    C A   1     -13.098  12.343  64.721  1.00  0.00    -0.806 OA 
ATOM     10  C5    C A   1     -10.349  15.170  65.430  1.00  0.00    -0.415 C  
ATOM     11  C6    C A   1     -10.317  14.027  66.112  1.00  0.00    -0.297 C  
ENDROOT
BRANCH   8  12
ATOM     12  C1*   C A   1     -11.230  11.743  66.586  1.00  0.00    -0.323 C  
ATOM     13  O4*   C A   1     -12.256  11.673  67.607  1.00  0.00    -0.544 OA 
ATOM     14  C4*   C A   1     -11.670  11.983  68.884  1.00  0.00    -0.326 C  
ATOM     15  C3*   C A   1     -10.196  11.619  68.787  1.00  0.00    -0.177 C  
ATOM     16  H2*   C A   1      -7.926  11.254  67.315  1.00  0.00     0.000 HD 
ATOM     17  C2*   C A   1      -9.983  11.218  67.331  1.00  0.00    -0.182 C  
ATOM     18  O3*   C A   1      -9.862  10.507  69.629  1.00  0.00    -0.368 OA 
ATOM     19  O2*   C A   1      -8.692  11.577  66.857  1.00  0.00    -0.167 OA 
ATOM     20  H3*   C A   1      -8.942  10.281  69.569  1.00  0.00     0.000 HD 
BRANCH  14  21
ATOM     21  C5*   C A   1     -11.871  13.474  69.183  1.00  0.00    -0.340 C  
ATOM     22  O5*   C A   1     -10.633  14.077  69.548  1.00  0.00    -0.438 OA 
ATOM     23  H5*   C A   1     -10.757  15.000  69.733  1.00  0.00     0.000 HD 
ENDBRANCH  14  21
ENDBRANCH   8  12
TORSDOF 2
ENDMDL
MODEL        2
REMARK 921   NORMALIZED FREE ENERGY PREDICTED BY IDOCK:   -6.34 KCAL/MOL
REMARK 922        TOTAL FREE ENERGY PREDICTED BY IDOCK:   -7.10 KCAL/MOL
REMARK 923 INTER-LIGAND FREE ENERGY PREDICTED BY IDOCK:   -7.35 KCAL/MOL
REMARK 924 INTRA-LIGAND FREE ENERGY PREDICTED BY IDOCK:    0.25 KCAL/MOL
REMARK 927      BINDING AFFINITY PREDICTED BY RF-SCORE:    0.00 PKD
ROOT
ATOM      1  N4    C A   1      -9.469  10.323  62.335  1.00  0.00    -0.524 NA 
ATOM      2  H42   C A   1      -9.918  10.101  61.448  1.00  0.00     0.000 HD 
ATOM      3  C4    C A   1     -10.134  10.997  63.317  1.00  0.00    -0.348 C  
ATOM      4  H41   C A   1      -8.504  10.049  62.523  1.00  0.00     0.000 HD 
ATOM      5  N3    C A   1     -11.358  11.344  63.080  1.00  0.00    -0.852 N  
ATOM      6  C2    C A   1     -12.084  12.012  64.037  1.00  0.00    -0.406 C  
ATOM      7  H3    C A   1     -11.784  11.122  62.181  1.00  0.00     0.000 HD 
ATOM      8  N1    C A   1     -11.422  12.455  65.202  1.00  0.00    -0.323 N  
ATOM      9  O2    C A   1     -13.283  12.218  63.857  1.00  0.00    -0.766 OA 
ATOM     10  C5    C A   1      -9.450  11.306  64.581  1.00  0.00    -0.215 C  
ATOM     11  C6    C A   1     -10.133  12.043  65.455  1.00  0.00    -0.256 C  
ENDROOT
BRANCH   8  12
ATOM     12  C1*   C A   1     -12.260  13.145  66.185  1.00  0.00    -0.385 C  
ATOM     13  O4*   C A   1     -12.765  14.359  65.574  1.00  0.00    -0.414 OA 
ATOM     14  C4*   C A   1     -11.919  15.461  65.948  1.00  0.00     0.447 C  
ATOM     15  C3*   C A   1     -11.281  15.089  67.278  1.00  0.00    -0.338 C  
ATOM     16  H2*   C A   1     -10.405  13.211  69.056  1.00  0.00     0.000 HD 
ATOM     17  C2*   C A   1     -11.727  13.654  67.542  1.00  0.00    -0.371 C  
ATOM     18  O3*   C A   1     -11.746  15.924  68.347  1.00  0.00    -0.358 OA 
ATOM     19  O2*   C A   1     -10.733  12.899  68.221  1.00  0.00    -0.228 OA 
ATOM     20  H3*   C A   1     -11.348  15.692  69.178  1.00  0.00     0.000 HD 
BRANCH  14  21
ATOM     21  C5*   C A   1     -10.867  15.683  64.854  1.00  0.00    -0.418 C  
ATOM     22  O5*   C A   1     -11.418  16.443  63.782  1.00  0.00    -1.590 OA 
ATOM     23  H5*   C A   1     -10.767  16.580  63.105  1.00  0.00     0.000 HD 
ENDBRANCH  14  21
ENDBRANCH   8  12
TORSDOF 2
ENDMDL
MODEL        3
REMARK 921   NORMALIZED FREE ENERGY PREDICTED BY IDOCK:   -6.21 KCAL/MOL
REMARK 922        TOTAL FREE ENERGY PREDICTED BY IDOCK:   -6.95 KCAL/MOL
REMARK 923 INTER-LIGAND FREE ENERGY PREDICTED BY IDOCK:   -6.98 KCAL/MOL
REMARK 924 INTRA-LIGAND FREE ENERGY PREDICTED BY IDOCK:    0.03 KCAL/MOL
REMARK 927      BINDING AFFINITY PREDICTED BY RF-SCORE:    0.00 PKD
ROOT
ATOM      1  N4    C A   1     -10.022  10.621  62.382  1.00  0.00    -0.738 NA 
ATOM      2  H42   C A   1     -10.195  10.959  61.435  1.00  0.00     0.000 HD 
ATOM      3  C4    C A   1     -10.522  11.276  63.469  1.00  0.00    -0.395 C  
ATOM      4  H41   C A   1      -9.469   9.781  62.551  1.00  0.00     0.000 HD 
ATOM      5  N3    C A   1     -11.224  12.342  63.254  1.00  0.00    -0.686 N  
ATOM      6  C2    C A   1     -11.766  13.035  64.310  1.00  0.00    -0.389 C  
ATOM      7  H3    C A   1     -11.374  12.668  62.300  1.00  0.00     0.000 HD 
ATOM      8  N1    C A   1     -11.405  12.663  65.622  1.00  0.00    -0.308 N  
ATOM      9  O2    C A   1     -12.542  13.965  64.092  1.00  0.00    -0.675 OA 
ATOM     10  C5    C A   1     -10.245  10.763  64.819  1.00  0.00    -0.403 C  
ATOM     11  C6    C A   1     -10.691  11.504  65.832  1.00  0.00    -0.272 C  
ENDROOT
BRANCH   8  12
ATOM     12  C1*   C A   1     -12.032  13.434  66.697  1.00  0.00    -0.399 C  
ATOM     13  O4*   C A   1     -11.391  14.733  66.754  1.00  0.00    -0.340 OA 
ATOM     14  C4*   C A   1     -10.364  14.707  67.761  1.00  0.00    -0.237 C  
ATOM     15  C3*   C A   1     -10.770  13.641  68.769  1.00  0.00    -0.244 C  
ATOM     16  H2*   C A   1     -12.088  11.333  69.394  1.00  0.00     0.000 HD 
ATOM     17  C2*   C A   1     -12.017  12.991  68.176  1.00  0.00    -0.280 C  
ATOM     18  O3*   C A   1     -11.104  14.209  70.043  1.00  0.00    -0.456 OA 
ATOM     19  O2*   C A   1     -12.098  11.606  68.484  1.00  0.00    -0.491 OA 
ATOM     20  H3*   C A   1     -11.357  13.544  70.673  1.00  0.00     0.000 HD 
BRANCH  14  21
ATOM     21  C5*   C A   1      -9.018  14.383  67.102  1.00  0.00    -0.232 C  
ATOM     22  O5*   C A   1      -8.857  15.139  65.905  1.00  0.00    -0.436 OA 
ATOM     23  H5*   C A   1      -8.024  14.938  65.497  1.00  0.00     0.000 HD 
ENDBRANCH  14  21
ENDBRANCH   8  12
TORSDOF 2
ENDMDL
MODEL        4
REMARK 921   NORMALIZED FREE ENERGY PREDICTED BY IDOCK:   -6.19 KCAL/MOL
REMARK 922        TOTAL FREE ENERGY PREDICTED BY IDOCK:   -6.93 KCAL/MOL
REMARK 923 INTER-LIGAND FREE ENERGY PREDICTED BY IDOCK:   -7.01 KCAL/MOL
REMARK 924 INTRA-LIGAND FREE ENERGY PREDICTED BY IDOCK:    0.08 KCAL/MOL
REMARK 927      BINDING AFFINITY PREDICTED BY RF-SCORE:    0.00 PKD
ROOT
ATOM      1  N4    C A   1      -8.717  10.597  69.265  1.00  0.00    -0.321 NA 
ATOM      2  H42   C A   1      -9.116  10.136  70.082  1.00  0.00     0.000 HD 
ATOM      3  C4    C A   1      -9.329  11.672  68.689  1.00  0.00    -0.114 C  
ATOM      4  H41   C A   1      -7.845  10.272  68.847  1.00  0.00     0.000 HD 
ATOM      5  N3    C A   1     -10.435  12.084  69.218  1.00  0.00    -0.430 N  
ATOM      6  C2    C A   1     -11.089  13.172  68.691  1.00  0.00    -0.269 C  
ATOM      7  H3    C A   1     -10.822  11.601  70.028  1.00  0.00     0.000 HD 
ATOM      8  N1    C A   1     -10.626  13.716  67.474  1.00  0.00    -0.240 N  
ATOM      9  O2    C A   1     -12.063  13.640  69.279  1.00  0.00    -0.334 OA 
ATOM     10  C5    C A   1      -8.727  12.305  67.506  1.00  0.00    -0.177 C  
ATOM     11  C6    C A   1      -9.427  13.291  66.947  1.00  0.00    -0.249 C  
ENDROOT
BRANCH   8  12
ATOM     12  C1*   C A   1     -11.360  14.882  66.979  1.00  0.00    -0.342 C  
ATOM     13  O4*   C A   1     -12.535  14.410  66.275  1.00  0.00    -0.393 OA 
ATOM     14  C4*   C A   1     -12.248  14.352  64.866  1.00  0.00    -0.433 C  
ATOM     15  C3*   C A   1     -11.152  15.374  64.603  1.00  0.00    -0.347 C  
ATOM     16  H2*   C A   1      -9.010  16.840  65.451  1.00  0.00     0.000 HD 
ATOM     17  C2*   C A   1     -10.761  15.898  65.982  1.00  0.00    -0.284 C  
ATOM     18  O3*   C A   1     -11.621  16.469  63.805  1.00  0.00    -1.617 OA 
ATOM     19  O2*   C A   1      -9.378  16.215  66.064  1.00  0.00    -0.309 OA 
ATOM     20  H3*   C A   1     -10.936  17.107  63.640  1.00  0.00     0.000 HD 
BRANCH  14  21
ATOM     21  C5*   C A   1     -11.803  12.931  64.500  1.00  0.00    -0.375 C  
ATOM     22  O5*   C A   1     -11.556  12.834  63.100  1.00  0.00    -0.777 OA 
ATOM     23  H5*   C A   1     -11.280  11.954  62.874  1.00  0.00     0.000 HD 
ENDBRANCH  14  21
ENDBRANCH   8  12
TORSDOF 2
ENDMDL
MODEL        5
REMARK 921   NORMALIZED FREE ENERGY PREDICTED BY IDOCK:   -6.14 KCAL/MOL
REMARK 922        TOTAL FREE ENERGY PREDICTED BY IDOCK:   -6.87 KCAL/MOL
REMARK 923 INTER-LIGAND FREE ENERGY PREDICTED BY IDOCK:   -6.90 KCAL/MOL
REMARK 924 INTRA-LIGAND FREE ENERGY PREDICTED BY IDOCK:    0.04 KCAL/MOL
REMARK 927      BINDING AFFINITY PREDICTED BY RF-SCORE:    0.00 PKD
ROOT
ATOM      1  N4    C A   1      -9.483   8.931  67.120  1.00  0.00    -0.150 NA 
ATOM      2  H42   C A   1      -9.913   8.309  67.804  1.00  0.00     0.000 HD 
ATOM      3  C4    C A   1      -9.935  10.205  66.939  1.00  0.00    -0.207 C  
ATOM      4  H41   C A   1      -8.699   8.623  66.545  1.00  0.00     0.000 HD 
ATOM      5  N3    C A   1     -10.930  10.595  67.668  1.00  0.00    -0.292 N  
ATOM      6  C2    C A   1     -11.419  11.873  67.542  1.00  0.00    -0.326 C  
ATOM      7  H3    C A   1     -11.352   9.953  68.338  1.00  0.00     0.000 HD 
ATOM      8  N1    C A   1     -10.932  12.684  66.495  1.00  0.00    -0.261 N  
ATOM      9  O2    C A   1     -12.272  12.279  68.330  1.00  0.00    -0.315 OA 
ATOM     10  C5    C A   1      -9.294  11.070  65.937  1.00  0.00    -0.229 C  
ATOM     11  C6    C A   1      -9.847  12.268  65.756  1.00  0.00    -0.244 C  
ENDROOT
BRANCH   8  12
ATOM     12  C1*   C A   1     -11.485  14.038  66.429  1.00  0.00    -0.352 C  
ATOM     13  O4*   C A   1     -12.706  13.990  65.650  1.00  0.00    -0.526 OA 
ATOM     14  C4*   C A   1     -12.410  14.354  64.289  1.00  0.00    -0.373 C  
ATOM     15  C3*   C A   1     -11.175  15.242  64.335  1.00  0.00    -0.178 C  
ATOM     16  H2*   C A   1      -8.859  16.039  65.541  1.00  0.00     0.000 HD 
ATOM     17  C2*   C A   1     -10.734  15.230  65.796  1.00  0.00    -0.348 C  
ATOM     18  O3*   C A   1     -11.472  16.592  63.951  1.00  0.00    -1.604 OA 
ATOM     19  O2*   C A   1      -9.321  15.306  65.931  1.00  0.00    -0.326 OA 
ATOM     20  H3*   C A   1     -10.701  17.147  63.980  1.00  0.00     0.000 HD 
BRANCH  14  21
ATOM     21  C5*   C A   1     -12.166  13.082  63.467  1.00  0.00    -0.501 C  
ATOM     22  O5*   C A   1     -13.002  12.026  63.929  1.00  0.00    -0.669 OA 
ATOM     23  H5*   C A   1     -12.851  11.238  63.420  1.00  0.00     0.000 HD 
ENDBRANCH  14  21
ENDBRANCH   8  12
TORSDOF 2
ENDMDL
MODEL        6
REMARK 921   NORMALIZED FREE ENERGY PREDICTED BY IDOCK:   -6.08 KCAL/MOL
REMARK 922        TOTAL FREE ENERGY PREDICTED BY IDOCK:   -6.81 KCAL/MOL
REMARK 923 INTER-LIGAND FREE ENERGY PREDICTED BY IDOCK:   -7.06 KCAL/MOL
REMARK 924 INTRA-LIGAND FREE ENERGY PREDICTED BY IDOCK:    0.25 KCAL/MOL
REMARK 927      BINDING AFFINITY PREDICTED BY RF-SCORE:    0.00 PKD
ROOT
ATOM      1  N4    C A   1     -13.255  12.386  64.427  1.00  0.00    -0.778 NA 
ATOM      2  H42   C A   1     -13.593  12.351  63.465  1.00  0.00     0.000 HD 
ATOM      3  C4    C A   1     -12.534  13.449  64.886  1.00  0.00    -0.396 C  
ATOM      4  H41   C A   1     -13.444  11.627  65.081  1.00  0.00     0.000 HD 
ATOM      5  N3    C A   1     -12.294  14.412  64.055  1.00  0.00    -0.931 N  
ATOM      6  C2    C A   1     -11.586  15.516  64.464  1.00  0.00    -0.283 C  
ATOM      7  H3    C A   1     -12.632  14.351  63.095  1.00  0.00     0.000 HD 
ATOM      8  N1    C A   1     -10.987  15.501  65.742  1.00  0.00    -0.313 N  
ATOM      9  O2    C A   1     -11.479  16.483  63.712  1.00  0.00    -1.065 OA 
ATOM     10  C5    C A   1     -12.057  13.460  66.277  1.00  0.00    -0.475 C  
ATOM     11  C6    C A   1     -11.286  14.488  66.625  1.00  0.00    -0.346 C  
ENDROOT
BRANCH   8  12
ATOM     12  C1*   C A   1     -10.262  16.716  66.118  1.00  0.00    -0.348 C  
ATOM     13  O4*   C A   1      -8.854  16.503  65.847  1.00  0.00    -0.464 OA 
ATOM     14  C4*   C A   1      -8.200  16.082  67.058  1.00  0.00    -0.220 C  
ATOM     15  C3*   C A   1      -9.020  16.640  68.212  1.00  0.00    -0.214 C  
ATOM     16  H2*   C A   1     -11.394  17.506  69.245  1.00  0.00     0.000 HD 
ATOM     17  C2*   C A   1     -10.241  17.278  67.556  1.00  0.00    -0.328 C  
ATOM     18  O3*   C A   1      -8.304  17.647  68.940  1.00  0.00    -0.243 OA 
ATOM     19  O2*   C A   1     -11.407  17.160  68.361  1.00  0.00    -0.115 OA 
ATOM     20  H3*   C A   1      -8.816  17.995  69.660  1.00  0.00     0.000 HD 
BRANCH  14  21
ATOM     21  C5*   C A   1      -8.137  14.550  67.092  1.00  0.00    -0.168 C  
ATOM     22  O5*   C A   1      -6.787  14.107  67.002  1.00  0.00    -0.374 OA 
ATOM     23  H5*   C A   1      -6.748  13.158  67.023  1.00  0.00     0.000 HD 
ENDBRANCH  14  21
ENDBRANCH   8  12
TORSDOF 2
ENDMDL
MODEL        7
REMARK 921   NORMALIZED FREE ENERGY PREDICTED BY IDOCK:   -6.04 KCAL/MOL
REMARK 922        TOTAL FREE ENERGY PREDICTED BY IDOCK:   -6.76 KCAL/MOL
REMARK 923 INTER-LIGAND FREE ENERGY PREDICTED BY IDOCK:   -6.78 KCAL/MOL
REMARK 924 INTRA-LIGAND FREE ENERGY PREDICTED BY IDOCK:    0.02 KCAL/MOL
REMARK 927      BINDING AFFINITY PREDICTED BY RF-SCORE:    0.00 PKD
ROOT
ATOM      1  N4    C A   1     -10.919  10.726  70.157  1.00  0.00    -0.458 NA 
ATOM      2  H42   C A   1     -10.415   9.847  70.269  1.00  0.00     0.000 HD 
ATOM      3  C4    C A   1     -11.059  11.311  68.933  1.00  0.00    -0.238 C  
ATOM      4  H41   C A   1     -11.338  11.201  70.956  1.00  0.00     0.000 HD 
ATOM      5  N3    C A   1     -10.528  10.709  67.918  1.00  0.00    -0.194 N  
ATOM      6  C2    C A   1     -10.649  11.242  66.657  1.00  0.00    -0.262 C  
ATOM      7  H3    C A   1     -10.018   9.836  68.054  1.00  0.00     0.000 HD 
ATOM      8  N1    C A   1     -11.210  12.530  66.518  1.00  0.00    -0.291 N  
ATOM      9  O2    C A   1     -10.261  10.598  65.684  1.00  0.00    -0.255 OA 
ATOM     10  C5    C A   1     -11.786  12.584  68.812  1.00  0.00    -0.347 C  
ATOM     11  C6    C A   1     -11.804  13.137  67.601  1.00  0.00    -0.359 C  
ENDROOT
BRANCH   8  12
ATOM     12  C1*   C A   1     -11.322  13.029  65.146  1.00  0.00    -0.291 C  
ATOM     13  O4*   C A   1     -10.042  13.589  64.763  1.00  0.00    -0.333 OA 
ATOM     14  C4*   C A   1     -10.067  15.012  64.978  1.00  0.00    -0.253 C  
ATOM     15  C3*   C A   1     -11.524  15.441  64.877  1.00  0.00    -0.311 C  
ATOM     16  H2*   C A   1     -14.189  14.892  65.102  1.00  0.00     0.000 HD 
ATOM     17  C2*   C A   1     -12.309  14.141  64.729  1.00  0.00    -0.417 C  
ATOM     18  O3*   C A   1     -11.762  16.262  63.725  1.00  0.00    -1.511 OA 
ATOM     19  O2*   C A   1     -13.582  14.208  65.358  1.00  0.00    -0.568 OA 
ATOM     20  H3*   C A   1     -12.671  16.530  63.662  1.00  0.00     0.000 HD 
BRANCH  14  21
ATOM     21  C5*   C A   1      -9.476  15.326  66.358  1.00  0.00    -0.298 C  
ATOM     22  O5*   C A   1      -8.291  14.564  66.574  1.00  0.00    -0.399 OA 
ATOM     23  H5*   C A   1      -7.925  14.758  67.429  1.00  0.00     0.000 HD 
ENDBRANCH  14  21
ENDBRANCH   8  12
TORSDOF 2
ENDMDL
MODEL        8
REMARK 921   NORMALIZED FREE ENERGY PREDICTED BY IDOCK:   -5.95 KCAL/MOL
REMARK 922        TOTAL FREE ENERGY PREDICTED BY IDOCK:   -6.66 KCAL/MOL
REMARK 923 INTER-LIGAND FREE ENERGY PREDICTED BY IDOCK:   -6.64 KCAL/MOL
REMARK 924 INTRA-LIGAND FREE ENERGY PREDICTED BY IDOCK:   -0.02 KCAL/MOL
REMARK 927      BINDING AFFINITY PREDICTED BY RF-SCORE:    0.00 PKD
ROOT
ATOM      1  N4    C A   1      -8.578  16.741  68.091  1.00  0.00    -0.211 NA 
ATOM      2  H42   C A   1      -8.499  16.796  69.106  1.00  0.00     0.000 HD 
ATOM      3  C4    C A   1      -9.514  15.947  67.496  1.00  0.00    -0.219 C  
ATOM      4  H41   C A   1      -7.961  17.279  67.483  1.00  0.00     0.000 HD 
ATOM      5  N3    C A   1     -10.297  15.265  68.268  1.00  0.00    -0.231 N  
ATOM      6  C2    C A   1     -11.270  14.458  67.726  1.00  0.00    -0.300 C  
ATOM      7  H3    C A   1     -10.193  15.325  69.280  1.00  0.00     0.000 HD 
ATOM      8  N1    C A   1     -11.284  14.261  66.329  1.00  0.00    -0.330 N  
ATOM      9  O2    C A   1     -12.095  13.921  68.463  1.00  0.00    -0.362 OA 
ATOM     10  C5    C A   1      -9.593  15.888  66.029  1.00  0.00    -0.385 C  
ATOM     11  C6    C A   1     -10.471  15.024  65.522  1.00  0.00    -0.365 C  
ENDROOT
BRANCH   8  12
ATOM     12  C1*   C A   1     -12.356  13.403  65.819  1.00  0.00    -0.460 C  
ATOM     13  O4*   C A   1     -11.985  12.024  66.064  1.00  0.00    -0.559 OA 
ATOM     14  C4*   C A   1     -11.378  11.482  64.878  1.00  0.00    -0.119 C  
ATOM     15  C3*   C A   1     -11.936  12.273  63.703  1.00  0.00    -0.543 C  
ATOM     16  H2*   C A   1     -13.011  14.560  62.670  1.00  0.00     0.000 HD 
ATOM     17  C2*   C A   1     -12.783  13.374  64.336  1.00  0.00    -0.088 C  
ATOM     18  O3*   C A   1     -12.773  11.467  62.863  1.00  0.00    -0.951 OA 
ATOM     19  O2*   C A   1     -12.748  14.578  63.582  1.00  0.00    -0.754 OA 
ATOM     20  H3*   C A   1     -13.121  11.961  62.130  1.00  0.00     0.000 HD 
BRANCH  14  21
ATOM     21  C5*   C A   1      -9.854  11.617  64.983  1.00  0.00    -0.248 C  
ATOM     22  O5*   C A   1      -9.315  12.117  63.763  1.00  0.00    -0.517 OA 
ATOM     23  H5*   C A   1      -8.371  12.200  63.828  1.00  0.00     0.000 HD 
ENDBRANCH  14  21
ENDBRANCH   8  12
TORSDOF 2
ENDMDL
MODEL        9
REMARK 921   NORMALIZED FREE ENERGY PREDICTED BY IDOCK:   -5.94 KCAL/MOL
REMARK 922        TOTAL FREE ENERGY PREDICTED BY IDOCK:   -6.64 KCAL/MOL
REMARK 923 INTER-LIGAND FREE ENERGY PREDICTED BY IDOCK:   -6.75 KCAL/MOL
REMARK 924 INTRA-LIGAND FREE ENERGY PREDICTED BY IDOCK:    0.11 KCAL/MOL
REMARK 927      BINDING AFFINITY PREDICTED BY RF-SCORE:    0.00 PKD
ROOT
ATOM      1  N4    C A   1     -10.204  12.466  64.359  1.00  0.00    -0.405 NA 
ATOM      2  H42   C A   1     -10.598  12.260  63.442  1.00  0.00     0.000 HD 
ATOM      3  C4    C A   1     -10.307  13.709  64.911  1.00  0.00    -0.388 C  
ATOM      4  H41   C A   1      -9.718  11.750  64.899  1.00  0.00     0.000 HD 
ATOM      5  N3    C A   1     -10.923  14.618  64.227  1.00  0.00    -0.570 N  
ATOM      6  C2    C A   1     -11.071  15.885  64.737  1.00  0.00    -0.384 C  
ATOM      7  H3    C A   1     -11.300  14.393  63.306  1.00  0.00     0.000 HD 
ATOM      8  N1    C A   1     -10.398  16.217  65.932  1.00  0.00    -0.350 N  
ATOM      9  O2    C A   1     -11.773  16.702  64.143  1.00  0.00    -1.034 OA 
ATOM     10  C5    C A   1      -9.718  13.970  66.233  1.00  0.00    -0.311 C  
ATOM     11  C6    C A   1      -9.781  15.228  66.666  1.00  0.00    -0.252 C  
ENDROOT
BRANCH   8  12
ATOM     12  C1*   C A   1     -10.613  17.578  66.427  1.00  0.00    -0.195 C  
ATOM     13  O4*   C A   1      -9.709  18.463  65.719  1.00  0.00    -0.483 OA 
ATOM     14  C4*   C A   1      -8.529  18.667  66.518  1.00  0.00    -0.291 C  
ATOM     15  C3*   C A   1      -8.943  18.455  67.967  1.00  0.00    -0.290 C  
ATOM     16  H2*   C A   1     -10.574  17.312  69.835  1.00  0.00     0.000 HD 
ATOM     17  C2*   C A   1     -10.394  17.988  67.899  1.00  0.00    -0.392 C  
ATOM     18  O3*   C A   1      -8.881  19.671  68.725  1.00  0.00    -0.336 OA 
ATOM     19  O2*   C A   1     -10.708  17.060  68.929  1.00  0.00    -0.335 OA 
ATOM     20  H3*   C A   1      -9.140  19.538  69.630  1.00  0.00     0.000 HD 
BRANCH  14  21
ATOM     21  C5*   C A   1      -7.447  17.671  66.084  1.00  0.00    -0.299 C  
ATOM     22  O5*   C A   1      -6.592  18.262  65.109  1.00  0.00    -0.438 OA 
ATOM     23  H5*   C A   1      -5.922  17.645  64.840  1.00  0.00     0.000 HD 
ENDBRANCH  14  21
ENDBRANCH   8  12
TORSDOF 2
ENDMDL
MODEL       10
REMARK 921   NORMALIZED FREE ENERGY PREDICTED BY IDOCK:   -5.91 KCAL/MOL
REMARK 922        TOTAL FREE ENERGY PREDICTED BY IDOCK:   -6.61 KCAL/MOL
REMARK 923 INTER-LIGAND FREE ENERGY PREDICTED BY IDOCK:   -6.74 KCAL/MOL
REMARK 924 INTRA-LIGAND FREE ENERGY PREDICTED BY IDOCK:    0.13 KCAL/MOL
REMARK 927      BINDING AFFINITY PREDICTED BY RF-SCORE:    0.00 PKD
ROOT
ATOM      1  N4    C A   1      -7.604  11.605  69.258  1.00  0.00    -0.340 NA 
ATOM      2  H42   C A   1      -7.741  10.926  70.006  1.00  0.00     0.000 HD 
ATOM      3  C4    C A   1      -8.651  12.051  68.505  1.00  0.00    -0.093 C  
ATOM      4  H41   C A   1      -6.679  11.977  69.045  1.00  0.00     0.000 HD 
ATOM      5  N3    C A   1      -9.825  11.579  68.776  1.00  0.00    -0.339 N  
ATOM      6  C2    C A   1     -10.920  12.002  68.061  1.00  0.00    -0.223 C  
ATOM      7  H3    C A   1      -9.938  10.892  69.521  1.00  0.00     0.000 HD 
ATOM      8  N1    C A   1     -10.716  12.820  66.930  1.00  0.00    -0.251 N  
ATOM      9  O2    C A   1     -12.047  11.653  68.412  1.00  0.00    -0.522 OA 
ATOM     10  C5    C A   1      -8.412  13.025  67.430  1.00  0.00    -0.200 C  
ATOM     11  C6    C A   1      -9.467  13.344  66.682  1.00  0.00    -0.260 C  
ENDROOT
BRANCH   8  12
ATOM     12  C1*   C A   1     -11.927  13.246  66.226  1.00  0.00    -0.417 C  
ATOM     13  O4*   C A   1     -12.473  12.096  65.532  1.00  0.00    -0.517 OA 
ATOM     14  C4*   C A   1     -12.019  12.113  64.166  1.00  0.00    -0.408 C  
ATOM     15  C3*   C A   1     -11.734  13.567  63.820  1.00  0.00    -0.321 C  
ATOM     16  H2*   C A   1     -11.045  16.101  64.566  1.00  0.00     0.000 HD 
ATOM     17  C2*   C A   1     -11.930  14.330  65.127  1.00  0.00    -0.395 C  
ATOM     18  O3*   C A   1     -12.652  14.075  62.842  1.00  0.00    -0.958 OA 
ATOM     19  O2*   C A   1     -11.043  15.434  65.242  1.00  0.00    -0.358 OA 
ATOM     20  H3*   C A   1     -12.474  14.982  62.626  1.00  0.00     0.000 HD 
BRANCH  14  21
ATOM     21  C5*   C A   1     -10.764  11.241  64.040  1.00  0.00    -0.377 C  
ATOM     22  O5*   C A   1     -10.545  10.879  62.680  1.00  0.00    -0.761 OA 
ATOM     23  H5*   C A   1      -9.768  10.339  62.602  1.00  0.00     0.000 HD 
ENDBRANCH  14  21
ENDBRANCH   8  12
TORSDOF 2
ENDMDL
MODEL       11
REMARK 921   NORMALIZED FREE ENERGY PREDICTED BY IDOCK:   -5.86 KCAL/MOL
REMARK 922        TOTAL FREE ENERGY PREDICTED BY IDOCK:   -6.56 KCAL/MOL
REMARK 923 INTER-LIGAND FREE ENERGY PREDICTED BY IDOCK:   -6.68 KCAL/MOL
REMARK 924 INTRA-LIGAND FREE ENERGY PREDICTED BY IDOCK:    0.12 KCAL/MOL
REMARK 927      BINDING AFFINITY PREDICTED BY RF-SCORE:    0.00 PKD
ROOT
ATOM      1  N4    C A   1     -10.686  17.691  69.416  1.00  0.00    -0.274 NA 
ATOM      2  H42   C A   1      -9.951  18.398  69.405  1.00  0.00     0.000 HD 
ATOM      3  C4    C A   1     -10.639  16.609  68.586  1.00  0.00    -0.337 C  
ATOM      4  H41   C A   1     -11.483  17.766  70.047  1.00  0.00     0.000 HD 
ATOM      5  N3    C A   1      -9.628  16.515  67.784  1.00  0.00    -0.230 N  
ATOM      6  C2    C A   1      -9.518  15.439  66.935  1.00  0.00    -0.230 C  
ATOM      7  H3    C A   1      -8.910  17.239  67.782  1.00  0.00     0.000 HD 
ATOM      8  N1    C A   1     -10.602  14.542  66.836  1.00  0.00    -0.276 N  
ATOM      9  O2    C A   1      -8.490  15.287  66.276  1.00  0.00    -0.175 OA 
ATOM     10  C5    C A   1     -11.721  15.614  68.624  1.00  0.00    -0.364 C  
ATOM     11  C6    C A   1     -11.651  14.636  67.723  1.00  0.00    -0.359 C  
ENDROOT
BRANCH   8  12
ATOM     12  C1*   C A   1     -10.411  13.412  65.925  1.00  0.00    -0.290 C  
ATOM     13  O4*   C A   1     -10.348  13.928  64.572  1.00  0.00    -0.436 OA 
ATOM     14  C4*   C A   1     -11.650  13.824  63.968  1.00  0.00    -0.275 C  
ATOM     15  C3*   C A   1     -12.365  12.679  64.670  1.00  0.00    -0.476 C  
ATOM     16  H2*   C A   1     -12.745  11.097  66.863  1.00  0.00     0.000 HD 
ATOM     17  C2*   C A   1     -11.421  12.252  65.791  1.00  0.00    -0.367 C  
ATOM     18  O3*   C A   1     -12.581  11.564  63.794  1.00  0.00    -0.391 OA 
ATOM     19  O2*   C A   1     -12.123  11.810  66.945  1.00  0.00    -0.566 OA 
ATOM     20  H3*   C A   1     -13.027  10.850  64.233  1.00  0.00     0.000 HD 
BRANCH  14  21
ATOM     21  C5*   C A   1     -12.396  15.153  64.142  1.00  0.00    -0.094 C  
ATOM     22  O5*   C A   1     -11.582  16.239  63.707  1.00  0.00    -1.539 OA 
ATOM     23  H5*   C A   1     -12.044  17.061  63.815  1.00  0.00     0.000 HD 
ENDBRANCH  14  21
ENDBRANCH   8  12
TORSDOF 2
ENDMDL
MODEL       12
REMARK 921   NORMALIZED FREE ENERGY PREDICTED BY IDOCK:   -5.81 KCAL/MOL
REMARK 922        TOTAL FREE ENERGY PREDICTED BY IDOCK:   -6.50 KCAL/MOL
REMARK 923 INTER-LIGAND FREE ENERGY PREDICTED BY IDOCK:   -6.51 KCAL/MOL
REMARK 924 INTRA-LIGAND FREE ENERGY PREDICTED BY IDOCK:    0.01 KCAL/MOL
REMARK 927      BINDING AFFINITY PREDICTED BY RF-SCORE:    0.00 PKD
ROOT
ATOM      1  N4    C A   1      -9.583  20.695  67.023  1.00  0.00    -0.640 NA 
ATOM      2  H42   C A   1      -8.792  21.196  66.618  1.00  0.00     0.000 HD 
ATOM      3  C4    C A   1      -9.658  19.333  66.975  1.00  0.00    -0.324 C  
ATOM      4  H41   C A   1     -10.347  21.193  67.478  1.00  0.00     0.000 HD 
ATOM      5  N3    C A   1      -8.689  18.701  66.396  1.00  0.00    -0.297 N  
ATOM      6  C2    C A   1      -8.702  17.328  66.331  1.00  0.00    -0.250 C  
ATOM      7  H3    C A   1      -7.914  19.223  65.988  1.00  0.00     0.000 HD 
ATOM      8  N1    C A   1      -9.861  16.642  66.750  1.00  0.00    -0.261 N  
ATOM      9  O2    C A   1      -7.716  16.731  65.902  1.00  0.00    -0.258 OA 
ATOM     10  C5    C A   1     -10.818  18.647  67.563  1.00  0.00    -0.373 C  
ATOM     11  C6    C A   1     -10.864  17.326  67.399  1.00  0.00    -0.167 C  
ENDROOT
BRANCH   8  12
ATOM     12  C1*   C A   1      -9.799  15.181  66.668  1.00  0.00    -0.252 C  
ATOM     13  O4*   C A   1     -10.067  14.795  65.297  1.00  0.00    -0.364 OA 
ATOM     14  C4*   C A   1     -11.460  14.457  65.167  1.00  0.00    -0.362 C  
ATOM     15  C3*   C A   1     -11.928  14.005  66.543  1.00  0.00    -0.444 C  
ATOM     16  H2*   C A   1     -11.716  14.053  69.264  1.00  0.00     0.000 HD 
ATOM     17  C2*   C A   1     -10.736  14.248  67.465  1.00  0.00    -0.270 C  
ATOM     18  O3*   C A   1     -12.256  12.609  66.565  1.00  0.00    -0.538 OA 
ATOM     19  O2*   C A   1     -11.139  14.627  68.774  1.00  0.00    -0.239 OA 
ATOM     20  H3*   C A   1     -12.548  12.327  67.424  1.00  0.00     0.000 HD 
BRANCH  14  21
ATOM     21  C5*   C A   1     -12.234  15.686  64.677  1.00  0.00     0.114 C  
ATOM     22  O5*   C A   1     -11.435  16.450  63.779  1.00  0.00    -1.590 OA 
ATOM     23  H5*   C A   1     -11.915  17.212  63.476  1.00  0.00     0.000 HD 
ENDBRANCH  14  21
ENDBRANCH   8  12
TORSDOF 2
ENDMDL
MODEL       13
REMARK 921   NORMALIZED FREE ENERGY PREDICTED BY IDOCK:   -5.78 KCAL/MOL
REMARK 922        TOTAL FREE ENERGY PREDICTED BY IDOCK:   -6.47 KCAL/MOL
REMARK 923 INTER-LIGAND FREE ENERGY PREDICTED BY IDOCK:   -6.60 KCAL/MOL
REMARK 924 INTRA-LIGAND FREE ENERGY PREDICTED BY IDOCK:    0.13 KCAL/MOL
REMARK 927      BINDING AFFINITY PREDICTED BY RF-SCORE:    0.00 PKD
ROOT
ATOM      1  N4    C A   1     -12.007  10.579  68.165  1.00  0.00    -0.740 NA 
ATOM      2  H42   C A   1     -12.759  10.381  68.824  1.00  0.00     0.000 HD 
ATOM      3  C4    C A   1     -11.425  11.811  68.104  1.00  0.00    -0.316 C  
ATOM      4  H41   C A   1     -11.661   9.863  67.526  1.00  0.00     0.000 HD 
ATOM      5  N3    C A   1     -11.863  12.720  68.915  1.00  0.00    -0.316 N  
ATOM      6  C2    C A   1     -11.306  13.976  68.911  1.00  0.00    -0.280 C  
ATOM      7  H3    C A   1     -12.624  12.503  69.558  1.00  0.00     0.000 HD 
ATOM      8  N1    C A   1     -10.374  14.300  67.901  1.00  0.00    -0.231 N  
ATOM      9  O2    C A   1     -11.634  14.790  69.773  1.00  0.00    -0.265 OA 
ATOM     10  C5    C A   1     -10.348  12.062  67.135  1.00  0.00    -0.235 C  
ATOM     11  C6    C A   1      -9.891  13.311  67.074  1.00  0.00    -0.242 C  
ENDROOT
BRANCH   8  12
ATOM     12  C1*   C A   1      -9.809  15.649  67.967  1.00  0.00    -0.209 C  
ATOM     13  O4*   C A   1     -10.693  16.544  67.247  1.00  0.00    -0.313 OA 
ATOM     14  C4*   C A   1     -10.201  16.713  65.906  1.00  0.00    -0.340 C  
ATOM     15  C3*   C A   1      -8.700  16.466  65.959  1.00  0.00    -0.239 C  
ATOM     16  H2*   C A   1      -6.521  15.288  67.106  1.00  0.00     0.000 HD 
ATOM     17  C2*   C A   1      -8.425  16.016  67.390  1.00  0.00    -0.168 C  
ATOM     18  O3*   C A   1      -7.950  17.659  65.694  1.00  0.00    -0.529 OA 
ATOM     19  O2*   C A   1      -7.373  15.063  67.461  1.00  0.00    -0.171 OA 
ATOM     20  H3*   C A   1      -7.014  17.505  65.727  1.00  0.00     0.000 HD 
BRANCH  14  21
ATOM     21  C5*   C A   1     -10.910  15.719  64.978  1.00  0.00    -0.443 C  
ATOM     22  O5*   C A   1     -11.476  16.400  63.862  1.00  0.00    -1.569 OA 
ATOM     23  H5*   C A   1     -11.916  15.784  63.288  1.00  0.00     0.000 HD 
ENDBRANCH  14  21
ENDBRANCH   8  12
TORSDOF 2
ENDMDL
MODEL       14
REMARK 921   NORMALIZED FREE ENERGY PREDICTED BY IDOCK:   -5.78 KCAL/MOL
REMARK 922        TOTAL FREE ENERGY PREDICTED BY IDOCK:   -6.47 KCAL/MOL
REMARK 923 INTER-LIGAND FREE ENERGY PREDICTED BY IDOCK:   -6.58 KCAL/MOL
REMARK 924 INTRA-LIGAND FREE ENERGY PREDICTED BY IDOCK:    0.11 KCAL/MOL
REMARK 927      BINDING AFFINITY PREDICTED BY RF-SCORE:    0.00 PKD
ROOT
ATOM      1  N4    C A   1     -11.743  16.239  63.912  1.00  0.00    -1.518 NA 
ATOM      2  H42   C A   1     -11.124  17.020  63.698  1.00  0.00     0.000 HD 
ATOM      3  C4    C A   1     -11.384  15.277  64.810  1.00  0.00    -0.391 C  
ATOM      4  H41   C A   1     -12.654  16.148  63.463  1.00  0.00     0.000 HD 
ATOM      5  N3    C A   1     -10.228  15.392  65.379  1.00  0.00    -0.370 N  
ATOM      6  C2    C A   1      -9.818  14.462  66.304  1.00  0.00    -0.304 C  
ATOM      7  H3    C A   1      -9.620  16.176  65.142  1.00  0.00     0.000 HD 
ATOM      8  N1    C A   1     -10.599  13.302  66.489  1.00  0.00    -0.283 N  
ATOM      9  O2    C A   1      -8.781  14.651  66.938  1.00  0.00    -0.225 OA 
ATOM     10  C5    C A   1     -12.300  14.161  65.087  1.00  0.00    -0.460 C  
ATOM     11  C6    C A   1     -11.844  13.215  65.906  1.00  0.00    -0.406 C  
ENDROOT
BRANCH   8  12
ATOM     12  C1*   C A   1     -10.112  12.362  67.500  1.00  0.00    -0.202 C  
ATOM     13  O4*   C A   1      -9.055  11.568  66.906  1.00  0.00    -0.169 OA 
ATOM     14  C4*   C A   1      -9.608  10.327  66.432  1.00  0.00    -0.185 C  
ATOM     15  C3*   C A   1     -10.841  10.049  67.280  1.00  0.00    -0.217 C  
ATOM     16  H2*   C A   1     -12.919  10.924  68.819  1.00  0.00     0.000 HD 
ATOM     17  C2*   C A   1     -11.004  11.286  68.157  1.00  0.00    -0.231 C  
ATOM     18  O3*   C A   1     -10.663   8.902  68.123  1.00  0.00    -0.391 OA 
ATOM     19  O2*   C A   1     -12.370  11.585  68.415  1.00  0.00    -0.461 OA 
ATOM     20  H3*   C A   1     -11.433   8.728  68.652  1.00  0.00     0.000 HD 
BRANCH  14  21
ATOM     21  C5*   C A   1      -9.958  10.464  64.946  1.00  0.00    -0.339 C  
ATOM     22  O5*   C A   1      -9.409   9.379  64.204  1.00  0.00    -0.426 OA 
ATOM     23  H5*   C A   1      -9.625   9.464  63.284  1.00  0.00     0.000 HD 
ENDBRANCH  14  21
ENDBRANCH   8  12
TORSDOF 2
ENDMDL
MODEL       15
REMARK 921   NORMALIZED FREE ENERGY PREDICTED BY IDOCK:   -5.75 KCAL/MOL
REMARK 922        TOTAL FREE ENERGY PREDICTED BY IDOCK:   -6.44 KCAL/MOL
REMARK 923 INTER-LIGAND FREE ENERGY PREDICTED BY IDOCK:   -6.45 KCAL/MOL
REMARK 924 INTRA-LIGAND FREE ENERGY PREDICTED BY IDOCK:    0.01 KCAL/MOL
REMARK 927      BINDING AFFINITY PREDICTED BY RF-SCORE:    0.00 PKD
ROOT
ATOM      1  N4    C A   1      -7.677  14.607  69.583  1.00  0.00    -0.388 NA 
ATOM      2  H42   C A   1      -7.810  14.457  70.583  1.00  0.00     0.000 HD 
ATOM      3  C4    C A   1      -8.722  14.527  68.710  1.00  0.00    -0.147 C  
ATOM      4  H41   C A   1      -6.758  14.821  69.198  1.00  0.00     0.000 HD 
ATOM      5  N3    C A   1      -9.889  14.255  69.198  1.00  0.00    -0.419 N  
ATOM      6  C2    C A   1     -10.983  14.176  68.369  1.00  0.00    -0.254 C  
ATOM      7  H3    C A   1      -9.998  14.098  70.199  1.00  0.00     0.000 HD 
ATOM      8  N1    C A   1     -10.781  14.230  66.974  1.00  0.00    -0.287 N  
ATOM      9  O2    C A   1     -12.106  14.053  68.855  1.00  0.00    -0.351 OA 
ATOM     10  C5    C A   1      -8.490  14.741  67.274  1.00  0.00    -0.234 C  
ATOM     11  C6    C A   1      -9.540  14.559  66.475  1.00  0.00    -0.293 C  
ENDROOT
BRANCH   8  12
ATOM     12  C1*   C A   1     -11.990  14.157  66.153  1.00  0.00    -0.422 C  
ATOM     13  O4*   C A   1     -12.358  12.761  66.015  1.00  0.00    -0.547 OA 
ATOM     14  C4*   C A   1     -11.832  12.257  64.774  1.00  0.00    -0.364 C  
ATOM     15  C3*   C A   1     -11.698  13.451  63.840  1.00  0.00    -0.404 C  
ATOM     16  H2*   C A   1     -11.351  16.129  63.434  1.00  0.00     0.000 HD 
ATOM     17  C2*   C A   1     -12.056  14.663  64.695  1.00  0.00    -0.454 C  
ATOM     18  O3*   C A   1     -12.611  13.374  62.738  1.00  0.00    -0.692 OA 
ATOM     19  O2*   C A   1     -11.311  15.817  64.331  1.00  0.00    -0.405 OA 
ATOM     20  H3*   C A   1     -12.528  14.119  62.155  1.00  0.00     0.000 HD 
BRANCH  14  21
ATOM     21  C5*   C A   1     -10.479  11.584  65.036  1.00  0.00    -0.290 C  
ATOM     22  O5*   C A   1      -9.489  12.100  64.151  1.00  0.00    -0.496 OA 
ATOM     23  H5*   C A   1      -8.651  11.683  64.313  1.00  0.00     0.000 HD 
ENDBRANCH  14  21
ENDBRANCH   8  12
TORSDOF 2
ENDMDL
MODEL       16
REMARK 921   NORMALIZED FREE ENERGY PREDICTED BY IDOCK:   -5.72 KCAL/MOL
REMARK 922        TOTAL FREE ENERGY PREDICTED BY IDOCK:   -6.40 KCAL/MOL
REMARK 923 INTER-LIGAND FREE ENERGY PREDICTED BY IDOCK:   -6.41 KCAL/MOL
REMARK 924 INTRA-LIGAND FREE ENERGY PREDICTED BY IDOCK:    0.01 KCAL/MOL
REMARK 927      BINDING AFFINITY PREDICTED BY RF-SCORE:    0.00 PKD
ROOT
ATOM      1  N4    C A   1     -11.569  14.719  71.485  1.00  0.00    -0.496 NA 
ATOM      2  H42   C A   1     -11.490  14.162  72.335  1.00  0.00     0.000 HD 
ATOM      3  C4    C A   1     -11.709  14.130  70.262  1.00  0.00    -0.258 C  
ATOM      4  H41   C A   1     -11.548  15.738  71.517  1.00  0.00     0.000 HD 
ATOM      5  N3    C A   1     -11.736  12.837  70.222  1.00  0.00    -0.548 N  
ATOM      6  C2    C A   1     -11.890  12.187  69.021  1.00  0.00    -0.306 C  
ATOM      7  H3    C A   1     -11.643  12.299  71.083  1.00  0.00     0.000 HD 
ATOM      8  N1    C A   1     -11.847  12.944  67.831  1.00  0.00    -0.353 N  
ATOM      9  O2    C A   1     -12.051  10.967  69.005  1.00  0.00    -0.426 OA 
ATOM     10  C5    C A   1     -11.813  14.967  69.058  1.00  0.00    -0.333 C  
ATOM     11  C6    C A   1     -11.857  14.320  67.895  1.00  0.00    -0.358 C  
ENDROOT
BRANCH   8  12
ATOM     12  C1*   C A   1     -12.033  12.190  66.590  1.00  0.00    -0.107 C  
ATOM     13  O4*   C A   1     -10.781  11.534  66.268  1.00  0.00    -0.255 OA 
ATOM     14  C4*   C A   1     -10.053  12.345  65.328  1.00  0.00    -0.265 C  
ATOM     15  C3*   C A   1     -11.087  13.164  64.569  1.00  0.00    -0.356 C  
ATOM     16  H2*   C A   1     -13.531  14.373  64.428  1.00  0.00     0.000 HD 
ATOM     17  C2*   C A   1     -12.417  12.849  65.248  1.00  0.00    -0.493 C  
ATOM     18  O3*   C A   1     -11.167  12.779  63.189  1.00  0.00    -0.721 OA 
ATOM     19  O2*   C A   1     -13.295  13.967  65.253  1.00  0.00    -0.741 OA 
ATOM     20  H3*   C A   1     -11.812  13.291  62.715  1.00  0.00     0.000 HD 
BRANCH  14  21
ATOM     21  C5*   C A   1      -9.066  13.238  66.090  1.00  0.00     0.123 C  
ATOM     22  O5*   C A   1      -9.273  14.607  65.751  1.00  0.00    -0.516 OA 
ATOM     23  H5*   C A   1      -8.661  15.160  66.222  1.00  0.00     0.000 HD 
ENDBRANCH  14  21
ENDBRANCH   8  12
TORSDOF 2
ENDMDL
MODEL       17
REMARK 921   NORMALIZED FREE ENERGY PREDICTED BY IDOCK:   -5.49 KCAL/MOL
REMARK 922        TOTAL FREE ENERGY PREDICTED BY IDOCK:   -6.15 KCAL/MOL
REMARK 923 INTER-LIGAND FREE ENERGY PREDICTED BY IDOCK:   -6.34 KCAL/MOL
REMARK 924 INTRA-LIGAND FREE ENERGY PREDICTED BY IDOCK:    0.19 KCAL/MOL
REMARK 927      BINDING AFFINITY PREDICTED BY RF-SCORE:    0.00 PKD
ROOT
ATOM      1  N4    C A   1     -12.576  11.526  62.987  1.00  0.00    -0.904 NA 
ATOM      2  H42   C A   1     -12.391  10.525  62.934  1.00  0.00     0.000 HD 
ATOM      3  C4    C A   1     -11.847  12.339  63.805  1.00  0.00    -0.498 C  
ATOM      4  H41   C A   1     -13.313  11.958  62.429  1.00  0.00     0.000 HD 
ATOM      5  N3    C A   1     -10.913  11.791  64.513  1.00  0.00    -0.313 N  
ATOM      6  C2    C A   1     -10.135  12.561  65.345  1.00  0.00    -0.267 C  
ATOM      7  H3    C A   1     -10.753  10.786  64.453  1.00  0.00     0.000 HD 
ATOM      8  N1    C A   1     -10.485  13.914  65.537  1.00  0.00    -0.308 N  
ATOM      9  O2    C A   1      -9.165  12.057  65.908  1.00  0.00    -0.199 OA 
ATOM     10  C5    C A   1     -12.148  13.777  63.860  1.00  0.00    -0.423 C  
ATOM     11  C6    C A   1     -11.455  14.489  64.747  1.00  0.00    -0.408 C  
ENDROOT
BRANCH   8  12
ATOM     12  C1*   C A   1      -9.604  14.678  66.422  1.00  0.00    -0.301 C  
ATOM     13  O4*   C A   1      -9.745  14.149  67.764  1.00  0.00    -0.215 OA 
ATOM     14  C4*   C A   1     -10.695  14.951  68.489  1.00  0.00    -0.245 C  
ATOM     15  C3*   C A   1     -10.670  16.334  67.855  1.00  0.00    -0.329 C  
ATOM     16  H2*   C A   1     -10.237  17.960  65.705  1.00  0.00     0.000 HD 
ATOM     17  C2*   C A   1      -9.745  16.199  66.649  1.00  0.00    -0.244 C  
ATOM     18  O3*   C A   1     -10.132  17.322  68.745  1.00  0.00    -0.301 OA 
ATOM     19  O2*   C A   1     -10.151  17.025  65.566  1.00  0.00    -0.577 OA 
ATOM     20  H3*   C A   1     -10.116  18.185  68.349  1.00  0.00     0.000 HD 
BRANCH  14  21
ATOM     21  C5*   C A   1     -12.082  14.304  68.391  1.00  0.00    -0.262 C  
ATOM     22  O5*   C A   1     -12.870  14.646  69.526  1.00  0.00    -0.548 OA 
ATOM     23  H5*   C A   1     -13.729  14.246  69.465  1.00  0.00     0.000 HD 
ENDBRANCH  14  21
ENDBRANCH   8  12
TORSDOF 2
ENDMDL
MODEL       18
REMARK 921   NORMALIZED FREE ENERGY PREDICTED BY IDOCK:   -5.49 KCAL/MOL
REMARK 922        TOTAL FREE ENERGY PREDICTED BY IDOCK:   -6.15 KCAL/MOL
REMARK 923 INTER-LIGAND FREE ENERGY PREDICTED BY IDOCK:   -6.27 KCAL/MOL
REMARK 924 INTRA-LIGAND FREE ENERGY PREDICTED BY IDOCK:    0.12 KCAL/MOL
REMARK 927      BINDING AFFINITY PREDICTED BY RF-SCORE:    0.00 PKD
ROOT
ATOM      1  N4    C A   1      -9.800  20.816  66.875  1.00  0.00    -0.604 NA 
ATOM      2  H42   C A   1     -10.242  21.432  66.193  1.00  0.00     0.000 HD 
ATOM      3  C4    C A   1      -9.888  19.459  66.764  1.00  0.00    -0.362 C  
ATOM      4  H41   C A   1      -9.276  21.191  67.665  1.00  0.00     0.000 HD 
ATOM      5  N3    C A   1     -10.553  18.983  65.761  1.00  0.00    -0.429 N  
ATOM      6  C2    C A   1     -10.663  17.624  65.588  1.00  0.00    -0.084 C  
ATOM      7  H3    C A   1     -10.996  19.618  65.098  1.00  0.00     0.000 HD 
ATOM      8  N1    C A   1     -10.187  16.771  66.607  1.00  0.00    -0.301 N  
ATOM      9  O2    C A   1     -11.178  17.181  64.563  1.00  0.00    -1.104 OA 
ATOM     10  C5    C A   1      -9.244  18.602  67.771  1.00  0.00    -0.306 C  
ATOM     11  C6    C A   1      -9.448  17.293  67.645  1.00  0.00    -0.246 C  
ENDROOT
BRANCH   8  12
ATOM     12  C1*   C A   1     -10.322  15.336  66.349  1.00  0.00    -0.289 C  
ATOM     13  O4*   C A   1     -11.645  14.924  66.774  1.00  0.00    -0.344 OA 
ATOM     14  C4*   C A   1     -11.565  14.386  68.106  1.00  0.00    -0.329 C  
ATOM     15  C3*   C A   1     -10.147  13.861  68.279  1.00  0.00    -0.241 C  
ATOM     16  H2*   C A   1      -7.492  13.921  67.644  1.00  0.00     0.000 HD 
ATOM     17  C2*   C A   1      -9.416  14.270  67.003  1.00  0.00    -0.254 C  
ATOM     18  O3*   C A   1     -10.115  12.432  68.394  1.00  0.00    -0.219 OA 
ATOM     19  O2*   C A   1      -8.050  14.577  67.242  1.00  0.00    -0.188 OA 
ATOM     20  H3*   C A   1      -9.230  12.104  68.502  1.00  0.00     0.000 HD 
BRANCH  14  21
ATOM     21  C5*   C A   1     -11.890  15.491  69.118  1.00  0.00    -0.354 C  
ATOM     22  O5*   C A   1     -13.010  15.118  69.916  1.00  0.00    -0.618 OA 
ATOM     23  H5*   C A   1     -13.211  15.803  70.543  1.00  0.00     0.000 HD 
ENDBRANCH  14  21
ENDBRANCH   8  12
TORSDOF 2
ENDMDL
MODEL       19
REMARK 921   NORMALIZED FREE ENERGY PREDICTED BY IDOCK:   -5.48 KCAL/MOL
REMARK 922        TOTAL FREE ENERGY PREDICTED BY IDOCK:   -6.14 KCAL/MOL
REMARK 923 INTER-LIGAND FREE ENERGY PREDICTED BY IDOCK:   -6.21 KCAL/MOL
REMARK 924 INTRA-LIGAND FREE ENERGY PREDICTED BY IDOCK:    0.07 KCAL/MOL
REMARK 927      BINDING AFFINITY PREDICTED BY RF-SCORE:    0.00 PKD
ROOT
ATOM      1  N4    C A   1     -12.230  12.719  70.746  1.00  0.00    -0.461 NA 
ATOM      2  H42   C A   1     -12.076  13.554  71.311  1.00  0.00     0.000 HD 
ATOM      3  C4    C A   1     -11.593  12.546  69.552  1.00  0.00    -0.281 C  
ATOM      4  H41   C A   1     -12.865  11.983  71.052  1.00  0.00     0.000 HD 
ATOM      5  N3    C A   1     -10.788  13.481  69.163  1.00  0.00    -0.407 N  
ATOM      6  C2    C A   1     -10.107  13.357  67.975  1.00  0.00    -0.241 C  
ATOM      7  H3    C A   1     -10.658  14.313  69.738  1.00  0.00     0.000 HD 
ATOM      8  N1    C A   1     -10.429  12.282  67.120  1.00  0.00    -0.218 N  
ATOM      9  O2    C A   1      -9.244  14.182  67.679  1.00  0.00    -0.181 OA 
ATOM     10  C5    C A   1     -11.846  11.333  68.760  1.00  0.00    -0.396 C  
ATOM     11  C6    C A   1     -11.258  11.277  67.567  1.00  0.00    -0.291 C  
ENDROOT
BRANCH   8  12
ATOM     12  C1*   C A   1      -9.654  12.201  65.881  1.00  0.00    -0.214 C  
ATOM     13  O4*   C A   1     -10.107  13.256  64.996  1.00  0.00    -0.289 OA 
ATOM     14  C4*   C A   1     -11.082  12.718  64.083  1.00  0.00    -0.389 C  
ATOM     15  C3*   C A   1     -10.781  11.232  63.951  1.00  0.00    -0.384 C  
ATOM     16  H2*   C A   1      -9.765   8.910  64.964  1.00  0.00     0.000 HD 
ATOM     17  C2*   C A   1      -9.664  10.965  64.955  1.00  0.00    -0.267 C  
ATOM     18  O3*   C A   1     -10.315  10.895  62.637  1.00  0.00    -0.747 OA 
ATOM     19  O2*   C A   1      -9.760   9.670  65.533  1.00  0.00    -0.280 OA 
ATOM     20  H3*   C A   1     -10.127   9.968  62.554  1.00  0.00     0.000 HD 
BRANCH  14  21
ATOM     21  C5*   C A   1     -12.488  12.967  64.642  1.00  0.00    -0.434 C  
ATOM     22  O5*   C A   1     -13.397  11.987  64.151  1.00  0.00    -0.725 OA 
ATOM     23  H5*   C A   1     -14.268  12.141  64.497  1.00  0.00     0.000 HD 
ENDBRANCH  14  21
ENDBRANCH   8  12
TORSDOF 2
ENDMDL
MODEL       20
REMARK 921   NORMALIZED FREE ENERGY PREDICTED BY IDOCK:   -5.48 KCAL/MOL
REMARK 922        TOTAL FREE ENERGY PREDICTED BY IDOCK:   -6.14 KCAL/MOL
REMARK 923 INTER-LIGAND FREE ENERGY PREDICTED BY IDOCK:   -6.18 KCAL/MOL
REMARK 924 INTRA-LIGAND FREE ENERGY PREDICTED BY IDOCK:    0.04 KCAL/MOL
REMARK 927      BINDING AFFINITY PREDICTED BY RF-SCORE:    0.00 PKD
ROOT
ATOM      1  N4    C A   1     -12.805  13.745  65.082  1.00  0.00    -0.748 NA 
ATOM      2  H42   C A   1     -13.621  13.227  65.405  1.00  0.00     0.000 HD 
ATOM      3  C4    C A   1     -12.007  14.425  65.955  1.00  0.00    -0.359 C  
ATOM      4  H41   C A   1     -12.555  13.775  64.094  1.00  0.00     0.000 HD 
ATOM      5  N3    C A   1     -12.325  14.387  67.208  1.00  0.00    -0.594 N  
ATOM      6  C2    C A   1     -11.550  15.040  68.137  1.00  0.00    -0.340 C  
ATOM      7  H3    C A   1     -13.152  13.872  67.508  1.00  0.00     0.000 HD 
ATOM      8  N1    C A   1     -10.513  15.882  67.682  1.00  0.00    -0.282 N  
ATOM      9  O2    C A   1     -11.780  14.888  69.336  1.00  0.00    -0.286 OA 
ATOM     10  C5    C A   1     -10.843  15.168  65.450  1.00  0.00    -0.393 C  
ATOM     11  C6    C A   1     -10.165  15.879  66.350  1.00  0.00    -0.301 C  
ENDROOT
BRANCH   8  12
ATOM     12  C1*   C A   1      -9.719  16.533  68.725  1.00  0.00    -0.251 C  
ATOM     13  O4*   C A   1     -10.444  17.702  69.181  1.00  0.00    -0.331 OA 
ATOM     14  C4*   C A   1      -9.953  18.862  68.485  1.00  0.00    -0.406 C  
ATOM     15  C3*   C A   1      -8.519  18.552  68.081  1.00  0.00    -0.296 C  
ATOM     16  H2*   C A   1      -6.560  16.762  67.438  1.00  0.00     0.000 HD 
ATOM     17  C2*   C A   1      -8.302  17.096  68.483  1.00  0.00    -0.262 C  
ATOM     18  O3*   C A   1      -7.576  19.373  68.784  1.00  0.00    -0.343 OA 
ATOM     19  O2*   C A   1      -7.432  16.416  67.587  1.00  0.00    -0.123 OA 
ATOM     20  H3*   C A   1      -6.680  19.180  68.532  1.00  0.00     0.000 HD 
BRANCH  14  21
ATOM     21  C5*   C A   1     -10.842  19.133  67.265  1.00  0.00    -0.431 C  
ATOM     22  O5*   C A   1     -10.142  19.920  66.306  1.00  0.00    -0.435 OA 
ATOM     23  H5*   C A   1     -10.692  20.088  65.551  1.00  0.00     0.000 HD 
ENDBRANCH  14  21
ENDBRANCH   8  12
TORSDOF 2
ENDMDL
MODEL       21
REMARK 921   NORMALIZED FREE ENERGY PREDICTED BY IDOCK:   -5.48 KCAL/MOL
REMARK 922        TOTAL FREE ENERGY PREDICTED BY IDOCK:   -6.14 KCAL/MOL
REMARK 923 INTER-LIGAND FREE ENERGY PREDICTED BY IDOCK:   -6.25 KCAL/MOL
REMARK 924 INTRA-LIGAND FREE ENERGY PREDICTED BY IDOCK:    0.12 KCAL/MOL
REMARK 927      BINDING AFFINITY PREDICTED BY RF-SCORE:    0.00 PKD
ROOT
ATOM      1  N4    C A   1     -10.082   8.957  68.810  1.00  0.00    -0.195 NA 
ATOM      2  H42   C A   1      -9.381   8.219  68.752  1.00  0.00     0.000 HD 
ATOM      3  C4    C A   1     -10.352   9.763  67.742  1.00  0.00    -0.225 C  
ATOM      4  H41   C A   1     -10.607   9.121  69.668  1.00  0.00     0.000 HD 
ATOM      5  N3    C A   1      -9.686   9.555  66.653  1.00  0.00    -0.195 N  
ATOM      6  C2    C A   1      -9.925  10.325  65.540  1.00  0.00    -0.296 C  
ATOM      7  H3    C A   1      -8.981   8.819  66.621  1.00  0.00     0.000 HD 
ATOM      8  N1    C A   1     -10.779  11.442  65.660  1.00  0.00    -0.261 N  
ATOM      9  O2    C A   1      -9.387  10.034  64.472  1.00  0.00    -0.248 OA 
ATOM     10  C5    C A   1     -11.365  10.822  67.867  1.00  0.00    -0.372 C  
ATOM     11  C6    C A   1     -11.509  11.623  66.813  1.00  0.00    -0.225 C  
ENDROOT
BRANCH   8  12
ATOM     12  C1*   C A   1     -11.002  12.206  64.431  1.00  0.00    -0.326 C  
ATOM     13  O4*   C A   1      -9.946  13.193  64.317  1.00  0.00    -0.256 OA 
ATOM     14  C4*   C A   1     -10.416  14.448  64.843  1.00  0.00    -0.423 C  
ATOM     15  C3*   C A   1     -11.931  14.443  64.693  1.00  0.00    -0.464 C  
ATOM     16  H2*   C A   1     -14.301  13.099  64.514  1.00  0.00     0.000 HD 
ATOM     17  C2*   C A   1     -12.271  13.048  64.176  1.00  0.00    -0.401 C  
ATOM     18  O3*   C A   1     -12.378  15.414  63.737  1.00  0.00    -0.979 OA 
ATOM     19  O2*   C A   1     -13.520  12.582  64.671  1.00  0.00    -0.639 OA 
ATOM     20  H3*   C A   1     -13.323  15.410  63.643  1.00  0.00     0.000 HD 
BRANCH  14  21
ATOM     21  C5*   C A   1      -9.990  14.572  66.311  1.00  0.00    -0.305 C  
ATOM     22  O5*   C A   1      -8.604  14.887  66.399  1.00  0.00    -0.446 OA 
ATOM     23  H5*   C A   1      -8.340  14.964  67.308  1.00  0.00     0.000 HD 
ENDBRANCH  14  21
ENDBRANCH   8  12
TORSDOF 2
ENDMDL
MODEL       22
REMARK 921   NORMALIZED FREE ENERGY PREDICTED BY IDOCK:   -5.47 KCAL/MOL
REMARK 922        TOTAL FREE ENERGY PREDICTED BY IDOCK:   -6.12 KCAL/MOL
REMARK 923 INTER-LIGAND FREE ENERGY PREDICTED BY IDOCK:   -6.15 KCAL/MOL
REMARK 924 INTRA-LIGAND FREE ENERGY PREDICTED BY IDOCK:    0.03 KCAL/MOL
REMARK 927      BINDING AFFINITY PREDICTED BY RF-SCORE:    0.00 PKD
ROOT
ATOM      1  N4    C A   1     -12.571  13.929  63.167  1.00  0.00    -0.976 NA 
ATOM      2  H42   C A   1     -13.383  13.361  62.927  1.00  0.00     0.000 HD 
ATOM      3  C4    C A   1     -11.895  13.740  64.337  1.00  0.00    -0.427 C  
ATOM      4  H41   C A   1     -12.233  14.659  62.541  1.00  0.00     0.000 HD 
ATOM      5  N3    C A   1     -12.324  12.814  65.132  1.00  0.00    -0.484 N  
ATOM      6  C2    C A   1     -11.676  12.567  66.319  1.00  0.00    -0.404 C  
ATOM      7  H3    C A   1     -13.145  12.265  64.878  1.00  0.00     0.000 HD 
ATOM      8  N1    C A   1     -10.650  13.447  66.725  1.00  0.00    -0.276 N  
ATOM      9  O2    C A   1     -12.005  11.599  67.002  1.00  0.00    -0.593 OA 
ATOM     10  C5    C A   1     -10.733  14.584  64.652  1.00  0.00    -0.332 C  
ATOM     11  C6    C A   1     -10.182  14.401  65.850  1.00  0.00    -0.325 C  
ENDROOT
BRANCH   8  12
ATOM     12  C1*   C A   1      -9.993  13.115  67.990  1.00  0.00    -0.233 C  
ATOM     13  O4*   C A   1     -10.756  13.715  69.067  1.00  0.00    -0.234 OA 
ATOM     14  C4*   C A   1     -10.161  14.977  69.419  1.00  0.00    -0.223 C  
ATOM     15  C3*   C A   1      -8.690  14.886  69.039  1.00  0.00    -0.177 C  
ATOM     16  H2*   C A   1      -6.688  13.844  67.503  1.00  0.00     0.000 HD 
ATOM     17  C2*   C A   1      -8.548  13.542  68.331  1.00  0.00    -0.142 C  
ATOM     18  O3*   C A   1      -7.838  14.895  70.193  1.00  0.00    -0.327 OA 
ATOM     19  O2*   C A   1      -7.577  13.582  67.294  1.00  0.00    -0.149 OA 
ATOM     20  H3*   C A   1      -6.920  14.839  69.956  1.00  0.00     0.000 HD 
BRANCH  14  21
ATOM     21  C5*   C A   1     -10.877  16.102  68.661  1.00  0.00    -0.311 C  
ATOM     22  O5*   C A   1     -12.274  15.837  68.584  1.00  0.00    -0.536 OA 
ATOM     23  H5*   C A   1     -12.717  16.534  68.114  1.00  0.00     0.000 HD 
ENDBRANCH  14  21
ENDBRANCH   8  12
TORSDOF 2
ENDMDL
MODEL       23
REMARK 921   NORMALIZED FREE ENERGY PREDICTED BY IDOCK:   -5.41 KCAL/MOL
REMARK 922        TOTAL FREE ENERGY PREDICTED BY IDOCK:   -6.06 KCAL/MOL
REMARK 923 INTER-LIGAND FREE ENERGY PREDICTED BY IDOCK:   -6.60 KCAL/MOL
REMARK 924 INTRA-LIGAND FREE ENERGY PREDICTED BY IDOCK:    0.54 KCAL/MOL
REMARK 927      BINDING AFFINITY PREDICTED BY RF-SCORE:    0.00 PKD
ROOT
ATOM      1  N4    C A   1     -12.115  12.143  71.069  1.00  0.00    -0.346 NA 
ATOM      2  H42   C A   1     -12.006  11.174  71.365  1.00  0.00     0.000 HD 
ATOM      3  C4    C A   1     -11.903  12.517  69.774  1.00  0.00    -0.310 C  
ATOM      4  H41   C A   1     -12.386  12.871  71.730  1.00  0.00     0.000 HD 
ATOM      5  N3    C A   1     -11.558  11.594  68.935  1.00  0.00    -0.286 N  
ATOM      6  C2    C A   1     -11.346  11.907  67.614  1.00  0.00    -0.304 C  
ATOM      7  H3    C A   1     -11.444  10.633  69.255  1.00  0.00     0.000 HD 
ATOM      8  N1    C A   1     -11.344  13.265  67.231  1.00  0.00    -0.299 N  
ATOM      9  O2    C A   1     -11.153  11.006  66.799  1.00  0.00    -0.261 OA 
ATOM     10  C5    C A   1     -12.062  13.926  69.387  1.00  0.00    -0.384 C  
ATOM     11  C6    C A   1     -11.752  14.228  68.127  1.00  0.00    -0.350 C  
ENDROOT
BRANCH   8  12
ATOM     12  C1*   C A   1     -11.128  13.524  65.807  1.00  0.00    -0.286 C  
ATOM     13  O4*   C A   1      -9.849  14.191  65.659  1.00  0.00    -0.304 OA 
ATOM     14  C4*   C A   1     -10.065  15.612  65.591  1.00  0.00    -0.365 C  
ATOM     15  C3*   C A   1     -11.473  15.813  65.050  1.00  0.00    -0.122 C  
ATOM     16  H2*   C A   1     -14.036  14.939  64.698  1.00  0.00     0.000 HD 
ATOM     17  C2*   C A   1     -12.064  14.409  64.955  1.00  0.00    -0.415 C  
ATOM     18  O3*   C A   1     -11.466  16.403  63.743  1.00  0.00    -1.590 OA 
ATOM     19  O2*   C A   1     -13.459  14.395  65.222  1.00  0.00    -0.483 OA 
ATOM     20  H3*   C A   1     -12.345  16.528  63.405  1.00  0.00     0.000 HD 
BRANCH  14  21
ATOM     21  C5*   C A   1      -9.901  16.216  66.991  1.00  0.00    -0.245 C  
ATOM     22  O5*   C A   1      -9.390  17.543  66.902  1.00  0.00    -0.253 OA 
ATOM     23  H5*   C A   1      -9.289  17.916  67.769  1.00  0.00     0.000 HD 
ENDBRANCH  14  21
ENDBRANCH   8  12
TORSDOF 2
ENDMDL
MODEL       24
REMARK 921   NORMALIZED FREE ENERGY PREDICTED BY IDOCK:   -5.40 KCAL/MOL
REMARK 922        TOTAL FREE ENERGY PREDICTED BY IDOCK:   -6.04 KCAL/MOL
REMARK 923 INTER-LIGAND FREE ENERGY PREDICTED BY IDOCK:   -6.03 KCAL/MOL
REMARK 924 INTRA-LIGAND FREE ENERGY PREDICTED BY IDOCK:   -0.01 KCAL/MOL
REMARK 927      BINDING AFFINITY PREDICTED BY RF-SCORE:    0.00 PKD
ROOT
ATOM      1  N4    C A   1     -11.651  13.799  70.217  1.00  0.00    -0.500 NA 
ATOM      2  H42   C A   1     -11.833  12.827  69.970  1.00  0.00     0.000 HD 
ATOM      3  C4    C A   1     -11.312  14.719  69.268  1.00  0.00    -0.294 C  
ATOM      4  H41   C A   1     -11.716  14.120  71.182  1.00  0.00     0.000 HD 
ATOM      5  N3    C A   1     -11.229  14.311  68.043  1.00  0.00    -0.269 N  
ATOM      6  C2    C A   1     -10.905  15.195  67.041  1.00  0.00    -0.314 C  
ATOM      7  H3    C A   1     -11.403  13.332  67.820  1.00  0.00     0.000 HD 
ATOM      8  N1    C A   1     -10.504  16.501  67.395  1.00  0.00    -0.309 N  
ATOM      9  O2    C A   1     -10.961  14.832  65.868  1.00  0.00    -0.320 OA 
ATOM     10  C5    C A   1     -11.049  16.111  69.664  1.00  0.00    -0.344 C  
ATOM     11  C6    C A   1     -10.637  16.928  68.697  1.00  0.00    -0.360 C  
ENDROOT
BRANCH   8  12
ATOM     12  C1*   C A   1     -10.190  17.394  66.278  1.00  0.00    -0.341 C  
ATOM     13  O4*   C A   1      -8.844  17.097  65.828  1.00  0.00    -0.526 OA 
ATOM     14  C4*   C A   1      -7.928  18.018  66.447  1.00  0.00    -0.262 C  
ATOM     15  C3*   C A   1      -8.723  19.276  66.765  1.00  0.00    -0.313 C  
ATOM     16  H2*   C A   1     -11.086  20.516  67.343  1.00  0.00     0.000 HD 
ATOM     17  C2*   C A   1     -10.166  18.932  66.405  1.00  0.00    -0.426 C  
ATOM     18  O3*   C A   1      -8.300  20.393  65.971  1.00  0.00    -0.548 OA 
ATOM     19  O2*   C A   1     -11.101  19.569  67.265  1.00  0.00    -0.444 OA 
ATOM     20  H3*   C A   1      -8.796  21.178  66.170  1.00  0.00     0.000 HD 
BRANCH  14  21
ATOM     21  C5*   C A   1      -7.345  17.378  67.712  1.00  0.00    -0.177 C  
ATOM     22  O5*   C A   1      -7.488  18.257  68.824  1.00  0.00    -0.290 OA 
ATOM     23  H5*   C A   1      -7.127  17.860  69.608  1.00  0.00     0.000 HD 
ENDBRANCH  14  21
ENDBRANCH   8  12
TORSDOF 2
ENDMDL
MODEL       25
REMARK 921   NORMALIZED FREE ENERGY PREDICTED BY IDOCK:   -5.37 KCAL/MOL
REMARK 922        TOTAL FREE ENERGY PREDICTED BY IDOCK:   -6.01 KCAL/MOL
REMARK 923 INTER-LIGAND FREE ENERGY PREDICTED BY IDOCK:   -6.11 KCAL/MOL
REMARK 924 INTRA-LIGAND FREE ENERGY PREDICTED BY IDOCK:    0.10 KCAL/MOL
REMARK 927      BINDING AFFINITY PREDICTED BY RF-SCORE:    0.00 PKD
ROOT
ATOM      1  N4    C A   1     -10.227  10.002  69.997  1.00  0.00    -0.287 NA 
ATOM      2  H42   C A   1      -9.338   9.570  70.250  1.00  0.00     0.000 HD 
ATOM      3  C4    C A   1     -10.400  10.609  68.788  1.00  0.00    -0.193 C  
ATOM      4  H41   C A   1     -11.019   9.995  70.639  1.00  0.00     0.000 HD 
ATOM      5  N3    C A   1      -9.394  10.618  67.974  1.00  0.00    -0.145 N  
ATOM      6  C2    C A   1      -9.513  11.202  66.735  1.00  0.00    -0.184 C  
ATOM      7  H3    C A   1      -8.511  10.190  68.252  1.00  0.00     0.000 HD 
ATOM      8  N1    C A   1     -10.684  11.932  66.441  1.00  0.00    -0.256 N  
ATOM      9  O2    C A   1      -8.601  11.087  65.918  1.00  0.00    -0.176 OA 
ATOM     10  C5    C A   1     -11.693  11.228  68.462  1.00  0.00    -0.378 C  
ATOM     11  C6    C A   1     -11.758  11.878  67.302  1.00  0.00    -0.247 C  
ENDROOT
BRANCH   8  12
ATOM     12  C1*   C A   1     -10.750  12.513  65.099  1.00  0.00    -0.292 C  
ATOM     13  O4*   C A   1      -9.948  13.720  65.090  1.00  0.00    -0.297 OA 
ATOM     14  C4*   C A   1     -10.804  14.856  65.313  1.00  0.00    -0.386 C  
ATOM     15  C3*   C A   1     -12.190  14.459  64.823  1.00  0.00    -0.446 C  
ATOM     16  H2*   C A   1     -14.074  12.554  64.301  1.00  0.00     0.000 HD 
ATOM     17  C2*   C A   1     -12.067  12.985  64.445  1.00  0.00    -0.411 C  
ATOM     18  O3*   C A   1     -12.582  15.205  63.663  1.00  0.00    -0.917 OA 
ATOM     19  O2*   C A   1     -13.264  12.264  64.703  1.00  0.00    -0.763 OA 
ATOM     20  H3*   C A   1     -13.447  14.957  63.358  1.00  0.00     0.000 HD 
BRANCH  14  21
ATOM     21  C5*   C A   1     -10.806  15.203  66.806  1.00  0.00    -0.322 C  
ATOM     22  O5*   C A   1     -12.112  15.044  67.351  1.00  0.00    -0.412 OA 
ATOM     23  H5*   C A   1     -12.113  15.260  68.276  1.00  0.00     0.000 HD 
ENDBRANCH  14  21
ENDBRANCH   8  12
TORSDOF 2
ENDMDL
MODEL       26
REMARK 921   NORMALIZED FREE ENERGY PREDICTED BY IDOCK:   -5.33 KCAL/MOL
REMARK 922        TOTAL FREE ENERGY PREDICTED BY IDOCK:   -5.97 KCAL/MOL
REMARK 923 INTER-LIGAND FREE ENERGY PREDICTED BY IDOCK:   -6.11 KCAL/MOL
REMARK 924 INTRA-LIGAND FREE ENERGY PREDICTED BY IDOCK:    0.14 KCAL/MOL
REMARK 927      BINDING AFFINITY PREDICTED BY RF-SCORE:    0.00 PKD
ROOT
ATOM      1  N4    C A   1     -10.292  17.697  65.417  1.00  0.00    -0.570 NA 
ATOM      2  H42   C A   1     -10.889  18.276  64.827  1.00  0.00     0.000 HD 
ATOM      3  C4    C A   1     -10.430  16.340  65.448  1.00  0.00    -0.343 C  
ATOM      4  H41   C A   1      -9.570  18.110  66.006  1.00  0.00     0.000 HD 
ATOM      5  N3    C A   1     -11.347  15.815  64.700  1.00  0.00    -0.587 N  
ATOM      6  C2    C A   1     -11.523  14.452  64.677  1.00  0.00    -0.387 C  
ATOM      7  H3    C A   1     -11.939  16.414  64.126  1.00  0.00     0.000 HD 
ATOM      8  N1    C A   1     -10.808  13.662  65.602  1.00  0.00    -0.275 N  
ATOM      9  O2    C A   1     -12.301  13.953  63.866  1.00  0.00    -0.662 OA 
ATOM     10  C5    C A   1      -9.557  15.538  66.318  1.00  0.00    -0.338 C  
ATOM     11  C6    C A   1      -9.810  14.232  66.361  1.00  0.00    -0.296 C  
ENDROOT
BRANCH   8  12
ATOM     12  C1*   C A   1     -11.032  12.218  65.511  1.00  0.00    -0.298 C  
ATOM     13  O4*   C A   1     -12.139  11.877  66.383  1.00  0.00    -0.552 OA 
ATOM     14  C4*   C A   1     -11.621  11.427  67.648  1.00  0.00    -0.238 C  
ATOM     15  C3*   C A   1     -10.231  10.871  67.375  1.00  0.00    -0.201 C  
ATOM     16  H2*   C A   1      -7.943  10.804  65.888  1.00  0.00     0.000 HD 
ATOM     17  C2*   C A   1      -9.968  11.170  65.902  1.00  0.00    -0.239 C  
ATOM     18  O3*   C A   1     -10.173   9.452  67.579  1.00  0.00    -0.200 OA 
ATOM     19  O2*   C A   1      -8.598  11.448  65.648  1.00  0.00    -0.097 OA 
ATOM     20  H3*   C A   1      -9.306   9.105  67.409  1.00  0.00     0.000 HD 
BRANCH  14  21
ATOM     21  C5*   C A   1     -11.580  12.608  68.626  1.00  0.00    -0.316 C  
ATOM     22  O5*   C A   1     -11.367  12.143  69.955  1.00  0.00    -0.506 OA 
ATOM     23  H5*   C A   1     -11.342  12.874  70.561  1.00  0.00     0.000 HD 
ENDBRANCH  14  21
ENDBRANCH   8  12
TORSDOF 2
ENDMDL
MODEL       27
REMARK 921   NORMALIZED FREE ENERGY PREDICTED BY IDOCK:   -5.25 KCAL/MOL
REMARK 922        TOTAL FREE ENERGY PREDICTED BY IDOCK:   -5.88 KCAL/MOL
REMARK 923 INTER-LIGAND FREE ENERGY PREDICTED BY IDOCK:   -6.02 KCAL/MOL
REMARK 924 INTRA-LIGAND FREE ENERGY PREDICTED BY IDOCK:    0.14 KCAL/MOL
REMARK 927      BINDING AFFINITY PREDICTED BY RF-SCORE:    0.00 PKD
ROOT
ATOM      1  N4    C A   1     -14.184   8.962  73.255  1.00  0.00    -1.237 NA 
ATOM      2  H42   C A   1     -14.996   9.578  73.255  1.00  0.00     0.000 HD 
ATOM      3  C4    C A   1     -13.125   9.186  72.424  1.00  0.00    -0.423 C  
ATOM      4  H41   C A   1     -14.132   8.155  73.876  1.00  0.00     0.000 HD 
ATOM      5  N3    C A   1     -13.191  10.210  71.636  1.00  0.00    -0.413 N  
ATOM      6  C2    C A   1     -12.148  10.496  70.787  1.00  0.00    -0.370 C  
ATOM      7  H3    C A   1     -14.017  10.806  71.645  1.00  0.00     0.000 HD 
ATOM      8  N1    C A   1     -11.094   9.565  70.673  1.00  0.00    -0.275 N  
ATOM      9  O2    C A   1     -12.159  11.543  70.142  1.00  0.00    -0.325 OA 
ATOM     10  C5    C A   1     -11.974   8.271  72.447  1.00  0.00    -0.447 C  
ATOM     11  C6    C A   1     -11.021   8.503  71.547  1.00  0.00    -0.269 C  
ENDROOT
BRANCH   8  12
ATOM     12  C1*   C A   1     -10.010   9.941  69.763  1.00  0.00    -0.243 C  
ATOM     13  O4*   C A   1     -10.354   9.475  68.434  1.00  0.00    -0.190 OA 
ATOM     14  C4*   C A   1      -9.721   8.204  68.203  1.00  0.00    -0.161 C  
ATOM     15  C3*   C A   1      -8.486   8.164  69.090  1.00  0.00    -0.135 C  
ATOM     16  H2*   C A   1      -7.138   8.950  71.331  1.00  0.00     0.000 HD 
ATOM     17  C2*   C A   1      -8.558   9.440  69.924  1.00  0.00    -0.191 C  
ATOM     18  O3*   C A   1      -7.274   8.179  68.323  1.00  0.00    -0.088 OA 
ATOM     19  O2*   C A   1      -8.031   9.258  71.231  1.00  0.00    -0.322 OA 
ATOM     20  H3*   C A   1      -6.503   8.154  68.877  1.00  0.00     0.000 HD 
BRANCH  14  21
ATOM     21  C5*   C A   1     -10.706   7.079  68.547  1.00  0.00    -0.179 C  
ATOM     22  O5*   C A   1     -11.452   6.702  67.393  1.00  0.00    -0.747 OA 
ATOM     23  H5*   C A   1     -12.061   6.006  67.607  1.00  0.00     0.000 HD 
ENDBRANCH  14  21
ENDBRANCH   8  12
TORSDOF 2
ENDMDL
MODEL       28
REMARK 921   NORMALIZED FREE ENERGY PREDICTED BY IDOCK:   -5.23 KCAL/MOL
REMARK 922        TOTAL FREE ENERGY PREDICTED BY IDOCK:   -5.85 KCAL/MOL
REMARK 923 INTER-LIGAND FREE ENERGY PREDICTED BY IDOCK:   -5.89 KCAL/MOL
REMARK 924 INTRA-LIGAND FREE ENERGY PREDICTED BY IDOCK:    0.04 KCAL/MOL
REMARK 927      BINDING AFFINITY PREDICTED BY RF-SCORE:    0.00 PKD
ROOT
ATOM      1  N4    C A   1     -13.176  12.824  71.765  1.00  0.00    -0.420 NA 
ATOM      2  H42   C A   1     -13.293  13.494  72.524  1.00  0.00     0.000 HD 
ATOM      3  C4    C A   1     -12.421  13.122  70.668  1.00  0.00    -0.286 C  
ATOM      4  H41   C A   1     -13.618  11.906  71.796  1.00  0.00     0.000 HD 
ATOM      5  N3    C A   1     -11.859  14.287  70.628  1.00  0.00    -0.407 N  
ATOM      6  C2    C A   1     -11.075  14.638  69.555  1.00  0.00    -0.266 C  
ATOM      7  H3    C A   1     -11.999  14.946  71.393  1.00  0.00     0.000 HD 
ATOM      8  N1    C A   1     -11.033  13.779  68.436  1.00  0.00    -0.245 N  
ATOM      9  O2    C A   1     -10.437  15.690  69.587  1.00  0.00    -0.241 OA 
ATOM     10  C5    C A   1     -12.281  12.132  69.589  1.00  0.00    -0.183 C  
ATOM     11  C6    C A   1     -11.604  12.528  68.513  1.00  0.00    -0.321 C  
ENDROOT
BRANCH   8  12
ATOM     12  C1*   C A   1     -10.166  14.208  67.338  1.00  0.00    -0.244 C  
ATOM     13  O4*   C A   1     -10.921  15.111  66.492  1.00  0.00    -0.320 OA 
ATOM     14  C4*   C A   1     -11.471  14.371  65.387  1.00  0.00    -0.344 C  
ATOM     15  C3*   C A   1     -10.560  13.172  65.169  1.00  0.00    -0.319 C  
ATOM     16  H2*   C A   1      -8.778  11.333  66.115  1.00  0.00     0.000 HD 
ATOM     17  C2*   C A   1      -9.551  13.230  66.313  1.00  0.00    -0.235 C  
ATOM     18  O3*   C A   1      -9.854  13.256  63.923  1.00  0.00    -0.716 OA 
ATOM     19  O2*   C A   1      -9.156  11.935  66.746  1.00  0.00    -0.186 OA 
ATOM     20  H3*   C A   1      -9.285  12.507  63.787  1.00  0.00     0.000 HD 
BRANCH  14  21
ATOM     21  C5*   C A   1     -12.903  13.943  65.730  1.00  0.00    -0.391 C  
ATOM     22  O5*   C A   1     -13.256  12.768  65.006  1.00  0.00    -0.768 OA 
ATOM     23  H5*   C A   1     -14.143  12.503  65.218  1.00  0.00     0.000 HD 
ENDBRANCH  14  21
ENDBRANCH   8  12
TORSDOF 2
ENDMDL
MODEL       29
REMARK 921   NORMALIZED FREE ENERGY PREDICTED BY IDOCK:   -5.19 KCAL/MOL
REMARK 922        TOTAL FREE ENERGY PREDICTED BY IDOCK:   -5.81 KCAL/MOL
REMARK 923 INTER-LIGAND FREE ENERGY PREDICTED BY IDOCK:   -5.96 KCAL/MOL
REMARK 924 INTRA-LIGAND FREE ENERGY PREDICTED BY IDOCK:    0.14 KCAL/MOL
REMARK 927      BINDING AFFINITY PREDICTED BY RF-SCORE:    0.00 PKD
ROOT
ATOM      1  N4    C A   1     -11.793  11.949  67.228  1.00  0.00    -0.612 NA 
ATOM      2  H42   C A   1     -11.825  11.789  66.222  1.00  0.00     0.000 HD 
ATOM      3  C4    C A   1     -11.468  10.947  68.095  1.00  0.00    -0.295 C  
ATOM      4  H41   C A   1     -12.003  12.865  67.625  1.00  0.00     0.000 HD 
ATOM      5  N3    C A   1     -11.203   9.785  67.592  1.00  0.00    -0.440 N  
ATOM      6  C2    C A   1     -10.855   8.740  68.414  1.00  0.00     0.034 C  
ATOM      7  H3    C A   1     -11.251   9.644  66.583  1.00  0.00     0.000 HD 
ATOM      8  N1    C A   1     -10.958   8.914  69.810  1.00  0.00    -0.202 N  
ATOM      9  O2    C A   1     -10.472   7.679  67.921  1.00  0.00    -0.213 OA 
ATOM     10  C5    C A   1     -11.441  11.214  69.540  1.00  0.00    -0.374 C  
ATOM     11  C6    C A   1     -11.204  10.166  70.327  1.00  0.00    -0.318 C  
ENDROOT
BRANCH   8  12
ATOM     12  C1*   C A   1     -10.557   7.766  70.625  1.00  0.00    -0.222 C  
ATOM     13  O4*   C A   1     -11.740   6.978  70.910  1.00  0.00    -0.309 OA 
ATOM     14  C4*   C A   1     -12.253   7.351  72.201  1.00  0.00    -0.230 C  
ATOM     15  C3*   C A   1     -11.073   7.882  73.002  1.00  0.00    -0.314 C  
ATOM     16  H2*   C A   1      -8.618   9.070  73.121  1.00  0.00     0.000 HD 
ATOM     17  C2*   C A   1      -9.907   7.903  72.019  1.00  0.00    -0.192 C  
ATOM     18  O3*   C A   1     -10.740   7.021  74.100  1.00  0.00    -0.496 OA 
ATOM     19  O2*   C A   1      -9.018   8.985  72.264  1.00  0.00    -0.360 OA 
ATOM     20  H3*   C A   1     -10.004   7.352  74.600  1.00  0.00     0.000 HD 
BRANCH  14  21
ATOM     21  C5*   C A   1     -13.345   8.413  72.024  1.00  0.00    -0.343 C  
ATOM     22  O5*   C A   1     -13.690   8.985  73.282  1.00  0.00    -1.072 OA 
ATOM     23  H5*   C A   1     -14.366   9.642  73.172  1.00  0.00     0.000 HD 
ENDBRANCH  14  21
ENDBRANCH   8  12
TORSDOF 2
ENDMDL
MODEL       30
REMARK 921   NORMALIZED FREE ENERGY PREDICTED BY IDOCK:   -5.17 KCAL/MOL
REMARK 922        TOTAL FREE ENERGY PREDICTED BY IDOCK:   -5.78 KCAL/MOL
REMARK 923 INTER-LIGAND FREE ENERGY PREDICTED BY IDOCK:   -5.89 KCAL/MOL
REMARK 924 INTRA-LIGAND FREE ENERGY PREDICTED BY IDOCK:    0.11 KCAL/MOL
REMARK 927      BINDING AFFINITY PREDICTED BY RF-SCORE:    0.00 PKD
ROOT
ATOM      1  N4    C A   1      -6.578  16.509  69.572  1.00  0.00    -0.223 NA 
ATOM      2  H42   C A   1      -5.587  16.271  69.537  1.00  0.00     0.000 HD 
ATOM      3  C4    C A   1      -7.513  15.740  68.942  1.00  0.00    -0.173 C  
ATOM      4  H41   C A   1      -6.907  17.330  70.079  1.00  0.00     0.000 HD 
ATOM      5  N3    C A   1      -7.096  14.698  68.299  1.00  0.00    -0.105 N  
ATOM      6  C2    C A   1      -7.993  13.877  67.657  1.00  0.00    -0.175 C  
ATOM      7  H3    C A   1      -6.099  14.485  68.267  1.00  0.00     0.000 HD 
ATOM      8  N1    C A   1      -9.341  14.284  67.573  1.00  0.00    -0.194 N  
ATOM      9  O2    C A   1      -7.604  12.819  67.165  1.00  0.00    -0.132 OA 
ATOM     10  C5    C A   1      -8.932  16.120  69.008  1.00  0.00    -0.247 C  
ATOM     11  C6    C A   1      -9.774  15.373  68.296  1.00  0.00    -0.209 C  
ENDROOT
BRANCH   8  12
ATOM     12  C1*   C A   1     -10.243  13.355  66.890  1.00  0.00    -0.252 C  
ATOM     13  O4*   C A   1     -10.145  13.596  65.465  1.00  0.00    -0.298 OA 
ATOM     14  C4*   C A   1     -11.211  14.475  65.062  1.00  0.00    -0.382 C  
ATOM     15  C3*   C A   1     -12.339  14.279  66.063  1.00  0.00    -0.395 C  
ATOM     16  H2*   C A   1     -13.217  13.602  68.558  1.00  0.00     0.000 HD 
ATOM     17  C2*   C A   1     -11.771  13.336  67.119  1.00  0.00    -0.376 C  
ATOM     18  O3*   C A   1     -13.488  13.665  65.462  1.00  0.00    -0.507 OA 
ATOM     19  O2*   C A   1     -12.278  13.613  68.417  1.00  0.00    -0.332 OA 
ATOM     20  H3*   C A   1     -14.193  13.543  66.088  1.00  0.00     0.000 HD 
BRANCH  14  21
ATOM     21  C5*   C A   1     -10.698  15.921  65.057  1.00  0.00    -0.404 C  
ATOM     22  O5*   C A   1     -11.330  16.668  64.022  1.00  0.00    -1.486 OA 
ATOM     23  H5*   C A   1     -11.012  17.563  64.019  1.00  0.00     0.000 HD 
ENDBRANCH  14  21
ENDBRANCH   8  12
TORSDOF 2
ENDMDL
MODEL       31
REMARK 921   NORMALIZED FREE ENERGY PREDICTED BY IDOCK:   -5.16 KCAL/MOL
REMARK 922        TOTAL FREE ENERGY PREDICTED BY IDOCK:   -5.78 KCAL/MOL
REMARK 923 INTER-LIGAND FREE ENERGY PREDICTED BY IDOCK:   -5.89 KCAL/MOL
REMARK 924 INTRA-LIGAND FREE ENERGY PREDICTED BY IDOCK:    0.11 KCAL/MOL
REMARK 927      BINDING AFFINITY PREDICTED BY RF-SCORE:    0.00 PKD
ROOT
ATOM      1  N4    C A   1      -6.010  14.830  68.655  1.00  0.00    -0.085 NA 
ATOM      2  H42   C A   1      -5.540  15.716  68.841  1.00  0.00     0.000 HD 
ATOM      3  C4    C A   1      -7.089  14.763  67.822  1.00  0.00    -0.174 C  
ATOM      4  H41   C A   1      -5.691  13.962  69.084  1.00  0.00     0.000 HD 
ATOM      5  N3    C A   1      -7.494  15.865  67.278  1.00  0.00    -0.189 N  
ATOM      6  C2    C A   1      -8.566  15.857  66.419  1.00  0.00    -0.328 C  
ATOM      7  H3    C A   1      -7.016  16.741  67.488  1.00  0.00     0.000 HD 
ATOM      8  N1    C A   1      -9.312  14.668  66.278  1.00  0.00    -0.284 N  
ATOM      9  O2    C A   1      -8.859  16.881  65.802  1.00  0.00    -0.522 OA 
ATOM     10  C5    C A   1      -7.745  13.469  67.584  1.00  0.00    -0.180 C  
ATOM     11  C6    C A   1      -8.844  13.497  66.832  1.00  0.00    -0.182 C  
ENDROOT
BRANCH   8  12
ATOM     12  C1*   C A   1     -10.430  14.727  65.335  1.00  0.00    -0.380 C  
ATOM     13  O4*   C A   1     -11.611  15.150  66.061  1.00  0.00    -0.236 OA 
ATOM     14  C4*   C A   1     -12.370  13.988  66.444  1.00  0.00    -0.431 C  
ATOM     15  C3*   C A   1     -12.038  12.900  65.433  1.00  0.00    -0.454 C  
ATOM     16  H2*   C A   1     -10.328  11.763  63.634  1.00  0.00     0.000 HD 
ATOM     17  C2*   C A   1     -10.944  13.498  64.553  1.00  0.00    -0.394 C  
ATOM     18  O3*   C A   1     -13.166  12.569  64.612  1.00  0.00    -0.848 OA 
ATOM     19  O2*   C A   1     -10.012  12.519  64.114  1.00  0.00    -0.293 OA 
ATOM     20  H3*   C A   1     -12.959  11.889  63.982  1.00  0.00     0.000 HD 
BRANCH  14  21
ATOM     21  C5*   C A   1     -11.982  13.579  67.870  1.00  0.00    -0.337 C  
ATOM     22  O5*   C A   1     -12.291  14.625  68.787  1.00  0.00    -0.573 OA 
ATOM     23  H5*   C A   1     -12.051  14.371  69.670  1.00  0.00     0.000 HD 
ENDBRANCH  14  21
ENDBRANCH   8  12
TORSDOF 2
ENDMDL
MODEL       32
REMARK 921   NORMALIZED FREE ENERGY PREDICTED BY IDOCK:   -5.14 KCAL/MOL
REMARK 922        TOTAL FREE ENERGY PREDICTED BY IDOCK:   -5.76 KCAL/MOL
REMARK 923 INTER-LIGAND FREE ENERGY PREDICTED BY IDOCK:   -6.65 KCAL/MOL
REMARK 924 INTRA-LIGAND FREE ENERGY PREDICTED BY IDOCK:    0.89 KCAL/MOL
REMARK 927      BINDING AFFINITY PREDICTED BY RF-SCORE:    0.00 PKD
ROOT
ATOM      1  N4    C A   1     -11.396  16.999  64.449  1.00  0.00    -1.092 NA 
ATOM      2  H42   C A   1     -12.206  17.433  64.006  1.00  0.00     0.000 HD 
ATOM      3  C4    C A   1     -11.255  15.642  64.490  1.00  0.00    -0.325 C  
ATOM      4  H41   C A   1     -10.663  17.562  64.877  1.00  0.00     0.000 HD 
ATOM      5  N3    C A   1     -12.186  14.928  63.946  1.00  0.00    -1.016 N  
ATOM      6  C2    C A   1     -12.091  13.556  63.943  1.00  0.00    -0.438 C  
ATOM      7  H3    C A   1     -12.992  15.382  63.519  1.00  0.00     0.000 HD 
ATOM      8  N1    C A   1     -11.057  12.948  64.685  1.00  0.00    -0.308 N  
ATOM      9  O2    C A   1     -12.908  12.891  63.307  1.00  0.00    -0.605 OA 
ATOM     10  C5    C A   1     -10.078  15.052  65.144  1.00  0.00    -0.350 C  
ATOM     11  C6    C A   1     -10.054  13.723  65.223  1.00  0.00    -0.288 C  
ENDROOT
BRANCH   8  12
ATOM     12  C1*   C A   1     -11.006  11.486  64.624  1.00  0.00    -0.288 C  
ATOM     13  O4*   C A   1     -10.807  10.985  65.970  1.00  0.00    -0.217 OA 
ATOM     14  C4*   C A   1      -9.405  10.739  66.178  1.00  0.00    -0.183 C  
ATOM     15  C3*   C A   1      -8.803  10.463  64.807  1.00  0.00    -0.193 C  
ATOM     16  H2*   C A   1      -8.822  10.768  62.094  1.00  0.00     0.000 HD 
ATOM     17  C2*   C A   1      -9.941  10.709  63.820  1.00  0.00    -0.317 C  
ATOM     18  O3*   C A   1      -8.363   9.104  64.679  1.00  0.00    -0.153 OA 
ATOM     19  O2*   C A   1      -9.477  11.245  62.589  1.00  0.00    -0.337 OA 
ATOM     20  H3*   C A   1      -7.988   8.932  63.824  1.00  0.00     0.000 HD 
BRANCH  14  21
ATOM     21  C5*   C A   1      -8.769  11.966  66.842  1.00  0.00    -0.191 C  
ATOM     22  O5*   C A   1      -7.354  11.937  66.686  1.00  0.00    -0.346 OA 
ATOM     23  H5*   C A   1      -6.960  12.697  67.097  1.00  0.00     0.000 HD 
ENDBRANCH  14  21
ENDBRANCH   8  12
TORSDOF 2
ENDMDL
MODEL       33
REMARK 921   NORMALIZED FREE ENERGY PREDICTED BY IDOCK:   -5.12 KCAL/MOL
REMARK 922        TOTAL FREE ENERGY PREDICTED BY IDOCK:   -5.73 KCAL/MOL
REMARK 923 INTER-LIGAND FREE ENERGY PREDICTED BY IDOCK:   -5.76 KCAL/MOL
REMARK 924 INTRA-LIGAND FREE ENERGY PREDICTED BY IDOCK:    0.03 KCAL/MOL
REMARK 927      BINDING AFFINITY PREDICTED BY RF-SCORE:    0.00 PKD
ROOT
ATOM      1  N4    C A   1      -9.388  20.187  66.055  1.00  0.00    -0.596 NA 
ATOM      2  H42   C A   1      -8.493  20.559  65.737  1.00  0.00     0.000 HD 
ATOM      3  C4    C A   1      -9.450  19.118  66.901  1.00  0.00    -0.320 C  
ATOM      4  H41   C A   1     -10.269  20.601  65.754  1.00  0.00     0.000 HD 
ATOM      5  N3    C A   1      -8.331  18.593  67.284  1.00  0.00    -0.258 N  
ATOM      6  C2    C A   1      -8.329  17.524  68.147  1.00  0.00    -0.249 C  
ATOM      7  H3    C A   1      -7.448  18.974  66.944  1.00  0.00     0.000 HD 
ATOM      8  N1    C A   1      -9.559  16.911  68.467  1.00  0.00    -0.253 N  
ATOM      9  O2    C A   1      -7.265  17.119  68.611  1.00  0.00    -0.206 OA 
ATOM     10  C5    C A   1     -10.759  18.605  67.331  1.00  0.00    -0.456 C  
ATOM     11  C6    C A   1     -10.740  17.506  68.083  1.00  0.00    -0.329 C  
ENDROOT
BRANCH   8  12
ATOM     12  C1*   C A   1      -9.485  15.788  69.404  1.00  0.00    -0.275 C  
ATOM     13  O4*   C A   1      -9.215  14.584  68.644  1.00  0.00    -0.194 OA 
ATOM     14  C4*   C A   1     -10.457  13.907  68.378  1.00  0.00    -0.247 C  
ATOM     15  C3*   C A   1     -11.418  14.309  69.488  1.00  0.00    -0.287 C  
ATOM     16  H2*   C A   1     -12.255  16.086  71.384  1.00  0.00     0.000 HD 
ATOM     17  C2*   C A   1     -10.664  15.356  70.302  1.00  0.00    -0.298 C  
ATOM     18  O3*   C A   1     -11.743  13.203  70.341  1.00  0.00    -0.526 OA 
ATOM     19  O2*   C A   1     -11.530  16.351  70.831  1.00  0.00    -0.380 OA 
ATOM     20  H3*   C A   1     -12.343  13.454  71.034  1.00  0.00     0.000 HD 
BRANCH  14  21
ATOM     21  C5*   C A   1     -10.976  14.326  66.997  1.00  0.00    -0.303 C  
ATOM     22  O5*   C A   1     -12.400  14.340  66.985  1.00  0.00    -0.579 OA 
ATOM     23  H5*   C A   1     -12.721  14.599  66.130  1.00  0.00     0.000 HD 
ENDBRANCH  14  21
ENDBRANCH   8  12
TORSDOF 2
ENDMDL
MODEL       34
REMARK 921   NORMALIZED FREE ENERGY PREDICTED BY IDOCK:   -5.10 KCAL/MOL
REMARK 922        TOTAL FREE ENERGY PREDICTED BY IDOCK:   -5.71 KCAL/MOL
REMARK 923 INTER-LIGAND FREE ENERGY PREDICTED BY IDOCK:   -5.95 KCAL/MOL
REMARK 924 INTRA-LIGAND FREE ENERGY PREDICTED BY IDOCK:    0.24 KCAL/MOL
REMARK 927      BINDING AFFINITY PREDICTED BY RF-SCORE:    0.00 PKD
ROOT
ATOM      1  N4    C A   1     -12.531  13.947  62.969  1.00  0.00    -1.009 NA 
ATOM      2  H42   C A   1     -12.777  13.630  62.032  1.00  0.00     0.000 HD 
ATOM      3  C4    C A   1     -11.715  13.208  63.775  1.00  0.00    -0.461 C  
ATOM      4  H41   C A   1     -12.885  14.829  63.339  1.00  0.00     0.000 HD 
ATOM      5  N3    C A   1     -11.266  12.089  63.305  1.00  0.00    -0.691 N  
ATOM      6  C2    C A   1     -10.428  11.308  64.065  1.00  0.00    -0.378 C  
ATOM      7  H3    C A   1     -11.535  11.786  62.370  1.00  0.00     0.000 HD 
ATOM      8  N1    C A   1     -10.208  11.664  65.412  1.00  0.00    -0.251 N  
ATOM      9  O2    C A   1      -9.899  10.317  63.563  1.00  0.00    -0.275 OA 
ATOM     10  C5    C A   1     -11.388  13.694  65.123  1.00  0.00    -0.319 C  
ATOM     11  C6    C A   1     -10.660  12.876  65.882  1.00  0.00    -0.269 C  
ENDROOT
BRANCH   8  12
ATOM     12  C1*   C A   1      -9.293  10.797  66.157  1.00  0.00    -0.183 C  
ATOM     13  O4*   C A   1     -10.084   9.829  66.891  1.00  0.00    -0.200 OA 
ATOM     14  C4*   C A   1     -10.275  10.302  68.237  1.00  0.00    -0.159 C  
ATOM     15  C3*   C A   1      -9.098  11.215  68.548  1.00  0.00    -0.175 C  
ATOM     16  H2*   C A   1      -7.128  12.921  67.734  1.00  0.00     0.000 HD 
ATOM     17  C2*   C A   1      -8.323  11.321  67.238  1.00  0.00    -0.145 C  
ATOM     18  O3*   C A   1      -8.239  10.659  69.553  1.00  0.00    -0.323 OA 
ATOM     19  O2*   C A   1      -7.725  12.599  67.069  1.00  0.00    -0.123 OA 
ATOM     20  H3*   C A   1      -7.505  11.229  69.747  1.00  0.00     0.000 HD 
BRANCH  14  21
ATOM     21  C5*   C A   1     -11.613  11.046  68.327  1.00  0.00    -0.284 C  
ATOM     22  O5*   C A   1     -12.498  10.368  69.212  1.00  0.00    -0.699 OA 
ATOM     23  H5*   C A   1     -13.327  10.828  69.268  1.00  0.00     0.000 HD 
ENDBRANCH  14  21
ENDBRANCH   8  12
TORSDOF 2
ENDMDL
MODEL       35
REMARK 921   NORMALIZED FREE ENERGY PREDICTED BY IDOCK:   -5.10 KCAL/MOL
REMARK 922        TOTAL FREE ENERGY PREDICTED BY IDOCK:   -5.70 KCAL/MOL
REMARK 923 INTER-LIGAND FREE ENERGY PREDICTED BY IDOCK:   -5.87 KCAL/MOL
REMARK 924 INTRA-LIGAND FREE ENERGY PREDICTED BY IDOCK:    0.16 KCAL/MOL
REMARK 927      BINDING AFFINITY PREDICTED BY RF-SCORE:    0.00 PKD
ROOT
ATOM      1  N4    C A   1      -8.349   7.973  63.674  1.00  0.00    -0.386 NA 
ATOM      2  H42   C A   1      -8.465   6.990  63.917  1.00  0.00     0.000 HD 
ATOM      3  C4    C A   1      -8.892   8.961  64.442  1.00  0.00    -0.005 C  
ATOM      4  H41   C A   1      -7.823   8.254  62.847  1.00  0.00     0.000 HD 
ATOM      5  N3    C A   1      -9.560   8.604  65.491  1.00  0.00    -0.438 N  
ATOM      6  C2    C A   1     -10.117   9.555  66.312  1.00  0.00    -0.257 C  
ATOM      7  H3    C A   1      -9.673   7.615  65.709  1.00  0.00     0.000 HD 
ATOM      8  N1    C A   1     -10.091  10.904  65.899  1.00  0.00    -0.243 N  
ATOM      9  O2    C A   1     -10.631   9.215  67.376  1.00  0.00    -0.272 OA 
ATOM     10  C5    C A   1      -8.710  10.368  64.054  1.00  0.00    -0.202 C  
ATOM     11  C6    C A   1      -9.343  11.270  64.802  1.00  0.00    -0.145 C  
ENDROOT
BRANCH   8  12
ATOM     12  C1*   C A   1     -10.688  11.865  66.829  1.00  0.00    -0.246 C  
ATOM     13  O4*   C A   1     -12.079  12.044  66.462  1.00  0.00    -0.617 OA 
ATOM     14  C4*   C A   1     -12.200  13.211  65.629  1.00  0.00    -0.466 C  
ATOM     15  C3*   C A   1     -11.037  14.124  65.988  1.00  0.00    -0.314 C  
ATOM     16  H2*   C A   1      -8.502  14.491  66.934  1.00  0.00     0.000 HD 
ATOM     17  C2*   C A   1     -10.194  13.321  66.975  1.00  0.00    -0.244 C  
ATOM     18  O3*   C A   1     -11.480  15.328  66.628  1.00  0.00    -0.250 OA 
ATOM     19  O2*   C A   1      -8.806  13.596  66.844  1.00  0.00    -0.231 OA 
ATOM     20  H3*   C A   1     -10.753  15.899  66.853  1.00  0.00     0.000 HD 
BRANCH  14  21
ATOM     21  C5*   C A   1     -12.157  12.787  64.156  1.00  0.00    -0.438 C  
ATOM     22  O5*   C A   1     -12.508  13.881  63.314  1.00  0.00    -1.113 OA 
ATOM     23  H5*   C A   1     -12.482  13.618  62.402  1.00  0.00     0.000 HD 
ENDBRANCH  14  21
ENDBRANCH   8  12
TORSDOF 2
ENDMDL
MODEL       36
REMARK 921   NORMALIZED FREE ENERGY PREDICTED BY IDOCK:   -5.07 KCAL/MOL
REMARK 922        TOTAL FREE ENERGY PREDICTED BY IDOCK:   -5.68 KCAL/MOL
REMARK 923 INTER-LIGAND FREE ENERGY PREDICTED BY IDOCK:   -5.90 KCAL/MOL
REMARK 924 INTRA-LIGAND FREE ENERGY PREDICTED BY IDOCK:    0.22 KCAL/MOL
REMARK 927      BINDING AFFINITY PREDICTED BY RF-SCORE:    0.00 PKD
ROOT
ATOM      1  N4    C A   1     -13.246  10.889  72.056  1.00  0.00    -0.552 NA 
ATOM      2  H42   C A   1     -13.781  11.216  72.860  1.00  0.00     0.000 HD 
ATOM      3  C4    C A   1     -12.649  11.765  71.198  1.00  0.00    -0.309 C  
ATOM      4  H41   C A   1     -13.137   9.893  71.864  1.00  0.00     0.000 HD 
ATOM      5  N3    C A   1     -12.788  13.028  71.442  1.00  0.00    -0.344 N  
ATOM      6  C2    C A   1     -12.197  13.959  70.621  1.00  0.00    -0.373 C  
ATOM      7  H3    C A   1     -13.337  13.334  72.245  1.00  0.00     0.000 HD 
ATOM      8  N1    C A   1     -11.588  13.518  69.427  1.00  0.00    -0.297 N  
ATOM      9  O2    C A   1     -12.219  15.148  70.934  1.00  0.00    -0.291 OA 
ATOM     10  C5    C A   1     -11.893  11.255  70.045  1.00  0.00    -0.448 C  
ATOM     11  C6    C A   1     -11.415  12.170  69.204  1.00  0.00    -0.296 C  
ENDROOT
BRANCH   8  12
ATOM     12  C1*   C A   1     -10.965  14.561  68.609  1.00  0.00    -0.251 C  
ATOM     13  O4*   C A   1     -11.916  14.965  67.593  1.00  0.00    -0.317 OA 
ATOM     14  C4*   C A   1     -11.639  14.247  66.377  1.00  0.00    -0.372 C  
ATOM     15  C3*   C A   1     -10.161  13.887  66.411  1.00  0.00    -0.292 C  
ATOM     16  H2*   C A   1      -7.875  13.341  67.800  1.00  0.00     0.000 HD 
ATOM     17  C2*   C A   1      -9.677  14.335  67.787  1.00  0.00    -0.222 C  
ATOM     18  O3*   C A   1      -9.416  14.587  65.405  1.00  0.00    -0.510 OA 
ATOM     19  O2*   C A   1      -8.667  13.480  68.306  1.00  0.00    -0.172 OA 
ATOM     20  H3*   C A   1      -8.493  14.362  65.427  1.00  0.00     0.000 HD 
BRANCH  14  21
ATOM     21  C5*   C A   1     -12.528  13.000  66.313  1.00  0.00    -0.041 C  
ATOM     22  O5*   C A   1     -12.930  12.744  64.970  1.00  0.00    -0.811 OA 
ATOM     23  H5*   C A   1     -13.481  11.972  64.931  1.00  0.00     0.000 HD 
ENDBRANCH  14  21
ENDBRANCH   8  12
TORSDOF 2
ENDMDL
MODEL       37
REMARK 921   NORMALIZED FREE ENERGY PREDICTED BY IDOCK:   -5.04 KCAL/MOL
REMARK 922        TOTAL FREE ENERGY PREDICTED BY IDOCK:   -5.64 KCAL/MOL
REMARK 923 INTER-LIGAND FREE ENERGY PREDICTED BY IDOCK:   -5.63 KCAL/MOL
REMARK 924 INTRA-LIGAND FREE ENERGY PREDICTED BY IDOCK:   -0.00 KCAL/MOL
REMARK 927      BINDING AFFINITY PREDICTED BY RF-SCORE:    0.00 PKD
ROOT
ATOM      1  N4    C A   1      -9.967  18.547  65.967  1.00  0.00    -0.534 NA 
ATOM      2  H42   C A   1      -9.908  19.349  66.593  1.00  0.00     0.000 HD 
ATOM      3  C4    C A   1     -10.399  17.332  66.411  1.00  0.00    -0.316 C  
ATOM      4  H41   C A   1      -9.705  18.623  64.984  1.00  0.00     0.000 HD 
ATOM      5  N3    C A   1     -10.732  17.235  67.658  1.00  0.00    -0.343 N  
ATOM      6  C2    C A   1     -11.189  16.041  68.160  1.00  0.00    -0.325 C  
ATOM      7  H3    C A   1     -10.654  18.047  68.269  1.00  0.00     0.000 HD 
ATOM      8  N1    C A   1     -11.128  14.894  67.340  1.00  0.00    -0.315 N  
ATOM      9  O2    C A   1     -11.631  15.992  69.307  1.00  0.00    -0.352 OA 
ATOM     10  C5    C A   1     -10.464  16.196  65.479  1.00  0.00    -0.407 C  
ATOM     11  C6    C A   1     -10.810  15.023  66.006  1.00  0.00    -0.334 C  
ENDROOT
BRANCH   8  12
ATOM     12  C1*   C A   1     -11.647  13.660  67.933  1.00  0.00    -0.341 C  
ATOM     13  O4*   C A   1     -10.680  13.185  68.903  1.00  0.00    -0.233 OA 
ATOM     14  C4*   C A   1      -9.840  12.195  68.284  1.00  0.00    -0.212 C  
ATOM     15  C3*   C A   1     -10.654  11.576  67.156  1.00  0.00    -0.237 C  
ATOM     16  H2*   C A   1     -12.634  11.737  65.284  1.00  0.00     0.000 HD 
ATOM     17  C2*   C A   1     -11.946  12.387  67.111  1.00  0.00    -0.177 C  
ATOM     18  O3*   C A   1     -10.975  10.203  67.419  1.00  0.00    -0.292 OA 
ATOM     19  O2*   C A   1     -12.450  12.520  65.790  1.00  0.00    -0.626 OA 
ATOM     20  H3*   C A   1     -11.484   9.817  66.715  1.00  0.00     0.000 HD 
BRANCH  14  21
ATOM     21  C5*   C A   1      -8.565  12.869  67.762  1.00  0.00    -0.185 C  
ATOM     22  O5*   C A   1      -8.381  12.579  66.379  1.00  0.00    -0.404 OA 
ATOM     23  H5*   C A   1      -7.591  12.997  66.056  1.00  0.00     0.000 HD 
ENDBRANCH  14  21
ENDBRANCH   8  12
TORSDOF 2
ENDMDL
MODEL       38
REMARK 921   NORMALIZED FREE ENERGY PREDICTED BY IDOCK:   -5.02 KCAL/MOL
REMARK 922        TOTAL FREE ENERGY PREDICTED BY IDOCK:   -5.63 KCAL/MOL
REMARK 923 INTER-LIGAND FREE ENERGY PREDICTED BY IDOCK:   -5.75 KCAL/MOL
REMARK 924 INTRA-LIGAND FREE ENERGY PREDICTED BY IDOCK:    0.13 KCAL/MOL
REMARK 927      BINDING AFFINITY PREDICTED BY RF-SCORE:    0.00 PKD
ROOT
ATOM      1  N4    C A   1     -11.042  12.171  64.157  1.00  0.00    -0.334 NA 
ATOM      2  H42   C A   1     -10.712  11.214  64.280  1.00  0.00     0.000 HD 
ATOM      3  C4    C A   1     -10.558  13.190  64.923  1.00  0.00    -0.349 C  
ATOM      4  H41   C A   1     -11.746  12.401  63.456  1.00  0.00     0.000 HD 
ATOM      5  N3    C A   1      -9.666  12.898  65.813  1.00  0.00    -0.423 N  
ATOM      6  C2    C A   1      -9.130  13.885  66.605  1.00  0.00    -0.190 C  
ATOM      7  H3    C A   1      -9.358  11.932  65.927  1.00  0.00     0.000 HD 
ATOM      8  N1    C A   1      -9.691  15.179  66.546  1.00  0.00    -0.255 N  
ATOM      9  O2    C A   1      -8.188  13.623  67.351  1.00  0.00    -0.167 OA 
ATOM     10  C5    C A   1     -11.065  14.556  64.722  1.00  0.00    -0.400 C  
ATOM     11  C6    C A   1     -10.612  15.481  65.567  1.00  0.00    -0.396 C  
ENDROOT
BRANCH   8  12
ATOM     12  C1*   C A   1      -9.062  16.184  67.404  1.00  0.00    -0.195 C  
ATOM     13  O4*   C A   1      -9.453  15.917  68.774  1.00  0.00    -0.200 OA 
ATOM     14  C4*   C A   1     -10.578  16.747  69.113  1.00  0.00    -0.343 C  
ATOM     15  C3*   C A   1     -10.497  17.975  68.218  1.00  0.00    -0.343 C  
ATOM     16  H2*   C A   1      -9.713  19.184  65.899  1.00  0.00     0.000 HD 
ATOM     17  C2*   C A   1      -9.333  17.699  67.272  1.00  0.00    -0.249 C  
ATOM     18  O3*   C A   1     -10.216  19.166  68.966  1.00  0.00    -0.537 OA 
ATOM     19  O2*   C A   1      -9.547  18.252  65.980  1.00  0.00    -0.497 OA 
ATOM     20  H3*   C A   1     -10.166  19.933  68.407  1.00  0.00     0.000 HD 
BRANCH  14  21
ATOM     21  C5*   C A   1     -11.874  15.960  68.885  1.00  0.00    -0.304 C  
ATOM     22  O5*   C A   1     -12.678  15.979  70.060  1.00  0.00    -0.573 OA 
ATOM     23  H5*   C A   1     -13.481  15.491  69.919  1.00  0.00     0.000 HD 
ENDBRANCH  14  21
ENDBRANCH   8  12
TORSDOF 2
ENDMDL
MODEL       39
REMARK 921   NORMALIZED FREE ENERGY PREDICTED BY IDOCK:   -4.96 KCAL/MOL
REMARK 922        TOTAL FREE ENERGY PREDICTED BY IDOCK:   -5.55 KCAL/MOL
REMARK 923 INTER-LIGAND FREE ENERGY PREDICTED BY IDOCK:   -5.72 KCAL/MOL
REMARK 924 INTRA-LIGAND FREE ENERGY PREDICTED BY IDOCK:    0.17 KCAL/MOL
REMARK 927      BINDING AFFINITY PREDICTED BY RF-SCORE:    0.00 PKD
ROOT
ATOM      1  N4    C A   1     -13.590  15.240  72.661  1.00  0.00    -0.483 NA 
ATOM      2  H42   C A   1     -13.838  14.654  73.458  1.00  0.00     0.000 HD 
ATOM      3  C4    C A   1     -13.020  14.707  71.542  1.00  0.00    -0.339 C  
ATOM      4  H41   C A   1     -13.759  16.245  72.671  1.00  0.00     0.000 HD 
ATOM      5  N3    C A   1     -12.805  13.431  71.530  1.00  0.00    -0.357 N  
ATOM      6  C2    C A   1     -12.247  12.836  70.424  1.00  0.00    -0.293 C  
ATOM      7  H3    C A   1     -13.051  12.867  72.342  1.00  0.00     0.000 HD 
ATOM      8  N1    C A   1     -11.763  13.658  69.384  1.00  0.00    -0.304 N  
ATOM      9  O2    C A   1     -12.172  11.609  70.366  1.00  0.00    -0.350 OA 
ATOM     10  C5    C A   1     -12.669  15.585  70.416  1.00  0.00    -0.382 C  
ATOM     11  C6    C A   1     -12.035  15.008  69.397  1.00  0.00    -0.303 C  
ENDROOT
BRANCH   8  12
ATOM     12  C1*   C A   1     -11.196  12.957  68.231  1.00  0.00    -0.270 C  
ATOM     13  O4*   C A   1      -9.758  12.894  68.403  1.00  0.00    -0.223 OA 
ATOM     14  C4*   C A   1      -9.150  13.979  67.679  1.00  0.00    -0.192 C  
ATOM     15  C3*   C A   1     -10.103  14.334  66.546  1.00  0.00    -0.278 C  
ATOM     16  H2*   C A   1     -12.620  14.430  65.495  1.00  0.00     0.000 HD 
ATOM     17  C2*   C A   1     -11.335  13.465  66.779  1.00  0.00    -0.325 C  
ATOM     18  O3*   C A   1      -9.548  14.020  65.261  1.00  0.00    -0.558 OA 
ATOM     19  O2*   C A   1     -12.535  14.118  66.387  1.00  0.00    -0.461 OA 
ATOM     20  H3*   C A   1     -10.143  14.242  64.555  1.00  0.00     0.000 HD 
BRANCH  14  21
ATOM     21  C5*   C A   1      -8.931  15.162  68.630  1.00  0.00    -0.191 C  
ATOM     22  O5*   C A   1      -8.159  14.755  69.756  1.00  0.00    -0.413 OA 
ATOM     23  H5*   C A   1      -8.023  15.488  70.346  1.00  0.00     0.000 HD 
ENDBRANCH  14  21
ENDBRANCH   8  12
TORSDOF 2
ENDMDL
MODEL       40
REMARK 921   NORMALIZED FREE ENERGY PREDICTED BY IDOCK:   -4.87 KCAL/MOL
REMARK 922        TOTAL FREE ENERGY PREDICTED BY IDOCK:   -5.45 KCAL/MOL
REMARK 923 INTER-LIGAND FREE ENERGY PREDICTED BY IDOCK:   -5.48 KCAL/MOL
REMARK 924 INTRA-LIGAND FREE ENERGY PREDICTED BY IDOCK:    0.03 KCAL/MOL
REMARK 927      BINDING AFFINITY PREDICTED BY RF-SCORE:    0.00 PKD
ROOT
ATOM      1  N4    C A   1      -8.861  19.182  66.008  1.00  0.00    -0.457 NA 
ATOM      2  H42   C A   1      -7.934  19.517  65.746  1.00  0.00     0.000 HD 
ATOM      3  C4    C A   1      -9.051  17.914  66.474  1.00  0.00    -0.261 C  
ATOM      4  H41   C A   1      -9.681  19.783  65.932  1.00  0.00     0.000 HD 
ATOM      5  N3    C A   1      -8.010  17.151  66.570  1.00  0.00    -0.261 N  
ATOM      6  C2    C A   1      -8.136  15.868  67.047  1.00  0.00    -0.230 C  
ATOM      7  H3    C A   1      -7.094  17.503  66.291  1.00  0.00     0.000 HD 
ATOM      8  N1    C A   1      -9.431  15.351  67.265  1.00  0.00    -0.208 N  
ATOM      9  O2    C A   1      -7.127  15.198  67.263  1.00  0.00    -0.195 OA 
ATOM     10  C5    C A   1     -10.403  17.465  66.834  1.00  0.00    -0.317 C  
ATOM     11  C6    C A   1     -10.522  16.189  67.196  1.00  0.00    -0.305 C  
ENDROOT
BRANCH   8  12
ATOM     12  C1*   C A   1      -9.490  13.985  67.788  1.00  0.00    -0.209 C  
ATOM     13  O4*   C A   1      -9.389  13.069  66.669  1.00  0.00    -0.245 OA 
ATOM     14  C4*   C A   1     -10.711  12.667  66.270  1.00  0.00    -0.256 C  
ATOM     15  C3*   C A   1     -11.597  12.798  67.501  1.00  0.00    -0.356 C  
ATOM     16  H2*   C A   1     -12.172  13.951  69.908  1.00  0.00     0.000 HD 
ATOM     17  C2*   C A   1     -10.703  13.428  68.565  1.00  0.00    -0.262 C  
ATOM     18  O3*   C A   1     -12.051  11.522  67.972  1.00  0.00    -0.617 OA 
ATOM     19  O2*   C A   1     -11.425  14.293  69.430  1.00  0.00    -0.262 OA 
ATOM     20  H3*   C A   1     -12.604  11.604  68.740  1.00  0.00     0.000 HD 
BRANCH  14  21
ATOM     21  C5*   C A   1     -11.190  13.569  65.125  1.00  0.00    -0.309 C  
ATOM     22  O5*   C A   1     -10.153  13.743  64.164  1.00  0.00    -0.729 OA 
ATOM     23  H5*   C A   1     -10.449  14.302  63.456  1.00  0.00     0.000 HD 
ENDBRANCH  14  21
ENDBRANCH   8  12
TORSDOF 2
ENDMDL
MODEL       41
REMARK 921   NORMALIZED FREE ENERGY PREDICTED BY IDOCK:   -4.87 KCAL/MOL
REMARK 922        TOTAL FREE ENERGY PREDICTED BY IDOCK:   -5.45 KCAL/MOL
REMARK 923 INTER-LIGAND FREE ENERGY PREDICTED BY IDOCK:   -5.55 KCAL/MOL
REMARK 924 INTRA-LIGAND FREE ENERGY PREDICTED BY IDOCK:    0.11 KCAL/MOL
REMARK 927      BINDING AFFINITY PREDICTED BY RF-SCORE:    0.00 PKD
ROOT
ATOM      1  N4    C A   1     -12.023  12.804  70.220  1.00  0.00    -0.499 NA 
ATOM      2  H42   C A   1     -12.667  13.455  70.668  1.00  0.00     0.000 HD 
ATOM      3  C4    C A   1     -12.045  11.471  70.513  1.00  0.00    -0.378 C  
ATOM      4  H41   C A   1     -11.337  13.124  69.537  1.00  0.00     0.000 HD 
ATOM      5  N3    C A   1     -12.915  11.065  71.381  1.00  0.00    -0.422 N  
ATOM      6  C2    C A   1     -12.995   9.732  71.705  1.00  0.00    -0.438 C  
ATOM      7  H3    C A   1     -13.542  11.735  71.824  1.00  0.00     0.000 HD 
ATOM      8  N1    C A   1     -12.010   8.853  71.208  1.00  0.00    -0.297 N  
ATOM      9  O2    C A   1     -13.911   9.335  72.425  1.00  0.00    -0.470 OA 
ATOM     10  C5    C A   1     -11.095  10.564  69.853  1.00  0.00    -0.371 C  
ATOM     11  C6    C A   1     -11.117   9.295  70.256  1.00  0.00    -0.251 C  
ENDROOT
BRANCH   8  12
ATOM     12  C1*   C A   1     -12.166   7.446  71.580  1.00  0.00    -0.330 C  
ATOM     13  O4*   C A   1     -11.603   7.265  72.904  1.00  0.00    -0.229 OA 
ATOM     14  C4*   C A   1     -10.253   6.784  72.779  1.00  0.00    -0.189 C  
ATOM     15  C3*   C A   1     -10.172   6.055  71.446  1.00  0.00    -0.206 C  
ATOM     16  H2*   C A   1     -11.036   5.673  68.884  1.00  0.00     0.000 HD 
ATOM     17  C2*   C A   1     -11.528   6.285  70.787  1.00  0.00    -0.316 C  
ATOM     18  O3*   C A   1      -9.972   4.645  71.618  1.00  0.00    -0.178 OA 
ATOM     19  O2*   C A   1     -11.428   6.387  69.373  1.00  0.00    -0.401 OA 
ATOM     20  H3*   C A   1      -9.921   4.190  70.785  1.00  0.00     0.000 HD 
BRANCH  14  21
ATOM     21  C5*   C A   1      -9.286   7.973  72.837  1.00  0.00    -0.271 C  
ATOM     22  O5*   C A   1      -8.950   8.274  74.189  1.00  0.00    -0.308 OA 
ATOM     23  H5*   C A   1      -8.352   9.010  74.225  1.00  0.00     0.000 HD 
ENDBRANCH  14  21
ENDBRANCH   8  12
TORSDOF 2
ENDMDL
MODEL       42
REMARK 921   NORMALIZED FREE ENERGY PREDICTED BY IDOCK:   -4.85 KCAL/MOL
REMARK 922        TOTAL FREE ENERGY PREDICTED BY IDOCK:   -5.43 KCAL/MOL
REMARK 923 INTER-LIGAND FREE ENERGY PREDICTED BY IDOCK:   -5.47 KCAL/MOL
REMARK 924 INTRA-LIGAND FREE ENERGY PREDICTED BY IDOCK:    0.04 KCAL/MOL
REMARK 927      BINDING AFFINITY PREDICTED BY RF-SCORE:    0.00 PKD
ROOT
ATOM      1  N4    C A   1     -10.174  10.374  66.098  1.00  0.00    -0.235 NA 
ATOM      2  H42   C A   1     -10.272  10.330  65.084  1.00  0.00     0.000 HD 
ATOM      3  C4    C A   1     -10.732  11.389  66.819  1.00  0.00    -0.271 C  
ATOM      4  H41   C A   1      -9.655   9.662  66.611  1.00  0.00     0.000 HD 
ATOM      5  N3    C A   1     -11.391  12.293  66.168  1.00  0.00    -0.336 N  
ATOM      6  C2    C A   1     -11.988  13.332  66.842  1.00  0.00    -0.375 C  
ATOM      7  H3    C A   1     -11.467  12.235  65.153  1.00  0.00     0.000 HD 
ATOM      8  N1    C A   1     -11.727  13.483  68.221  1.00  0.00    -0.339 N  
ATOM      9  O2    C A   1     -12.723  14.108  66.234  1.00  0.00    -0.401 OA 
ATOM     10  C5    C A   1     -10.562  11.424  68.279  1.00  0.00    -0.224 C  
ATOM     11  C6    C A   1     -11.058  12.491  68.903  1.00  0.00    -0.260 C  
ENDROOT
BRANCH   8  12
ATOM     12  C1*   C A   1     -12.408  14.600  68.877  1.00  0.00    -0.034 C  
ATOM     13  O4*   C A   1     -11.803  15.833  68.414  1.00  0.00    -0.338 OA 
ATOM     14  C4*   C A   1     -10.808  16.255  69.365  1.00  0.00    -0.331 C  
ATOM     15  C3*   C A   1     -11.220  15.675  70.711  1.00  0.00    -0.367 C  
ATOM     16  H2*   C A   1     -12.498  13.773  72.193  1.00  0.00     0.000 HD 
ATOM     17  C2*   C A   1     -12.429  14.796  70.409  1.00  0.00    -0.349 C  
ATOM     18  O3*   C A   1     -11.609  16.698  71.638  1.00  0.00    -0.592 OA 
ATOM     19  O2*   C A   1     -12.485  13.652  71.251  1.00  0.00    -0.352 OA 
ATOM     20  H3*   C A   1     -11.865  16.337  72.478  1.00  0.00     0.000 HD 
BRANCH  14  21
ATOM     21  C5*   C A   1      -9.434  15.741  68.920  1.00  0.00    -0.229 C  
ATOM     22  O5*   C A   1      -8.876  14.890  69.917  1.00  0.00    -0.435 OA 
ATOM     23  H5*   C A   1      -8.024  14.572  69.642  1.00  0.00     0.000 HD 
ENDBRANCH  14  21
ENDBRANCH   8  12
TORSDOF 2
ENDMDL
MODEL       43
REMARK 921   NORMALIZED FREE ENERGY PREDICTED BY IDOCK:   -4.83 KCAL/MOL
REMARK 922        TOTAL FREE ENERGY PREDICTED BY IDOCK:   -5.41 KCAL/MOL
REMARK 923 INTER-LIGAND FREE ENERGY PREDICTED BY IDOCK:   -5.50 KCAL/MOL
REMARK 924 INTRA-LIGAND FREE ENERGY PREDICTED BY IDOCK:    0.10 KCAL/MOL
REMARK 927      BINDING AFFINITY PREDICTED BY RF-SCORE:    0.00 PKD
ROOT
ATOM      1  N4    C A   1     -11.041  10.020  70.924  1.00  0.00    -0.339 NA 
ATOM      2  H42   C A   1     -10.260   9.584  71.414  1.00  0.00     0.000 HD 
ATOM      3  C4    C A   1     -10.857  10.686  69.748  1.00  0.00    -0.261 C  
ATOM      4  H41   C A   1     -11.990   9.974  71.295  1.00  0.00     0.000 HD 
ATOM      5  N3    C A   1      -9.653  10.744  69.277  1.00  0.00    -0.385 N  
ATOM      6  C2    C A   1      -9.407  11.389  68.089  1.00  0.00    -0.181 C  
ATOM      7  H3    C A   1      -8.885  10.312  69.789  1.00  0.00     0.000 HD 
ATOM      8  N1    C A   1     -10.452  12.122  67.487  1.00  0.00    -0.207 N  
ATOM      9  O2    C A   1      -8.289  11.324  67.581  1.00  0.00    -0.119 OA 
ATOM     10  C5    C A   1     -12.006  11.308  69.075  1.00  0.00    -0.393 C  
ATOM     11  C6    C A   1     -11.734  12.016  67.980  1.00  0.00    -0.331 C  
ENDROOT
BRANCH   8  12
ATOM     12  C1*   C A   1     -10.125  12.770  66.216  1.00  0.00    -0.259 C  
ATOM     13  O4*   C A   1      -9.350  13.961  66.502  1.00  0.00    -0.277 OA 
ATOM     14  C4*   C A   1     -10.230  15.100  66.527  1.00  0.00    -0.276 C  
ATOM     15  C3*   C A   1     -11.416  14.752  65.638  1.00  0.00    -0.327 C  
ATOM     16  H2*   C A   1     -13.075  12.911  64.494  1.00  0.00     0.000 HD 
ATOM     17  C2*   C A   1     -11.194  13.297  65.235  1.00  0.00    -0.295 C  
ATOM     18  O3*   C A   1     -11.453  15.562  64.454  1.00  0.00    -0.663 OA 
ATOM     19  O2*   C A   1     -12.417  12.586  65.097  1.00  0.00    -0.573 OA 
ATOM     20  H3*   C A   1     -12.193  15.345  63.900  1.00  0.00     0.000 HD 
BRANCH  14  21
ATOM     21  C5*   C A   1     -10.663  15.373  67.972  1.00  0.00    -0.279 C  
ATOM     22  O5*   C A   1     -11.220  16.679  68.084  1.00  0.00    -0.339 OA 
ATOM     23  H5*   C A   1     -11.488  16.849  68.980  1.00  0.00     0.000 HD 
ENDBRANCH  14  21
ENDBRANCH   8  12
TORSDOF 2
ENDMDL
MODEL       44
REMARK 921   NORMALIZED FREE ENERGY PREDICTED BY IDOCK:   -4.82 KCAL/MOL
REMARK 922        TOTAL FREE ENERGY PREDICTED BY IDOCK:   -5.39 KCAL/MOL
REMARK 923 INTER-LIGAND FREE ENERGY PREDICTED BY IDOCK:   -5.38 KCAL/MOL
REMARK 924 INTRA-LIGAND FREE ENERGY PREDICTED BY IDOCK:   -0.01 KCAL/MOL
REMARK 927      BINDING AFFINITY PREDICTED BY RF-SCORE:    0.00 PKD
ROOT
ATOM      1  N4    C A   1      -9.037  18.160  65.833  1.00  0.00    -0.480 NA 
ATOM      2  H42   C A   1      -8.124  18.472  65.502  1.00  0.00     0.000 HD 
ATOM      3  C4    C A   1      -9.205  16.926  66.389  1.00  0.00    -0.279 C  
ATOM      4  H41   C A   1      -9.858  18.760  65.761  1.00  0.00     0.000 HD 
ATOM      5  N3    C A   1      -8.163  16.165  66.480  1.00  0.00    -0.292 N  
ATOM      6  C2    C A   1      -8.267  14.916  67.045  1.00  0.00    -0.196 C  
ATOM      7  H3    C A   1      -7.262  16.491  66.132  1.00  0.00     0.000 HD 
ATOM      8  N1    C A   1      -9.551  14.422  67.363  1.00  0.00    -0.213 N  
ATOM      9  O2    C A   1      -7.251  14.255  67.251  1.00  0.00    -0.157 OA 
ATOM     10  C5    C A   1     -10.539  16.509  66.848  1.00  0.00    -0.238 C  
ATOM     11  C6    C A   1     -10.641  15.260  67.297  1.00  0.00    -0.290 C  
ENDROOT
BRANCH   8  12
ATOM     12  C1*   C A   1      -9.586  13.093  67.976  1.00  0.00    -0.220 C  
ATOM     13  O4*   C A   1      -9.423  12.107  66.925  1.00  0.00    -0.199 OA 
ATOM     14  C4*   C A   1     -10.720  11.638  66.515  1.00  0.00    -0.272 C  
ATOM     15  C3*   C A   1     -11.647  11.823  67.707  1.00  0.00    -0.304 C  
ATOM     16  H2*   C A   1     -12.331  13.116  70.013  1.00  0.00     0.000 HD 
ATOM     17  C2*   C A   1     -10.806  12.551  68.752  1.00  0.00    -0.239 C  
ATOM     18  O3*   C A   1     -12.078  10.568  68.251  1.00  0.00    -0.797 OA 
ATOM     19  O2*   C A   1     -11.581  13.449  69.535  1.00  0.00    -0.281 OA 
ATOM     20  H3*   C A   1     -12.657  10.684  68.995  1.00  0.00     0.000 HD 
BRANCH  14  21
ATOM     21  C5*   C A   1     -11.188  12.446  65.299  1.00  0.00    -0.318 C  
ATOM     22  O5*   C A   1     -12.566  12.782  65.427  1.00  0.00    -0.607 OA 
ATOM     23  H5*   C A   1     -12.856  13.282  64.674  1.00  0.00     0.000 HD 
ENDBRANCH  14  21
ENDBRANCH   8  12
TORSDOF 2
ENDMDL
MODEL       45
REMARK 921   NORMALIZED FREE ENERGY PREDICTED BY IDOCK:   -4.81 KCAL/MOL
REMARK 922        TOTAL FREE ENERGY PREDICTED BY IDOCK:   -5.38 KCAL/MOL
REMARK 923 INTER-LIGAND FREE ENERGY PREDICTED BY IDOCK:   -5.47 KCAL/MOL
REMARK 924 INTRA-LIGAND FREE ENERGY PREDICTED BY IDOCK:    0.09 KCAL/MOL
REMARK 927      BINDING AFFINITY PREDICTED BY RF-SCORE:    0.00 PKD
ROOT
ATOM      1  N4    C A   1     -12.226  10.880  68.506  1.00  0.00    -0.809 NA 
ATOM      2  H42   C A   1     -12.481  10.128  67.866  1.00  0.00     0.000 HD 
ATOM      3  C4    C A   1     -11.811  12.094  68.041  1.00  0.00    -0.285 C  
ATOM      4  H41   C A   1     -12.272  10.753  69.516  1.00  0.00     0.000 HD 
ATOM      5  N3    C A   1     -11.753  12.255  66.759  1.00  0.00    -0.367 N  
ATOM      6  C2    C A   1     -11.357  13.461  66.232  1.00  0.00    -0.306 C  
ATOM      7  H3    C A   1     -12.002  11.486  66.138  1.00  0.00     0.000 HD 
ATOM      8  N1    C A   1     -10.858  14.451  67.106  1.00  0.00    -0.288 N  
ATOM      9  O2    C A   1     -11.435  13.650  65.019  1.00  0.00    -0.312 OA 
ATOM     10  C5    C A   1     -11.444  13.152  68.995  1.00  0.00    -0.345 C  
ATOM     11  C6    C A   1     -10.965  14.277  68.468  1.00  0.00    -0.252 C  
ENDROOT
BRANCH   8  12
ATOM     12  C1*   C A   1     -10.470  15.715  66.478  1.00  0.00    -0.302 C  
ATOM     13  O4*   C A   1      -9.203  15.513  65.802  1.00  0.00    -0.317 OA 
ATOM     14  C4*   C A   1      -8.136  15.944  66.665  1.00  0.00    -0.262 C  
ATOM     15  C3*   C A   1      -8.724  16.995  67.595  1.00  0.00    -0.215 C  
ATOM     16  H2*   C A   1     -10.853  18.082  68.916  1.00  0.00     0.000 HD 
ATOM     17  C2*   C A   1     -10.217  17.013  67.276  1.00  0.00    -0.310 C  
ATOM     18  O3*   C A   1      -8.180  18.298  67.344  1.00  0.00    -0.233 OA 
ATOM     19  O2*   C A   1     -11.008  17.283  68.425  1.00  0.00    -0.312 OA 
ATOM     20  H3*   C A   1      -8.548  18.954  67.924  1.00  0.00     0.000 HD 
BRANCH  14  21
ATOM     21  C5*   C A   1      -7.594  14.737  67.441  1.00  0.00    -0.202 C  
ATOM     22  O5*   C A   1      -7.816  13.536  66.707  1.00  0.00    -0.351 OA 
ATOM     23  H5*   C A   1      -7.481  12.789  67.188  1.00  0.00     0.000 HD 
ENDBRANCH  14  21
ENDBRANCH   8  12
TORSDOF 2
ENDMDL
MODEL       46
REMARK 921   NORMALIZED FREE ENERGY PREDICTED BY IDOCK:   -4.80 KCAL/MOL
REMARK 922        TOTAL FREE ENERGY PREDICTED BY IDOCK:   -5.38 KCAL/MOL
REMARK 923 INTER-LIGAND FREE ENERGY PREDICTED BY IDOCK:   -5.42 KCAL/MOL
REMARK 924 INTRA-LIGAND FREE ENERGY PREDICTED BY IDOCK:    0.04 KCAL/MOL
REMARK 927      BINDING AFFINITY PREDICTED BY RF-SCORE:    0.00 PKD
ROOT
ATOM      1  N4    C A   1     -11.724  10.536  67.873  1.00  0.00    -0.714 NA 
ATOM      2  H42   C A   1     -11.251   9.806  68.407  1.00  0.00     0.000 HD 
ATOM      3  C4    C A   1     -11.112  11.726  67.606  1.00  0.00    -0.252 C  
ATOM      4  H41   C A   1     -12.671  10.404  67.520  1.00  0.00     0.000 HD 
ATOM      5  N3    C A   1      -9.910  11.894  68.055  1.00  0.00    -0.184 N  
ATOM      6  C2    C A   1      -9.237  13.066  67.805  1.00  0.00    -0.200 C  
ATOM      7  H3    C A   1      -9.461  11.155  68.596  1.00  0.00     0.000 HD 
ATOM      8  N1    C A   1      -9.937  14.133  67.204  1.00  0.00    -0.251 N  
ATOM      9  O2    C A   1      -8.051  13.165  68.116  1.00  0.00    -0.138 OA 
ATOM     10  C5    C A   1     -11.828  12.757  66.841  1.00  0.00    -0.440 C  
ATOM     11  C6    C A   1     -11.201  13.923  66.698  1.00  0.00    -0.320 C  
ENDROOT
BRANCH   8  12
ATOM     12  C1*   C A   1      -9.155  15.345  66.952  1.00  0.00    -0.242 C  
ATOM     13  O4*   C A   1      -8.882  15.978  68.227  1.00  0.00    -0.175 OA 
ATOM     14  C4*   C A   1      -9.862  17.005  68.462  1.00  0.00    -0.290 C  
ATOM     15  C3*   C A   1     -10.349  17.463  67.095  1.00  0.00    -0.325 C  
ATOM     16  H2*   C A   1     -10.811  16.979  64.448  1.00  0.00     0.000 HD 
ATOM     17  C2*   C A   1      -9.672  16.524  66.100  1.00  0.00    -0.317 C  
ATOM     18  O3*   C A   1      -9.951  18.810  66.807  1.00  0.00    -0.318 OA 
ATOM     19  O2*   C A   1     -10.493  16.254  64.972  1.00  0.00    -0.621 OA 
ATOM     20  H3*   C A   1     -10.255  19.096  65.954  1.00  0.00     0.000 HD 
BRANCH  14  21
ATOM     21  C5*   C A   1     -11.003  16.430  69.310  1.00  0.00    -0.322 C  
ATOM     22  O5*   C A   1     -10.494  15.502  70.263  1.00  0.00    -0.310 OA 
ATOM     23  H5*   C A   1     -11.201  15.146  70.788  1.00  0.00     0.000 HD 
ENDBRANCH  14  21
ENDBRANCH   8  12
TORSDOF 2
ENDMDL
MODEL       47
REMARK 921   NORMALIZED FREE ENERGY PREDICTED BY IDOCK:   -4.77 KCAL/MOL
REMARK 922        TOTAL FREE ENERGY PREDICTED BY IDOCK:   -5.34 KCAL/MOL
REMARK 923 INTER-LIGAND FREE ENERGY PREDICTED BY IDOCK:   -5.34 KCAL/MOL
REMARK 924 INTRA-LIGAND FREE ENERGY PREDICTED BY IDOCK:   -0.00 KCAL/MOL
REMARK 927      BINDING AFFINITY PREDICTED BY RF-SCORE:    0.00 PKD
ROOT
ATOM      1  N4    C A   1     -10.291  13.221  66.347  1.00  0.00    -0.280 NA 
ATOM      2  H42   C A   1     -10.183  12.382  66.918  1.00  0.00     0.000 HD 
ATOM      3  C4    C A   1      -9.570  14.350  66.604  1.00  0.00    -0.281 C  
ATOM      4  H41   C A   1     -10.943  13.246  65.563  1.00  0.00     0.000 HD 
ATOM      5  N3    C A   1      -8.744  14.318  67.600  1.00  0.00    -0.180 N  
ATOM      6  C2    C A   1      -7.979  15.420  67.898  1.00  0.00    -0.135 C  
ATOM      7  H3    C A   1      -8.660  13.473  68.164  1.00  0.00     0.000 HD 
ATOM      8  N1    C A   1      -8.235  16.627  67.212  1.00  0.00    -0.168 N  
ATOM      9  O2    C A   1      -7.102  15.337  68.756  1.00  0.00    -0.108 OA 
ATOM     10  C5    C A   1      -9.760  15.542  65.765  1.00  0.00    -0.383 C  
ATOM     11  C6    C A   1      -9.088  16.632  66.132  1.00  0.00    -0.283 C  
ENDROOT
BRANCH   8  12
ATOM     12  C1*   C A   1      -7.373  17.755  67.569  1.00  0.00    -0.198 C  
ATOM     13  O4*   C A   1      -7.936  18.402  68.737  1.00  0.00    -0.307 OA 
ATOM     14  C4*   C A   1      -8.739  19.519  68.315  1.00  0.00    -0.336 C  
ATOM     15  C3*   C A   1      -8.180  19.974  66.975  1.00  0.00    -0.321 C  
ATOM     16  H2*   C A   1      -6.856  19.449  64.645  1.00  0.00     0.000 HD 
ATOM     17  C2*   C A   1      -7.106  18.948  66.626  1.00  0.00    -0.212 C  
ATOM     18  O3*   C A   1      -7.573  21.271  67.060  1.00  0.00    -0.741 OA 
ATOM     19  O2*   C A   1      -7.019  18.716  65.226  1.00  0.00    -0.523 OA 
ATOM     20  H3*   C A   1      -7.224  21.555  66.223  1.00  0.00     0.000 HD 
BRANCH  14  21
ATOM     21  C5*   C A   1     -10.202  19.076  68.201  1.00  0.00    -0.396 C  
ATOM     22  O5*   C A   1     -10.796  19.623  67.027  1.00  0.00    -0.487 OA 
ATOM     23  H5*   C A   1     -11.702  19.348  66.956  1.00  0.00     0.000 HD 
ENDBRANCH  14  21
ENDBRANCH   8  12
TORSDOF 2
ENDMDL
MODEL       48
REMARK 921   NORMALIZED FREE ENERGY PREDICTED BY IDOCK:   -4.75 KCAL/MOL
REMARK 922        TOTAL FREE ENERGY PREDICTED BY IDOCK:   -5.32 KCAL/MOL
REMARK 923 INTER-LIGAND FREE ENERGY PREDICTED BY IDOCK:   -5.34 KCAL/MOL
REMARK 924 INTRA-LIGAND FREE ENERGY PREDICTED BY IDOCK:    0.02 KCAL/MOL
REMARK 927      BINDING AFFINITY PREDICTED BY RF-SCORE:    0.00 PKD
ROOT
ATOM      1  N4    C A   1      -7.572  18.481  67.526  1.00  0.00    -0.227 NA 
ATOM      2  H42   C A   1      -7.790  19.396  67.132  1.00  0.00     0.000 HD 
ATOM      3  C4    C A   1      -8.258  17.365  67.147  1.00  0.00    -0.210 C  
ATOM      4  H41   C A   1      -6.832  18.367  68.219  1.00  0.00     0.000 HD 
ATOM      5  N3    C A   1      -9.196  17.510  66.268  1.00  0.00    -0.239 N  
ATOM      6  C2    C A   1      -9.912  16.420  65.835  1.00  0.00    -0.332 C  
ATOM      7  H3    C A   1      -9.405  18.436  65.895  1.00  0.00     0.000 HD 
ATOM      8  N1    C A   1      -9.721  15.182  66.486  1.00  0.00    -0.255 N  
ATOM      9  O2    C A   1     -10.707  16.544  64.904  1.00  0.00    -0.702 OA 
ATOM     10  C5    C A   1      -7.920  16.064  67.743  1.00  0.00    -0.152 C  
ATOM     11  C6    C A   1      -8.692  15.038  67.390  1.00  0.00    -0.194 C  
ENDROOT
BRANCH   8  12
ATOM     12  C1*   C A   1     -10.504  14.061  65.964  1.00  0.00    -0.304 C  
ATOM     13  O4*   C A   1     -11.862  14.193  66.452  1.00  0.00    -0.386 OA 
ATOM     14  C4*   C A   1     -12.020  13.382  67.630  1.00  0.00    -0.322 C  
ATOM     15  C3*   C A   1     -11.000  12.257  67.523  1.00  0.00    -0.254 C  
ATOM     16  H2*   C A   1      -8.623  11.278  66.602  1.00  0.00     0.000 HD 
ATOM     17  C2*   C A   1     -10.181  12.584  66.278  1.00  0.00    -0.248 C  
ATOM     18  O3*   C A   1     -11.627  10.980  67.345  1.00  0.00    -0.525 OA 
ATOM     19  O2*   C A   1      -8.823  12.187  66.409  1.00  0.00    -0.184 OA 
ATOM     20  H3*   C A   1     -10.990  10.278  67.279  1.00  0.00     0.000 HD 
BRANCH  14  21
ATOM     21  C5*   C A   1     -11.787  14.246  68.874  1.00  0.00    -0.336 C  
ATOM     22  O5*   C A   1     -11.199  13.471  69.914  1.00  0.00    -0.471 OA 
ATOM     23  H5*   C A   1     -11.055  14.006  70.685  1.00  0.00     0.000 HD 
ENDBRANCH  14  21
ENDBRANCH   8  12
TORSDOF 2
ENDMDL
MODEL       49
REMARK 921   NORMALIZED FREE ENERGY PREDICTED BY IDOCK:   -4.73 KCAL/MOL
REMARK 922        TOTAL FREE ENERGY PREDICTED BY IDOCK:   -5.30 KCAL/MOL
REMARK 923 INTER-LIGAND FREE ENERGY PREDICTED BY IDOCK:   -5.41 KCAL/MOL
REMARK 924 INTRA-LIGAND FREE ENERGY PREDICTED BY IDOCK:    0.12 KCAL/MOL
REMARK 927      BINDING AFFINITY PREDICTED BY RF-SCORE:    0.00 PKD
ROOT
ATOM      1  N4    C A   1      -6.530  20.893  65.956  1.00  0.00    -0.385 NA 
ATOM      2  H42   C A   1      -6.752  21.887  65.997  1.00  0.00     0.000 HD 
ATOM      3  C4    C A   1      -7.493  19.944  66.136  1.00  0.00    -0.311 C  
ATOM      4  H41   C A   1      -5.579  20.571  65.778  1.00  0.00     0.000 HD 
ATOM      5  N3    C A   1      -8.700  20.352  66.362  1.00  0.00    -0.555 N  
ATOM      6  C2    C A   1      -9.715  19.443  66.537  1.00  0.00    -0.375 C  
ATOM      7  H3    C A   1      -8.898  21.351  66.410  1.00  0.00     0.000 HD 
ATOM      8  N1    C A   1      -9.388  18.074  66.634  1.00  0.00    -0.284 N  
ATOM      9  O2    C A   1     -10.878  19.837  66.615  1.00  0.00    -0.467 OA 
ATOM     10  C5    C A   1      -7.132  18.520  66.078  1.00  0.00    -0.306 C  
ATOM     11  C6    C A   1      -8.107  17.655  66.353  1.00  0.00    -0.267 C  
ENDROOT
BRANCH   8  12
ATOM     12  C1*   C A   1     -10.520  17.161  66.804  1.00  0.00    -0.263 C  
ATOM     13  O4*   C A   1     -10.770  17.011  68.224  1.00  0.00    -0.358 OA 
ATOM     14  C4*   C A   1     -10.110  15.822  68.695  1.00  0.00    -0.211 C  
ATOM     15  C3*   C A   1      -9.992  14.887  67.500  1.00  0.00    -0.219 C  
ATOM     16  H2*   C A   1      -9.816  14.477  64.807  1.00  0.00     0.000 HD 
ATOM     17  C2*   C A   1     -10.507  15.697  66.314  1.00  0.00    -0.306 C  
ATOM     18  O3*   C A   1     -10.807  13.717  67.654  1.00  0.00    -0.250 OA 
ATOM     19  O2*   C A   1      -9.824  15.377  65.109  1.00  0.00    -0.264 OA 
ATOM     20  H3*   C A   1     -10.733  13.133  66.908  1.00  0.00     0.000 HD 
BRANCH  14  21
ATOM     21  C5*   C A   1      -8.736  16.198  69.262  1.00  0.00    -0.190 C  
ATOM     22  O5*   C A   1      -8.055  15.036  69.726  1.00  0.00    -0.402 OA 
ATOM     23  H5*   C A   1      -7.204  15.269  70.077  1.00  0.00     0.000 HD 
ENDBRANCH  14  21
ENDBRANCH   8  12
TORSDOF 2
ENDMDL
MODEL       50
REMARK 921   NORMALIZED FREE ENERGY PREDICTED BY IDOCK:   -4.71 KCAL/MOL
REMARK 922        TOTAL FREE ENERGY PREDICTED BY IDOCK:   -5.28 KCAL/MOL
REMARK 923 INTER-LIGAND FREE ENERGY PREDICTED BY IDOCK:   -5.40 KCAL/MOL
REMARK 924 INTRA-LIGAND FREE ENERGY PREDICTED BY IDOCK:    0.12 KCAL/MOL
REMARK 927      BINDING AFFINITY PREDICTED BY RF-SCORE:    0.00 PKD
ROOT
ATOM      1  N4    C A   1     -12.523  13.902  63.009  1.00  0.00    -1.009 NA 
ATOM      2  H42   C A   1     -12.967  14.817  62.926  1.00  0.00     0.000 HD 
ATOM      3  C4    C A   1     -12.113  13.421  64.218  1.00  0.00    -0.424 C  
ATOM      4  H41   C A   1     -12.369  13.313  62.191  1.00  0.00     0.000 HD 
ATOM      5  N3    C A   1     -12.308  14.169  65.256  1.00  0.00    -0.445 N  
ATOM      6  C2    C A   1     -11.930  13.732  66.503  1.00  0.00    -0.434 C  
ATOM      7  H3    C A   1     -12.744  15.085  65.149  1.00  0.00     0.000 HD 
ATOM      8  N1    C A   1     -11.181  12.540  66.604  1.00  0.00    -0.290 N  
ATOM      9  O2    C A   1     -12.241  14.386  67.497  1.00  0.00    -0.342 OA 
ATOM     10  C5    C A   1     -11.470  12.102  64.297  1.00  0.00    -0.437 C  
ATOM     11  C6    C A   1     -11.017  11.739  65.496  1.00  0.00    -0.290 C  
ENDROOT
BRANCH   8  12
ATOM     12  C1*   C A   1     -10.826  12.126  67.963  1.00  0.00    -0.222 C  
ATOM     13  O4*   C A   1      -9.783  13.009  68.446  1.00  0.00    -0.227 OA 
ATOM     14  C4*   C A   1      -8.503  12.389  68.231  1.00  0.00    -0.170 C  
ATOM     15  C3*   C A   1      -8.745  10.886  68.216  1.00  0.00    -0.140 C  
ATOM     16  H2*   C A   1     -10.378   8.742  67.781  1.00  0.00     0.000 HD 
ATOM     17  C2*   C A   1     -10.261  10.729  68.301  1.00  0.00    -0.167 C  
ATOM     18  O3*   C A   1      -8.147  10.236  69.346  1.00  0.00    -0.141 OA 
ATOM     19  O2*   C A   1     -10.725   9.601  67.573  1.00  0.00    -0.274 OA 
ATOM     20  H3*   C A   1      -8.298   9.299  69.337  1.00  0.00     0.000 HD 
BRANCH  14  21
ATOM     21  C5*   C A   1      -7.919  12.884  66.902  1.00  0.00     0.079 C  
ATOM     22  O5*   C A   1      -6.495  12.861  66.948  1.00  0.00    -0.468 OA 
ATOM     23  H5*   C A   1      -6.133  13.168  66.125  1.00  0.00     0.000 HD 
ENDBRANCH  14  21
ENDBRANCH   8  12
TORSDOF 2
ENDMDL
MODEL       51
REMARK 921   NORMALIZED FREE ENERGY PREDICTED BY IDOCK:   -4.70 KCAL/MOL
REMARK 922        TOTAL FREE ENERGY PREDICTED BY IDOCK:   -5.27 KCAL/MOL
REMARK 923 INTER-LIGAND FREE ENERGY PREDICTED BY IDOCK:   -5.42 KCAL/MOL
REMARK 924 INTRA-LIGAND FREE ENERGY PREDICTED BY IDOCK:    0.16 KCAL/MOL
REMARK 927      BINDING AFFINITY PREDICTED BY RF-SCORE:    0.00 PKD
ROOT
ATOM      1  N4    C A   1     -10.510  17.787  67.734  1.00  0.00    -0.384 NA 
ATOM      2  H42   C A   1     -10.775  18.095  68.670  1.00  0.00     0.000 HD 
ATOM      3  C4    C A   1     -10.773  16.518  67.307  1.00  0.00    -0.243 C  
ATOM      4  H41   C A   1     -10.040  18.415  67.083  1.00  0.00     0.000 HD 
ATOM      5  N3    C A   1     -11.370  15.721  68.133  1.00  0.00    -0.353 N  
ATOM      6  C2    C A   1     -11.674  14.435  67.753  1.00  0.00    -0.376 C  
ATOM      7  H3    C A   1     -11.615  16.046  69.067  1.00  0.00     0.000 HD 
ATOM      8  N1    C A   1     -11.176  13.957  66.523  1.00  0.00    -0.315 N  
ATOM      9  O2    C A   1     -12.359  13.729  68.492  1.00  0.00    -0.269 OA 
ATOM     10  C5    C A   1     -10.370  16.107  65.954  1.00  0.00    -0.384 C  
ATOM     11  C6    C A   1     -10.579  14.830  65.641  1.00  0.00    -0.340 C  
ENDROOT
BRANCH   8  12
ATOM     12  C1*   C A   1     -11.552  12.585  66.175  1.00  0.00    -0.395 C  
ATOM     13  O4*   C A   1     -10.887  11.687  67.098  1.00  0.00    -0.234 OA 
ATOM     14  C4*   C A   1      -9.675  11.203  66.492  1.00  0.00    -0.198 C  
ATOM     15  C3*   C A   1      -9.886  11.266  64.986  1.00  0.00    -0.261 C  
ATOM     16  H2*   C A   1     -11.094  12.358  62.795  1.00  0.00     0.000 HD 
ATOM     17  C2*   C A   1     -11.241  11.943  64.805  1.00  0.00    -0.297 C  
ATOM     18  O3*   C A   1      -9.938   9.959  64.398  1.00  0.00    -0.396 OA 
ATOM     19  O2*   C A   1     -11.285  12.752  63.637  1.00  0.00    -0.436 OA 
ATOM     20  H3*   C A   1     -10.069   9.998  63.458  1.00  0.00     0.000 HD 
BRANCH  14  21
ATOM     21  C5*   C A   1      -8.500  12.082  66.939  1.00  0.00    -0.172 C  
ATOM     22  O5*   C A   1      -7.301  11.678  66.286  1.00  0.00    -0.370 OA 
ATOM     23  H5*   C A   1      -6.574  12.222  66.563  1.00  0.00     0.000 HD 
ENDBRANCH  14  21
ENDBRANCH   8  12
TORSDOF 2
ENDMDL
MODEL       52
REMARK 921   NORMALIZED FREE ENERGY PREDICTED BY IDOCK:   -4.66 KCAL/MOL
REMARK 922        TOTAL FREE ENERGY PREDICTED BY IDOCK:   -5.22 KCAL/MOL
REMARK 923 INTER-LIGAND FREE ENERGY PREDICTED BY IDOCK:   -5.42 KCAL/MOL
REMARK 924 INTRA-LIGAND FREE ENERGY PREDICTED BY IDOCK:    0.20 KCAL/MOL
REMARK 927      BINDING AFFINITY PREDICTED BY RF-SCORE:    0.00 PKD
ROOT
ATOM      1  N4    C A   1     -12.893  12.918  64.698  1.00  0.00    -0.740 NA 
ATOM      2  H42   C A   1     -13.049  11.916  64.806  1.00  0.00     0.000 HD 
ATOM      3  C4    C A   1     -11.770  13.517  65.187  1.00  0.00    -0.322 C  
ATOM      4  H41   C A   1     -13.572  13.510  64.220  1.00  0.00     0.000 HD 
ATOM      5  N3    C A   1     -10.908  12.766  65.794  1.00  0.00    -0.269 N  
ATOM      6  C2    C A   1      -9.750  13.310  66.295  1.00  0.00    -0.268 C  
ATOM      7  H3    C A   1     -11.089  11.768  65.901  1.00  0.00     0.000 HD 
ATOM      8  N1    C A   1      -9.601  14.713  66.285  1.00  0.00    -0.297 N  
ATOM      9  O2    C A   1      -8.877  12.571  66.748  1.00  0.00    -0.208 OA 
ATOM     10  C5    C A   1     -11.584  14.966  65.019  1.00  0.00    -0.357 C  
ATOM     11  C6    C A   1     -10.508  15.492  65.600  1.00  0.00    -0.374 C  
ENDROOT
BRANCH   8  12
ATOM     12  C1*   C A   1      -8.337  15.222  66.819  1.00  0.00    -0.223 C  
ATOM     13  O4*   C A   1      -8.303  14.943  68.241  1.00  0.00    -0.138 OA 
ATOM     14  C4*   C A   1      -8.745  16.109  68.960  1.00  0.00    -0.254 C  
ATOM     15  C3*   C A   1      -8.444  17.308  68.072  1.00  0.00    -0.229 C  
ATOM     16  H2*   C A   1      -8.064  18.405  65.601  1.00  0.00     0.000 HD 
ATOM     17  C2*   C A   1      -7.933  16.712  66.763  1.00  0.00    -0.249 C  
ATOM     18  O3*   C A   1      -7.422  18.145  68.631  1.00  0.00    -0.277 OA 
ATOM     19  O2*   C A   1      -8.312  17.489  65.636  1.00  0.00    -0.479 OA 
ATOM     20  H3*   C A   1      -7.234  18.893  68.077  1.00  0.00     0.000 HD 
BRANCH  14  21
ATOM     21  C5*   C A   1     -10.244  15.982  69.255  1.00  0.00    -0.249 C  
ATOM     22  O5*   C A   1     -10.452  15.259  70.465  1.00  0.00    -0.484 OA 
ATOM     23  H5*   C A   1     -11.380  15.180  70.648  1.00  0.00     0.000 HD 
ENDBRANCH  14  21
ENDBRANCH   8  12
TORSDOF 2
ENDMDL
MODEL       53
REMARK 921   NORMALIZED FREE ENERGY PREDICTED BY IDOCK:   -4.64 KCAL/MOL
REMARK 922        TOTAL FREE ENERGY PREDICTED BY IDOCK:   -5.20 KCAL/MOL
REMARK 923 INTER-LIGAND FREE ENERGY PREDICTED BY IDOCK:   -5.18 KCAL/MOL
REMARK 924 INTRA-LIGAND FREE ENERGY PREDICTED BY IDOCK:   -0.02 KCAL/MOL
REMARK 927      BINDING AFFINITY PREDICTED BY RF-SCORE:    0.00 PKD
ROOT
ATOM      1  N4    C A   1     -13.945   8.976  72.733  1.00  0.00    -0.980 NA 
ATOM      2  H42   C A   1     -13.872   9.839  73.272  1.00  0.00     0.000 HD 
ATOM      3  C4    C A   1     -12.840   8.376  72.203  1.00  0.00    -0.346 C  
ATOM      4  H41   C A   1     -14.847   8.530  72.569  1.00  0.00     0.000 HD 
ATOM      5  N3    C A   1     -11.695   8.943  72.410  1.00  0.00    -0.281 N  
ATOM      6  C2    C A   1     -10.545   8.378  71.915  1.00  0.00    -0.300 C  
ATOM      7  H3    C A   1     -11.647   9.812  72.942  1.00  0.00     0.000 HD 
ATOM      8  N1    C A   1     -10.655   7.274  71.043  1.00  0.00    -0.220 N  
ATOM      9  O2    C A   1      -9.452   8.846  72.229  1.00  0.00    -0.327 OA 
ATOM     10  C5    C A   1     -12.986   7.137  71.425  1.00  0.00    -0.419 C  
ATOM     11  C6    C A   1     -11.875   6.661  70.866  1.00  0.00    -0.377 C  
ENDROOT
BRANCH   8  12
ATOM     12  C1*   C A   1      -9.390   6.712  70.566  1.00  0.00    -0.166 C  
ATOM     13  O4*   C A   1      -8.884   7.570  69.513  1.00  0.00    -0.137 OA 
ATOM     14  C4*   C A   1      -9.274   7.030  68.237  1.00  0.00    -0.128 C  
ATOM     15  C3*   C A   1      -9.455   5.532  68.436  1.00  0.00    -0.118 C  
ATOM     16  H2*   C A   1     -10.022   3.394  70.037  1.00  0.00     0.000 HD 
ATOM     17  C2*   C A   1      -9.272   5.308  69.935  1.00  0.00    -0.137 C  
ATOM     18  O3*   C A   1      -8.464   4.774  67.729  1.00  0.00    -0.103 OA 
ATOM     19  O2*   C A   1     -10.095   4.258  70.425  1.00  0.00    -0.194 OA 
ATOM     20  H3*   C A   1      -8.577   3.839  67.853  1.00  0.00     0.000 HD 
BRANCH  14  21
ATOM     21  C5*   C A   1     -10.572   7.704  67.778  1.00  0.00    -0.196 C  
ATOM     22  O5*   C A   1     -11.489   6.731  67.287  1.00  0.00    -0.752 OA 
ATOM     23  H5*   C A   1     -12.293   7.149  67.002  1.00  0.00     0.000 HD 
ENDBRANCH  14  21
ENDBRANCH   8  12
TORSDOF 2
ENDMDL
MODEL       54
REMARK 921   NORMALIZED FREE ENERGY PREDICTED BY IDOCK:   -4.61 KCAL/MOL
REMARK 922        TOTAL FREE ENERGY PREDICTED BY IDOCK:   -5.16 KCAL/MOL
REMARK 923 INTER-LIGAND FREE ENERGY PREDICTED BY IDOCK:   -5.39 KCAL/MOL
REMARK 924 INTRA-LIGAND FREE ENERGY PREDICTED BY IDOCK:    0.23 KCAL/MOL
REMARK 927      BINDING AFFINITY PREDICTED BY RF-SCORE:    0.00 PKD
ROOT
ATOM      1  N4    C A   1     -14.272   8.924  73.308  1.00  0.00    -1.237 NA 
ATOM      2  H42   C A   1     -14.693   8.071  73.676  1.00  0.00     0.000 HD 
ATOM      3  C4    C A   1     -13.327   8.880  72.325  1.00  0.00    -0.449 C  
ATOM      4  H41   C A   1     -14.540   9.841  73.662  1.00  0.00     0.000 HD 
ATOM      5  N3    C A   1     -12.986   7.715  71.876  1.00  0.00    -0.435 N  
ATOM      6  C2    C A   1     -12.051   7.608  70.874  1.00  0.00    -0.202 C  
ATOM      7  H3    C A   1     -13.412   6.875  72.266  1.00  0.00     0.000 HD 
ATOM      8  N1    C A   1     -11.356   8.768  70.470  1.00  0.00    -0.253 N  
ATOM      9  O2    C A   1     -11.832   6.512  70.361  1.00  0.00    -0.400 OA 
ATOM     10  C5    C A   1     -12.737  10.130  71.825  1.00  0.00    -0.534 C  
ATOM     11  C6    C A   1     -11.759  10.001  70.930  1.00  0.00    -0.374 C  
ENDROOT
BRANCH   8  12
ATOM     12  C1*   C A   1     -10.386   8.583  69.389  1.00  0.00    -0.215 C  
ATOM     13  O4*   C A   1      -9.339   7.703  69.867  1.00  0.00    -0.151 OA 
ATOM     14  C4*   C A   1      -8.234   8.497  70.335  1.00  0.00    -0.114 C  
ATOM     15  C3*   C A   1      -8.294   9.815  69.578  1.00  0.00    -0.161 C  
ATOM     16  H2*   C A   1      -9.708  11.732  68.244  1.00  0.00     0.000 HD 
ATOM     17  C2*   C A   1      -9.583   9.745  68.765  1.00  0.00    -0.154 C  
ATOM     18  O3*   C A   1      -7.186   9.969  68.681  1.00  0.00    -0.076 OA 
ATOM     19  O2*   C A   1     -10.202  11.017  68.628  1.00  0.00    -0.183 OA 
ATOM     20  H3*   C A   1      -7.224  10.792  68.208  1.00  0.00     0.000 HD 
BRANCH  14  21
ATOM     21  C5*   C A   1      -8.365   8.702  71.849  1.00  0.00    -0.124 C  
ATOM     22  O5*   C A   1      -7.103   9.045  72.415  1.00  0.00    -0.326 OA 
ATOM     23  H5*   C A   1      -7.185   9.172  73.352  1.00  0.00     0.000 HD 
ENDBRANCH  14  21
ENDBRANCH   8  12
TORSDOF 2
ENDMDL
MODEL       55
REMARK 921   NORMALIZED FREE ENERGY PREDICTED BY IDOCK:   -4.60 KCAL/MOL
REMARK 922        TOTAL FREE ENERGY PREDICTED BY IDOCK:   -5.15 KCAL/MOL
REMARK 923 INTER-LIGAND FREE ENERGY PREDICTED BY IDOCK:   -5.24 KCAL/MOL
REMARK 924 INTRA-LIGAND FREE ENERGY PREDICTED BY IDOCK:    0.10 KCAL/MOL
REMARK 927      BINDING AFFINITY PREDICTED BY RF-SCORE:    0.00 PKD
ROOT
ATOM      1  N4    C A   1      -9.708   3.703  69.195  1.00  0.00    -0.091 NA 
ATOM      2  H42   C A   1      -9.156   2.982  69.658  1.00  0.00     0.000 HD 
ATOM      3  C4    C A   1     -10.013   4.874  69.826  1.00  0.00    -0.244 C  
ATOM      4  H41   C A   1     -10.053   3.577  68.244  1.00  0.00     0.000 HD 
ATOM      5  N3    C A   1      -9.576   5.034  71.033  1.00  0.00    -0.161 N  
ATOM      6  C2    C A   1      -9.839   6.199  71.714  1.00  0.00    -0.164 C  
ATOM      7  H3    C A   1      -9.035   4.295  71.480  1.00  0.00     0.000 HD 
ATOM      8  N1    C A   1     -10.728   7.133  71.139  1.00  0.00    -0.231 N  
ATOM      9  O2    C A   1      -9.307   6.399  72.805  1.00  0.00    -0.142 OA 
ATOM     10  C5    C A   1     -10.819   5.888  69.129  1.00  0.00    -0.406 C  
ATOM     11  C6    C A   1     -11.151   6.964  69.840  1.00  0.00    -0.288 C  
ENDROOT
BRANCH   8  12
ATOM     12  C1*   C A   1     -10.950   8.357  71.911  1.00  0.00    -0.305 C  
ATOM     13  O4*   C A   1     -12.069   8.131  72.803  1.00  0.00    -0.337 OA 
ATOM     14  C4*   C A   1     -13.268   8.641  72.192  1.00  0.00    -0.383 C  
ATOM     15  C3*   C A   1     -12.835   9.744  71.237  1.00  0.00    -0.377 C  
ATOM     16  H2*   C A   1     -10.965  10.881  69.606  1.00  0.00     0.000 HD 
ATOM     17  C2*   C A   1     -11.309   9.712  71.264  1.00  0.00    -0.388 C  
ATOM     18  O3*   C A   1     -13.280  11.035  71.674  1.00  0.00    -0.414 OA 
ATOM     19  O2*   C A   1     -10.744  10.048  70.004  1.00  0.00    -0.257 OA 
ATOM     20  H3*   C A   1     -13.009  11.724  71.077  1.00  0.00     0.000 HD 
BRANCH  14  21
ATOM     21  C5*   C A   1     -13.985   7.501  71.458  1.00  0.00    -0.410 C  
ATOM     22  O5*   C A   1     -14.255   6.427  72.354  1.00  0.00    -0.647 OA 
ATOM     23  H5*   C A   1     -14.699   5.721  71.899  1.00  0.00     0.000 HD 
ENDBRANCH  14  21
ENDBRANCH   8  12
TORSDOF 2
ENDMDL
MODEL       56
REMARK 921   NORMALIZED FREE ENERGY PREDICTED BY IDOCK:   -4.58 KCAL/MOL
REMARK 922        TOTAL FREE ENERGY PREDICTED BY IDOCK:   -5.13 KCAL/MOL
REMARK 923 INTER-LIGAND FREE ENERGY PREDICTED BY IDOCK:   -5.18 KCAL/MOL
REMARK 924 INTRA-LIGAND FREE ENERGY PREDICTED BY IDOCK:    0.05 KCAL/MOL
REMARK 927      BINDING AFFINITY PREDICTED BY RF-SCORE:    0.00 PKD
ROOT
ATOM      1  N4    C A   1     -12.671  14.488  72.592  1.00  0.00    -0.364 NA 
ATOM      2  H42   C A   1     -13.092  13.574  72.756  1.00  0.00     0.000 HD 
ATOM      3  C4    C A   1     -12.233  14.854  71.352  1.00  0.00    -0.333 C  
ATOM      4  H41   C A   1     -12.560  15.162  73.348  1.00  0.00     0.000 HD 
ATOM      5  N3    C A   1     -12.373  13.997  70.393  1.00  0.00    -0.342 N  
ATOM      6  C2    C A   1     -11.965  14.315  69.119  1.00  0.00    -0.335 C  
ATOM      7  H3    C A   1     -12.787  13.085  70.581  1.00  0.00     0.000 HD 
ATOM      8  N1    C A   1     -11.245  15.512  68.918  1.00  0.00    -0.283 N  
ATOM      9  O2    C A   1     -12.224  13.553  68.189  1.00  0.00    -0.302 OA 
ATOM     10  C5    C A   1     -11.624  16.177  71.157  1.00  0.00    -0.453 C  
ATOM     11  C6    C A   1     -11.141  16.428  69.941  1.00  0.00    -0.310 C  
ENDROOT
BRANCH   8  12
ATOM     12  C1*   C A   1     -10.856  15.795  67.535  1.00  0.00    -0.315 C  
ATOM     13  O4*   C A   1      -9.743  14.931  67.194  1.00  0.00    -0.222 OA 
ATOM     14  C4*   C A   1      -8.512  15.653  67.385  1.00  0.00    -0.172 C  
ATOM     15  C3*   C A   1      -8.843  17.129  67.220  1.00  0.00    -0.217 C  
ATOM     16  H2*   C A   1     -10.618  19.200  67.348  1.00  0.00     0.000 HD 
ATOM     17  C2*   C A   1     -10.360  17.178  67.061  1.00  0.00    -0.308 C  
ATOM     18  O3*   C A   1      -8.235  17.686  66.046  1.00  0.00    -0.495 OA 
ATOM     19  O2*   C A   1     -10.922  18.349  67.639  1.00  0.00    -0.346 OA 
ATOM     20  H3*   C A   1      -8.442  18.608  65.943  1.00  0.00     0.000 HD 
BRANCH  14  21
ATOM     21  C5*   C A   1      -7.958  15.346  68.782  1.00  0.00    -0.158 C  
ATOM     22  O5*   C A   1      -7.178  16.439  69.256  1.00  0.00    -0.222 OA 
ATOM     23  H5*   C A   1      -6.834  16.249  70.121  1.00  0.00     0.000 HD 
ENDBRANCH  14  21
ENDBRANCH   8  12
TORSDOF 2
ENDMDL
MODEL       57
REMARK 921   NORMALIZED FREE ENERGY PREDICTED BY IDOCK:   -4.54 KCAL/MOL
REMARK 922        TOTAL FREE ENERGY PREDICTED BY IDOCK:   -5.08 KCAL/MOL
REMARK 923 INTER-LIGAND FREE ENERGY PREDICTED BY IDOCK:   -5.33 KCAL/MOL
REMARK 924 INTRA-LIGAND FREE ENERGY PREDICTED BY IDOCK:    0.25 KCAL/MOL
REMARK 927      BINDING AFFINITY PREDICTED BY RF-SCORE:    0.00 PKD
ROOT
ATOM      1  N4    C A   1      -8.393  11.091  68.091  1.00  0.00    -0.124 NA 
ATOM      2  H42   C A   1      -7.376  11.022  68.125  1.00  0.00     0.000 HD 
ATOM      3  C4    C A   1      -9.173  10.542  69.065  1.00  0.00    -0.185 C  
ATOM      4  H41   C A   1      -8.864  11.574  67.327  1.00  0.00     0.000 HD 
ATOM      5  N3    C A   1      -8.575   9.929  70.035  1.00  0.00    -0.301 N  
ATOM      6  C2    C A   1      -9.307   9.368  71.054  1.00  0.00    -0.140 C  
ATOM      7  H3    C A   1      -7.557   9.861  70.043  1.00  0.00     0.000 HD 
ATOM      8  N1    C A   1     -10.712   9.327  70.934  1.00  0.00    -0.274 N  
ATOM      9  O2    C A   1      -8.729   8.907  72.037  1.00  0.00    -0.365 OA 
ATOM     10  C5    C A   1     -10.636  10.655  68.978  1.00  0.00    -0.249 C  
ATOM     11  C6    C A   1     -11.332  10.018  69.917  1.00  0.00    -0.250 C  
ENDROOT
BRANCH   8  12
ATOM     12  C1*   C A   1     -11.429   8.730  72.062  1.00  0.00    -0.371 C  
ATOM     13  O4*   C A   1     -10.901   7.398  72.280  1.00  0.00    -0.224 OA 
ATOM     14  C4*   C A   1     -11.743   6.442  71.610  1.00  0.00    -0.313 C  
ATOM     15  C3*   C A   1     -13.127   7.070  71.521  1.00  0.00    -0.339 C  
ATOM     16  H2*   C A   1     -14.741   9.268  71.408  1.00  0.00     0.000 HD 
ATOM     17  C2*   C A   1     -12.954   8.486  72.063  1.00  0.00    -0.371 C  
ATOM     18  O3*   C A   1     -14.083   6.375  72.333  1.00  0.00    -0.575 OA 
ATOM     19  O2*   C A   1     -13.803   9.418  71.408  1.00  0.00    -0.336 OA 
ATOM     20  H3*   C A   1     -14.947   6.766  72.277  1.00  0.00     0.000 HD 
BRANCH  14  21
ATOM     21  C5*   C A   1     -11.163   6.143  70.222  1.00  0.00    -0.369 C  
ATOM     22  O5*   C A   1     -12.034   6.628  69.205  1.00  0.00    -0.545 OA 
ATOM     23  H5*   C A   1     -11.675   6.442  68.346  1.00  0.00     0.000 HD 
ENDBRANCH  14  21
ENDBRANCH   8  12
TORSDOF 2
ENDMDL
MODEL       58
REMARK 921   NORMALIZED FREE ENERGY PREDICTED BY IDOCK:   -4.54 KCAL/MOL
REMARK 922        TOTAL FREE ENERGY PREDICTED BY IDOCK:   -5.08 KCAL/MOL
REMARK 923 INTER-LIGAND FREE ENERGY PREDICTED BY IDOCK:   -6.11 KCAL/MOL
REMARK 924 INTRA-LIGAND FREE ENERGY PREDICTED BY IDOCK:    1.02 KCAL/MOL
REMARK 927      BINDING AFFINITY PREDICTED BY RF-SCORE:    0.00 PKD
ROOT
ATOM      1  N4    C A   1     -12.478  13.367  62.629  1.00  0.00    -0.574 NA 
ATOM      2  H42   C A   1     -12.142  13.964  61.874  1.00  0.00     0.000 HD 
ATOM      3  C4    C A   1     -12.005  13.501  63.901  1.00  0.00    -0.440 C  
ATOM      4  H41   C A   1     -13.181  12.647  62.461  1.00  0.00     0.000 HD 
ATOM      5  N3    C A   1     -11.114  14.414  64.115  1.00  0.00    -0.549 N  
ATOM      6  C2    C A   1     -10.611  14.606  65.379  1.00  0.00    -0.374 C  
ATOM      7  H3    C A   1     -10.783  14.992  63.343  1.00  0.00     0.000 HD 
ATOM      8  N1    C A   1     -10.957  13.686  66.392  1.00  0.00    -0.296 N  
ATOM      9  O2    C A   1      -9.868  15.561  65.600  1.00  0.00    -0.334 OA 
ATOM     10  C5    C A   1     -12.509  12.616  64.962  1.00  0.00    -0.556 C  
ATOM     11  C6    C A   1     -11.936  12.746  66.157  1.00  0.00    -0.414 C  
ENDROOT
BRANCH   8  12
ATOM     12  C1*   C A   1     -10.398  13.960  67.717  1.00  0.00    -0.240 C  
ATOM     13  O4*   C A   1     -10.056  12.694  68.334  1.00  0.00    -0.228 OA 
ATOM     14  C4*   C A   1     -11.136  12.280  69.190  1.00  0.00    -0.203 C  
ATOM     15  C3*   C A   1     -11.859  13.548  69.622  1.00  0.00    -0.336 C  
ATOM     16  H2*   C A   1     -12.587  16.141  69.180  1.00  0.00     0.000 HD 
ATOM     17  C2*   C A   1     -11.188  14.671  68.838  1.00  0.00    -0.267 C  
ATOM     18  O3*   C A   1     -11.701  13.802  71.025  1.00  0.00    -0.492 OA 
ATOM     19  O2*   C A   1     -12.101  15.703  68.491  1.00  0.00    -0.242 OA 
ATOM     20  H3*   C A   1     -12.153  14.593  71.295  1.00  0.00     0.000 HD 
BRANCH  14  21
ATOM     21  C5*   C A   1     -12.061  11.333  68.415  1.00  0.00    -0.040 C  
ATOM     22  O5*   C A   1     -11.621   9.985  68.556  1.00  0.00    -0.521 OA 
ATOM     23  H5*   C A   1     -12.193   9.399  68.076  1.00  0.00     0.000 HD 
ENDBRANCH  14  21
ENDBRANCH   8  12
TORSDOF 2
ENDMDL
MODEL       59
REMARK 921   NORMALIZED FREE ENERGY PREDICTED BY IDOCK:   -4.50 KCAL/MOL
REMARK 922        TOTAL FREE ENERGY PREDICTED BY IDOCK:   -5.04 KCAL/MOL
REMARK 923 INTER-LIGAND FREE ENERGY PREDICTED BY IDOCK:   -5.04 KCAL/MOL
REMARK 924 INTRA-LIGAND FREE ENERGY PREDICTED BY IDOCK:    0.00 KCAL/MOL
REMARK 927      BINDING AFFINITY PREDICTED BY RF-SCORE:    0.00 PKD
ROOT
ATOM      1  N4    C A   1     -10.122  10.044  65.449  1.00  0.00    -0.296 NA 
ATOM      2  H42   C A   1     -10.583   9.636  64.636  1.00  0.00     0.000 HD 
ATOM      3  C4    C A   1     -10.475  11.276  65.918  1.00  0.00    -0.259 C  
ATOM      4  H41   C A   1      -9.381   9.547  65.942  1.00  0.00     0.000 HD 
ATOM      5  N3    C A   1     -11.416  11.907  65.293  1.00  0.00    -0.294 N  
ATOM      6  C2    C A   1     -11.824  13.145  65.728  1.00  0.00    -0.397 C  
ATOM      7  H3    C A   1     -11.855  11.485  64.475  1.00  0.00     0.000 HD 
ATOM      8  N1    C A   1     -11.090  13.778  66.754  1.00  0.00    -0.304 N  
ATOM      9  O2    C A   1     -12.807  13.676  65.214  1.00  0.00    -0.672 OA 
ATOM     10  C5    C A   1      -9.783  11.835  67.089  1.00  0.00    -0.194 C  
ATOM     11  C6    C A   1     -10.120  13.076  67.433  1.00  0.00    -0.231 C  
ENDROOT
BRANCH   8  12
ATOM     12  C1*   C A   1     -11.591  15.086  67.178  1.00  0.00    -0.261 C  
ATOM     13  O4*   C A   1     -11.121  16.079  66.232  1.00  0.00    -0.144 OA 
ATOM     14  C4*   C A   1      -9.924  16.689  66.747  1.00  0.00    -0.279 C  
ATOM     15  C3*   C A   1      -9.990  16.567  68.262  1.00  0.00    -0.250 C  
ATOM     16  H2*   C A   1     -10.861  15.289  70.512  1.00  0.00     0.000 HD 
ATOM     17  C2*   C A   1     -11.235  15.729  68.537  1.00  0.00    -0.354 C  
ATOM     18  O3*   C A   1     -10.141  17.845  68.896  1.00  0.00    -0.368 OA 
ATOM     19  O2*   C A   1     -11.080  14.894  69.676  1.00  0.00    -0.257 OA 
ATOM     20  H3*   C A   1     -10.182  17.768  69.843  1.00  0.00     0.000 HD 
BRANCH  14  21
ATOM     21  C5*   C A   1      -8.700  15.967  66.170  1.00  0.00    -0.313 C  
ATOM     22  O5*   C A   1      -7.820  15.568  67.217  1.00  0.00    -0.167 OA 
ATOM     23  H5*   C A   1      -7.062  15.122  66.860  1.00  0.00     0.000 HD 
ENDBRANCH  14  21
ENDBRANCH   8  12
TORSDOF 2
ENDMDL
MODEL       60
REMARK 921   NORMALIZED FREE ENERGY PREDICTED BY IDOCK:   -4.48 KCAL/MOL
REMARK 922        TOTAL FREE ENERGY PREDICTED BY IDOCK:   -5.02 KCAL/MOL
REMARK 923 INTER-LIGAND FREE ENERGY PREDICTED BY IDOCK:   -5.10 KCAL/MOL
REMARK 924 INTRA-LIGAND FREE ENERGY PREDICTED BY IDOCK:    0.08 KCAL/MOL
REMARK 927      BINDING AFFINITY PREDICTED BY RF-SCORE:    0.00 PKD
ROOT
ATOM      1  N4    C A   1      -8.520   8.528  63.805  1.00  0.00    -0.387 NA 
ATOM      2  H42   C A   1      -8.511   8.486  62.787  1.00  0.00     0.000 HD 
ATOM      3  C4    C A   1      -9.254   9.467  64.469  1.00  0.00    -0.092 C  
ATOM      4  H41   C A   1      -7.981   7.870  64.366  1.00  0.00     0.000 HD 
ATOM      5  N3    C A   1      -9.939  10.303  63.757  1.00  0.00    -0.471 N  
ATOM      6  C2    C A   1     -10.710  11.262  64.369  1.00  0.00    -0.339 C  
ATOM      7  H3    C A   1      -9.906  10.250  62.739  1.00  0.00     0.000 HD 
ATOM      8  N1    C A   1     -10.607  11.422  65.767  1.00  0.00    -0.261 N  
ATOM      9  O2    C A   1     -11.461  11.963  63.692  1.00  0.00    -0.418 OA 
ATOM     10  C5    C A   1      -9.237   9.501  65.939  1.00  0.00    -0.260 C  
ATOM     11  C6    C A   1      -9.906  10.500  66.511  1.00  0.00    -0.206 C  
ENDROOT
BRANCH   8  12
ATOM     12  C1*   C A   1     -11.468  12.450  66.354  1.00  0.00    -0.373 C  
ATOM     13  O4*   C A   1     -10.801  13.730  66.216  1.00  0.00    -0.282 OA 
ATOM     14  C4*   C A   1     -10.099  14.029  67.436  1.00  0.00    -0.244 C  
ATOM     15  C3*   C A   1     -10.826  13.288  68.549  1.00  0.00    -0.265 C  
ATOM     16  H2*   C A   1     -12.385  11.218  69.408  1.00  0.00     0.000 HD 
ATOM     17  C2*   C A   1     -11.889  12.455  67.840  1.00  0.00    -0.308 C  
ATOM     18  O3*   C A   1     -11.472  14.188  69.459  1.00  0.00    -0.259 OA 
ATOM     19  O2*   C A   1     -12.126  11.216  68.494  1.00  0.00    -0.586 OA 
ATOM     20  H3*   C A   1     -11.925  13.726  70.154  1.00  0.00     0.000 HD 
BRANCH  14  21
ATOM     21  C5*   C A   1      -8.641  13.571  67.305  1.00  0.00    -0.213 C  
ATOM     22  O5*   C A   1      -7.922  13.856  68.501  1.00  0.00    -0.137 OA 
ATOM     23  H5*   C A   1      -7.019  13.573  68.420  1.00  0.00     0.000 HD 
ENDBRANCH  14  21
ENDBRANCH   8  12
TORSDOF 2
ENDMDL
MODEL       61
REMARK 921   NORMALIZED FREE ENERGY PREDICTED BY IDOCK:   -4.45 KCAL/MOL
REMARK 922        TOTAL FREE ENERGY PREDICTED BY IDOCK:   -4.98 KCAL/MOL
REMARK 923 INTER-LIGAND FREE ENERGY PREDICTED BY IDOCK:   -4.97 KCAL/MOL
REMARK 924 INTRA-LIGAND FREE ENERGY PREDICTED BY IDOCK:   -0.01 KCAL/MOL
REMARK 927      BINDING AFFINITY PREDICTED BY RF-SCORE:    0.00 PKD
ROOT
ATOM      1  N4    C A   1     -12.342  14.008  70.798  1.00  0.00    -0.351 NA 
ATOM      2  H42   C A   1     -12.320  13.080  71.219  1.00  0.00     0.000 HD 
ATOM      3  C4    C A   1     -11.507  14.340  69.771  1.00  0.00    -0.261 C  
ATOM      4  H41   C A   1     -12.989  14.724  71.128  1.00  0.00     0.000 HD 
ATOM      5  N3    C A   1     -10.685  13.433  69.352  1.00  0.00    -0.446 N  
ATOM      6  C2    C A   1      -9.829  13.703  68.311  1.00  0.00    -0.232 C  
ATOM      7  H3    C A   1     -10.672  12.515  69.796  1.00  0.00     0.000 HD 
ATOM      8  N1    C A   1      -9.748  15.027  67.828  1.00  0.00    -0.214 N  
ATOM      9  O2    C A   1      -9.150  12.797  67.831  1.00  0.00    -0.187 OA 
ATOM     10  C5    C A   1     -11.562  15.692  69.194  1.00  0.00    -0.393 C  
ATOM     11  C6    C A   1     -10.657  15.968  68.258  1.00  0.00    -0.283 C  
ENDROOT
BRANCH   8  12
ATOM     12  C1*   C A   1      -8.829  15.240  66.709  1.00  0.00    -0.271 C  
ATOM     13  O4*   C A   1      -7.490  15.381  67.245  1.00  0.00    -0.186 OA 
ATOM     14  C4*   C A   1      -7.185  16.780  67.387  1.00  0.00    -0.160 C  
ATOM     15  C3*   C A   1      -8.038  17.517  66.365  1.00  0.00    -0.274 C  
ATOM     16  H2*   C A   1     -10.277  17.687  64.812  1.00  0.00     0.000 HD 
ATOM     17  C2*   C A   1      -8.930  16.444  65.748  1.00  0.00     0.000 C  
ATOM     18  O3*   C A   1      -7.242  18.111  65.331  1.00  0.00    -0.529 OA 
ATOM     19  O2*   C A   1     -10.214  16.947  65.403  1.00  0.00    -0.605 OA 
ATOM     20  H3*   C A   1      -7.774  18.571  64.693  1.00  0.00     0.000 HD 
BRANCH  14  21
ATOM     21  C5*   C A   1      -7.503  17.223  68.821  1.00  0.00    -0.260 C  
ATOM     22  O5*   C A   1      -8.146  18.495  68.815  1.00  0.00    -0.315 OA 
ATOM     23  H5*   C A   1      -8.342  18.769  69.703  1.00  0.00     0.000 HD 
ENDBRANCH  14  21
ENDBRANCH   8  12
TORSDOF 2
ENDMDL
MODEL       62
REMARK 921   NORMALIZED FREE ENERGY PREDICTED BY IDOCK:   -4.44 KCAL/MOL
REMARK 922        TOTAL FREE ENERGY PREDICTED BY IDOCK:   -4.97 KCAL/MOL
REMARK 923 INTER-LIGAND FREE ENERGY PREDICTED BY IDOCK:   -5.09 KCAL/MOL
REMARK 924 INTRA-LIGAND FREE ENERGY PREDICTED BY IDOCK:    0.12 KCAL/MOL
REMARK 927      BINDING AFFINITY PREDICTED BY RF-SCORE:    0.00 PKD
ROOT
ATOM      1  N4    C A   1      -8.201  11.293  68.022  1.00  0.00    -0.128 NA 
ATOM      2  H42   C A   1      -8.281  12.303  67.912  1.00  0.00     0.000 HD 
ATOM      3  C4    C A   1      -9.103  10.587  68.764  1.00  0.00    -0.166 C  
ATOM      4  H41   C A   1      -7.444  10.771  67.580  1.00  0.00     0.000 HD 
ATOM      5  N3    C A   1     -10.063  11.248  69.324  1.00  0.00    -0.426 N  
ATOM      6  C2    C A   1     -11.010  10.590  70.072  1.00  0.00    -0.286 C  
ATOM      7  H3    C A   1     -10.118  12.260  69.211  1.00  0.00     0.000 HD 
ATOM      8  N1    C A   1     -10.819   9.220  70.352  1.00  0.00    -0.238 N  
ATOM      9  O2    C A   1     -11.993  11.204  70.486  1.00  0.00    -0.336 OA 
ATOM     10  C5    C A   1      -8.950   9.131  68.905  1.00  0.00    -0.139 C  
ATOM     11  C6    C A   1      -9.815   8.526  69.716  1.00  0.00    -0.186 C  
ENDROOT
BRANCH   8  12
ATOM     12  C1*   C A   1     -11.874   8.580  71.140  1.00  0.00    -0.284 C  
ATOM     13  O4*   C A   1     -11.590   8.805  72.543  1.00  0.00    -0.317 OA 
ATOM     14  C4*   C A   1     -10.897   7.661  73.073  1.00  0.00    -0.400 C  
ATOM     15  C3*   C A   1     -11.303   6.471  72.216  1.00  0.00    -0.282 C  
ATOM     16  H2*   C A   1     -12.172   5.429  69.846  1.00  0.00     0.000 HD 
ATOM     17  C2*   C A   1     -12.158   7.062  71.099  1.00  0.00    -0.369 C  
ATOM     18  O3*   C A   1     -12.091   5.525  72.952  1.00  0.00    -0.542 OA 
ATOM     19  O2*   C A   1     -11.997   6.362  69.872  1.00  0.00    -0.304 OA 
ATOM     20  H3*   C A   1     -12.345   4.782  72.417  1.00  0.00     0.000 HD 
BRANCH  14  21
ATOM     21  C5*   C A   1      -9.386   7.915  73.015  1.00  0.00    -0.265 C  
ATOM     22  O5*   C A   1      -8.844   7.987  74.330  1.00  0.00    -0.422 OA 
ATOM     23  H5*   C A   1      -7.908   8.144  74.294  1.00  0.00     0.000 HD 
ENDBRANCH  14  21
ENDBRANCH   8  12
TORSDOF 2
ENDMDL
MODEL       63
REMARK 921   NORMALIZED FREE ENERGY PREDICTED BY IDOCK:   -4.41 KCAL/MOL
REMARK 922        TOTAL FREE ENERGY PREDICTED BY IDOCK:   -4.94 KCAL/MOL
REMARK 923 INTER-LIGAND FREE ENERGY PREDICTED BY IDOCK:   -5.13 KCAL/MOL
REMARK 924 INTRA-LIGAND FREE ENERGY PREDICTED BY IDOCK:    0.20 KCAL/MOL
REMARK 927      BINDING AFFINITY PREDICTED BY RF-SCORE:    0.00 PKD
ROOT
ATOM      1  N4    C A   1     -10.008   9.329  65.609  1.00  0.00    -0.427 NA 
ATOM      2  H42   C A   1     -10.189   8.866  64.718  1.00  0.00     0.000 HD 
ATOM      3  C4    C A   1     -10.174   8.674  66.794  1.00  0.00    -0.291 C  
ATOM      4  H41   C A   1      -9.696  10.298  65.647  1.00  0.00     0.000 HD 
ATOM      5  N3    C A   1     -10.571   7.443  66.746  1.00  0.00    -0.503 N  
ATOM      6  C2    C A   1     -10.742   6.727  67.907  1.00  0.00    -0.256 C  
ATOM      7  H3    C A   1     -10.757   7.003  65.845  1.00  0.00     0.000 HD 
ATOM      8  N1    C A   1     -10.641   7.404  69.141  1.00  0.00    -0.218 N  
ATOM      9  O2    C A   1     -10.986   5.523  67.848  1.00  0.00    -0.105 OA 
ATOM     10  C5    C A   1      -9.910   9.377  68.058  1.00  0.00    -0.191 C  
ATOM     11  C6    C A   1     -10.180   8.701  69.173  1.00  0.00    -0.208 C  
ENDROOT
BRANCH   8  12
ATOM     12  C1*   C A   1     -10.819   6.577  70.336  1.00  0.00    -0.273 C  
ATOM     13  O4*   C A   1     -12.209   6.657  70.738  1.00  0.00    -0.378 OA 
ATOM     14  C4*   C A   1     -12.345   7.659  71.762  1.00  0.00    -0.319 C  
ATOM     15  C3*   C A   1     -10.996   7.754  72.460  1.00  0.00    -0.338 C  
ATOM     16  H2*   C A   1      -8.279   7.481  72.438  1.00  0.00     0.000 HD 
ATOM     17  C2*   C A   1     -10.073   6.836  71.663  1.00  0.00    -0.183 C  
ATOM     18  O3*   C A   1     -11.060   7.286  73.814  1.00  0.00    -0.557 OA 
ATOM     19  O2*   C A   1      -8.738   7.321  71.622  1.00  0.00    -0.118 OA 
ATOM     20  H3*   C A   1     -10.218   7.345  74.250  1.00  0.00     0.000 HD 
BRANCH  14  21
ATOM     21  C5*   C A   1     -12.746   8.991  71.115  1.00  0.00    -0.192 C  
ATOM     22  O5*   C A   1     -14.142   9.005  70.833  1.00  0.00    -0.576 OA 
ATOM     23  H5*   C A   1     -14.390   9.829  70.433  1.00  0.00     0.000 HD 
ENDBRANCH  14  21
ENDBRANCH   8  12
TORSDOF 2
ENDMDL
MODEL       64
REMARK 921   NORMALIZED FREE ENERGY PREDICTED BY IDOCK:   -4.40 KCAL/MOL
REMARK 922        TOTAL FREE ENERGY PREDICTED BY IDOCK:   -4.92 KCAL/MOL
REMARK 923 INTER-LIGAND FREE ENERGY PREDICTED BY IDOCK:   -4.99 KCAL/MOL
REMARK 924 INTRA-LIGAND FREE ENERGY PREDICTED BY IDOCK:    0.07 KCAL/MOL
REMARK 927      BINDING AFFINITY PREDICTED BY RF-SCORE:    0.00 PKD
ROOT
ATOM      1  N4    C A   1      -7.071  10.893  65.627  1.00  0.00    -0.359 NA 
ATOM      2  H42   C A   1      -6.980  10.674  64.635  1.00  0.00     0.000 HD 
ATOM      3  C4    C A   1      -8.208  11.457  66.126  1.00  0.00    -0.041 C  
ATOM      4  H41   C A   1      -6.315  10.699  66.283  1.00  0.00     0.000 HD 
ATOM      5  N3    C A   1      -9.168  11.704  65.294  1.00  0.00    -0.408 N  
ATOM      6  C2    C A   1     -10.344  12.258  65.740  1.00  0.00    -0.258 C  
ATOM      7  H3    C A   1      -9.051  11.488  64.304  1.00  0.00     0.000 HD 
ATOM      8  N1    C A   1     -10.418  12.702  67.077  1.00  0.00    -0.232 N  
ATOM      9  O2    C A   1     -11.297  12.363  64.970  1.00  0.00    -0.303 OA 
ATOM     10  C5    C A   1      -8.299  11.766  67.561  1.00  0.00    -0.154 C  
ATOM     11  C6    C A   1      -9.404  12.396  67.957  1.00  0.00    -0.204 C  
ENDROOT
BRANCH   8  12
ATOM     12  C1*   C A   1     -11.704  13.267  67.489  1.00  0.00    -0.366 C  
ATOM     13  O4*   C A   1     -11.747  14.652  67.063  1.00  0.00    -0.377 OA 
ATOM     14  C4*   C A   1     -11.351  15.494  68.161  1.00  0.00    -0.345 C  
ATOM     15  C3*   C A   1     -11.680  14.730  69.436  1.00  0.00    -0.323 C  
ATOM     16  H2*   C A   1     -12.065  12.380  70.771  1.00  0.00     0.000 HD 
ATOM     17  C2*   C A   1     -12.155  13.359  68.963  1.00  0.00    -0.259 C  
ATOM     18  O3*   C A   1     -12.735  15.357  70.178  1.00  0.00    -0.578 OA 
ATOM     19  O2*   C A   1     -11.787  12.324  69.864  1.00  0.00    -0.321 OA 
ATOM     20  H3*   C A   1     -12.940  14.880  70.974  1.00  0.00     0.000 HD 
BRANCH  14  21
ATOM     21  C5*   C A   1      -9.852  15.798  68.050  1.00  0.00    -0.217 C  
ATOM     22  O5*   C A   1      -9.391  16.456  69.226  1.00  0.00    -0.249 OA 
ATOM     23  H5*   C A   1      -8.463  16.645  69.157  1.00  0.00     0.000 HD 
ENDBRANCH  14  21
ENDBRANCH   8  12
TORSDOF 2
ENDMDL
MODEL       65
REMARK 921   NORMALIZED FREE ENERGY PREDICTED BY IDOCK:   -4.37 KCAL/MOL
REMARK 922        TOTAL FREE ENERGY PREDICTED BY IDOCK:   -4.90 KCAL/MOL
REMARK 923 INTER-LIGAND FREE ENERGY PREDICTED BY IDOCK:   -5.11 KCAL/MOL
REMARK 924 INTRA-LIGAND FREE ENERGY PREDICTED BY IDOCK:    0.21 KCAL/MOL
REMARK 927      BINDING AFFINITY PREDICTED BY RF-SCORE:    0.00 PKD
ROOT
ATOM      1  N4    C A   1     -12.297   8.778  72.083  1.00  0.00    -0.376 NA 
ATOM      2  H42   C A   1     -11.674   8.100  72.520  1.00  0.00     0.000 HD 
ATOM      3  C4    C A   1     -11.844   9.646  71.133  1.00  0.00    -0.367 C  
ATOM      4  H41   C A   1     -13.283   8.832  72.339  1.00  0.00     0.000 HD 
ATOM      5  N3    C A   1     -10.594   9.577  70.808  1.00  0.00    -0.295 N  
ATOM      6  C2    C A   1     -10.082  10.416  69.847  1.00  0.00    -0.095 C  
ATOM      7  H3    C A   1      -9.986   8.899  71.267  1.00  0.00     0.000 HD 
ATOM      8  N1    C A   1     -10.899  11.454  69.351  1.00  0.00    -0.203 N  
ATOM      9  O2    C A   1      -8.930  10.253  69.448  1.00  0.00    -0.185 OA 
ATOM     10  C5    C A   1     -12.771  10.615  70.530  1.00  0.00    -0.395 C  
ATOM     11  C6    C A   1     -12.237  11.487  69.677  1.00  0.00    -0.229 C  
ENDROOT
BRANCH   8  12
ATOM     12  C1*   C A   1     -10.296  12.299  68.318  1.00  0.00    -0.221 C  
ATOM     13  O4*   C A   1      -9.816  13.511  68.951  1.00  0.00    -0.098 OA 
ATOM     14  C4*   C A   1     -10.810  14.542  68.808  1.00  0.00    -0.248 C  
ATOM     15  C3*   C A   1     -11.613  14.203  67.561  1.00  0.00    -0.367 C  
ATOM     16  H2*   C A   1     -12.581  12.377  65.776  1.00  0.00     0.000 HD 
ATOM     17  C2*   C A   1     -11.082  12.846  67.107  1.00  0.00    -0.275 C  
ATOM     18  O3*   C A   1     -11.403  15.158  66.512  1.00  0.00    -0.324 OA 
ATOM     19  O2*   C A   1     -12.097  12.041  66.521  1.00  0.00    -0.617 OA 
ATOM     20  H3*   C A   1     -11.905  14.946  65.734  1.00  0.00     0.000 HD 
BRANCH  14  21
ATOM     21  C5*   C A   1     -11.692  14.571  70.063  1.00  0.00    -0.301 C  
ATOM     22  O5*   C A   1     -10.889  14.728  71.229  1.00  0.00    -0.512 OA 
ATOM     23  H5*   C A   1     -11.435  14.746  72.006  1.00  0.00     0.000 HD 
ENDBRANCH  14  21
ENDBRANCH   8  12
TORSDOF 2
ENDMDL
MODEL       66
REMARK 921   NORMALIZED FREE ENERGY PREDICTED BY IDOCK:   -4.37 KCAL/MOL
REMARK 922        TOTAL FREE ENERGY PREDICTED BY IDOCK:   -4.89 KCAL/MOL
REMARK 923 INTER-LIGAND FREE ENERGY PREDICTED BY IDOCK:   -6.99 KCAL/MOL
REMARK 924 INTRA-LIGAND FREE ENERGY PREDICTED BY IDOCK:    2.10 KCAL/MOL
REMARK 927      BINDING AFFINITY PREDICTED BY RF-SCORE:    0.00 PKD
ROOT
ATOM      1  N4    C A   1     -13.372  12.716  64.624  1.00  0.00    -0.576 NA 
ATOM      2  H42   C A   1     -13.764  12.747  63.684  1.00  0.00     0.000 HD 
ATOM      3  C4    C A   1     -12.496  13.668  65.058  1.00  0.00    -0.414 C  
ATOM      4  H41   C A   1     -13.619  11.972  65.276  1.00  0.00     0.000 HD 
ATOM      5  N3    C A   1     -12.181  14.611  64.230  1.00  0.00    -0.702 N  
ATOM      6  C2    C A   1     -11.315  15.607  64.615  1.00  0.00    -0.349 C  
ATOM      7  H3    C A   1     -12.577  14.617  63.291  1.00  0.00     0.000 HD 
ATOM      8  N1    C A   1     -10.653  15.486  65.855  1.00  0.00    -0.324 N  
ATOM      9  O2    C A   1     -11.128  16.570  63.874  1.00  0.00    -0.694 OA 
ATOM     10  C5    C A   1     -11.945  13.585  66.418  1.00  0.00    -0.459 C  
ATOM     11  C6    C A   1     -11.029  14.498  66.738  1.00  0.00    -0.316 C  
ENDROOT
BRANCH   8  12
ATOM     12  C1*   C A   1      -9.758  16.589  66.208  1.00  0.00    -0.305 C  
ATOM     13  O4*   C A   1      -9.294  16.378  67.565  1.00  0.00    -0.212 OA 
ATOM     14  C4*   C A   1     -10.118  17.137  68.468  1.00  0.00    -0.329 C  
ATOM     15  C3*   C A   1     -10.671  18.309  67.670  1.00  0.00    -0.348 C  
ATOM     16  H2*   C A   1     -11.431  19.429  65.299  1.00  0.00     0.000 HD 
ATOM     17  C2*   C A   1     -10.206  18.067  66.238  1.00  0.00    -0.381 C  
ATOM     18  O3*   C A   1     -10.143  19.563  68.125  1.00  0.00    -0.380 OA 
ATOM     19  O2*   C A   1     -11.155  18.520  65.281  1.00  0.00    -0.417 OA 
ATOM     20  H3*   C A   1     -10.488  20.295  67.627  1.00  0.00     0.000 HD 
BRANCH  14  21
ATOM     21  C5*   C A   1     -11.237  16.238  69.008  1.00  0.00    -0.326 C  
ATOM     22  O5*   C A   1     -11.330  16.360  70.424  1.00  0.00    -0.458 OA 
ATOM     23  H5*   C A   1     -12.023  15.803  70.759  1.00  0.00     0.000 HD 
ENDBRANCH  14  21
ENDBRANCH   8  12
TORSDOF 2
ENDMDL
MODEL       67
REMARK 921   NORMALIZED FREE ENERGY PREDICTED BY IDOCK:   -4.36 KCAL/MOL
REMARK 922        TOTAL FREE ENERGY PREDICTED BY IDOCK:   -4.89 KCAL/MOL
REMARK 923 INTER-LIGAND FREE ENERGY PREDICTED BY IDOCK:   -5.97 KCAL/MOL
REMARK 924 INTRA-LIGAND FREE ENERGY PREDICTED BY IDOCK:    1.08 KCAL/MOL
REMARK 927      BINDING AFFINITY PREDICTED BY RF-SCORE:    0.00 PKD
ROOT
ATOM      1  N4    C A   1     -11.513  15.165  71.990  1.00  0.00    -0.486 NA 
ATOM      2  H42   C A   1     -11.380  16.058  72.463  1.00  0.00     0.000 HD 
ATOM      3  C4    C A   1     -11.482  15.072  70.630  1.00  0.00    -0.293 C  
ATOM      4  H41   C A   1     -11.675  14.307  72.517  1.00  0.00     0.000 HD 
ATOM      5  N3    C A   1     -11.278  16.161  69.961  1.00  0.00    -0.354 N  
ATOM      6  C2    C A   1     -11.221  16.127  68.588  1.00  0.00    -0.369 C  
ATOM      7  H3    C A   1     -11.159  17.045  70.453  1.00  0.00     0.000 HD 
ATOM      8  N1    C A   1     -11.556  14.927  67.926  1.00  0.00    -0.339 N  
ATOM      9  O2    C A   1     -10.893  17.138  67.968  1.00  0.00    -0.378 OA 
ATOM     10  C5    C A   1     -11.687  13.767  69.983  1.00  0.00    -0.327 C  
ATOM     11  C6    C A   1     -11.732  13.771  68.653  1.00  0.00    -0.356 C  
ENDROOT
BRANCH   8  12
ATOM     12  C1*   C A   1     -11.459  14.959  66.465  1.00  0.00    -0.286 C  
ATOM     13  O4*   C A   1     -12.346  13.944  65.932  1.00  0.00    -0.436 OA 
ATOM     14  C4*   C A   1     -11.589  12.749  65.670  1.00  0.00    -0.370 C  
ATOM     15  C3*   C A   1     -10.154  13.188  65.421  1.00  0.00    -0.248 C  
ATOM     16  H2*   C A   1      -8.108  14.958  65.788  1.00  0.00     0.000 HD 
ATOM     17  C2*   C A   1     -10.146  14.688  65.698  1.00  0.00    -0.363 C  
ATOM     18  O3*   C A   1      -9.753  12.965  64.062  1.00  0.00    -0.680 OA 
ATOM     19  O2*   C A   1      -8.916  15.124  66.260  1.00  0.00    -0.289 OA 
ATOM     20  H3*   C A   1      -8.857  13.239  63.906  1.00  0.00     0.000 HD 
BRANCH  14  21
ATOM     21  C5*   C A   1     -11.696  11.808  66.876  1.00  0.00    -0.139 C  
ATOM     22  O5*   C A   1     -10.692  10.801  66.810  1.00  0.00    -0.255 OA 
ATOM     23  H5*   C A   1     -10.758  10.218  67.557  1.00  0.00     0.000 HD 
ENDBRANCH  14  21
ENDBRANCH   8  12
TORSDOF 2
ENDMDL
MODEL       68
REMARK 921   NORMALIZED FREE ENERGY PREDICTED BY IDOCK:   -4.35 KCAL/MOL
REMARK 922        TOTAL FREE ENERGY PREDICTED BY IDOCK:   -4.87 KCAL/MOL
REMARK 923 INTER-LIGAND FREE ENERGY PREDICTED BY IDOCK:   -6.06 KCAL/MOL
REMARK 924 INTRA-LIGAND FREE ENERGY PREDICTED BY IDOCK:    1.20 KCAL/MOL
REMARK 927      BINDING AFFINITY PREDICTED BY RF-SCORE:    0.00 PKD
ROOT
ATOM      1  N4    C A   1     -14.056   9.021  73.412  1.00  0.00    -1.104 NA 
ATOM      2  H42   C A   1     -14.194   8.301  74.120  1.00  0.00     0.000 HD 
ATOM      3  C4    C A   1     -13.091   8.897  72.455  1.00  0.00    -0.418 C  
ATOM      4  H41   C A   1     -14.633   9.862  73.392  1.00  0.00     0.000 HD 
ATOM      5  N3    C A   1     -12.359   7.831  72.480  1.00  0.00    -0.559 N  
ATOM      6  C2    C A   1     -11.381   7.642  71.533  1.00  0.00    -0.255 C  
ATOM      7  H3    C A   1     -12.507   7.129  73.204  1.00  0.00     0.000 HD 
ATOM      8  N1    C A   1     -11.083   8.700  70.648  1.00  0.00    -0.246 N  
ATOM      9  O2    C A   1     -10.782   6.568  71.481  1.00  0.00    -0.225 OA 
ATOM     10  C5    C A   1     -12.916   9.960  71.454  1.00  0.00    -0.504 C  
ATOM     11  C6    C A   1     -11.898   9.809  70.609  1.00  0.00    -0.281 C  
ENDROOT
BRANCH   8  12
ATOM     12  C1*   C A   1     -10.043   8.424  69.655  1.00  0.00    -0.199 C  
ATOM     13  O4*   C A   1      -9.541   9.692  69.163  1.00  0.00    -0.161 OA 
ATOM     14  C4*   C A   1     -10.220  10.022  67.938  1.00  0.00    -0.188 C  
ATOM     15  C3*   C A   1     -10.664   8.706  67.317  1.00  0.00    -0.139 C  
ATOM     16  H2*   C A   1     -11.397   6.087  67.560  1.00  0.00     0.000 HD 
ATOM     17  C2*   C A   1     -10.304   7.641  68.350  1.00  0.00    -0.194 C  
ATOM     18  O3*   C A   1      -9.963   8.425  66.098  1.00  0.00    -0.448 OA 
ATOM     19  O2*   C A   1     -11.236   6.568  68.363  1.00  0.00    -0.283 OA 
ATOM     20  H3*   C A   1     -10.241   7.603  65.710  1.00  0.00     0.000 HD 
BRANCH  14  21
ATOM     21  C5*   C A   1     -11.412  10.935  68.251  1.00  0.00    -0.305 C  
ATOM     22  O5*   C A   1     -11.922  11.514  67.053  1.00  0.00    -0.556 OA 
ATOM     23  H5*   C A   1     -12.660  12.079  67.247  1.00  0.00     0.000 HD 
ENDBRANCH  14  21
ENDBRANCH   8  12
TORSDOF 2
ENDMDL
MODEL       69
REMARK 921   NORMALIZED FREE ENERGY PREDICTED BY IDOCK:   -4.34 KCAL/MOL
REMARK 922        TOTAL FREE ENERGY PREDICTED BY IDOCK:   -4.87 KCAL/MOL
REMARK 923 INTER-LIGAND FREE ENERGY PREDICTED BY IDOCK:   -5.24 KCAL/MOL
REMARK 924 INTRA-LIGAND FREE ENERGY PREDICTED BY IDOCK:    0.37 KCAL/MOL
REMARK 927      BINDING AFFINITY PREDICTED BY RF-SCORE:    0.00 PKD
ROOT
ATOM      1  N4    C A   1      -9.235   9.295  63.184  1.00  0.00    -0.470 NA 
ATOM      2  H42   C A   1      -8.381   8.741  63.245  1.00  0.00     0.000 HD 
ATOM      3  C4    C A   1      -9.456  10.350  64.021  1.00  0.00    -0.299 C  
ATOM      4  H41   C A   1      -9.956   9.082  62.495  1.00  0.00     0.000 HD 
ATOM      5  N3    C A   1      -8.542  10.620  64.896  1.00  0.00    -0.253 N  
ATOM      6  C2    C A   1      -8.701  11.680  65.756  1.00  0.00     0.060 C  
ATOM      7  H3    C A   1      -7.701  10.046  64.946  1.00  0.00     0.000 HD 
ATOM      8  N1    C A   1      -9.942  12.352  65.780  1.00  0.00    -0.255 N  
ATOM      9  O2    C A   1      -7.772  12.013  66.490  1.00  0.00    -0.006 OA 
ATOM     10  C5    C A   1     -10.704  11.120  63.909  1.00  0.00    -0.407 C  
ATOM     11  C6    C A   1     -10.887  12.076  64.817  1.00  0.00    -0.306 C  
ENDROOT
BRANCH   8  12
ATOM     12  C1*   C A   1     -10.037  13.480  66.708  1.00  0.00    -0.268 C  
ATOM     13  O4*   C A   1      -9.556  13.040  68.003  1.00  0.00    -0.211 OA 
ATOM     14  C4*   C A   1     -10.679  12.649  68.814  1.00  0.00    -0.207 C  
ATOM     15  C3*   C A   1     -11.879  13.431  68.300  1.00  0.00    -0.358 C  
ATOM     16  H2*   C A   1     -13.192  14.728  66.288  1.00  0.00     0.000 HD 
ATOM     17  C2*   C A   1     -11.370  14.171  67.067  1.00  0.00    -0.332 C  
ATOM     18  O3*   C A   1     -12.345  14.390  69.259  1.00  0.00    -0.505 OA 
ATOM     19  O2*   C A   1     -12.371  14.302  66.067  1.00  0.00    -0.432 OA 
ATOM     20  H3*   C A   1     -13.094  14.877  68.938  1.00  0.00     0.000 HD 
BRANCH  14  21
ATOM     21  C5*   C A   1     -10.889  11.135  68.691  1.00  0.00    -0.209 C  
ATOM     22  O5*   C A   1     -12.118  10.858  68.027  1.00  0.00    -0.780 OA 
ATOM     23  H5*   C A   1     -12.248   9.920  67.951  1.00  0.00     0.000 HD 
ENDBRANCH  14  21
ENDBRANCH   8  12
TORSDOF 2
ENDMDL
MODEL       70
REMARK 921   NORMALIZED FREE ENERGY PREDICTED BY IDOCK:   -4.32 KCAL/MOL
REMARK 922        TOTAL FREE ENERGY PREDICTED BY IDOCK:   -4.84 KCAL/MOL
REMARK 923 INTER-LIGAND FREE ENERGY PREDICTED BY IDOCK:   -4.95 KCAL/MOL
REMARK 924 INTRA-LIGAND FREE ENERGY PREDICTED BY IDOCK:    0.11 KCAL/MOL
REMARK 927      BINDING AFFINITY PREDICTED BY RF-SCORE:    0.00 PKD
ROOT
ATOM      1  N4    C A   1     -10.308  17.023  67.215  1.00  0.00    -0.308 NA 
ATOM      2  H42   C A   1     -10.935  17.612  66.668  1.00  0.00     0.000 HD 
ATOM      3  C4    C A   1     -10.452  15.667  67.240  1.00  0.00    -0.292 C  
ATOM      4  H41   C A   1      -9.549  17.426  67.764  1.00  0.00     0.000 HD 
ATOM      5  N3    C A   1     -11.415  15.155  66.544  1.00  0.00    -0.239 N  
ATOM      6  C2    C A   1     -11.600  13.793  66.518  1.00  0.00    -0.365 C  
ATOM      7  H3    C A   1     -12.038  15.763  66.013  1.00  0.00     0.000 HD 
ATOM      8  N1    C A   1     -10.835  12.989  67.390  1.00  0.00    -0.248 N  
ATOM      9  O2    C A   1     -12.429  13.307  65.750  1.00  0.00    -0.448 OA 
ATOM     10  C5    C A   1      -9.532  14.851  68.047  1.00  0.00    -0.198 C  
ATOM     11  C6    C A   1      -9.790  13.546  68.092  1.00  0.00    -0.237 C  
ENDROOT
BRANCH   8  12
ATOM     12  C1*   C A   1     -11.073  11.548  67.297  1.00  0.00    -0.293 C  
ATOM     13  O4*   C A   1     -12.280  11.241  68.040  1.00  0.00    -0.621 OA 
ATOM     14  C4*   C A   1     -11.919  10.807  69.364  1.00  0.00    -0.281 C  
ATOM     15  C3*   C A   1     -10.517  10.223  69.264  1.00  0.00    -0.228 C  
ATOM     16  H2*   C A   1      -8.074  10.092  68.054  1.00  0.00     0.000 HD 
ATOM     17  C2*   C A   1     -10.080  10.490  67.827  1.00  0.00    -0.175 C  
ATOM     18  O3*   C A   1     -10.509   8.808  69.497  1.00  0.00    -0.215 OA 
ATOM     19  O2*   C A   1      -8.685  10.743  67.728  1.00  0.00    -0.128 OA 
ATOM     20  H3*   C A   1      -9.634   8.444  69.434  1.00  0.00     0.000 HD 
BRANCH  14  21
ATOM     21  C5*   C A   1     -11.971  12.004  70.320  1.00  0.00    -0.314 C  
ATOM     22  O5*   C A   1     -13.019  11.836  71.270  1.00  0.00    -0.359 OA 
ATOM     23  H5*   C A   1     -13.051  12.578  71.862  1.00  0.00     0.000 HD 
ENDBRANCH  14  21
ENDBRANCH   8  12
TORSDOF 2
ENDMDL
MODEL       71
REMARK 921   NORMALIZED FREE ENERGY PREDICTED BY IDOCK:   -4.31 KCAL/MOL
REMARK 922        TOTAL FREE ENERGY PREDICTED BY IDOCK:   -4.83 KCAL/MOL
REMARK 923 INTER-LIGAND FREE ENERGY PREDICTED BY IDOCK:   -4.92 KCAL/MOL
REMARK 924 INTRA-LIGAND FREE ENERGY PREDICTED BY IDOCK:    0.09 KCAL/MOL
REMARK 927      BINDING AFFINITY PREDICTED BY RF-SCORE:    0.00 PKD
ROOT
ATOM      1  N4    C A   1     -11.685   7.830  73.082  1.00  0.00    -0.646 NA 
ATOM      2  H42   C A   1     -12.607   7.886  73.516  1.00  0.00     0.000 HD 
ATOM      3  C4    C A   1     -11.334   8.658  72.056  1.00  0.00    -0.362 C  
ATOM      4  H41   C A   1     -10.992   7.153  73.399  1.00  0.00     0.000 HD 
ATOM      5  N3    C A   1     -12.214   9.517  71.654  1.00  0.00    -0.375 N  
ATOM      6  C2    C A   1     -11.913  10.388  70.634  1.00  0.00    -0.351 C  
ATOM      7  H3    C A   1     -13.133   9.548  72.094  1.00  0.00     0.000 HD 
ATOM      8  N1    C A   1     -10.702  10.214  69.931  1.00  0.00    -0.275 N  
ATOM      9  O2    C A   1     -12.702  11.289  70.350  1.00  0.00    -0.223 OA 
ATOM     10  C5    C A   1      -9.999   8.542  71.451  1.00  0.00    -0.301 C  
ATOM     11  C6    C A   1      -9.762   9.322  70.398  1.00  0.00    -0.244 C  
ENDROOT
BRANCH   8  12
ATOM     12  C1*   C A   1     -10.438  11.187  68.869  1.00  0.00    -0.207 C  
ATOM     13  O4*   C A   1     -11.164  10.770  67.685  1.00  0.00    -0.303 OA 
ATOM     14  C4*   C A   1     -10.279  10.025  66.829  1.00  0.00    -0.232 C  
ATOM     15  C3*   C A   1      -8.869  10.508  67.135  1.00  0.00    -0.136 C  
ATOM     16  H2*   C A   1      -7.044  11.597  68.849  1.00  0.00     0.000 HD 
ATOM     17  C2*   C A   1      -9.026  11.468  68.310  1.00  0.00    -0.177 C  
ATOM     18  O3*   C A   1      -8.295  11.219  66.029  1.00  0.00    -0.266 OA 
ATOM     19  O2*   C A   1      -7.913  11.424  69.192  1.00  0.00    -0.071 OA 
ATOM     20  H3*   C A   1      -7.414  11.520  66.220  1.00  0.00     0.000 HD 
BRANCH  14  21
ATOM     21  C5*   C A   1     -10.442   8.527  67.114  1.00  0.00    -0.299 C  
ATOM     22  O5*   C A   1      -9.857   7.757  66.069  1.00  0.00    -0.451 OA 
ATOM     23  H5*   C A   1      -9.958   6.829  66.245  1.00  0.00     0.000 HD 
ENDBRANCH  14  21
ENDBRANCH   8  12
TORSDOF 2
ENDMDL
MODEL       72
REMARK 921   NORMALIZED FREE ENERGY PREDICTED BY IDOCK:   -4.31 KCAL/MOL
REMARK 922        TOTAL FREE ENERGY PREDICTED BY IDOCK:   -4.82 KCAL/MOL
REMARK 923 INTER-LIGAND FREE ENERGY PREDICTED BY IDOCK:   -4.93 KCAL/MOL
REMARK 924 INTRA-LIGAND FREE ENERGY PREDICTED BY IDOCK:    0.11 KCAL/MOL
REMARK 927      BINDING AFFINITY PREDICTED BY RF-SCORE:    0.00 PKD
ROOT
ATOM      1  N4    C A   1      -8.203   6.843  66.920  1.00  0.00    -0.112 NA 
ATOM      2  H42   C A   1      -7.192   6.716  66.884  1.00  0.00     0.000 HD 
ATOM      3  C4    C A   1      -8.801   7.458  67.981  1.00  0.00    -0.126 C  
ATOM      4  H41   C A   1      -8.804   6.515  66.165  1.00  0.00     0.000 HD 
ATOM      5  N3    C A   1      -8.038   7.874  68.939  1.00  0.00    -0.123 N  
ATOM      6  C2    C A   1      -8.582   8.515  70.027  1.00  0.00    -0.134 C  
ATOM      7  H3    C A   1      -7.030   7.726  68.887  1.00  0.00     0.000 HD 
ATOM      8  N1    C A   1      -9.987   8.556  70.155  1.00  0.00    -0.178 N  
ATOM      9  O2    C A   1      -7.841   9.026  70.865  1.00  0.00    -0.122 OA 
ATOM     10  C5    C A   1     -10.263   7.616  68.002  1.00  0.00    -0.248 C  
ATOM     11  C6    C A   1     -10.781   8.145  69.108  1.00  0.00    -0.102 C  
ENDROOT
BRANCH   8  12
ATOM     12  C1*   C A   1     -10.497   9.268  71.328  1.00  0.00    -0.338 C  
ATOM     13  O4*   C A   1     -10.406   8.379  72.470  1.00  0.00    -0.315 OA 
ATOM     14  C4*   C A   1     -11.677   7.733  72.665  1.00  0.00    -0.309 C  
ATOM     15  C3*   C A   1     -12.732   8.664  72.083  1.00  0.00    -0.392 C  
ATOM     16  H2*   C A   1     -13.473  10.623  70.333  1.00  0.00     0.000 HD 
ATOM     17  C2*   C A   1     -11.943   9.797  71.434  1.00  0.00    -0.411 C  
ATOM     18  O3*   C A   1     -13.582   9.212  73.100  1.00  0.00    -0.931 OA 
ATOM     19  O2*   C A   1     -12.583  10.298  70.268  1.00  0.00    -0.247 OA 
ATOM     20  H3*   C A   1     -14.241   9.792  72.736  1.00  0.00     0.000 HD 
BRANCH  14  21
ATOM     21  C5*   C A   1     -11.667   6.372  71.959  1.00  0.00    -0.329 C  
ATOM     22  O5*   C A   1     -12.081   5.345  72.855  1.00  0.00    -0.513 OA 
ATOM     23  H5*   C A   1     -12.074   4.502  72.418  1.00  0.00     0.000 HD 
ENDBRANCH  14  21
ENDBRANCH   8  12
TORSDOF 2
ENDMDL
MODEL       73
REMARK 921   NORMALIZED FREE ENERGY PREDICTED BY IDOCK:   -4.29 KCAL/MOL
REMARK 922        TOTAL FREE ENERGY PREDICTED BY IDOCK:   -4.81 KCAL/MOL
REMARK 923 INTER-LIGAND FREE ENERGY PREDICTED BY IDOCK:   -4.91 KCAL/MOL
REMARK 924 INTRA-LIGAND FREE ENERGY PREDICTED BY IDOCK:    0.11 KCAL/MOL
REMARK 927      BINDING AFFINITY PREDICTED BY RF-SCORE:    0.00 PKD
ROOT
ATOM      1  N4    C A   1     -10.080   7.488  66.310  1.00  0.00    -0.463 NA 
ATOM      2  H42   C A   1     -10.742   6.788  66.644  1.00  0.00     0.000 HD 
ATOM      3  C4    C A   1     -10.144   8.782  66.737  1.00  0.00    -0.288 C  
ATOM      4  H41   C A   1      -9.346   7.247  65.645  1.00  0.00     0.000 HD 
ATOM      5  N3    C A   1     -11.076   9.088  67.581  1.00  0.00    -0.430 N  
ATOM      6  C2    C A   1     -11.181  10.373  68.058  1.00  0.00    -0.272 C  
ATOM      7  H3    C A   1     -11.734   8.374  67.892  1.00  0.00     0.000 HD 
ATOM      8  N1    C A   1     -10.369  11.375  67.487  1.00  0.00    -0.191 N  
ATOM      9  O2    C A   1     -11.980  10.623  68.959  1.00  0.00    -0.287 OA 
ATOM     10  C5    C A   1      -9.177   9.766  66.228  1.00  0.00    -0.207 C  
ATOM     11  C6    C A   1      -9.358  11.025  66.621  1.00  0.00    -0.177 C  
ENDROOT
BRANCH   8  12
ATOM     12  C1*   C A   1     -10.522  12.716  68.054  1.00  0.00    -0.224 C  
ATOM     13  O4*   C A   1     -11.680  13.336  67.442  1.00  0.00    -0.333 OA 
ATOM     14  C4*   C A   1     -11.248  14.161  66.345  1.00  0.00    -0.328 C  
ATOM     15  C3*   C A   1      -9.818  14.580  66.653  1.00  0.00    -0.273 C  
ATOM     16  H2*   C A   1      -7.414  14.129  67.868  1.00  0.00     0.000 HD 
ATOM     17  C2*   C A   1      -9.448  13.818  67.923  1.00  0.00    -0.214 C  
ATOM     18  O3*   C A   1      -9.714  15.987  66.909  1.00  0.00    -0.226 OA 
ATOM     19  O2*   C A   1      -8.075  13.452  67.949  1.00  0.00    -0.135 OA 
ATOM     20  H3*   C A   1      -8.821  16.248  67.101  1.00  0.00     0.000 HD 
BRANCH  14  21
ATOM     21  C5*   C A   1     -11.339  13.358  65.042  1.00  0.00    -0.312 C  
ATOM     22  O5*   C A   1     -12.188  14.020  64.109  1.00  0.00    -0.553 OA 
ATOM     23  H5*   C A   1     -12.244  13.523  63.303  1.00  0.00     0.000 HD 
ENDBRANCH  14  21
ENDBRANCH   8  12
TORSDOF 2
ENDMDL
MODEL       74
REMARK 921   NORMALIZED FREE ENERGY PREDICTED BY IDOCK:   -4.25 KCAL/MOL
REMARK 922        TOTAL FREE ENERGY PREDICTED BY IDOCK:   -4.76 KCAL/MOL
REMARK 923 INTER-LIGAND FREE ENERGY PREDICTED BY IDOCK:   -4.91 KCAL/MOL
REMARK 924 INTRA-LIGAND FREE ENERGY PREDICTED BY IDOCK:    0.15 KCAL/MOL
REMARK 927      BINDING AFFINITY PREDICTED BY RF-SCORE:    0.00 PKD
ROOT
ATOM      1  N4    C A   1     -10.158  20.687  67.376  1.00  0.00    -0.327 NA 
ATOM      2  H42   C A   1      -9.859  21.355  66.667  1.00  0.00     0.000 HD 
ATOM      3  C4    C A   1      -9.684  19.408  67.389  1.00  0.00    -0.328 C  
ATOM      4  H41   C A   1     -10.823  20.950  68.103  1.00  0.00     0.000 HD 
ATOM      5  N3    C A   1      -8.840  19.074  66.466  1.00  0.00    -0.318 N  
ATOM      6  C2    C A   1      -8.316  17.804  66.436  1.00  0.00    -0.248 C  
ATOM      7  H3    C A   1      -8.563  19.755  65.760  1.00  0.00     0.000 HD 
ATOM      8  N1    C A   1      -8.840  16.835  67.318  1.00  0.00    -0.201 N  
ATOM      9  O2    C A   1      -7.416  17.536  65.642  1.00  0.00    -0.462 OA 
ATOM     10  C5    C A   1     -10.145  18.470  68.423  1.00  0.00    -0.423 C  
ATOM     11  C6    C A   1      -9.707  17.217  68.317  1.00  0.00    -0.294 C  
ENDROOT
BRANCH   8  12
ATOM     12  C1*   C A   1      -8.225  15.509  67.243  1.00  0.00    -0.197 C  
ATOM     13  O4*   C A   1      -8.982  14.713  66.297  1.00  0.00    -0.215 OA 
ATOM     14  C4*   C A   1      -9.938  13.913  67.015  1.00  0.00    -0.258 C  
ATOM     15  C3*   C A   1      -9.371  13.707  68.413  1.00  0.00    -0.181 C  
ATOM     16  H2*   C A   1      -7.803  14.529  70.491  1.00  0.00     0.000 HD 
ATOM     17  C2*   C A   1      -8.107  14.560  68.456  1.00  0.00    -0.148 C  
ATOM     18  O3*   C A   1      -9.016  12.338  68.650  1.00  0.00    -0.355 OA 
ATOM     19  O2*   C A   1      -7.876  15.112  69.745  1.00  0.00    -0.198 OA 
ATOM     20  H3*   C A   1      -8.662  12.209  69.522  1.00  0.00     0.000 HD 
BRANCH  14  21
ATOM     21  C5*   C A   1     -11.285  14.645  67.049  1.00  0.00    -0.344 C  
ATOM     22  O5*   C A   1     -12.294  13.803  67.600  1.00  0.00    -0.416 OA 
ATOM     23  H5*   C A   1     -13.128  14.256  67.621  1.00  0.00     0.000 HD 
ENDBRANCH  14  21
ENDBRANCH   8  12
TORSDOF 2
ENDMDL
MODEL       75
REMARK 921   NORMALIZED FREE ENERGY PREDICTED BY IDOCK:   -4.25 KCAL/MOL
REMARK 922        TOTAL FREE ENERGY PREDICTED BY IDOCK:   -4.76 KCAL/MOL
REMARK 923 INTER-LIGAND FREE ENERGY PREDICTED BY IDOCK:   -4.77 KCAL/MOL
REMARK 924 INTRA-LIGAND FREE ENERGY PREDICTED BY IDOCK:    0.00 KCAL/MOL
REMARK 927      BINDING AFFINITY PREDICTED BY RF-SCORE:    0.00 PKD
ROOT
ATOM      1  N4    C A   1     -11.255   8.223  72.484  1.00  0.00    -0.380 NA 
ATOM      2  H42   C A   1     -11.031   7.259  72.728  1.00  0.00     0.000 HD 
ATOM      3  C4    C A   1     -11.091   8.688  71.212  1.00  0.00    -0.272 C  
ATOM      4  H41   C A   1     -11.610   8.876  73.182  1.00  0.00     0.000 HD 
ATOM      5  N3    C A   1     -10.641   7.859  70.326  1.00  0.00    -0.227 N  
ATOM      6  C2    C A   1     -10.469   8.265  69.025  1.00  0.00    -0.197 C  
ATOM      7  H3    C A   1     -10.412   6.902  70.595  1.00  0.00     0.000 HD 
ATOM      8  N1    C A   1     -10.630   9.633  68.716  1.00  0.00    -0.215 N  
ATOM      9  O2    C A   1     -10.171   7.439  68.164  1.00  0.00    -0.174 OA 
ATOM     10  C5    C A   1     -11.417  10.087  70.900  1.00  0.00    -0.452 C  
ATOM     11  C6    C A   1     -11.147  10.491  69.660  1.00  0.00    -0.283 C  
ENDROOT
BRANCH   8  12
ATOM     12  C1*   C A   1     -10.448   9.992  67.308  1.00  0.00    -0.254 C  
ATOM     13  O4*   C A   1      -9.031   9.934  67.007  1.00  0.00    -0.137 OA 
ATOM     14  C4*   C A   1      -8.472  11.256  67.119  1.00  0.00    -0.149 C  
ATOM     15  C3*   C A   1      -9.609  12.233  66.854  1.00  0.00    -0.213 C  
ATOM     16  H2*   C A   1     -12.268  12.852  66.868  1.00  0.00     0.000 HD 
ATOM     17  C2*   C A   1     -10.855  11.362  66.725  1.00  0.00    -0.286 C  
ATOM     18  O3*   C A   1      -9.418  12.957  65.631  1.00  0.00    -0.461 OA 
ATOM     19  O2*   C A   1     -12.017  12.009  67.227  1.00  0.00    -0.591 OA 
ATOM     20  H3*   C A   1     -10.128  13.566  65.466  1.00  0.00     0.000 HD 
BRANCH  14  21
ATOM     21  C5*   C A   1      -7.881  11.437  68.523  1.00  0.00    -0.140 C  
ATOM     22  O5*   C A   1      -8.274  12.693  69.068  1.00  0.00    -0.336 OA 
ATOM     23  H5*   C A   1      -7.907  12.806  69.937  1.00  0.00     0.000 HD 
ENDBRANCH  14  21
ENDBRANCH   8  12
TORSDOF 2
ENDMDL
MODEL       76
REMARK 921   NORMALIZED FREE ENERGY PREDICTED BY IDOCK:   -4.24 KCAL/MOL
REMARK 922        TOTAL FREE ENERGY PREDICTED BY IDOCK:   -4.75 KCAL/MOL
REMARK 923 INTER-LIGAND FREE ENERGY PREDICTED BY IDOCK:   -4.74 KCAL/MOL
REMARK 924 INTRA-LIGAND FREE ENERGY PREDICTED BY IDOCK:   -0.01 KCAL/MOL
REMARK 927      BINDING AFFINITY PREDICTED BY RF-SCORE:    0.00 PKD
ROOT
ATOM      1  N4    C A   1     -10.938   7.326  73.885  1.00  0.00    -0.502 NA 
ATOM      2  H42   C A   1     -10.376   7.457  74.726  1.00  0.00     0.000 HD 
ATOM      3  C4    C A   1     -10.495   7.750  72.666  1.00  0.00    -0.302 C  
ATOM      4  H41   C A   1     -11.851   6.874  73.923  1.00  0.00     0.000 HD 
ATOM      5  N3    C A   1      -9.337   8.324  72.617  1.00  0.00    -0.267 N  
ATOM      6  C2    C A   1      -8.832   8.759  71.414  1.00  0.00    -0.225 C  
ATOM      7  H3    C A   1      -8.797   8.455  73.472  1.00  0.00     0.000 HD 
ATOM      8  N1    C A   1      -9.665   8.720  70.276  1.00  0.00    -0.170 N  
ATOM      9  O2    C A   1      -7.677   9.178  71.356  1.00  0.00    -0.301 OA 
ATOM     10  C5    C A   1     -11.337   7.552  71.476  1.00  0.00    -0.283 C  
ATOM     11  C6    C A   1     -10.878   8.071  70.339  1.00  0.00    -0.247 C  
ENDROOT
BRANCH   8  12
ATOM     12  C1*   C A   1      -9.058   9.183  69.028  1.00  0.00    -0.143 C  
ATOM     13  O4*   C A   1      -9.019  10.632  69.054  1.00  0.00    -0.167 OA 
ATOM     14  C4*   C A   1     -10.166  11.146  68.352  1.00  0.00    -0.188 C  
ATOM     15  C3*   C A   1     -10.573  10.080  67.345  1.00  0.00    -0.271 C  
ATOM     16  H2*   C A   1     -10.677   7.470  66.552  1.00  0.00     0.000 HD 
ATOM     17  C2*   C A   1      -9.659   8.893  67.635  1.00  0.00    -0.148 C  
ATOM     18  O3*   C A   1     -10.359  10.511  65.993  1.00  0.00    -0.248 OA 
ATOM     19  O2*   C A   1     -10.307   7.649  67.408  1.00  0.00    -0.223 OA 
ATOM     20  H3*   C A   1     -10.613   9.845  65.365  1.00  0.00     0.000 HD 
BRANCH  14  21
ATOM     21  C5*   C A   1     -11.286  11.436  69.358  1.00  0.00    -0.297 C  
ATOM     22  O5*   C A   1     -12.489  10.785  68.961  1.00  0.00    -0.757 OA 
ATOM     23  H5*   C A   1     -13.183  10.965  69.584  1.00  0.00     0.000 HD 
ENDBRANCH  14  21
ENDBRANCH   8  12
TORSDOF 2
ENDMDL
MODEL       77
REMARK 921   NORMALIZED FREE ENERGY PREDICTED BY IDOCK:   -4.22 KCAL/MOL
REMARK 922        TOTAL FREE ENERGY PREDICTED BY IDOCK:   -4.72 KCAL/MOL
REMARK 923 INTER-LIGAND FREE ENERGY PREDICTED BY IDOCK:   -4.84 KCAL/MOL
REMARK 924 INTRA-LIGAND FREE ENERGY PREDICTED BY IDOCK:    0.11 KCAL/MOL
REMARK 927      BINDING AFFINITY PREDICTED BY RF-SCORE:    0.00 PKD
ROOT
ATOM      1  N4    C A   1     -11.870  12.416  66.967  1.00  0.00    -0.546 NA 
ATOM      2  H42   C A   1     -12.351  13.294  67.158  1.00  0.00     0.000 HD 
ATOM      3  C4    C A   1     -11.619  11.516  67.961  1.00  0.00    -0.300 C  
ATOM      4  H41   C A   1     -11.559  12.177  66.026  1.00  0.00     0.000 HD 
ATOM      5  N3    C A   1     -12.014  11.819  69.156  1.00  0.00    -0.313 N  
ATOM      6  C2    C A   1     -11.802  10.945  70.195  1.00  0.00    -0.353 C  
ATOM      7  H3    C A   1     -12.483  12.708  69.326  1.00  0.00     0.000 HD 
ATOM      8  N1    C A   1     -11.005   9.803  69.968  1.00  0.00    -0.260 N  
ATOM      9  O2    C A   1     -12.299  11.178  71.296  1.00  0.00    -0.347 OA 
ATOM     10  C5    C A   1     -10.915  10.263  67.649  1.00  0.00    -0.356 C  
ATOM     11  C6    C A   1     -10.627   9.477  68.685  1.00  0.00    -0.210 C  
ENDROOT
BRANCH   8  12
ATOM     12  C1*   C A   1     -10.834   8.909  71.115  1.00  0.00    -0.281 C  
ATOM     13  O4*   C A   1      -9.604   9.270  71.790  1.00  0.00    -0.291 OA 
ATOM     14  C4*   C A   1      -8.544   8.413  71.329  1.00  0.00    -0.161 C  
ATOM     15  C3*   C A   1      -9.201   7.119  70.868  1.00  0.00    -0.152 C  
ATOM     16  H2*   C A   1     -11.356   5.762  69.884  1.00  0.00     0.000 HD 
ATOM     17  C2*   C A   1     -10.701   7.376  70.980  1.00  0.00    -0.231 C  
ATOM     18  O3*   C A   1      -8.855   6.013  71.712  1.00  0.00    -0.138 OA 
ATOM     19  O2*   C A   1     -11.438   6.705  69.967  1.00  0.00    -0.358 OA 
ATOM     20  H3*   C A   1      -9.265   5.206  71.425  1.00  0.00     0.000 HD 
BRANCH  14  21
ATOM     21  C5*   C A   1      -7.793   9.108  70.187  1.00  0.00    -0.113 C  
ATOM     22  O5*   C A   1      -7.699  10.507  70.434  1.00  0.00    -0.425 OA 
ATOM     23  H5*   C A   1      -7.234  10.938  69.727  1.00  0.00     0.000 HD 
ENDBRANCH  14  21
ENDBRANCH   8  12
TORSDOF 2
ENDMDL
MODEL       78
REMARK 921   NORMALIZED FREE ENERGY PREDICTED BY IDOCK:   -4.18 KCAL/MOL
REMARK 922        TOTAL FREE ENERGY PREDICTED BY IDOCK:   -4.69 KCAL/MOL
REMARK 923 INTER-LIGAND FREE ENERGY PREDICTED BY IDOCK:   -4.82 KCAL/MOL
REMARK 924 INTRA-LIGAND FREE ENERGY PREDICTED BY IDOCK:    0.13 KCAL/MOL
REMARK 927      BINDING AFFINITY PREDICTED BY RF-SCORE:    0.00 PKD
ROOT
ATOM      1  N4    C A   1     -12.306  15.462  68.606  1.00  0.00    -0.527 NA 
ATOM      2  H42   C A   1     -11.907  16.390  68.748  1.00  0.00     0.000 HD 
ATOM      3  C4    C A   1     -11.532  14.413  68.206  1.00  0.00    -0.305 C  
ATOM      4  H41   C A   1     -13.299  15.285  68.756  1.00  0.00     0.000 HD 
ATOM      5  N3    C A   1     -10.272  14.638  68.014  1.00  0.00    -0.229 N  
ATOM      6  C2    C A   1      -9.440  13.616  67.626  1.00  0.00    -0.221 C  
ATOM      7  H3    C A   1      -9.897  15.576  68.152  1.00  0.00     0.000 HD 
ATOM      8  N1    C A   1     -10.010  12.372  67.280  1.00  0.00    -0.205 N  
ATOM      9  O2    C A   1      -8.225  13.806  67.578  1.00  0.00    -0.164 OA 
ATOM     10  C5    C A   1     -12.145  13.091  68.003  1.00  0.00    -0.220 C  
ATOM     11  C6    C A   1     -11.344  12.139  67.528  1.00  0.00    -0.326 C  
ENDROOT
BRANCH   8  12
ATOM     12  C1*   C A   1      -9.063  11.325  66.891  1.00  0.00    -0.167 C  
ATOM     13  O4*   C A   1      -8.820  11.443  65.467  1.00  0.00    -0.148 OA 
ATOM     14  C4*   C A   1      -9.679  10.527  64.765  1.00  0.00    -0.305 C  
ATOM     15  C3*   C A   1      -9.989   9.394  65.732  1.00  0.00    -0.208 C  
ATOM     16  H2*   C A   1     -10.287   8.449  68.276  1.00  0.00     0.000 HD 
ATOM     17  C2*   C A   1      -9.355   9.818  67.053  1.00  0.00    -0.147 C  
ATOM     18  O3*   C A   1      -9.402   8.155  65.311  1.00  0.00    -0.378 OA 
ATOM     19  O2*   C A   1     -10.107   9.377  68.176  1.00  0.00    -0.166 OA 
ATOM     20  H3*   C A   1      -9.596   7.448  65.915  1.00  0.00     0.000 HD 
BRANCH  14  21
ATOM     21  C5*   C A   1     -10.950  11.264  64.324  1.00  0.00    -0.288 C  
ATOM     22  O5*   C A   1     -11.078  11.227  62.906  1.00  0.00    -0.818 OA 
ATOM     23  H5*   C A   1     -11.865  11.684  62.633  1.00  0.00     0.000 HD 
ENDBRANCH  14  21
ENDBRANCH   8  12
TORSDOF 2
ENDMDL
MODEL       79
REMARK 921   NORMALIZED FREE ENERGY PREDICTED BY IDOCK:   -4.18 KCAL/MOL
REMARK 922        TOTAL FREE ENERGY PREDICTED BY IDOCK:   -4.68 KCAL/MOL
REMARK 923 INTER-LIGAND FREE ENERGY PREDICTED BY IDOCK:   -5.77 KCAL/MOL
REMARK 924 INTRA-LIGAND FREE ENERGY PREDICTED BY IDOCK:    1.09 KCAL/MOL
REMARK 927      BINDING AFFINITY PREDICTED BY RF-SCORE:    0.00 PKD
ROOT
ATOM      1  N4    C A   1     -13.419  13.695  72.772  1.00  0.00    -0.653 NA 
ATOM      2  H42   C A   1     -13.748  14.580  73.156  1.00  0.00     0.000 HD 
ATOM      3  C4    C A   1     -12.900  13.619  71.512  1.00  0.00    -0.359 C  
ATOM      4  H41   C A   1     -13.465  12.833  73.314  1.00  0.00     0.000 HD 
ATOM      5  N3    C A   1     -12.842  14.713  70.823  1.00  0.00    -0.350 N  
ATOM      6  C2    C A   1     -12.316  14.703  69.554  1.00  0.00    -0.195 C  
ATOM      7  H3    C A   1     -13.188  15.585  71.223  1.00  0.00     0.000 HD 
ATOM      8  N1    C A   1     -12.003  13.461  68.961  1.00  0.00    -0.327 N  
ATOM      9  O2    C A   1     -12.140  15.765  68.959  1.00  0.00    -0.349 OA 
ATOM     10  C5    C A   1     -12.443  12.324  70.988  1.00  0.00    -0.361 C  
ATOM     11  C6    C A   1     -12.033  12.313  69.722  1.00  0.00    -0.295 C  
ENDROOT
BRANCH   8  12
ATOM     12  C1*   C A   1     -11.432  13.525  67.615  1.00  0.00    -0.318 C  
ATOM     13  O4*   C A   1     -11.825  12.327  66.900  1.00  0.00    -0.524 OA 
ATOM     14  C4*   C A   1     -10.766  11.356  66.991  1.00  0.00    -0.261 C  
ATOM     15  C3*   C A   1      -9.476  12.137  67.192  1.00  0.00    -0.190 C  
ATOM     16  H2*   C A   1      -8.146  14.354  68.071  1.00  0.00     0.000 HD 
ATOM     17  C2*   C A   1      -9.913  13.592  67.341  1.00  0.00    -0.234 C  
ATOM     18  O3*   C A   1      -8.602  12.029  66.060  1.00  0.00    -0.393 OA 
ATOM     19  O2*   C A   1      -9.081  14.313  68.239  1.00  0.00    -0.177 OA 
ATOM     20  H3*   C A   1      -7.797  12.516  66.185  1.00  0.00     0.000 HD 
BRANCH  14  21
ATOM     21  C5*   C A   1     -11.048  10.411  68.165  1.00  0.00    -0.285 C  
ATOM     22  O5*   C A   1     -11.012   9.055  67.730  1.00  0.00    -0.499 OA 
ATOM     23  H5*   C A   1     -11.186   8.470  68.457  1.00  0.00     0.000 HD 
ENDBRANCH  14  21
ENDBRANCH   8  12
TORSDOF 2
ENDMDL
MODEL       80
REMARK 921   NORMALIZED FREE ENERGY PREDICTED BY IDOCK:   -4.15 KCAL/MOL
REMARK 922        TOTAL FREE ENERGY PREDICTED BY IDOCK:   -4.65 KCAL/MOL
REMARK 923 INTER-LIGAND FREE ENERGY PREDICTED BY IDOCK:   -4.70 KCAL/MOL
REMARK 924 INTRA-LIGAND FREE ENERGY PREDICTED BY IDOCK:    0.05 KCAL/MOL
REMARK 927      BINDING AFFINITY PREDICTED BY RF-SCORE:    0.00 PKD
ROOT
ATOM      1  N4    C A   1      -9.768   9.672  65.128  1.00  0.00    -0.422 NA 
ATOM      2  H42   C A   1      -9.984  10.531  64.623  1.00  0.00     0.000 HD 
ATOM      3  C4    C A   1     -10.185   9.481  66.413  1.00  0.00    -0.232 C  
ATOM      4  H41   C A   1      -9.231   8.923  64.692  1.00  0.00     0.000 HD 
ATOM      5  N3    C A   1     -10.866  10.432  66.967  1.00  0.00    -0.240 N  
ATOM      6  C2    C A   1     -11.327  10.292  68.254  1.00  0.00    -0.177 C  
ATOM      7  H3    C A   1     -11.061  11.287  66.447  1.00  0.00     0.000 HD 
ATOM      8  N1    C A   1     -10.902   9.176  69.007  1.00  0.00    -0.148 N  
ATOM      9  O2    C A   1     -12.086  11.138  68.724  1.00  0.00    -0.522 OA 
ATOM     10  C5    C A   1      -9.847   8.232  67.111  1.00  0.00    -0.281 C  
ATOM     11  C6    C A   1     -10.212   8.157  68.390  1.00  0.00    -0.209 C  
ENDROOT
BRANCH   8  12
ATOM     12  C1*   C A   1     -11.444   9.082  70.364  1.00  0.00    -0.173 C  
ATOM     13  O4*   C A   1     -10.572   9.826  71.251  1.00  0.00    -0.273 OA 
ATOM     14  C4*   C A   1      -9.642   8.917  71.868  1.00  0.00    -0.256 C  
ATOM     15  C3*   C A   1     -10.315   7.552  71.885  1.00  0.00    -0.193 C  
ATOM     16  H2*   C A   1     -12.092   5.760  70.843  1.00  0.00     0.000 HD 
ATOM     17  C2*   C A   1     -11.618   7.744  71.115  1.00  0.00    -0.281 C  
ATOM     18  O3*   C A   1     -10.622   7.123  73.219  1.00  0.00    -0.295 OA 
ATOM     19  O2*   C A   1     -11.985   6.583  70.382  1.00  0.00    -0.397 OA 
ATOM     20  H3*   C A   1     -11.042   6.271  73.230  1.00  0.00     0.000 HD 
BRANCH  14  21
ATOM     21  C5*   C A   1      -8.340   8.899  71.058  1.00  0.00    -0.191 C  
ATOM     22  O5*   C A   1      -8.094  10.180  70.486  1.00  0.00    -0.416 OA 
ATOM     23  H5*   C A   1      -7.288  10.169  69.984  1.00  0.00     0.000 HD 
ENDBRANCH  14  21
ENDBRANCH   8  12
TORSDOF 2
ENDMDL
MODEL       81
REMARK 921   NORMALIZED FREE ENERGY PREDICTED BY IDOCK:   -4.15 KCAL/MOL
REMARK 922        TOTAL FREE ENERGY PREDICTED BY IDOCK:   -4.65 KCAL/MOL
REMARK 923 INTER-LIGAND FREE ENERGY PREDICTED BY IDOCK:   -5.25 KCAL/MOL
REMARK 924 INTRA-LIGAND FREE ENERGY PREDICTED BY IDOCK:    0.60 KCAL/MOL
REMARK 927      BINDING AFFINITY PREDICTED BY RF-SCORE:    0.00 PKD
ROOT
ATOM      1  N4    C A   1     -13.455   9.036  72.854  1.00  0.00    -0.886 NA 
ATOM      2  H42   C A   1     -13.107   8.488  73.640  1.00  0.00     0.000 HD 
ATOM      3  C4    C A   1     -12.622   9.451  71.857  1.00  0.00    -0.401 C  
ATOM      4  H41   C A   1     -14.439   9.295  72.784  1.00  0.00     0.000 HD 
ATOM      5  N3    C A   1     -11.374   9.123  71.946  1.00  0.00    -0.375 N  
ATOM      6  C2    C A   1     -10.489   9.499  70.963  1.00  0.00    -0.306 C  
ATOM      7  H3    C A   1     -11.045   8.584  72.746  1.00  0.00     0.000 HD 
ATOM      8  N1    C A   1     -10.931  10.384  69.957  1.00  0.00    -0.295 N  
ATOM      9  O2    C A   1      -9.337   9.070  70.985  1.00  0.00    -0.229 OA 
ATOM     10  C5    C A   1     -13.159  10.247  70.743  1.00  0.00    -0.360 C  
ATOM     11  C6    C A   1     -12.270  10.690  69.856  1.00  0.00    -0.275 C  
ENDROOT
BRANCH   8  12
ATOM     12  C1*   C A   1      -9.942  10.730  68.935  1.00  0.00    -0.202 C  
ATOM     13  O4*   C A   1      -9.681  12.153  69.022  1.00  0.00     0.044 OA 
ATOM     14  C4*   C A   1     -10.497  12.841  68.056  1.00  0.00    -0.226 C  
ATOM     15  C3*   C A   1     -10.780  11.847  66.940  1.00  0.00    -0.246 C  
ATOM     16  H2*   C A   1     -11.081   9.281  66.056  1.00  0.00     0.000 HD 
ATOM     17  C2*   C A   1     -10.181  10.529  67.423  1.00  0.00    -0.211 C  
ATOM     18  O3*   C A   1     -10.142  12.224  65.712  1.00  0.00    -0.243 OA 
ATOM     19  O2*   C A   1     -10.933   9.405  66.986  1.00  0.00    -0.118 OA 
ATOM     20  H3*   C A   1     -10.319  11.604  65.015  1.00  0.00     0.000 HD 
BRANCH  14  21
ATOM     21  C5*   C A   1     -11.787  13.320  68.733  1.00  0.00    -0.334 C  
ATOM     22  O5*   C A   1     -12.406  14.340  67.955  1.00  0.00    -0.582 OA 
ATOM     23  H5*   C A   1     -13.204  14.637  68.375  1.00  0.00     0.000 HD 
ENDBRANCH  14  21
ENDBRANCH   8  12
TORSDOF 2
ENDMDL
MODEL       82
REMARK 921   NORMALIZED FREE ENERGY PREDICTED BY IDOCK:   -4.13 KCAL/MOL
REMARK 922        TOTAL FREE ENERGY PREDICTED BY IDOCK:   -4.63 KCAL/MOL
REMARK 923 INTER-LIGAND FREE ENERGY PREDICTED BY IDOCK:   -4.65 KCAL/MOL
REMARK 924 INTRA-LIGAND FREE ENERGY PREDICTED BY IDOCK:    0.02 KCAL/MOL
REMARK 927      BINDING AFFINITY PREDICTED BY RF-SCORE:    0.00 PKD
ROOT
ATOM      1  N4    C A   1     -11.637   8.114  71.234  1.00  0.00    -0.269 NA 
ATOM      2  H42   C A   1     -11.402   7.123  71.286  1.00  0.00     0.000 HD 
ATOM      3  C4    C A   1     -11.410   8.837  70.100  1.00  0.00    -0.090 C  
ATOM      4  H41   C A   1     -12.051   8.601  72.028  1.00  0.00     0.000 HD 
ATOM      5  N3    C A   1     -10.884   8.219  69.092  1.00  0.00    -0.416 N  
ATOM      6  C2    C A   1     -10.646   8.891  67.917  1.00  0.00    -0.183 C  
ATOM      7  H3    C A   1     -10.646   7.230  69.169  1.00  0.00     0.000 HD 
ATOM      8  N1    C A   1     -10.825  10.291  67.890  1.00  0.00    -0.265 N  
ATOM      9  O2    C A   1     -10.274   8.268  66.924  1.00  0.00    -0.268 OA 
ATOM     10  C5    C A   1     -11.755  10.266  70.065  1.00  0.00    -0.330 C  
ATOM     11  C6    C A   1     -11.422  10.924  68.957  1.00  0.00    -0.302 C  
ENDROOT
BRANCH   8  12
ATOM     12  C1*   C A   1     -10.569  10.939  66.603  1.00  0.00    -0.249 C  
ATOM     13  O4*   C A   1      -9.139  10.920  66.365  1.00  0.00    -0.163 OA 
ATOM     14  C4*   C A   1      -8.575  12.176  66.785  1.00  0.00    -0.163 C  
ATOM     15  C3*   C A   1      -9.688  13.209  66.682  1.00  0.00    -0.261 C  
ATOM     16  H2*   C A   1     -12.339  13.862  66.701  1.00  0.00     0.000 HD 
ATOM     17  C2*   C A   1     -10.934  12.411  66.309  1.00  0.00    -0.286 C  
ATOM     18  O3*   C A   1      -9.430  14.174  65.653  1.00  0.00    -0.518 OA 
ATOM     19  O2*   C A   1     -12.114  12.957  66.882  1.00  0.00    -0.388 OA 
ATOM     20  H3*   C A   1     -10.124  14.819  65.589  1.00  0.00     0.000 HD 
BRANCH  14  21
ATOM     21  C5*   C A   1      -8.055  12.041  68.221  1.00  0.00    -0.155 C  
ATOM     22  O5*   C A   1      -8.484  13.147  69.010  1.00  0.00    -0.340 OA 
ATOM     23  H5*   C A   1      -8.161  13.063  69.899  1.00  0.00     0.000 HD 
ENDBRANCH  14  21
ENDBRANCH   8  12
TORSDOF 2
ENDMDL
MODEL       83
REMARK 921   NORMALIZED FREE ENERGY PREDICTED BY IDOCK:   -4.11 KCAL/MOL
REMARK 922        TOTAL FREE ENERGY PREDICTED BY IDOCK:   -4.60 KCAL/MOL
REMARK 923 INTER-LIGAND FREE ENERGY PREDICTED BY IDOCK:   -4.73 KCAL/MOL
REMARK 924 INTRA-LIGAND FREE ENERGY PREDICTED BY IDOCK:    0.13 KCAL/MOL
REMARK 927      BINDING AFFINITY PREDICTED BY RF-SCORE:    0.00 PKD
ROOT
ATOM      1  N4    C A   1      -5.555  15.286  71.028  1.00  0.00    -0.061 NA 
ATOM      2  H42   C A   1      -4.884  15.502  71.765  1.00  0.00     0.000 HD 
ATOM      3  C4    C A   1      -5.938  16.229  70.120  1.00  0.00    -0.126 C  
ATOM      4  H41   C A   1      -5.965  14.356  70.942  1.00  0.00     0.000 HD 
ATOM      5  N3    C A   1      -5.418  17.409  70.229  1.00  0.00    -0.235 N  
ATOM      6  C2    C A   1      -5.754  18.397  69.334  1.00  0.00    -0.232 C  
ATOM      7  H3    C A   1      -4.758  17.607  70.980  1.00  0.00     0.000 HD 
ATOM      8  N1    C A   1      -6.792  18.149  68.411  1.00  0.00    -0.222 N  
ATOM      9  O2    C A   1      -5.156  19.471  69.361  1.00  0.00    -0.178 OA 
ATOM     10  C5    C A   1      -6.914  15.882  69.076  1.00  0.00    -0.156 C  
ATOM     11  C6    C A   1      -7.305  16.878  68.283  1.00  0.00    -0.193 C  
ENDROOT
BRANCH   8  12
ATOM     12  C1*   C A   1      -7.086  19.238  67.478  1.00  0.00    -0.213 C  
ATOM     13  O4*   C A   1      -7.796  20.274  68.202  1.00  0.00    -0.228 OA 
ATOM     14  C4*   C A   1      -9.210  20.104  68.001  1.00  0.00    -0.220 C  
ATOM     15  C3*   C A   1      -9.377  19.391  66.667  1.00  0.00    -0.349 C  
ATOM     16  H2*   C A   1      -8.430  17.724  64.723  1.00  0.00     0.000 HD 
ATOM     17  C2*   C A   1      -7.958  19.060  66.216  1.00  0.00    -0.287 C  
ATOM     18  O3*   C A   1      -9.993  20.233  65.682  1.00  0.00    -0.572 OA 
ATOM     19  O2*   C A   1      -7.894  17.834  65.500  1.00  0.00    -0.451 OA 
ATOM     20  H3*   C A   1     -10.097  19.788  64.850  1.00  0.00     0.000 HD 
BRANCH  14  21
ATOM     21  C5*   C A   1      -9.791  19.286  69.160  1.00  0.00    -0.334 C  
ATOM     22  O5*   C A   1     -10.493  20.134  70.064  1.00  0.00    -0.673 OA 
ATOM     23  H5*   C A   1     -10.852  19.628  70.782  1.00  0.00     0.000 HD 
ENDBRANCH  14  21
ENDBRANCH   8  12
TORSDOF 2
ENDMDL
MODEL       84
REMARK 921   NORMALIZED FREE ENERGY PREDICTED BY IDOCK:   -4.09 KCAL/MOL
REMARK 922        TOTAL FREE ENERGY PREDICTED BY IDOCK:   -4.58 KCAL/MOL
REMARK 923 INTER-LIGAND FREE ENERGY PREDICTED BY IDOCK:   -4.66 KCAL/MOL
REMARK 924 INTRA-LIGAND FREE ENERGY PREDICTED BY IDOCK:    0.07 KCAL/MOL
REMARK 927      BINDING AFFINITY PREDICTED BY RF-SCORE:    0.00 PKD
ROOT
ATOM      1  N4    C A   1      -6.893  18.963  68.046  1.00  0.00    -0.230 NA 
ATOM      2  H42   C A   1      -6.888  19.422  68.956  1.00  0.00     0.000 HD 
ATOM      3  C4    C A   1      -7.965  18.230  67.629  1.00  0.00    -0.241 C  
ATOM      4  H41   C A   1      -6.097  19.036  67.413  1.00  0.00     0.000 HD 
ATOM      5  N3    C A   1      -8.975  18.138  68.432  1.00  0.00    -0.289 N  
ATOM      6  C2    C A   1     -10.090  17.424  68.060  1.00  0.00    -0.326 C  
ATOM      7  H3    C A   1      -8.944  18.595  69.342  1.00  0.00     0.000 HD 
ATOM      8  N1    C A   1     -10.042  16.664  66.873  1.00  0.00    -0.273 N  
ATOM      9  O2    C A   1     -11.095  17.455  68.769  1.00  0.00    -0.080 OA 
ATOM     10  C5    C A   1      -7.932  17.576  66.312  1.00  0.00    -0.303 C  
ATOM     11  C6    C A   1      -8.976  16.805  66.013  1.00  0.00    -0.185 C  
ENDROOT
BRANCH   8  12
ATOM     12  C1*   C A   1     -11.269  15.942  66.530  1.00  0.00     0.082 C  
ATOM     13  O4*   C A   1     -11.189  14.616  67.109  1.00  0.00    -0.322 OA 
ATOM     14  C4*   C A   1     -10.711  13.696  66.111  1.00  0.00    -0.286 C  
ATOM     15  C3*   C A   1     -11.098  14.279  64.760  1.00  0.00    -0.391 C  
ATOM     16  H2*   C A   1     -11.684  16.420  63.171  1.00  0.00     0.000 HD 
ATOM     17  C2*   C A   1     -11.699  15.645  65.077  1.00  0.00     0.028 C  
ATOM     18  O3*   C A   1     -12.086  13.480  64.095  1.00  0.00    -0.420 OA 
ATOM     19  O2*   C A   1     -11.420  16.603  64.065  1.00  0.00    -1.192 OA 
ATOM     20  H3*   C A   1     -12.328  13.844  63.252  1.00  0.00     0.000 HD 
BRANCH  14  21
ATOM     21  C5*   C A   1      -9.191  13.543  66.251  1.00  0.00    -0.050 C  
ATOM     22  O5*   C A   1      -8.817  13.544  67.626  1.00  0.00    -0.179 OA 
ATOM     23  H5*   C A   1      -7.876  13.450  67.713  1.00  0.00     0.000 HD 
ENDBRANCH  14  21
ENDBRANCH   8  12
TORSDOF 2
ENDMDL
MODEL       85
REMARK 921   NORMALIZED FREE ENERGY PREDICTED BY IDOCK:   -4.06 KCAL/MOL
REMARK 922        TOTAL FREE ENERGY PREDICTED BY IDOCK:   -4.55 KCAL/MOL
REMARK 923 INTER-LIGAND FREE ENERGY PREDICTED BY IDOCK:   -4.69 KCAL/MOL
REMARK 924 INTRA-LIGAND FREE ENERGY PREDICTED BY IDOCK:    0.14 KCAL/MOL
REMARK 927      BINDING AFFINITY PREDICTED BY RF-SCORE:    0.00 PKD
ROOT
ATOM      1  N4    C A   1     -12.388  13.985  63.110  1.00  0.00    -1.094 NA 
ATOM      2  H42   C A   1     -12.449  14.985  63.299  1.00  0.00     0.000 HD 
ATOM      3  C4    C A   1     -11.637  13.160  63.895  1.00  0.00    -0.433 C  
ATOM      4  H41   C A   1     -12.887  13.564  62.327  1.00  0.00     0.000 HD 
ATOM      5  N3    C A   1     -11.004  13.695  64.889  1.00  0.00    -0.346 N  
ATOM      6  C2    C A   1     -10.243  12.913  65.725  1.00  0.00    -0.288 C  
ATOM      7  H3    C A   1     -11.069  14.699  65.053  1.00  0.00     0.000 HD 
ATOM      8  N1    C A   1     -10.032  11.561  65.380  1.00  0.00    -0.238 N  
ATOM      9  O2    C A   1      -9.756  13.404  66.742  1.00  0.00    -0.247 OA 
ATOM     10  C5    C A   1     -11.567  11.724  63.587  1.00  0.00    -0.521 C  
ATOM     11  C6    C A   1     -10.745  11.000  64.343  1.00  0.00    -0.269 C  
ENDROOT
BRANCH   8  12
ATOM     12  C1*   C A   1      -9.226  10.783  66.322  1.00  0.00    -0.173 C  
ATOM     13  O4*   C A   1      -7.832  10.936  65.957  1.00  0.00    -0.159 OA 
ATOM     14  C4*   C A   1      -7.434   9.820  65.140  1.00  0.00    -0.122 C  
ATOM     15  C3*   C A   1      -8.347   8.661  65.513  1.00  0.00    -0.150 C  
ATOM     16  H2*   C A   1     -10.723   7.713  66.465  1.00  0.00     0.000 HD 
ATOM     17  C2*   C A   1      -9.359   9.253  66.489  1.00  0.00    -0.178 C  
ATOM     18  O3*   C A   1      -7.631   7.606  66.169  1.00  0.00    -0.084 OA 
ATOM     19  O2*   C A   1     -10.641   8.654  66.362  1.00  0.00    -0.115 OA 
ATOM     20  H3*   C A   1      -8.201   6.882  66.402  1.00  0.00     0.000 HD 
BRANCH  14  21
ATOM     21  C5*   C A   1      -7.573  10.202  63.661  1.00  0.00    -0.139 C  
ATOM     22  O5*   C A   1      -6.289  10.299  63.052  1.00  0.00    -0.133 OA 
ATOM     23  H5*   C A   1      -6.376  10.536  62.136  1.00  0.00     0.000 HD 
ENDBRANCH  14  21
ENDBRANCH   8  12
TORSDOF 2
ENDMDL
MODEL       86
REMARK 921   NORMALIZED FREE ENERGY PREDICTED BY IDOCK:   -4.02 KCAL/MOL
REMARK 922        TOTAL FREE ENERGY PREDICTED BY IDOCK:   -4.51 KCAL/MOL
REMARK 923 INTER-LIGAND FREE ENERGY PREDICTED BY IDOCK:   -4.81 KCAL/MOL
REMARK 924 INTRA-LIGAND FREE ENERGY PREDICTED BY IDOCK:    0.30 KCAL/MOL
REMARK 927      BINDING AFFINITY PREDICTED BY RF-SCORE:    0.00 PKD
ROOT
ATOM      1  N4    C A   1      -5.834  10.412  67.738  1.00  0.00    -0.044 NA 
ATOM      2  H42   C A   1      -5.217   9.754  67.262  1.00  0.00     0.000 HD 
ATOM      3  C4    C A   1      -7.007  10.819  67.173  1.00  0.00    -0.091 C  
ATOM      4  H41   C A   1      -5.597  10.790  68.655  1.00  0.00     0.000 HD 
ATOM      5  N3    C A   1      -7.308  10.340  66.010  1.00  0.00    -0.122 N  
ATOM      6  C2    C A   1      -8.484  10.701  65.397  1.00  0.00    -0.160 C  
ATOM      7  H3    C A   1      -6.671   9.692  65.546  1.00  0.00     0.000 HD 
ATOM      8  N1    C A   1      -9.263  11.724  65.978  1.00  0.00    -0.218 N  
ATOM      9  O2    C A   1      -8.826  10.140  64.357  1.00  0.00    -0.177 OA 
ATOM     10  C5    C A   1      -7.866  11.775  67.887  1.00  0.00    -0.135 C  
ATOM     11  C6    C A   1      -8.949  12.193  67.234  1.00  0.00    -0.184 C  
ENDROOT
BRANCH   8  12
ATOM     12  C1*   C A   1     -10.510  12.047  65.282  1.00  0.00    -0.284 C  
ATOM     13  O4*   C A   1     -10.288  13.240  64.490  1.00  0.00    -0.397 OA 
ATOM     14  C4*   C A   1     -10.741  14.387  65.231  1.00  0.00    -0.375 C  
ATOM     15  C3*   C A   1     -11.818  13.891  66.186  1.00  0.00    -0.400 C  
ATOM     16  H2*   C A   1     -12.942  11.902  67.679  1.00  0.00     0.000 HD 
ATOM     17  C2*   C A   1     -11.829  12.375  66.015  1.00  0.00    -0.395 C  
ATOM     18  O3*   C A   1     -13.113  14.407  65.846  1.00  0.00    -0.421 OA 
ATOM     19  O2*   C A   1     -12.131  11.700  67.228  1.00  0.00    -0.595 OA 
ATOM     20  H3*   C A   1     -13.785  14.097  66.442  1.00  0.00     0.000 HD 
BRANCH  14  21
ATOM     21  C5*   C A   1      -9.555  15.004  65.982  1.00  0.00    -0.325 C  
ATOM     22  O5*   C A   1      -9.436  16.389  65.670  1.00  0.00    -0.486 OA 
ATOM     23  H5*   C A   1      -8.701  16.771  66.135  1.00  0.00     0.000 HD 
ENDBRANCH  14  21
ENDBRANCH   8  12
TORSDOF 2
ENDMDL
MODEL       87
REMARK 921   NORMALIZED FREE ENERGY PREDICTED BY IDOCK:   -4.02 KCAL/MOL
REMARK 922        TOTAL FREE ENERGY PREDICTED BY IDOCK:   -4.50 KCAL/MOL
REMARK 923 INTER-LIGAND FREE ENERGY PREDICTED BY IDOCK:   -4.57 KCAL/MOL
REMARK 924 INTRA-LIGAND FREE ENERGY PREDICTED BY IDOCK:    0.07 KCAL/MOL
REMARK 927      BINDING AFFINITY PREDICTED BY RF-SCORE:    0.00 PKD
ROOT
ATOM      1  N4    C A   1      -6.584   9.759  68.607  1.00  0.00    -0.051 NA 
ATOM      2  H42   C A   1      -5.805  10.098  69.171  1.00  0.00     0.000 HD 
ATOM      3  C4    C A   1      -7.390  10.621  67.922  1.00  0.00    -0.089 C  
ATOM      4  H41   C A   1      -6.790   8.763  68.534  1.00  0.00     0.000 HD 
ATOM      5  N3    C A   1      -7.128  11.884  68.014  1.00  0.00    -0.078 N  
ATOM      6  C2    C A   1      -7.896  12.800  67.334  1.00  0.00    -0.172 C  
ATOM      7  H3    C A   1      -6.351  12.202  68.593  1.00  0.00     0.000 HD 
ATOM      8  N1    C A   1      -9.063  12.352  66.679  1.00  0.00    -0.215 N  
ATOM      9  O2    C A   1      -7.559  13.983  67.318  1.00  0.00    -0.171 OA 
ATOM     10  C5    C A   1      -8.509  10.095  67.125  1.00  0.00    -0.125 C  
ATOM     11  C6    C A   1      -9.303  11.001  66.558  1.00  0.00    -0.180 C  
ENDROOT
BRANCH   8  12
ATOM     12  C1*   C A   1      -9.823  13.377  65.962  1.00  0.00    -0.263 C  
ATOM     13  O4*   C A   1     -10.405  14.274  66.941  1.00  0.00    -0.265 OA 
ATOM     14  C4*   C A   1     -11.759  13.864  67.207  1.00  0.00    -0.386 C  
ATOM     15  C3*   C A   1     -12.246  13.137  65.962  1.00  0.00    -0.414 C  
ATOM     16  H2*   C A   1     -11.749  11.662  63.719  1.00  0.00     0.000 HD 
ATOM     17  C2*   C A   1     -11.026  13.055  65.050  1.00  0.00    -0.298 C  
ATOM     18  O3*   C A   1     -13.282  13.864  65.288  1.00  0.00    -0.774 OA 
ATOM     19  O2*   C A   1     -11.009  11.860  64.280  1.00  0.00    -0.310 OA 
ATOM     20  H3*   C A   1     -13.586  13.410  64.511  1.00  0.00     0.000 HD 
BRANCH  14  21
ATOM     21  C5*   C A   1     -11.779  12.955  68.442  1.00  0.00    -0.345 C  
ATOM     22  O5*   C A   1     -10.825  13.402  69.401  1.00  0.00    -0.435 OA 
ATOM     23  H5*   C A   1     -10.837  12.838  70.166  1.00  0.00     0.000 HD 
ENDBRANCH  14  21
ENDBRANCH   8  12
TORSDOF 2
ENDMDL
MODEL       88
REMARK 921   NORMALIZED FREE ENERGY PREDICTED BY IDOCK:   -4.01 KCAL/MOL
REMARK 922        TOTAL FREE ENERGY PREDICTED BY IDOCK:   -4.49 KCAL/MOL
REMARK 923 INTER-LIGAND FREE ENERGY PREDICTED BY IDOCK:   -4.51 KCAL/MOL
REMARK 924 INTRA-LIGAND FREE ENERGY PREDICTED BY IDOCK:    0.02 KCAL/MOL
REMARK 927      BINDING AFFINITY PREDICTED BY RF-SCORE:    0.00 PKD
ROOT
ATOM      1  N4    C A   1      -8.100   7.097  66.707  1.00  0.00    -0.111 NA 
ATOM      2  H42   C A   1      -7.148   6.848  66.974  1.00  0.00     0.000 HD 
ATOM      3  C4    C A   1      -8.496   8.401  66.632  1.00  0.00    -0.111 C  
ATOM      4  H41   C A   1      -8.792   6.382  66.485  1.00  0.00     0.000 HD 
ATOM      5  N3    C A   1      -7.618   9.309  66.914  1.00  0.00    -0.091 N  
ATOM      6  C2    C A   1      -7.954  10.640  66.842  1.00  0.00    -0.124 C  
ATOM      7  H3    C A   1      -6.675   9.036  67.190  1.00  0.00     0.000 HD 
ATOM      8  N1    C A   1      -9.304  10.986  66.623  1.00  0.00    -0.174 N  
ATOM      9  O2    C A   1      -7.080  11.495  66.977  1.00  0.00    -0.129 OA 
ATOM     10  C5    C A   1      -9.879   8.722  66.251  1.00  0.00    -0.342 C  
ATOM     11  C6    C A   1     -10.215  10.010  66.287  1.00  0.00    -0.215 C  
ENDROOT
BRANCH   8  12
ATOM     12  C1*   C A   1      -9.587  12.420  66.542  1.00  0.00    -0.240 C  
ATOM     13  O4*   C A   1      -9.674  12.941  67.892  1.00  0.00    -0.204 OA 
ATOM     14  C4*   C A   1     -11.055  12.982  68.292  1.00  0.00    -0.263 C  
ATOM     15  C3*   C A   1     -11.874  13.109  67.015  1.00  0.00    -0.379 C  
ATOM     16  H2*   C A   1     -12.182  12.700  64.334  1.00  0.00     0.000 HD 
ATOM     17  C2*   C A   1     -10.859  12.996  65.882  1.00  0.00    -0.272 C  
ATOM     18  O3*   C A   1     -12.532  14.380  66.925  1.00  0.00    -0.568 OA 
ATOM     19  O2*   C A   1     -11.399  12.346  64.740  1.00  0.00    -0.298 OA 
ATOM     20  H3*   C A   1     -13.043  14.459  66.128  1.00  0.00     0.000 HD 
BRANCH  14  21
ATOM     21  C5*   C A   1     -11.397  11.702  69.063  1.00  0.00    -0.275 C  
ATOM     22  O5*   C A   1     -12.515  11.048  68.469  1.00  0.00    -0.713 OA 
ATOM     23  H5*   C A   1     -12.727  10.256  68.947  1.00  0.00     0.000 HD 
ENDBRANCH  14  21
ENDBRANCH   8  12
TORSDOF 2
ENDMDL
MODEL       89
REMARK 921   NORMALIZED FREE ENERGY PREDICTED BY IDOCK:   -4.00 KCAL/MOL
REMARK 922        TOTAL FREE ENERGY PREDICTED BY IDOCK:   -4.48 KCAL/MOL
REMARK 923 INTER-LIGAND FREE ENERGY PREDICTED BY IDOCK:   -4.51 KCAL/MOL
REMARK 924 INTRA-LIGAND FREE ENERGY PREDICTED BY IDOCK:    0.04 KCAL/MOL
REMARK 927      BINDING AFFINITY PREDICTED BY RF-SCORE:    0.00 PKD
ROOT
ATOM      1  N4    C A   1      -9.823  16.600  65.687  1.00  0.00    -0.562 NA 
ATOM      2  H42   C A   1     -10.307  17.025  64.897  1.00  0.00     0.000 HD 
ATOM      3  C4    C A   1      -9.680  15.246  65.783  1.00  0.00    -0.350 C  
ATOM      4  H41   C A   1      -9.428  17.170  66.434  1.00  0.00     0.000 HD 
ATOM      5  N3    C A   1     -10.181  14.523  64.835  1.00  0.00    -0.477 N  
ATOM      6  C2    C A   1     -10.055  13.155  64.870  1.00  0.00    -0.217 C  
ATOM      7  H3    C A   1     -10.671  14.969  64.060  1.00  0.00     0.000 HD 
ATOM      8  N1    C A   1      -9.525  12.553  66.031  1.00  0.00    -0.200 N  
ATOM      9  O2    C A   1     -10.414  12.486  63.902  1.00  0.00    -0.398 OA 
ATOM     10  C5    C A   1      -8.983  14.669  66.942  1.00  0.00    -0.275 C  
ATOM     11  C6    C A   1      -8.961  13.339  67.011  1.00  0.00    -0.228 C  
ENDROOT
BRANCH   8  12
ATOM     12  C1*   C A   1      -9.404  11.095  65.993  1.00  0.00    -0.206 C  
ATOM     13  O4*   C A   1     -10.715  10.527  66.238  1.00  0.00    -0.174 OA 
ATOM     14  C4*   C A   1     -10.830  10.194  67.634  1.00  0.00    -0.290 C  
ATOM     15  C3*   C A   1      -9.417   9.943  68.139  1.00  0.00    -0.138 C  
ATOM     16  H2*   C A   1      -6.723  10.362  67.984  1.00  0.00     0.000 HD 
ATOM     17  C2*   C A   1      -8.509  10.294  66.963  1.00  0.00    -0.129 C  
ATOM     18  O3*   C A   1      -9.210   8.569  68.491  1.00  0.00    -0.136 OA 
ATOM     19  O2*   C A   1      -7.274  10.855  67.387  1.00  0.00    -0.088 OA 
ATOM     20  H3*   C A   1      -8.328   8.412  68.807  1.00  0.00     0.000 HD 
BRANCH  14  21
ATOM     21  C5*   C A   1     -11.502  11.356  68.376  1.00  0.00    -0.299 C  
ATOM     22  O5*   C A   1     -12.409  12.037  67.515  1.00  0.00    -0.347 OA 
ATOM     23  H5*   C A   1     -12.825  12.756  67.975  1.00  0.00     0.000 HD 
ENDBRANCH  14  21
ENDBRANCH   8  12
TORSDOF 2
ENDMDL
MODEL       90
REMARK 921   NORMALIZED FREE ENERGY PREDICTED BY IDOCK:   -3.99 KCAL/MOL
REMARK 922        TOTAL FREE ENERGY PREDICTED BY IDOCK:   -4.47 KCAL/MOL
REMARK 923 INTER-LIGAND FREE ENERGY PREDICTED BY IDOCK:   -4.49 KCAL/MOL
REMARK 924 INTRA-LIGAND FREE ENERGY PREDICTED BY IDOCK:    0.03 KCAL/MOL
REMARK 927      BINDING AFFINITY PREDICTED BY RF-SCORE:    0.00 PKD
ROOT
ATOM      1  N4    C A   1     -12.272  14.319  67.614  1.00  0.00    -0.597 NA 
ATOM      2  H42   C A   1     -12.615  14.959  68.330  1.00  0.00     0.000 HD 
ATOM      3  C4    C A   1     -11.874  13.053  67.929  1.00  0.00    -0.343 C  
ATOM      4  H41   C A   1     -12.213  14.601  66.636  1.00  0.00     0.000 HD 
ATOM      5  N3    C A   1     -11.948  12.694  69.170  1.00  0.00    -0.276 N  
ATOM      6  C2    C A   1     -11.574  11.425  69.545  1.00  0.00    -0.331 C  
ATOM      7  H3    C A   1     -12.283  13.354  69.871  1.00  0.00     0.000 HD 
ATOM      8  N1    C A   1     -10.957  10.591  68.590  1.00  0.00    -0.231 N  
ATOM      9  O2    C A   1     -11.775  11.049  70.699  1.00  0.00    -0.329 OA 
ATOM     10  C5    C A   1     -11.376  12.161  66.871  1.00  0.00    -0.402 C  
ATOM     11  C6    C A   1     -10.923  10.974  67.268  1.00  0.00    -0.297 C  
ENDROOT
BRANCH   8  12
ATOM     12  C1*   C A   1     -10.600   9.249  69.054  1.00  0.00    -0.205 C  
ATOM     13  O4*   C A   1      -9.416   9.358  69.883  1.00  0.00    -0.183 OA 
ATOM     14  C4*   C A   1      -8.254   9.078  69.082  1.00  0.00    -0.121 C  
ATOM     15  C3*   C A   1      -8.715   8.177  67.945  1.00  0.00    -0.128 C  
ATOM     16  H2*   C A   1     -10.666   7.284  66.257  1.00  0.00     0.000 HD 
ATOM     17  C2*   C A   1     -10.231   8.093  68.099  1.00  0.00    -0.209 C  
ATOM     18  O3*   C A   1      -8.164   6.857  68.051  1.00  0.00    -0.114 OA 
ATOM     19  O2*   C A   1     -10.893   7.995  66.845  1.00  0.00    -0.267 OA 
ATOM     20  H3*   C A   1      -8.452   6.294  67.341  1.00  0.00     0.000 HD 
BRANCH  14  21
ATOM     21  C5*   C A   1      -7.669  10.396  68.561  1.00  0.00    -0.101 C  
ATOM     22  O5*   C A   1      -7.648  11.373  69.598  1.00  0.00    -0.360 OA 
ATOM     23  H5*   C A   1      -7.286  12.190  69.276  1.00  0.00     0.000 HD 
ENDBRANCH  14  21
ENDBRANCH   8  12
TORSDOF 2
ENDMDL
MODEL       91
REMARK 921   NORMALIZED FREE ENERGY PREDICTED BY IDOCK:   -3.99 KCAL/MOL
REMARK 922        TOTAL FREE ENERGY PREDICTED BY IDOCK:   -4.47 KCAL/MOL
REMARK 923 INTER-LIGAND FREE ENERGY PREDICTED BY IDOCK:   -4.67 KCAL/MOL
REMARK 924 INTRA-LIGAND FREE ENERGY PREDICTED BY IDOCK:    0.20 KCAL/MOL
REMARK 927      BINDING AFFINITY PREDICTED BY RF-SCORE:    0.00 PKD
ROOT
ATOM      1  N4    C A   1      -8.410  11.221  68.763  1.00  0.00    -0.251 NA 
ATOM      2  H42   C A   1      -8.411  11.555  67.800  1.00  0.00     0.000 HD 
ATOM      3  C4    C A   1      -9.081  10.088  69.121  1.00  0.00    -0.184 C  
ATOM      4  H41   C A   1      -7.906  11.720  69.495  1.00  0.00     0.000 HD 
ATOM      5  N3    C A   1      -9.721   9.454  68.192  1.00  0.00    -0.142 N  
ATOM      6  C2    C A   1     -10.404   8.299  68.489  1.00  0.00    -0.199 C  
ATOM      7  H3    C A   1      -9.719   9.813  67.237  1.00  0.00     0.000 HD 
ATOM      8  N1    C A   1     -10.532   7.917  69.841  1.00  0.00    -0.225 N  
ATOM      9  O2    C A   1     -10.893   7.631  67.579  1.00  0.00    -0.223 OA 
ATOM     10  C5    C A   1      -9.062   9.642  70.522  1.00  0.00    -0.198 C  
ATOM     11  C6    C A   1      -9.813   8.580  70.810  1.00  0.00    -0.182 C  
ENDROOT
BRANCH   8  12
ATOM     12  C1*   C A   1     -11.257   6.668  70.083  1.00  0.00    -0.360 C  
ATOM     13  O4*   C A   1     -12.645   6.996  70.342  1.00  0.00    -0.113 OA 
ATOM     14  C4*   C A   1     -12.856   7.058  71.764  1.00  0.00    -0.324 C  
ATOM     15  C3*   C A   1     -11.807   6.158  72.400  1.00  0.00    -0.238 C  
ATOM     16  H2*   C A   1      -9.358   4.951  72.348  1.00  0.00     0.000 HD 
ATOM     17  C2*   C A   1     -10.922   5.705  71.242  1.00  0.00    -0.181 C  
ATOM     18  O3*   C A   1     -12.394   5.003  73.015  1.00  0.00    -0.380 OA 
ATOM     19  O2*   C A   1      -9.565   5.543  71.635  1.00  0.00    -0.149 OA 
ATOM     20  H3*   C A   1     -11.739   4.441  73.411  1.00  0.00     0.000 HD 
BRANCH  14  21
ATOM     21  C5*   C A   1     -12.718   8.512  72.232  1.00  0.00    -0.367 C  
ATOM     22  O5*   C A   1     -13.819   8.874  73.060  1.00  0.00    -0.952 OA 
ATOM     23  H5*   C A   1     -13.733   9.774  73.350  1.00  0.00     0.000 HD 
ENDBRANCH  14  21
ENDBRANCH   8  12
TORSDOF 2
ENDMDL
MODEL       92
REMARK 921   NORMALIZED FREE ENERGY PREDICTED BY IDOCK:   -3.92 KCAL/MOL
REMARK 922        TOTAL FREE ENERGY PREDICTED BY IDOCK:   -4.40 KCAL/MOL
REMARK 923 INTER-LIGAND FREE ENERGY PREDICTED BY IDOCK:   -4.54 KCAL/MOL
REMARK 924 INTRA-LIGAND FREE ENERGY PREDICTED BY IDOCK:    0.14 KCAL/MOL
REMARK 927      BINDING AFFINITY PREDICTED BY RF-SCORE:    0.00 PKD
ROOT
ATOM      1  N4    C A   1     -10.276  11.883  63.060  1.00  0.00    -0.597 NA 
ATOM      2  H42   C A   1      -9.537  11.851  62.359  1.00  0.00     0.000 HD 
ATOM      3  C4    C A   1     -10.036  11.541  64.359  1.00  0.00    -0.269 C  
ATOM      4  H41   C A   1     -11.223  12.172  62.817  1.00  0.00     0.000 HD 
ATOM      5  N3    C A   1      -8.834  11.174  64.667  1.00  0.00    -0.379 N  
ATOM      6  C2    C A   1      -8.527  10.833  65.963  1.00  0.00    -0.169 C  
ATOM      7  H3    C A   1      -8.112  11.139  63.948  1.00  0.00     0.000 HD 
ATOM      8  N1    C A   1      -9.576  10.727  66.901  1.00  0.00    -0.169 N  
ATOM      9  O2    C A   1      -7.357  10.617  66.275  1.00  0.00    -0.126 OA 
ATOM     10  C5    C A   1     -11.130  11.592  65.340  1.00  0.00    -0.299 C  
ATOM     11  C6    C A   1     -10.840  11.159  66.566  1.00  0.00    -0.245 C  
ENDROOT
BRANCH   8  12
ATOM     12  C1*   C A   1      -9.176  10.375  68.265  1.00  0.00    -0.149 C  
ATOM     13  O4*   C A   1      -8.743   8.992  68.265  1.00  0.00    -0.129 OA 
ATOM     14  C4*   C A   1      -9.839   8.156  68.678  1.00  0.00    -0.183 C  
ATOM     15  C3*   C A   1     -10.743   9.021  69.546  1.00  0.00    -0.206 C  
ATOM     16  H2*   C A   1     -11.729  11.464  70.260  1.00  0.00     0.000 HD 
ATOM     17  C2*   C A   1     -10.141  10.421  69.469  1.00  0.00    -0.219 C  
ATOM     18  O3*   C A   1     -10.743   8.590  70.914  1.00  0.00    -0.212 OA 
ATOM     19  O2*   C A   1     -11.135  11.436  69.519  1.00  0.00    -0.245 OA 
ATOM     20  H3*   C A   1     -11.307   9.129  71.455  1.00  0.00     0.000 HD 
BRANCH  14  21
ATOM     21  C5*   C A   1     -10.573   7.634  67.436  1.00  0.00    -0.286 C  
ATOM     22  O5*   C A   1     -11.527   6.642  67.804  1.00  0.00    -0.654 OA 
ATOM     23  H5*   C A   1     -11.980   6.319  67.035  1.00  0.00     0.000 HD 
ENDBRANCH  14  21
ENDBRANCH   8  12
TORSDOF 2
ENDMDL
MODEL       93
REMARK 921   NORMALIZED FREE ENERGY PREDICTED BY IDOCK:   -3.92 KCAL/MOL
REMARK 922        TOTAL FREE ENERGY PREDICTED BY IDOCK:   -4.39 KCAL/MOL
REMARK 923 INTER-LIGAND FREE ENERGY PREDICTED BY IDOCK:   -4.54 KCAL/MOL
REMARK 924 INTRA-LIGAND FREE ENERGY PREDICTED BY IDOCK:    0.15 KCAL/MOL
REMARK 927      BINDING AFFINITY PREDICTED BY RF-SCORE:    0.00 PKD
ROOT
ATOM      1  N4    C A   1     -11.181   5.005  65.860  1.00  0.00    -0.825 NA 
ATOM      2  H42   C A   1     -11.938   4.392  66.161  1.00  0.00     0.000 HD 
ATOM      3  C4    C A   1     -10.691   5.980  66.678  1.00  0.00    -0.244 C  
ATOM      4  H41   C A   1     -10.762   4.912  64.935  1.00  0.00     0.000 HD 
ATOM      5  N3    C A   1     -11.223   6.098  67.852  1.00  0.00    -0.465 N  
ATOM      6  C2    C A   1     -10.761   7.053  68.726  1.00  0.00    -0.194 C  
ATOM      7  H3    C A   1     -11.987   5.482  68.129  1.00  0.00     0.000 HD 
ATOM      8  N1    C A   1      -9.824   8.000  68.262  1.00  0.00    -0.165 N  
ATOM      9  O2    C A   1     -11.177   7.070  69.884  1.00  0.00    -0.272 OA 
ATOM     10  C5    C A   1      -9.604   6.850  66.205  1.00  0.00    -0.089 C  
ATOM     11  C6    C A   1      -9.241   7.835  67.025  1.00  0.00    -0.145 C  
ENDROOT
BRANCH   8  12
ATOM     12  C1*   C A   1      -9.364   8.977  69.250  1.00  0.00    -0.150 C  
ATOM     13  O4*   C A   1     -10.450   9.901  69.510  1.00  0.00    -0.210 OA 
ATOM     14  C4*   C A   1     -10.275  11.073  68.694  1.00  0.00    -0.199 C  
ATOM     15  C3*   C A   1      -8.785  11.188  68.410  1.00  0.00    -0.157 C  
ATOM     16  H2*   C A   1      -6.323  10.045  68.110  1.00  0.00     0.000 HD 
ATOM     17  C2*   C A   1      -8.170   9.926  69.010  1.00  0.00    -0.124 C  
ATOM     18  O3*   C A   1      -8.205  12.335  69.047  1.00  0.00    -0.347 OA 
ATOM     19  O2*   C A   1      -7.058   9.461  68.258  1.00  0.00    -0.074 OA 
ATOM     20  H3*   C A   1      -7.274  12.406  68.870  1.00  0.00     0.000 HD 
BRANCH  14  21
ATOM     21  C5*   C A   1     -11.090  10.917  67.404  1.00  0.00    -0.307 C  
ATOM     22  O5*   C A   1     -12.110  11.909  67.338  1.00  0.00    -0.577 OA 
ATOM     23  H5*   C A   1     -12.615  11.812  66.540  1.00  0.00     0.000 HD 
ENDBRANCH  14  21
ENDBRANCH   8  12
TORSDOF 2
ENDMDL
MODEL       94
REMARK 921   NORMALIZED FREE ENERGY PREDICTED BY IDOCK:   -3.92 KCAL/MOL
REMARK 922        TOTAL FREE ENERGY PREDICTED BY IDOCK:   -4.39 KCAL/MOL
REMARK 923 INTER-LIGAND FREE ENERGY PREDICTED BY IDOCK:   -4.54 KCAL/MOL
REMARK 924 INTRA-LIGAND FREE ENERGY PREDICTED BY IDOCK:    0.14 KCAL/MOL
REMARK 927      BINDING AFFINITY PREDICTED BY RF-SCORE:    0.00 PKD
ROOT
ATOM      1  N4    C A   1     -11.336  12.331  68.760  1.00  0.00    -0.265 NA 
ATOM      2  H42   C A   1     -10.801  12.796  68.027  1.00  0.00     0.000 HD 
ATOM      3  C4    C A   1     -10.818  11.276  69.453  1.00  0.00    -0.189 C  
ATOM      4  H41   C A   1     -12.278  12.637  69.002  1.00  0.00     0.000 HD 
ATOM      5  N3    C A   1      -9.623  10.887  69.145  1.00  0.00    -0.370 N  
ATOM      6  C2    C A   1      -9.043   9.839  69.818  1.00  0.00    -0.225 C  
ATOM      7  H3    C A   1      -9.111  11.360  68.401  1.00  0.00     0.000 HD 
ATOM      8  N1    C A   1      -9.831   9.097  70.723  1.00  0.00    -0.247 N  
ATOM      9  O2    C A   1      -7.861   9.565  69.614  1.00  0.00    -0.091 OA 
ATOM     10  C5    C A   1     -11.623  10.625  70.497  1.00  0.00    -0.444 C  
ATOM     11  C6    C A   1     -11.085   9.548  71.067  1.00  0.00    -0.363 C  
ENDROOT
BRANCH   8  12
ATOM     12  C1*   C A   1      -9.144   8.006  71.417  1.00  0.00    -0.141 C  
ATOM     13  O4*   C A   1      -8.784   7.003  70.434  1.00  0.00    -0.144 OA 
ATOM     14  C4*   C A   1      -9.791   5.975  70.419  1.00  0.00    -0.179 C  
ATOM     15  C3*   C A   1     -10.433   5.975  71.799  1.00  0.00    -0.221 C  
ATOM     16  H2*   C A   1     -11.122   7.265  74.105  1.00  0.00     0.000 HD 
ATOM     17  C2*   C A   1      -9.805   7.160  72.527  1.00  0.00    -0.155 C  
ATOM     18  O3*   C A   1     -10.139   4.774  72.526  1.00  0.00    -0.168 OA 
ATOM     19  O2*   C A   1     -10.715   7.785  73.422  1.00  0.00    -0.348 OA 
ATOM     20  H3*   C A   1     -10.539   4.774  73.388  1.00  0.00     0.000 HD 
BRANCH  14  21
ATOM     21  C5*   C A   1     -10.812   6.285  69.317  1.00  0.00    -0.342 C  
ATOM     22  O5*   C A   1     -12.072   6.623  69.888  1.00  0.00    -0.641 OA 
ATOM     23  H5*   C A   1     -12.704   6.814  69.206  1.00  0.00     0.000 HD 
ENDBRANCH  14  21
ENDBRANCH   8  12
TORSDOF 2
ENDMDL
MODEL       95
REMARK 921   NORMALIZED FREE ENERGY PREDICTED BY IDOCK:   -3.90 KCAL/MOL
REMARK 922        TOTAL FREE ENERGY PREDICTED BY IDOCK:   -4.37 KCAL/MOL
REMARK 923 INTER-LIGAND FREE ENERGY PREDICTED BY IDOCK:   -4.47 KCAL/MOL
REMARK 924 INTRA-LIGAND FREE ENERGY PREDICTED BY IDOCK:    0.10 KCAL/MOL
REMARK 927      BINDING AFFINITY PREDICTED BY RF-SCORE:    0.00 PKD
ROOT
ATOM      1  N4    C A   1      -8.614   2.916  70.759  1.00  0.00    -0.060 NA 
ATOM      2  H42   C A   1      -8.158   2.580  69.911  1.00  0.00     0.000 HD 
ATOM      3  C4    C A   1      -9.475   3.974  70.727  1.00  0.00    -0.170 C  
ATOM      4  H41   C A   1      -8.444   2.474  71.662  1.00  0.00     0.000 HD 
ATOM      5  N3    C A   1      -9.690   4.535  69.581  1.00  0.00    -0.204 N  
ATOM      6  C2    C A   1     -10.559   5.595  69.484  1.00  0.00    -0.314 C  
ATOM      7  H3    C A   1      -9.214   4.190  68.748  1.00  0.00     0.000 HD 
ATOM      8  N1    C A   1     -11.073   6.160  70.671  1.00  0.00    -0.308 N  
ATOM      9  O2    C A   1     -10.862   6.034  68.376  1.00  0.00    -0.268 OA 
ATOM     10  C5    C A   1     -10.108   4.435  71.971  1.00  0.00    -0.256 C  
ATOM     11  C6    C A   1     -10.865   5.527  71.876  1.00  0.00    -0.223 C  
ENDROOT
BRANCH   8  12
ATOM     12  C1*   C A   1     -12.004   7.276  70.493  1.00  0.00    -0.160 C  
ATOM     13  O4*   C A   1     -11.236   8.505  70.467  1.00  0.00    -0.258 OA 
ATOM     14  C4*   C A   1     -11.238   9.089  71.782  1.00  0.00    -0.378 C  
ATOM     15  C3*   C A   1     -12.506   8.604  72.471  1.00  0.00    -0.304 C  
ATOM     16  H2*   C A   1     -14.485   6.750  72.785  1.00  0.00     0.000 HD 
ATOM     17  C2*   C A   1     -13.129   7.608  71.497  1.00  0.00    -0.338 C  
ATOM     18  O3*   C A   1     -13.434   9.674  72.699  1.00  0.00    -0.642 OA 
ATOM     19  O2*   C A   1     -13.793   6.546  72.167  1.00  0.00    -0.050 OA 
ATOM     20  H3*   C A   1     -14.225   9.371  73.129  1.00  0.00     0.000 HD 
BRANCH  14  21
ATOM     21  C5*   C A   1      -9.977   8.646  72.534  1.00  0.00    -0.187 C  
ATOM     22  O5*   C A   1      -8.810   9.016  71.805  1.00  0.00    -0.348 OA 
ATOM     23  H5*   C A   1      -8.029   8.741  72.270  1.00  0.00     0.000 HD 
ENDBRANCH  14  21
ENDBRANCH   8  12
TORSDOF 2
ENDMDL
MODEL       96
REMARK 921   NORMALIZED FREE ENERGY PREDICTED BY IDOCK:   -3.88 KCAL/MOL
REMARK 922        TOTAL FREE ENERGY PREDICTED BY IDOCK:   -4.35 KCAL/MOL
REMARK 923 INTER-LIGAND FREE ENERGY PREDICTED BY IDOCK:   -4.33 KCAL/MOL
REMARK 924 INTRA-LIGAND FREE ENERGY PREDICTED BY IDOCK:   -0.01 KCAL/MOL
REMARK 927      BINDING AFFINITY PREDICTED BY RF-SCORE:    0.00 PKD
ROOT
ATOM      1  N4    C A   1      -7.131   9.602  62.920  1.00  0.00    -0.106 NA 
ATOM      2  H42   C A   1      -6.115   9.657  62.857  1.00  0.00     0.000 HD 
ATOM      3  C4    C A   1      -7.798  10.077  64.011  1.00  0.00    -0.150 C  
ATOM      4  H41   C A   1      -7.686   9.190  62.171  1.00  0.00     0.000 HD 
ATOM      5  N3    C A   1      -7.094  10.600  64.962  1.00  0.00    -0.353 N  
ATOM      6  C2    C A   1      -7.712  11.109  66.080  1.00  0.00    -0.001 C  
ATOM      7  H3    C A   1      -6.078  10.634  64.883  1.00  0.00     0.000 HD 
ATOM      8  N1    C A   1      -9.097  10.899  66.242  1.00  0.00    -0.171 N  
ATOM      9  O2    C A   1      -7.049  11.724  66.914  1.00  0.00    -0.140 OA 
ATOM     10  C5    C A   1      -9.264   9.974  64.070  1.00  0.00    -0.318 C  
ATOM     11  C6    C A   1      -9.836  10.377  65.203  1.00  0.00    -0.313 C  
ENDROOT
BRANCH   8  12
ATOM     12  C1*   C A   1      -9.692  11.482  67.446  1.00  0.00    -0.179 C  
ATOM     13  O4*   C A   1      -9.314  10.661  68.579  1.00  0.00    -0.155 OA 
ATOM     14  C4*   C A   1     -10.372   9.725  68.857  1.00  0.00    -0.210 C  
ATOM     15  C3*   C A   1     -11.657  10.359  68.345  1.00  0.00    -0.052 C  
ATOM     16  H2*   C A   1     -12.967  12.048  66.646  1.00  0.00     0.000 HD 
ATOM     17  C2*   C A   1     -11.215  11.641  67.646  1.00  0.00    -0.281 C  
ATOM     18  O3*   C A   1     -12.551  10.697  69.415  1.00  0.00    -0.683 OA 
ATOM     19  O2*   C A   1     -12.030  11.950  66.524  1.00  0.00    -0.588 OA 
ATOM     20  H3*   C A   1     -13.353  11.092  69.095  1.00  0.00     0.000 HD 
BRANCH  14  21
ATOM     21  C5*   C A   1     -10.070   8.398  68.151  1.00  0.00    -0.200 C  
ATOM     22  O5*   C A   1     -11.215   7.947  67.433  1.00  0.00    -0.435 OA 
ATOM     23  H5*   C A   1     -11.028   7.124  66.996  1.00  0.00     0.000 HD 
ENDBRANCH  14  21
ENDBRANCH   8  12
TORSDOF 2
ENDMDL
MODEL       97
REMARK 921   NORMALIZED FREE ENERGY PREDICTED BY IDOCK:   -3.88 KCAL/MOL
REMARK 922        TOTAL FREE ENERGY PREDICTED BY IDOCK:   -4.34 KCAL/MOL
REMARK 923 INTER-LIGAND FREE ENERGY PREDICTED BY IDOCK:   -4.51 KCAL/MOL
REMARK 924 INTRA-LIGAND FREE ENERGY PREDICTED BY IDOCK:    0.17 KCAL/MOL
REMARK 927      BINDING AFFINITY PREDICTED BY RF-SCORE:    0.00 PKD
ROOT
ATOM      1  N4    C A   1      -8.952   4.263  74.000  1.00  0.00    -0.095 NA 
ATOM      2  H42   C A   1      -8.559   3.411  73.602  1.00  0.00     0.000 HD 
ATOM      3  C4    C A   1      -9.656   5.144  73.232  1.00  0.00    -0.141 C  
ATOM      4  H41   C A   1      -8.834   4.489  74.987  1.00  0.00     0.000 HD 
ATOM      5  N3    C A   1      -9.805   4.858  71.979  1.00  0.00    -0.170 N  
ATOM      6  C2    C A   1     -10.517   5.700  71.159  1.00  0.00    -0.241 C  
ATOM      7  H3    C A   1      -9.394   4.006  71.600  1.00  0.00     0.000 HD 
ATOM      8  N1    C A   1     -10.930   6.951  71.667  1.00  0.00    -0.230 N  
ATOM      9  O2    C A   1     -10.770   5.356  70.006  1.00  0.00    -0.308 OA 
ATOM     10  C5    C A   1     -10.200   6.367  73.841  1.00  0.00    -0.330 C  
ATOM     11  C6    C A   1     -10.797   7.220  73.011  1.00  0.00    -0.355 C  
ENDROOT
BRANCH   8  12
ATOM     12  C1*   C A   1     -11.697   7.790  70.744  1.00  0.00    -0.225 C  
ATOM     13  O4*   C A   1     -10.804   8.241  69.696  1.00  0.00    -0.226 OA 
ATOM     14  C4*   C A   1     -10.314   9.553  70.028  1.00  0.00    -0.247 C  
ATOM     15  C3*   C A   1     -11.363  10.195  70.924  1.00  0.00    -0.340 C  
ATOM     16  H2*   C A   1     -13.397   9.990  72.733  1.00  0.00     0.000 HD 
ATOM     17  C2*   C A   1     -12.395   9.099  71.172  1.00  0.00    -0.267 C  
ATOM     18  O3*   C A   1     -12.008  11.304  70.282  1.00  0.00    -0.325 OA 
ATOM     19  O2*   C A   1     -12.968   9.185  72.470  1.00  0.00    -0.407 OA 
ATOM     20  H3*   C A   1     -12.663  11.705  70.842  1.00  0.00     0.000 HD 
BRANCH  14  21
ATOM     21  C5*   C A   1      -8.961   9.422  70.738  1.00  0.00    -0.191 C  
ATOM     22  O5*   C A   1      -8.032  10.366  70.213  1.00  0.00    -0.413 OA 
ATOM     23  H5*   C A   1      -7.194  10.285  70.653  1.00  0.00     0.000 HD 
ENDBRANCH  14  21
ENDBRANCH   8  12
TORSDOF 2
ENDMDL
MODEL       98
REMARK 921   NORMALIZED FREE ENERGY PREDICTED BY IDOCK:   -3.87 KCAL/MOL
REMARK 922        TOTAL FREE ENERGY PREDICTED BY IDOCK:   -4.33 KCAL/MOL
REMARK 923 INTER-LIGAND FREE ENERGY PREDICTED BY IDOCK:   -5.62 KCAL/MOL
REMARK 924 INTRA-LIGAND FREE ENERGY PREDICTED BY IDOCK:    1.29 KCAL/MOL
REMARK 927      BINDING AFFINITY PREDICTED BY RF-SCORE:    0.00 PKD
ROOT
ATOM      1  N4    C A   1     -10.654  19.382  67.235  1.00  0.00    -0.461 NA 
ATOM      2  H42   C A   1     -10.749  20.089  67.964  1.00  0.00     0.000 HD 
ATOM      3  C4    C A   1     -10.558  18.056  67.543  1.00  0.00    -0.388 C  
ATOM      4  H41   C A   1     -10.629  19.639  66.249  1.00  0.00     0.000 HD 
ATOM      5  N3    C A   1     -10.590  17.729  68.795  1.00  0.00    -0.345 N  
ATOM      6  C2    C A   1     -10.512  16.408  69.166  1.00  0.00    -0.303 C  
ATOM      7  H3    C A   1     -10.674  18.454  69.507  1.00  0.00     0.000 HD 
ATOM      8  N1    C A   1     -10.228  15.443  68.177  1.00  0.00    -0.228 N  
ATOM      9  O2    C A   1     -10.680  16.096  70.344  1.00  0.00    -0.280 OA 
ATOM     10  C5    C A   1     -10.415  17.066  66.465  1.00  0.00    -0.250 C  
ATOM     11  C6    C A   1     -10.236  15.803  66.847  1.00  0.00    -0.280 C  
ENDROOT
BRANCH   8  12
ATOM     12  C1*   C A   1     -10.175  14.055  68.639  1.00  0.00    -0.233 C  
ATOM     13  O4*   C A   1      -9.527  13.262  67.614  1.00  0.00    -0.197 OA 
ATOM     14  C4*   C A   1     -10.532  12.647  66.789  1.00  0.00    -0.240 C  
ATOM     15  C3*   C A   1     -11.780  12.514  67.649  1.00  0.00    -0.361 C  
ATOM     16  H2*   C A   1     -13.338  13.351  69.729  1.00  0.00     0.000 HD 
ATOM     17  C2*   C A   1     -11.435  13.220  68.957  1.00  0.00    -0.302 C  
ATOM     18  O3*   C A   1     -12.093  11.143  67.930  1.00  0.00    -0.659 OA 
ATOM     19  O2*   C A   1     -12.563  13.864  69.533  1.00  0.00    -0.210 OA 
ATOM     20  H3*   C A   1     -12.872  11.060  68.468  1.00  0.00     0.000 HD 
BRANCH  14  21
ATOM     21  C5*   C A   1     -10.781  13.525  65.557  1.00  0.00    -0.290 C  
ATOM     22  O5*   C A   1     -10.027  13.047  64.446  1.00  0.00    -0.598 OA 
ATOM     23  H5*   C A   1     -10.181  13.591  63.683  1.00  0.00     0.000 HD 
ENDBRANCH  14  21
ENDBRANCH   8  12
TORSDOF 2
ENDMDL
MODEL       99
REMARK 921   NORMALIZED FREE ENERGY PREDICTED BY IDOCK:   -3.81 KCAL/MOL
REMARK 922        TOTAL FREE ENERGY PREDICTED BY IDOCK:   -4.27 KCAL/MOL
REMARK 923 INTER-LIGAND FREE ENERGY PREDICTED BY IDOCK:   -4.43 KCAL/MOL
REMARK 924 INTRA-LIGAND FREE ENERGY PREDICTED BY IDOCK:    0.16 KCAL/MOL
REMARK 927      BINDING AFFINITY PREDICTED BY RF-SCORE:    0.00 PKD
ROOT
ATOM      1  N4    C A   1     -11.002   6.189  66.578  1.00  0.00    -0.713 NA 
ATOM      2  H42   C A   1     -11.326   5.323  66.149  1.00  0.00     0.000 HD 
ATOM      3  C4    C A   1     -10.543   6.215  67.863  1.00  0.00    -0.263 C  
ATOM      4  H41   C A   1     -11.008   7.069  66.062  1.00  0.00     0.000 HD 
ATOM      5  N3    C A   1     -10.536   5.099  68.517  1.00  0.00    -0.081 N  
ATOM      6  C2    C A   1     -10.071   5.060  69.810  1.00  0.00    -0.267 C  
ATOM      7  H3    C A   1     -10.875   4.247  68.073  1.00  0.00     0.000 HD 
ATOM      8  N1    C A   1      -9.766   6.277  70.457  1.00  0.00    -0.172 N  
ATOM      9  O2    C A   1      -9.940   3.976  70.377  1.00  0.00    -0.182 OA 
ATOM     10  C5    C A   1     -10.091   7.486  68.449  1.00  0.00    -0.200 C  
ATOM     11  C6    C A   1      -9.742   7.448  69.734  1.00  0.00    -0.170 C  
ENDROOT
BRANCH   8  12
ATOM     12  C1*   C A   1      -9.262   6.160  71.826  1.00  0.00    -0.144 C  
ATOM     13  O4*   C A   1     -10.393   6.223  72.731  1.00  0.00    -0.185 OA 
ATOM     14  C4*   C A   1     -10.540   7.573  73.206  1.00  0.00    -0.384 C  
ATOM     15  C3*   C A   1      -9.162   8.214  73.131  1.00  0.00    -0.266 C  
ATOM     16  H2*   C A   1      -6.673   8.383  72.023  1.00  0.00     0.000 HD 
ATOM     17  C2*   C A   1      -8.278   7.170  72.455  1.00  0.00    -0.107 C  
ATOM     18  O3*   C A   1      -8.632   8.499  74.433  1.00  0.00    -0.300 OA 
ATOM     19  O2*   C A   1      -7.278   7.762  71.636  1.00  0.00    -0.061 OA 
ATOM     20  H3*   C A   1      -7.772   8.899  74.386  1.00  0.00     0.000 HD 
BRANCH  14  21
ATOM     21  C5*   C A   1     -11.559   8.309  72.328  1.00  0.00    -0.383 C  
ATOM     22  O5*   C A   1     -12.885   7.918  72.673  1.00  0.00    -0.548 OA 
ATOM     23  H5*   C A   1     -13.516   8.374  72.129  1.00  0.00     0.000 HD 
ENDBRANCH  14  21
ENDBRANCH   8  12
TORSDOF 2
ENDMDL
MODEL      100
REMARK 921   NORMALIZED FREE ENERGY PREDICTED BY IDOCK:   -3.80 KCAL/MOL
REMARK 922        TOTAL FREE ENERGY PREDICTED BY IDOCK:   -4.26 KCAL/MOL
REMARK 923 INTER-LIGAND FREE ENERGY PREDICTED BY IDOCK:   -4.30 KCAL/MOL
REMARK 924 INTRA-LIGAND FREE ENERGY PREDICTED BY IDOCK:    0.04 KCAL/MOL
REMARK 927      BINDING AFFINITY PREDICTED BY RF-SCORE:    0.00 PKD
ROOT
ATOM      1  N4    C A   1     -10.609  19.371  65.421  1.00  0.00    -0.407 NA 
ATOM      2  H42   C A   1     -10.571  20.260  65.919  1.00  0.00     0.000 HD 
ATOM      3  C4    C A   1     -10.629  18.184  66.093  1.00  0.00    -0.274 C  
ATOM      4  H41   C A   1     -10.634  19.336  64.402  1.00  0.00     0.000 HD 
ATOM      5  N3    C A   1     -10.597  18.228  67.385  1.00  0.00    -0.413 N  
ATOM      6  C2    C A   1     -10.630  17.065  68.117  1.00  0.00    -0.369 C  
ATOM      7  H3    C A   1     -10.548  19.127  67.862  1.00  0.00     0.000 HD 
ATOM      8  N1    C A   1     -10.528  15.833  67.436  1.00  0.00    -0.291 N  
ATOM      9  O2    C A   1     -10.737  17.119  69.341  1.00  0.00    -0.288 OA 
ATOM     10  C5    C A   1     -10.676  16.921  65.340  1.00  0.00    -0.161 C  
ATOM     11  C6    C A   1     -10.603  15.804  66.061  1.00  0.00    -0.326 C  
ENDROOT
BRANCH   8  12
ATOM     12  C1*   C A   1     -10.586  14.636  68.275  1.00  0.00    -0.235 C  
ATOM     13  O4*   C A   1      -9.339  14.537  69.007  1.00  0.00    -0.168 OA 
ATOM     14  C4*   C A   1      -8.449  13.651  68.304  1.00  0.00    -0.170 C  
ATOM     15  C3*   C A   1      -9.326  12.700  67.502  1.00  0.00    -0.188 C  
ATOM     16  H2*   C A   1     -11.661  12.137  66.204  1.00  0.00     0.000 HD 
ATOM     17  C2*   C A   1     -10.750  13.210  67.706  1.00  0.00    -0.240 C  
ATOM     18  O3*   C A   1      -9.241  11.354  67.990  1.00  0.00    -0.159 OA 
ATOM     19  O2*   C A   1     -11.560  13.014  66.555  1.00  0.00    -0.321 OA 
ATOM     20  H3*   C A   1      -9.788  10.760  67.489  1.00  0.00     0.000 HD 
BRANCH  14  21
ATOM     21  C5*   C A   1      -7.527  14.476  67.397  1.00  0.00    -0.169 C  
ATOM     22  O5*   C A   1      -7.205  15.718  68.016  1.00  0.00    -0.119 OA 
ATOM     23  H5*   C A   1      -6.634  16.228  67.455  1.00  0.00     0.000 HD 
ENDBRANCH  14  21
ENDBRANCH   8  12
TORSDOF 2
ENDMDL
MODEL      101
REMARK 921   NORMALIZED FREE ENERGY PREDICTED BY IDOCK:   -3.70 KCAL/MOL
REMARK 922        TOTAL FREE ENERGY PREDICTED BY IDOCK:   -4.15 KCAL/MOL
REMARK 923 INTER-LIGAND FREE ENERGY PREDICTED BY IDOCK:   -4.29 KCAL/MOL
REMARK 924 INTRA-LIGAND FREE ENERGY PREDICTED BY IDOCK:    0.14 KCAL/MOL
REMARK 927      BINDING AFFINITY PREDICTED BY RF-SCORE:    0.00 PKD
ROOT
ATOM      1  N4    C A   1     -13.161   6.518  72.224  1.00  0.00    -0.512 NA 
ATOM      2  H42   C A   1     -13.300   6.731  73.212  1.00  0.00     0.000 HD 
ATOM      3  C4    C A   1     -12.108   7.037  71.529  1.00  0.00    -0.353 C  
ATOM      4  H41   C A   1     -13.803   5.908  71.719  1.00  0.00     0.000 HD 
ATOM      5  N3    C A   1     -11.293   7.811  72.170  1.00  0.00    -0.282 N  
ATOM      6  C2    C A   1     -10.206   8.353  71.527  1.00  0.00    -0.228 C  
ATOM      7  H3    C A   1     -11.458   8.020  73.154  1.00  0.00     0.000 HD 
ATOM      8  N1    C A   1     -10.094   8.186  70.130  1.00  0.00    -0.192 N  
ATOM      9  O2    C A   1      -9.364   8.974  72.173  1.00  0.00    -0.356 OA 
ATOM     10  C5    C A   1     -11.945   6.713  70.104  1.00  0.00    -0.250 C  
ATOM     11  C6    C A   1     -10.947   7.328  69.473  1.00  0.00    -0.164 C  
ENDROOT
BRANCH   8  12
ATOM     12  C1*   C A   1      -8.903   8.775  69.513  1.00  0.00    -0.144 C  
ATOM     13  O4*   C A   1      -8.934  10.205  69.748  1.00  0.00    -0.199 OA 
ATOM     14  C4*   C A   1      -9.501  10.858  68.598  1.00  0.00    -0.190 C  
ATOM     15  C3*   C A   1      -9.235   9.950  67.406  1.00  0.00    -0.134 C  
ATOM     16  H2*   C A   1      -8.789   7.470  66.356  1.00  0.00     0.000 HD 
ATOM     17  C2*   C A   1      -8.605   8.693  68.000  1.00  0.00    -0.137 C  
ATOM     18  O3*   C A   1      -8.311  10.538  66.480  1.00  0.00    -0.133 OA 
ATOM     19  O2*   C A   1      -8.972   7.520  67.287  1.00  0.00    -0.122 OA 
ATOM     20  H3*   C A   1      -8.145   9.971  65.736  1.00  0.00     0.000 HD 
BRANCH  14  21
ATOM     21  C5*   C A   1     -11.002  11.072  68.827  1.00  0.00    -0.221 C  
ATOM     22  O5*   C A   1     -11.756  10.436  67.799  1.00  0.00    -0.677 OA 
ATOM     23  H5*   C A   1     -12.686  10.568  67.941  1.00  0.00     0.000 HD 
ENDBRANCH  14  21
ENDBRANCH   8  12
TORSDOF 2
ENDMDL
MODEL      102
REMARK 921   NORMALIZED FREE ENERGY PREDICTED BY IDOCK:   -3.70 KCAL/MOL
REMARK 922        TOTAL FREE ENERGY PREDICTED BY IDOCK:   -4.14 KCAL/MOL
REMARK 923 INTER-LIGAND FREE ENERGY PREDICTED BY IDOCK:   -5.33 KCAL/MOL
REMARK 924 INTRA-LIGAND FREE ENERGY PREDICTED BY IDOCK:    1.19 KCAL/MOL
REMARK 927      BINDING AFFINITY PREDICTED BY RF-SCORE:    0.00 PKD
ROOT
ATOM      1  N4    C A   1     -11.548  12.170  66.722  1.00  0.00    -0.481 NA 
ATOM      2  H42   C A   1     -11.891  13.130  66.713  1.00  0.00     0.000 HD 
ATOM      3  C4    C A   1     -11.564  11.423  67.863  1.00  0.00    -0.266 C  
ATOM      4  H41   C A   1     -11.180  11.732  65.878  1.00  0.00     0.000 HD 
ATOM      5  N3    C A   1     -12.031  11.978  68.934  1.00  0.00    -0.282 N  
ATOM      6  C2    C A   1     -12.087  11.271  70.111  1.00  0.00    -0.366 C  
ATOM      7  H3    C A   1     -12.359  12.943  68.905  1.00  0.00     0.000 HD 
ATOM      8  N1    C A   1     -11.476  10.000  70.167  1.00  0.00    -0.270 N  
ATOM      9  O2    C A   1     -12.656  11.757  71.087  1.00  0.00    -0.378 OA 
ATOM     10  C5    C A   1     -11.054  10.044  67.839  1.00  0.00    -0.260 C  
ATOM     11  C6    C A   1     -11.020   9.410  69.009  1.00  0.00    -0.067 C  
ENDROOT
BRANCH   8  12
ATOM     12  C1*   C A   1     -11.587   9.296  71.446  1.00  0.00    -0.367 C  
ATOM     13  O4*   C A   1     -10.540   8.296  71.503  1.00  0.00    -0.215 OA 
ATOM     14  C4*   C A   1     -11.077   7.028  71.085  1.00  0.00    -0.258 C  
ATOM     15  C3*   C A   1     -12.569   7.069  71.382  1.00  0.00    -0.386 C  
ATOM     16  H2*   C A   1     -14.891   8.463  71.726  1.00  0.00     0.000 HD 
ATOM     17  C2*   C A   1     -12.838   8.492  71.862  1.00  0.00    -0.363 C  
ATOM     18  O3*   C A   1     -12.934   6.151  72.422  1.00  0.00    -0.497 OA 
ATOM     19  O2*   C A   1     -14.122   8.958  71.470  1.00  0.00    -0.380 OA 
ATOM     20  H3*   C A   1     -13.866   6.176  72.606  1.00  0.00     0.000 HD 
BRANCH  14  21
ATOM     21  C5*   C A   1     -10.799   6.829  69.591  1.00  0.00    -0.271 C  
ATOM     22  O5*   C A   1     -10.874   5.447  69.252  1.00  0.00    -0.221 OA 
ATOM     23  H5*   C A   1     -10.701   5.324  68.326  1.00  0.00     0.000 HD 
ENDBRANCH  14  21
ENDBRANCH   8  12
TORSDOF 2
ENDMDL
MODEL      103
REMARK 921   NORMALIZED FREE ENERGY PREDICTED BY IDOCK:   -3.69 KCAL/MOL
REMARK 922        TOTAL FREE ENERGY PREDICTED BY IDOCK:   -4.14 KCAL/MOL
REMARK 923 INTER-LIGAND FREE ENERGY PREDICTED BY IDOCK:   -4.58 KCAL/MOL
REMARK 924 INTRA-LIGAND FREE ENERGY PREDICTED BY IDOCK:    0.44 KCAL/MOL
REMARK 927      BINDING AFFINITY PREDICTED BY RF-SCORE:    0.00 PKD
ROOT
ATOM      1  N4    C A   1     -10.906   8.342  67.896  1.00  0.00    -0.481 NA 
ATOM      2  H42   C A   1     -10.731   7.526  67.311  1.00  0.00     0.000 HD 
ATOM      3  C4    C A   1     -10.775   9.607  67.405  1.00  0.00    -0.241 C  
ATOM      4  H41   C A   1     -11.186   8.242  68.872  1.00  0.00     0.000 HD 
ATOM      5  N3    C A   1     -10.419   9.734  66.167  1.00  0.00    -0.127 N  
ATOM      6  C2    C A   1     -10.285  10.984  65.611  1.00  0.00    -0.260 C  
ATOM      7  H3    C A   1     -10.238   8.904  65.603  1.00  0.00     0.000 HD 
ATOM      8  N1    C A   1     -10.375  12.112  66.454  1.00  0.00    -0.215 N  
ATOM      9  O2    C A   1     -10.080  11.094  64.403  1.00  0.00    -0.268 OA 
ATOM     10  C5    C A   1     -11.028  10.760  68.282  1.00  0.00    -0.307 C  
ATOM     11  C6    C A   1     -10.793  11.961  67.757  1.00  0.00    -0.211 C  
ENDROOT
BRANCH   8  12
ATOM     12  C1*   C A   1     -10.238  13.411  65.793  1.00  0.00    -0.295 C  
ATOM     13  O4*   C A   1      -8.953  13.971  66.160  1.00  0.00    -0.025 OA 
ATOM     14  C4*   C A   1      -9.132  14.875  67.266  1.00  0.00    -0.201 C  
ATOM     15  C3*   C A   1     -10.564  15.383  67.185  1.00  0.00    -0.305 C  
ATOM     16  H2*   C A   1     -13.167  15.055  66.429  1.00  0.00     0.000 HD 
ATOM     17  C2*   C A   1     -11.199  14.594  66.043  1.00  0.00    -0.342 C  
ATOM     18  O3*   C A   1     -10.620  16.781  66.870  1.00  0.00    -0.298 OA 
ATOM     19  O2*   C A   1     -12.576  14.328  66.274  1.00  0.00    -0.416 OA 
ATOM     20  H3*   C A   1     -11.514  17.098  66.820  1.00  0.00     0.000 HD 
BRANCH  14  21
ATOM     21  C5*   C A   1      -8.866  14.127  68.578  1.00  0.00    -0.173 C  
ATOM     22  O5*   C A   1      -8.460  15.039  69.595  1.00  0.00    -0.416 OA 
ATOM     23  H5*   C A   1      -8.296  14.575  70.407  1.00  0.00     0.000 HD 
ENDBRANCH  14  21
ENDBRANCH   8  12
TORSDOF 2
ENDMDL
MODEL      104
REMARK 921   NORMALIZED FREE ENERGY PREDICTED BY IDOCK:   -3.68 KCAL/MOL
REMARK 922        TOTAL FREE ENERGY PREDICTED BY IDOCK:   -4.13 KCAL/MOL
REMARK 923 INTER-LIGAND FREE ENERGY PREDICTED BY IDOCK:   -4.32 KCAL/MOL
REMARK 924 INTRA-LIGAND FREE ENERGY PREDICTED BY IDOCK:    0.19 KCAL/MOL
REMARK 927      BINDING AFFINITY PREDICTED BY RF-SCORE:    0.00 PKD
ROOT
ATOM      1  N4    C A   1     -10.243   3.243  74.038  1.00  0.00    -0.136 NA 
ATOM      2  H42   C A   1      -9.998   3.153  75.024  1.00  0.00     0.000 HD 
ATOM      3  C4    C A   1     -10.139   4.438  73.389  1.00  0.00    -0.153 C  
ATOM      4  H41   C A   1     -10.575   2.443  73.501  1.00  0.00     0.000 HD 
ATOM      5  N3    C A   1      -9.718   5.454  74.071  1.00  0.00    -0.152 N  
ATOM      6  C2    C A   1      -9.578   6.681  73.468  1.00  0.00    -0.173 C  
ATOM      7  H3    C A   1      -9.489   5.344  75.059  1.00  0.00     0.000 HD 
ATOM      8  N1    C A   1     -10.058   6.847  72.152  1.00  0.00    -0.181 N  
ATOM      9  O2    C A   1      -9.050   7.605  74.085  1.00  0.00    -0.246 OA 
ATOM     10  C5    C A   1     -10.509   4.531  71.969  1.00  0.00    -0.167 C  
ATOM     11  C6    C A   1     -10.466   5.748  71.429  1.00  0.00    -0.238 C  
ENDROOT
BRANCH   8  12
ATOM     12  C1*   C A   1      -9.862   8.174  71.566  1.00  0.00    -0.179 C  
ATOM     13  O4*   C A   1     -10.701   9.113  72.284  1.00  0.00    -0.195 OA 
ATOM     14  C4*   C A   1     -11.933   9.291  71.562  1.00  0.00    -0.368 C  
ATOM     15  C3*   C A   1     -11.628   8.991  70.101  1.00  0.00     0.011 C  
ATOM     16  H2*   C A   1     -10.151   7.717  68.190  1.00  0.00     0.000 HD 
ATOM     17  C2*   C A   1     -10.182   8.504  70.092  1.00  0.00    -0.195 C  
ATOM     18  O3*   C A   1     -11.729  10.164  69.281  1.00  0.00    -0.468 OA 
ATOM     19  O2*   C A   1      -9.955   7.515  69.097  1.00  0.00    -0.171 OA 
ATOM     20  H3*   C A   1     -11.538   9.976  68.370  1.00  0.00     0.000 HD 
BRANCH  14  21
ATOM     21  C5*   C A   1     -12.994   8.340  72.129  1.00  0.00    -0.299 C  
ATOM     22  O5*   C A   1     -13.761   8.996  73.134  1.00  0.00    -1.013 OA 
ATOM     23  H5*   C A   1     -14.418   8.407  73.486  1.00  0.00     0.000 HD 
ENDBRANCH  14  21
ENDBRANCH   8  12
TORSDOF 2
ENDMDL
MODEL      105
REMARK 921   NORMALIZED FREE ENERGY PREDICTED BY IDOCK:   -3.68 KCAL/MOL
REMARK 922        TOTAL FREE ENERGY PREDICTED BY IDOCK:   -4.13 KCAL/MOL
REMARK 923 INTER-LIGAND FREE ENERGY PREDICTED BY IDOCK:   -4.14 KCAL/MOL
REMARK 924 INTRA-LIGAND FREE ENERGY PREDICTED BY IDOCK:    0.01 KCAL/MOL
REMARK 927      BINDING AFFINITY PREDICTED BY RF-SCORE:    0.00 PKD
ROOT
ATOM      1  N4    C A   1     -11.508   5.926  73.179  1.00  0.00    -0.492 NA 
ATOM      2  H42   C A   1     -10.905   5.618  73.942  1.00  0.00     0.000 HD 
ATOM      3  C4    C A   1     -11.003   6.193  71.941  1.00  0.00    -0.263 C  
ATOM      4  H41   C A   1     -12.511   6.046  73.314  1.00  0.00     0.000 HD 
ATOM      5  N3    C A   1      -9.729   6.042  71.769  1.00  0.00    -0.151 N  
ATOM      6  C2    C A   1      -9.165   6.282  70.539  1.00  0.00    -0.158 C  
ATOM      7  H3    C A   1      -9.143   5.744  72.548  1.00  0.00     0.000 HD 
ATOM      8  N1    C A   1      -9.965   6.853  69.527  1.00  0.00    -0.162 N  
ATOM      9  O2    C A   1      -7.981   6.005  70.349  1.00  0.00    -0.103 OA 
ATOM     10  C5    C A   1     -11.902   6.644  70.868  1.00  0.00    -0.434 C  
ATOM     11  C6    C A   1     -11.324   6.970  69.714  1.00  0.00    -0.182 C  
ENDROOT
BRANCH   8  12
ATOM     12  C1*   C A   1      -9.303   7.067  68.239  1.00  0.00    -0.126 C  
ATOM     13  O4*   C A   1      -8.492   8.263  68.341  1.00  0.00    -0.127 OA 
ATOM     14  C4*   C A   1      -9.234   9.381  67.820  1.00  0.00    -0.128 C  
ATOM     15  C3*   C A   1     -10.226   8.814  66.815  1.00  0.00    -0.284 C  
ATOM     16  H2*   C A   1     -11.776   6.762  65.898  1.00  0.00     0.000 HD 
ATOM     17  C2*   C A   1     -10.073   7.299  66.920  1.00  0.00    -0.247 C  
ATOM     18  O3*   C A   1      -9.921   9.219  65.474  1.00  0.00    -0.440 OA 
ATOM     19  O2*   C A   1     -11.302   6.619  66.709  1.00  0.00    -0.270 OA 
ATOM     20  H3*   C A   1     -10.541   8.865  64.847  1.00  0.00     0.000 HD 
BRANCH  14  21
ATOM     21  C5*   C A   1      -9.941  10.100  68.975  1.00  0.00    -0.208 C  
ATOM     22  O5*   C A   1      -9.131  10.073  70.146  1.00  0.00    -0.361 OA 
ATOM     23  H5*   C A   1      -9.569  10.519  70.861  1.00  0.00     0.000 HD 
ENDBRANCH  14  21
ENDBRANCH   8  12
TORSDOF 2
ENDMDL
MODEL      106
REMARK 921   NORMALIZED FREE ENERGY PREDICTED BY IDOCK:   -3.67 KCAL/MOL
REMARK 922        TOTAL FREE ENERGY PREDICTED BY IDOCK:   -4.11 KCAL/MOL
REMARK 923 INTER-LIGAND FREE ENERGY PREDICTED BY IDOCK:   -5.18 KCAL/MOL
REMARK 924 INTRA-LIGAND FREE ENERGY PREDICTED BY IDOCK:    1.07 KCAL/MOL
REMARK 927      BINDING AFFINITY PREDICTED BY RF-SCORE:    0.00 PKD
ROOT
ATOM      1  N4    C A   1     -12.287  10.092  69.747  1.00  0.00    -0.502 NA 
ATOM      2  H42   C A   1     -12.532   9.820  70.699  1.00  0.00     0.000 HD 
ATOM      3  C4    C A   1     -11.983  11.386  69.437  1.00  0.00    -0.339 C  
ATOM      4  H41   C A   1     -12.259   9.408  68.992  1.00  0.00     0.000 HD 
ATOM      5  N3    C A   1     -12.018  12.254  70.396  1.00  0.00    -0.502 N  
ATOM      6  C2    C A   1     -11.707  13.570  70.148  1.00  0.00    -0.210 C  
ATOM      7  H3    C A   1     -12.277  11.962  71.338  1.00  0.00     0.000 HD 
ATOM      8  N1    C A   1     -11.518  13.980  68.811  1.00  0.00    -0.271 N  
ATOM      9  O2    C A   1     -11.610  14.359  71.086  1.00  0.00    -0.241 OA 
ATOM     10  C5    C A   1     -11.642  11.742  68.052  1.00  0.00    -0.386 C  
ATOM     11  C6    C A   1     -11.445  13.037  67.810  1.00  0.00    -0.316 C  
ENDROOT
BRANCH   8  12
ATOM     12  C1*   C A   1     -11.174  15.390  68.622  1.00  0.00    -0.308 C  
ATOM     13  O4*   C A   1     -11.750  15.831  67.367  1.00  0.00    -0.025 OA 
ATOM     14  C4*   C A   1     -10.751  15.745  66.335  1.00  0.00    -0.277 C  
ATOM     15  C3*   C A   1      -9.401  15.875  67.024  1.00  0.00    -0.215 C  
ATOM     16  H2*   C A   1      -7.815  15.584  69.227  1.00  0.00     0.000 HD 
ATOM     17  C2*   C A   1      -9.720  15.900  68.516  1.00  0.00    -0.211 C  
ATOM     18  O3*   C A   1      -8.734  17.095  66.671  1.00  0.00    -0.224 OA 
ATOM     19  O2*   C A   1      -8.709  15.271  69.292  1.00  0.00    -0.222 OA 
ATOM     20  H3*   C A   1      -7.891  17.176  67.101  1.00  0.00     0.000 HD 
BRANCH  14  21
ATOM     21  C5*   C A   1     -10.892  14.404  65.605  1.00  0.00    -0.317 C  
ATOM     22  O5*   C A   1     -11.059  14.615  64.207  1.00  0.00    -0.616 OA 
ATOM     23  H5*   C A   1     -11.146  13.784  63.755  1.00  0.00     0.000 HD 
ENDBRANCH  14  21
ENDBRANCH   8  12
TORSDOF 2
ENDMDL
MODEL      107
REMARK 921   NORMALIZED FREE ENERGY PREDICTED BY IDOCK:   -3.67 KCAL/MOL
REMARK 922        TOTAL FREE ENERGY PREDICTED BY IDOCK:   -4.11 KCAL/MOL
REMARK 923 INTER-LIGAND FREE ENERGY PREDICTED BY IDOCK:   -4.51 KCAL/MOL
REMARK 924 INTRA-LIGAND FREE ENERGY PREDICTED BY IDOCK:    0.40 KCAL/MOL
REMARK 927      BINDING AFFINITY PREDICTED BY RF-SCORE:    0.00 PKD
ROOT
ATOM      1  N4    C A   1     -11.430  16.045  71.258  1.00  0.00    -0.425 NA 
ATOM      2  H42   C A   1     -11.651  15.795  72.222  1.00  0.00     0.000 HD 
ATOM      3  C4    C A   1     -11.592  15.151  70.240  1.00  0.00    -0.289 C  
ATOM      4  H41   C A   1     -11.080  16.972  71.019  1.00  0.00     0.000 HD 
ATOM      5  N3    C A   1     -12.036  13.974  70.543  1.00  0.00    -0.337 N  
ATOM      6  C2    C A   1     -12.234  13.036  69.558  1.00  0.00    -0.140 C  
ATOM      7  H3    C A   1     -12.240  13.742  71.515  1.00  0.00     0.000 HD 
ATOM      8  N1    C A   1     -11.788  13.323  68.250  1.00  0.00    -0.351 N  
ATOM      9  O2    C A   1     -12.783  11.971  69.834  1.00  0.00     0.113 OA 
ATOM     10  C5    C A   1     -11.256  15.546  68.864  1.00  0.00    -0.306 C  
ATOM     11  C6    C A   1     -11.355  14.593  67.939  1.00  0.00    -0.315 C  
ENDROOT
BRANCH   8  12
ATOM     12  C1*   C A   1     -12.046  12.287  67.249  1.00  0.00     0.053 C  
ATOM     13  O4*   C A   1     -11.625  11.013  67.799  1.00  0.00    -0.510 OA 
ATOM     14  C4*   C A   1     -10.293  10.720  67.342  1.00  0.00    -0.211 C  
ATOM     15  C3*   C A   1     -10.115  11.454  66.021  1.00  0.00    -0.234 C  
ATOM     16  H2*   C A   1     -10.740  13.509  64.335  1.00  0.00     0.000 HD 
ATOM     17  C2*   C A   1     -11.388  12.278  65.852  1.00  0.00    -0.360 C  
ATOM     18  O3*   C A   1      -9.999  10.546  64.916  1.00  0.00    -0.289 OA 
ATOM     19  O2*   C A   1     -11.145  13.514  65.195  1.00  0.00    -0.301 OA 
ATOM     20  H3*   C A   1      -9.888  11.004  64.091  1.00  0.00     0.000 HD 
BRANCH  14  21
ATOM     21  C5*   C A   1      -9.282  11.191  68.395  1.00  0.00    -0.175 C  
ATOM     22  O5*   C A   1      -9.703  10.796  69.698  1.00  0.00    -0.434 OA 
ATOM     23  H5*   C A   1      -9.077  11.087  70.350  1.00  0.00     0.000 HD 
ENDBRANCH  14  21
ENDBRANCH   8  12
TORSDOF 2
ENDMDL
MODEL      108
REMARK 921   NORMALIZED FREE ENERGY PREDICTED BY IDOCK:   -3.66 KCAL/MOL
REMARK 922        TOTAL FREE ENERGY PREDICTED BY IDOCK:   -4.10 KCAL/MOL
REMARK 923 INTER-LIGAND FREE ENERGY PREDICTED BY IDOCK:   -4.21 KCAL/MOL
REMARK 924 INTRA-LIGAND FREE ENERGY PREDICTED BY IDOCK:    0.11 KCAL/MOL
REMARK 927      BINDING AFFINITY PREDICTED BY RF-SCORE:    0.00 PKD
ROOT
ATOM      1  N4    C A   1      -7.191   7.566  69.369  1.00  0.00    -0.080 NA 
ATOM      2  H42   C A   1      -6.915   6.858  68.689  1.00  0.00     0.000 HD 
ATOM      3  C4    C A   1      -8.283   8.357  69.162  1.00  0.00    -0.120 C  
ATOM      4  H41   C A   1      -6.662   7.708  70.228  1.00  0.00     0.000 HD 
ATOM      5  N3    C A   1      -8.954   8.177  68.071  1.00  0.00    -0.134 N  
ATOM      6  C2    C A   1     -10.072   8.935  67.815  1.00  0.00    -0.210 C  
ATOM      7  H3    C A   1      -8.654   7.471  67.400  1.00  0.00     0.000 HD 
ATOM      8  N1    C A   1     -10.369  10.014  68.674  1.00  0.00    -0.181 N  
ATOM      9  O2    C A   1     -10.780   8.666  66.846  1.00  0.00    -0.252 OA 
ATOM     10  C5    C A   1      -8.645   9.373  70.162  1.00  0.00    -0.233 C  
ATOM     11  C6    C A   1      -9.668  10.166  69.849  1.00  0.00    -0.150 C  
ENDROOT
BRANCH   8  12
ATOM     12  C1*   C A   1     -11.582  10.768  68.351  1.00  0.00    -0.239 C  
ATOM     13  O4*   C A   1     -11.358  11.473  67.105  1.00  0.00    -0.328 OA 
ATOM     14  C4*   C A   1     -10.943  12.820  67.394  1.00  0.00    -0.253 C  
ATOM     15  C3*   C A   1     -11.517  13.167  68.760  1.00  0.00    -0.307 C  
ATOM     16  H2*   C A   1     -12.408  12.417  71.230  1.00  0.00     0.000 HD 
ATOM     17  C2*   C A   1     -12.158  11.876  69.260  1.00  0.00    -0.210 C  
ATOM     18  O3*   C A   1     -12.525  14.183  68.675  1.00  0.00    -0.537 OA 
ATOM     19  O2*   C A   1     -12.054  11.736  70.670  1.00  0.00    -0.368 OA 
ATOM     20  H3*   C A   1     -12.883  14.400  69.528  1.00  0.00     0.000 HD 
BRANCH  14  21
ATOM     21  C5*   C A   1      -9.411  12.890  67.386  1.00  0.00    -0.198 C  
ATOM     22  O5*   C A   1      -8.894  12.287  66.204  1.00  0.00    -0.404 OA 
ATOM     23  H5*   C A   1      -7.945  12.330  66.198  1.00  0.00     0.000 HD 
ENDBRANCH  14  21
ENDBRANCH   8  12
TORSDOF 2
ENDMDL
MODEL      109
REMARK 921   NORMALIZED FREE ENERGY PREDICTED BY IDOCK:   -3.65 KCAL/MOL
REMARK 922        TOTAL FREE ENERGY PREDICTED BY IDOCK:   -4.08 KCAL/MOL
REMARK 923 INTER-LIGAND FREE ENERGY PREDICTED BY IDOCK:   -4.14 KCAL/MOL
REMARK 924 INTRA-LIGAND FREE ENERGY PREDICTED BY IDOCK:    0.05 KCAL/MOL
REMARK 927      BINDING AFFINITY PREDICTED BY RF-SCORE:    0.00 PKD
ROOT
ATOM      1  N4    C A   1     -10.582  13.384  66.701  1.00  0.00    -0.280 NA 
ATOM      2  H42   C A   1      -9.780  13.897  66.335  1.00  0.00     0.000 HD 
ATOM      3  C4    C A   1     -10.423  12.367  67.597  1.00  0.00    -0.216 C  
ATOM      4  H41   C A   1     -11.532  13.611  66.410  1.00  0.00     0.000 HD 
ATOM      5  N3    C A   1      -9.217  12.078  67.965  1.00  0.00    -0.186 N  
ATOM      6  C2    C A   1      -8.995  11.074  68.877  1.00  0.00    -0.115 C  
ATOM      7  H3    C A   1      -8.429  12.597  67.578  1.00  0.00     0.000 HD 
ATOM      8  N1    C A   1     -10.082  10.262  69.267  1.00  0.00    -0.215 N  
ATOM      9  O2    C A   1      -7.863  10.896  69.323  1.00  0.00    -0.144 OA 
ATOM     10  C5    C A   1     -11.603  11.645  68.095  1.00  0.00    -0.389 C  
ATOM     11  C6    C A   1     -11.362  10.609  68.897  1.00  0.00    -0.274 C  
ENDROOT
BRANCH   8  12
ATOM     12  C1*   C A   1      -9.777   9.223  70.252  1.00  0.00    -0.232 C  
ATOM     13  O4*   C A   1      -8.988   8.198  69.598  1.00  0.00    -0.151 OA 
ATOM     14  C4*   C A   1      -9.859   7.135  69.170  1.00  0.00    -0.160 C  
ATOM     15  C3*   C A   1     -11.066   7.162  70.097  1.00  0.00    -0.272 C  
ATOM     16  H2*   C A   1     -12.762   8.510  71.759  1.00  0.00     0.000 HD 
ATOM     17  C2*   C A   1     -10.863   8.395  70.973  1.00  0.00    -0.238 C  
ATOM     18  O3*   C A   1     -11.123   6.001  70.936  1.00  0.00    -0.291 OA 
ATOM     19  O2*   C A   1     -12.093   9.019  71.315  1.00  0.00    -0.295 OA 
ATOM     20  H3*   C A   1     -11.876   6.018  71.515  1.00  0.00     0.000 HD 
BRANCH  14  21
ATOM     21  C5*   C A   1     -10.259   7.367  67.708  1.00  0.00    -0.196 C  
ATOM     22  O5*   C A   1     -11.617   6.991  67.500  1.00  0.00    -0.481 OA 
ATOM     23  H5*   C A   1     -11.865   7.134  66.594  1.00  0.00     0.000 HD 
ENDBRANCH  14  21
ENDBRANCH   8  12
TORSDOF 2
ENDMDL
MODEL      110
REMARK 921   NORMALIZED FREE ENERGY PREDICTED BY IDOCK:   -3.58 KCAL/MOL
REMARK 922        TOTAL FREE ENERGY PREDICTED BY IDOCK:   -4.01 KCAL/MOL
REMARK 923 INTER-LIGAND FREE ENERGY PREDICTED BY IDOCK:   -4.13 KCAL/MOL
REMARK 924 INTRA-LIGAND FREE ENERGY PREDICTED BY IDOCK:    0.12 KCAL/MOL
REMARK 927      BINDING AFFINITY PREDICTED BY RF-SCORE:    0.00 PKD
ROOT
ATOM      1  N4    C A   1     -12.944  13.917  65.053  1.00  0.00    -0.752 NA 
ATOM      2  H42   C A   1     -13.355  14.718  65.531  1.00  0.00     0.000 HD 
ATOM      3  C4    C A   1     -12.212  12.987  65.731  1.00  0.00    -0.453 C  
ATOM      4  H41   C A   1     -13.064  13.781  64.049  1.00  0.00     0.000 HD 
ATOM      5  N3    C A   1     -12.058  13.160  67.004  1.00  0.00    -0.352 N  
ATOM      6  C2    C A   1     -11.343  12.249  67.744  1.00  0.00    -0.301 C  
ATOM      7  H3    C A   1     -12.468  13.975  67.460  1.00  0.00     0.000 HD 
ATOM      8  N1    C A   1     -10.646  11.226  67.067  1.00  0.00    -0.234 N  
ATOM      9  O2    C A   1     -11.317  12.347  68.970  1.00  0.00    -0.249 OA 
ATOM     10  C5    C A   1     -11.628  11.849  65.006  1.00  0.00    -0.277 C  
ATOM     11  C6    C A   1     -10.853  11.034  65.719  1.00  0.00    -0.097 C  
ENDROOT
BRANCH   8  12
ATOM     12  C1*   C A   1      -9.919  10.281  67.917  1.00  0.00    -0.164 C  
ATOM     13  O4*   C A   1      -8.615  10.845  68.205  1.00  0.00    -0.123 OA 
ATOM     14  C4*   C A   1      -7.655  10.306  67.278  1.00  0.00    -0.095 C  
ATOM     15  C3*   C A   1      -8.189   8.951  66.837  1.00  0.00    -0.112 C  
ATOM     16  H2*   C A   1     -10.271   7.243  66.390  1.00  0.00     0.000 HD 
ATOM     17  C2*   C A   1      -9.569   8.843  67.478  1.00  0.00    -0.145 C  
ATOM     18  O3*   C A   1      -7.371   7.873  67.313  1.00  0.00    -0.088 OA 
ATOM     19  O2*   C A   1     -10.486   8.128  66.661  1.00  0.00    -0.303 OA 
ATOM     20  H3*   C A   1      -7.704   7.027  67.038  1.00  0.00     0.000 HD 
BRANCH  14  21
ATOM     21  C5*   C A   1      -7.499  11.269  66.095  1.00  0.00     0.045 C  
ATOM     22  O5*   C A   1      -6.295  12.019  66.221  1.00  0.00    -0.434 OA 
ATOM     23  H5*   C A   1      -6.199  12.616  65.488  1.00  0.00     0.000 HD 
ENDBRANCH  14  21
ENDBRANCH   8  12
TORSDOF 2
ENDMDL
MODEL      111
REMARK 921   NORMALIZED FREE ENERGY PREDICTED BY IDOCK:   -3.58 KCAL/MOL
REMARK 922        TOTAL FREE ENERGY PREDICTED BY IDOCK:   -4.01 KCAL/MOL
REMARK 923 INTER-LIGAND FREE ENERGY PREDICTED BY IDOCK:   -4.02 KCAL/MOL
REMARK 924 INTRA-LIGAND FREE ENERGY PREDICTED BY IDOCK:    0.01 KCAL/MOL
REMARK 927      BINDING AFFINITY PREDICTED BY RF-SCORE:    0.00 PKD
ROOT
ATOM      1  N4    C A   1     -14.057   9.083  71.048  1.00  0.00    -0.531 NA 
ATOM      2  H42   C A   1     -14.461   9.526  70.223  1.00  0.00     0.000 HD 
ATOM      3  C4    C A   1     -12.706   8.981  71.206  1.00  0.00    -0.262 C  
ATOM      4  H41   C A   1     -14.648   8.699  71.784  1.00  0.00     0.000 HD 
ATOM      5  N3    C A   1     -11.956   9.468  70.271  1.00  0.00    -0.463 N  
ATOM      6  C2    C A   1     -10.587   9.408  70.382  1.00  0.00    -0.261 C  
ATOM      7  H3    C A   1     -12.381   9.897  69.450  1.00  0.00     0.000 HD 
ATOM      8  N1    C A   1     -10.026   8.663  71.441  1.00  0.00    -0.228 N  
ATOM      9  O2    C A   1      -9.884   9.992  69.559  1.00  0.00    -0.205 OA 
ATOM     10  C5    C A   1     -12.160   8.327  72.405  1.00  0.00    -0.430 C  
ATOM     11  C6    C A   1     -10.837   8.186  72.447  1.00  0.00    -0.339 C  
ENDROOT
BRANCH   8  12
ATOM     12  C1*   C A   1      -8.563   8.656  71.508  1.00  0.00    -0.195 C  
ATOM     13  O4*   C A   1      -8.069   7.753  70.487  1.00  0.00    -0.100 OA 
ATOM     14  C4*   C A   1      -7.817   6.466  71.079  1.00  0.00    -0.110 C  
ATOM     15  C3*   C A   1      -7.529   6.714  72.553  1.00  0.00    -0.089 C  
ATOM     16  H2*   C A   1      -7.817   8.216  74.815  1.00  0.00     0.000 HD 
ATOM     17  C2*   C A   1      -7.775   8.206  72.757  1.00  0.00    -0.136 C  
ATOM     18  O3*   C A   1      -6.167   6.417  72.890  1.00  0.00    -0.053 OA 
ATOM     19  O2*   C A   1      -8.302   8.492  74.046  1.00  0.00    -0.329 OA 
ATOM     20  H3*   C A   1      -5.988   6.572  73.810  1.00  0.00     0.000 HD 
BRANCH  14  21
ATOM     21  C5*   C A   1      -9.045   5.569  70.882  1.00  0.00    -0.143 C  
ATOM     22  O5*   C A   1      -9.635   5.809  69.608  1.00  0.00    -0.144 OA 
ATOM     23  H5*   C A   1     -10.395   5.253  69.486  1.00  0.00     0.000 HD 
ENDBRANCH  14  21
ENDBRANCH   8  12
TORSDOF 2
ENDMDL
MODEL      112
REMARK 921   NORMALIZED FREE ENERGY PREDICTED BY IDOCK:   -3.51 KCAL/MOL
REMARK 922        TOTAL FREE ENERGY PREDICTED BY IDOCK:   -3.94 KCAL/MOL
REMARK 923 INTER-LIGAND FREE ENERGY PREDICTED BY IDOCK:   -3.93 KCAL/MOL
REMARK 924 INTRA-LIGAND FREE ENERGY PREDICTED BY IDOCK:   -0.01 KCAL/MOL
REMARK 927      BINDING AFFINITY PREDICTED BY RF-SCORE:    0.00 PKD
ROOT
ATOM      1  N4    C A   1     -12.319  14.564  66.883  1.00  0.00    -0.509 NA 
ATOM      2  H42   C A   1     -12.026  15.480  66.545  1.00  0.00     0.000 HD 
ATOM      3  C4    C A   1     -11.414  13.661  67.358  1.00  0.00    -0.336 C  
ATOM      4  H41   C A   1     -13.301  14.288  66.878  1.00  0.00     0.000 HD 
ATOM      5  N3    C A   1     -10.168  14.011  67.364  1.00  0.00    -0.247 N  
ATOM      6  C2    C A   1      -9.211  13.150  67.845  1.00  0.00    -0.207 C  
ATOM      7  H3    C A   1      -9.895  14.928  67.011  1.00  0.00     0.000 HD 
ATOM      8  N1    C A   1      -9.590  11.830  68.170  1.00  0.00    -0.187 N  
ATOM      9  O2    C A   1      -8.051  13.539  67.974  1.00  0.00    -0.131 OA 
ATOM     10  C5    C A   1     -11.874  12.347  67.830  1.00  0.00    -0.362 C  
ATOM     11  C6    C A   1     -10.924  11.488  68.195  1.00  0.00    -0.228 C  
ENDROOT
BRANCH   8  12
ATOM     12  C1*   C A   1      -8.525  10.972  68.691  1.00  0.00    -0.157 C  
ATOM     13  O4*   C A   1      -7.729  10.510  67.571  1.00  0.00    -0.097 OA 
ATOM     14  C4*   C A   1      -8.190   9.206  67.173  1.00  0.00    -0.113 C  
ATOM     15  C3*   C A   1      -8.819   8.571  68.405  1.00  0.00    -0.139 C  
ATOM     16  H2*   C A   1     -10.083   8.793  70.815  1.00  0.00     0.000 HD 
ATOM     17  C2*   C A   1      -8.794   9.665  69.469  1.00  0.00    -0.190 C  
ATOM     18  O3*   C A   1      -8.060   7.449  68.876  1.00  0.00    -0.123 OA 
ATOM     19  O2*   C A   1      -9.917   9.597  70.336  1.00  0.00    -0.252 OA 
ATOM     20  H3*   C A   1      -8.452   7.053  69.645  1.00  0.00     0.000 HD 
BRANCH  14  21
ATOM     21  C5*   C A   1      -9.203   9.355  66.031  1.00  0.00    -0.200 C  
ATOM     22  O5*   C A   1     -10.282   8.441  66.201  1.00  0.00    -0.449 OA 
ATOM     23  H5*   C A   1     -10.908   8.534  65.494  1.00  0.00     0.000 HD 
ENDBRANCH  14  21
ENDBRANCH   8  12
TORSDOF 2
ENDMDL
MODEL      113
REMARK 921   NORMALIZED FREE ENERGY PREDICTED BY IDOCK:   -3.50 KCAL/MOL
REMARK 922        TOTAL FREE ENERGY PREDICTED BY IDOCK:   -3.92 KCAL/MOL
REMARK 923 INTER-LIGAND FREE ENERGY PREDICTED BY IDOCK:   -3.97 KCAL/MOL
REMARK 924 INTRA-LIGAND FREE ENERGY PREDICTED BY IDOCK:    0.05 KCAL/MOL
REMARK 927      BINDING AFFINITY PREDICTED BY RF-SCORE:    0.00 PKD
ROOT
ATOM      1  N4    C A   1     -10.884   4.706  72.332  1.00  0.00    -0.118 NA 
ATOM      2  H42   C A   1     -10.467   4.450  73.227  1.00  0.00     0.000 HD 
ATOM      3  C4    C A   1     -10.681   5.939  71.783  1.00  0.00    -0.245 C  
ATOM      4  H41   C A   1     -11.468   4.051  71.814  1.00  0.00     0.000 HD 
ATOM      5  N3    C A   1      -9.940   6.771  72.441  1.00  0.00    -0.169 N  
ATOM      6  C2    C A   1      -9.688   8.023  71.932  1.00  0.00    -0.190 C  
ATOM      7  H3    C A   1      -9.543   6.498  73.339  1.00  0.00     0.000 HD 
ATOM      8  N1    C A   1     -10.383   8.436  70.775  1.00  0.00    -0.192 N  
ATOM      9  O2    C A   1      -8.876   8.756  72.494  1.00  0.00    -0.402 OA 
ATOM     10  C5    C A   1     -11.306   6.275  70.495  1.00  0.00    -0.428 C  
ATOM     11  C6    C A   1     -11.135   7.524  70.068  1.00  0.00    -0.204 C  
ENDROOT
BRANCH   8  12
ATOM     12  C1*   C A   1     -10.054   9.773  70.279  1.00  0.00    -0.266 C  
ATOM     13  O4*   C A   1     -10.798  10.740  71.061  1.00  0.00     0.521 OA 
ATOM     14  C4*   C A   1     -12.003  11.088  70.356  1.00  0.00    -0.368 C  
ATOM     15  C3*   C A   1     -11.724  10.858  68.878  1.00  0.00    -0.306 C  
ATOM     16  H2*   C A   1     -10.374   9.575  66.881  1.00  0.00     0.000 HD 
ATOM     17  C2*   C A   1     -10.333  10.231  68.831  1.00  0.00    -0.204 C  
ATOM     18  O3*   C A   1     -11.705  12.087  68.138  1.00  0.00    -0.320 OA 
ATOM     19  O2*   C A   1     -10.202   9.293  67.772  1.00  0.00    -0.191 OA 
ATOM     20  H3*   C A   1     -11.531  11.943  67.216  1.00  0.00     0.000 HD 
BRANCH  14  21
ATOM     21  C5*   C A   1     -13.155  10.212  70.861  1.00  0.00    -0.335 C  
ATOM     22  O5*   C A   1     -13.246  10.282  72.281  1.00  0.00    -0.554 OA 
ATOM     23  H5*   C A   1     -13.959   9.739  72.594  1.00  0.00     0.000 HD 
ENDBRANCH  14  21
ENDBRANCH   8  12
TORSDOF 2
ENDMDL
MODEL      114
REMARK 921   NORMALIZED FREE ENERGY PREDICTED BY IDOCK:   -3.49 KCAL/MOL
REMARK 922        TOTAL FREE ENERGY PREDICTED BY IDOCK:   -3.91 KCAL/MOL
REMARK 923 INTER-LIGAND FREE ENERGY PREDICTED BY IDOCK:   -4.08 KCAL/MOL
REMARK 924 INTRA-LIGAND FREE ENERGY PREDICTED BY IDOCK:    0.16 KCAL/MOL
REMARK 927      BINDING AFFINITY PREDICTED BY RF-SCORE:    0.00 PKD
ROOT
ATOM      1  N4    C A   1     -11.845  10.509  68.430  1.00  0.00    -0.769 NA 
ATOM      2  H42   C A   1     -12.217  11.268  67.860  1.00  0.00     0.000 HD 
ATOM      3  C4    C A   1     -10.916   9.641  67.936  1.00  0.00    -0.145 C  
ATOM      4  H41   C A   1     -12.155  10.370  69.392  1.00  0.00     0.000 HD 
ATOM      5  N3    C A   1     -10.524   9.818  66.715  1.00  0.00    -0.215 N  
ATOM      6  C2    C A   1      -9.578   8.984  66.167  1.00  0.00    -0.272 C  
ATOM      7  H3    C A   1     -10.917  10.576  66.159  1.00  0.00     0.000 HD 
ATOM      8  N1    C A   1      -9.176   7.845  66.896  1.00  0.00    -0.147 N  
ATOM      9  O2    C A   1      -9.112   9.239  65.057  1.00  0.00    -0.217 OA 
ATOM     10  C5    C A   1     -10.410   8.554  68.786  1.00  0.00    -0.233 C  
ATOM     11  C6    C A   1      -9.573   7.696  68.206  1.00  0.00    -0.153 C  
ENDROOT
BRANCH   8  12
ATOM     12  C1*   C A   1      -8.155   7.011  66.259  1.00  0.00    -0.115 C  
ATOM     13  O4*   C A   1      -8.761   6.343  65.124  1.00  0.00    -0.064 OA 
ATOM     14  C4*   C A   1      -9.180   5.025  65.522  1.00  0.00    -0.151 C  
ATOM     15  C3*   C A   1      -8.284   4.616  66.683  1.00  0.00    -0.106 C  
ATOM     16  H2*   C A   1      -6.703   5.262  68.812  1.00  0.00     0.000 HD 
ATOM     17  C2*   C A   1      -7.438   5.850  66.982  1.00  0.00    -0.084 C  
ATOM     18  O3*   C A   1      -7.414   3.531  66.331  1.00  0.00    -0.074 OA 
ATOM     19  O2*   C A   1      -7.144   5.976  68.367  1.00  0.00    -0.076 OA 
ATOM     20  H3*   C A   1      -6.855   3.276  67.055  1.00  0.00     0.000 HD 
BRANCH  14  21
ATOM     21  C5*   C A   1     -10.657   5.066  65.931  1.00  0.00    -0.183 C  
ATOM     22  O5*   C A   1     -11.463   4.428  64.944  1.00  0.00    -1.070 OA 
ATOM     23  H5*   C A   1     -12.378   4.453  65.197  1.00  0.00     0.000 HD 
ENDBRANCH  14  21
ENDBRANCH   8  12
TORSDOF 2
ENDMDL
MODEL      115
REMARK 921   NORMALIZED FREE ENERGY PREDICTED BY IDOCK:   -3.49 KCAL/MOL
REMARK 922        TOTAL FREE ENERGY PREDICTED BY IDOCK:   -3.91 KCAL/MOL
REMARK 923 INTER-LIGAND FREE ENERGY PREDICTED BY IDOCK:   -4.09 KCAL/MOL
REMARK 924 INTRA-LIGAND FREE ENERGY PREDICTED BY IDOCK:    0.18 KCAL/MOL
REMARK 927      BINDING AFFINITY PREDICTED BY RF-SCORE:    0.00 PKD
ROOT
ATOM      1  N4    C A   1     -10.945   5.426  65.725  1.00  0.00    -0.684 NA 
ATOM      2  H42   C A   1     -11.925   5.397  65.444  1.00  0.00     0.000 HD 
ATOM      3  C4    C A   1     -10.580   5.798  66.986  1.00  0.00    -0.300 C  
ATOM      4  H41   C A   1     -10.201   5.179  65.073  1.00  0.00     0.000 HD 
ATOM      5  N3    C A   1     -11.525   6.112  67.813  1.00  0.00    -0.394 N  
ATOM      6  C2    C A   1     -11.220   6.480  69.102  1.00  0.00    -0.303 C  
ATOM      7  H3    C A   1     -12.497   6.086  67.508  1.00  0.00     0.000 HD 
ATOM      8  N1    C A   1      -9.865   6.670  69.449  1.00  0.00    -0.150 N  
ATOM      9  O2    C A   1     -12.125   6.644  69.918  1.00  0.00    -0.227 OA 
ATOM     10  C5    C A   1      -9.157   5.836  67.351  1.00  0.00    -0.110 C  
ATOM     11  C6    C A   1      -8.875   6.294  68.569  1.00  0.00    -0.114 C  
ENDROOT
BRANCH   8  12
ATOM     12  C1*   C A   1      -9.613   7.046  70.841  1.00  0.00    -0.167 C  
ATOM     13  O4*   C A   1     -10.117   8.390  71.044  1.00  0.00    -0.186 OA 
ATOM     14  C4*   C A   1      -9.034   9.326  70.896  1.00  0.00    -0.209 C  
ATOM     15  C3*   C A   1      -7.757   8.572  71.239  1.00  0.00    -0.108 C  
ATOM     16  H2*   C A   1      -6.337   6.246  71.407  1.00  0.00     0.000 HD 
ATOM     17  C2*   C A   1      -8.197   7.126  71.452  1.00  0.00    -0.107 C  
ATOM     18  O3*   C A   1      -7.157   9.058  72.447  1.00  0.00    -0.326 OA 
ATOM     19  O2*   C A   1      -7.208   6.197  71.031  1.00  0.00    -0.071 OA 
ATOM     20  H3*   C A   1      -6.360   8.587  72.662  1.00  0.00     0.000 HD 
BRANCH  14  21
ATOM     21  C5*   C A   1      -9.015   9.852  69.456  1.00  0.00    -0.211 C  
ATOM     22  O5*   C A   1      -9.674  11.113  69.380  1.00  0.00    -0.420 OA 
ATOM     23  H5*   C A   1      -9.662  11.439  68.488  1.00  0.00     0.000 HD 
ENDBRANCH  14  21
ENDBRANCH   8  12
TORSDOF 2
ENDMDL
MODEL      116
REMARK 921   NORMALIZED FREE ENERGY PREDICTED BY IDOCK:   -3.49 KCAL/MOL
REMARK 922        TOTAL FREE ENERGY PREDICTED BY IDOCK:   -3.91 KCAL/MOL
REMARK 923 INTER-LIGAND FREE ENERGY PREDICTED BY IDOCK:   -3.93 KCAL/MOL
REMARK 924 INTRA-LIGAND FREE ENERGY PREDICTED BY IDOCK:    0.03 KCAL/MOL
REMARK 927      BINDING AFFINITY PREDICTED BY RF-SCORE:    0.00 PKD
ROOT
ATOM      1  N4    C A   1      -7.709  11.373  66.718  1.00  0.00    -0.154 NA 
ATOM      2  H42   C A   1      -6.694  11.454  66.665  1.00  0.00     0.000 HD 
ATOM      3  C4    C A   1      -8.321  10.840  67.815  1.00  0.00    -0.113 C  
ATOM      4  H41   C A   1      -8.305  11.688  65.953  1.00  0.00     0.000 HD 
ATOM      5  N3    C A   1      -7.565  10.441  68.786  1.00  0.00    -0.090 N  
ATOM      6  C2    C A   1      -8.125   9.909  69.923  1.00  0.00    -0.188 C  
ATOM      7  H3    C A   1      -6.552  10.521  68.707  1.00  0.00     0.000 HD 
ATOM      8  N1    C A   1      -9.513   9.654  69.938  1.00  0.00    -0.217 N  
ATOM      9  O2    C A   1      -7.411   9.659  70.893  1.00  0.00    -0.302 OA 
ATOM     10  C5    C A   1      -9.787  10.733  67.850  1.00  0.00    -0.185 C  
ATOM     11  C6    C A   1     -10.305  10.121  68.914  1.00  0.00    -0.206 C  
ENDROOT
BRANCH   8  12
ATOM     12  C1*   C A   1     -10.044   9.102  71.186  1.00  0.00    -0.314 C  
ATOM     13  O4*   C A   1      -9.662   7.706  71.261  1.00  0.00    -0.161 OA 
ATOM     14  C4*   C A   1     -10.747   6.895  70.776  1.00  0.00    -0.233 C  
ATOM     15  C3*   C A   1     -12.022   7.694  71.001  1.00  0.00    -0.273 C  
ATOM     16  H2*   C A   1     -13.318  10.080  71.279  1.00  0.00     0.000 HD 
ATOM     17  C2*   C A   1     -11.552   9.051  71.515  1.00  0.00    -0.343 C  
ATOM     18  O3*   C A   1     -12.865   7.089  71.991  1.00  0.00    -0.490 OA 
ATOM     19  O2*   C A   1     -12.390  10.111  71.077  1.00  0.00    -0.316 OA 
ATOM     20  H3*   C A   1     -13.661   7.588  72.132  1.00  0.00     0.000 HD 
BRANCH  14  21
ATOM     21  C5*   C A   1     -10.522   6.586  69.291  1.00  0.00    -0.219 C  
ATOM     22  O5*   C A   1      -9.131   6.455  69.016  1.00  0.00    -0.131 OA 
ATOM     23  H5*   C A   1      -8.992   6.265  68.096  1.00  0.00     0.000 HD 
ENDBRANCH  14  21
ENDBRANCH   8  12
TORSDOF 2
ENDMDL
MODEL      117
REMARK 921   NORMALIZED FREE ENERGY PREDICTED BY IDOCK:   -3.47 KCAL/MOL
REMARK 922        TOTAL FREE ENERGY PREDICTED BY IDOCK:   -3.89 KCAL/MOL
REMARK 923 INTER-LIGAND FREE ENERGY PREDICTED BY IDOCK:   -3.89 KCAL/MOL
REMARK 924 INTRA-LIGAND FREE ENERGY PREDICTED BY IDOCK:   -0.00 KCAL/MOL
REMARK 927      BINDING AFFINITY PREDICTED BY RF-SCORE:    0.00 PKD
ROOT
ATOM      1  N4    C A   1     -13.340   8.502  71.154  1.00  0.00    -0.536 NA 
ATOM      2  H42   C A   1     -14.257   8.302  71.554  1.00  0.00     0.000 HD 
ATOM      3  C4    C A   1     -12.255   7.730  71.451  1.00  0.00    -0.319 C  
ATOM      4  H41   C A   1     -13.201   9.285  70.517  1.00  0.00     0.000 HD 
ATOM      5  N3    C A   1     -12.432   6.736  72.260  1.00  0.00    -0.539 N  
ATOM      6  C2    C A   1     -11.379   5.914  72.585  1.00  0.00    -0.292 C  
ATOM      7  H3    C A   1     -13.355   6.562  72.657  1.00  0.00     0.000 HD 
ATOM      8  N1    C A   1     -10.083   6.274  72.159  1.00  0.00    -0.181 N  
ATOM      9  O2    C A   1     -11.584   4.896  73.243  1.00  0.00    -0.336 OA 
ATOM     10  C5    C A   1     -10.948   8.054  70.861  1.00  0.00    -0.260 C  
ATOM     11  C6    C A   1      -9.920   7.311  71.268  1.00  0.00    -0.188 C  
ENDROOT
BRANCH   8  12
ATOM     12  C1*   C A   1      -9.013   5.346  72.527  1.00  0.00    -0.133 C  
ATOM     13  O4*   C A   1      -8.754   5.494  73.945  1.00  0.00    -0.121 OA 
ATOM     14  C4*   C A   1      -7.647   6.394  74.130  1.00  0.00    -0.091 C  
ATOM     15  C3*   C A   1      -6.802   6.310  72.867  1.00  0.00    -0.078 C  
ATOM     16  H2*   C A   1      -6.564   5.828  70.190  1.00  0.00     0.000 HD 
ATOM     17  C2*   C A   1      -7.593   5.409  71.923  1.00  0.00    -0.098 C  
ATOM     18  O3*   C A   1      -5.523   5.713  73.117  1.00  0.00    -0.022 OA 
ATOM     19  O2*   C A   1      -7.437   5.789  70.562  1.00  0.00    -0.081 OA 
ATOM     20  H3*   C A   1      -4.996   5.661  72.328  1.00  0.00     0.000 HD 
BRANCH  14  21
ATOM     21  C5*   C A   1      -8.181   7.812  74.365  1.00  0.00    -0.232 C  
ATOM     22  O5*   C A   1      -7.589   8.724  73.444  1.00  0.00    -0.384 OA 
ATOM     23  H5*   C A   1      -7.920   9.602  73.590  1.00  0.00     0.000 HD 
ENDBRANCH  14  21
ENDBRANCH   8  12
TORSDOF 2
ENDMDL
MODEL      118
REMARK 921   NORMALIZED FREE ENERGY PREDICTED BY IDOCK:   -3.47 KCAL/MOL
REMARK 922        TOTAL FREE ENERGY PREDICTED BY IDOCK:   -3.89 KCAL/MOL
REMARK 923 INTER-LIGAND FREE ENERGY PREDICTED BY IDOCK:   -3.87 KCAL/MOL
REMARK 924 INTRA-LIGAND FREE ENERGY PREDICTED BY IDOCK:   -0.02 KCAL/MOL
REMARK 927      BINDING AFFINITY PREDICTED BY RF-SCORE:    0.00 PKD
ROOT
ATOM      1  N4    C A   1      -7.246   3.228  71.903  1.00  0.00    -0.044 NA 
ATOM      2  H42   C A   1      -7.036   2.653  72.719  1.00  0.00     0.000 HD 
ATOM      3  C4    C A   1      -7.812   4.462  72.032  1.00  0.00    -0.090 C  
ATOM      4  H41   C A   1      -7.041   2.900  70.960  1.00  0.00     0.000 HD 
ATOM      5  N3    C A   1      -8.073   4.878  73.230  1.00  0.00    -0.100 N  
ATOM      6  C2    C A   1      -8.629   6.119  73.424  1.00  0.00    -0.122 C  
ATOM      7  H3    C A   1      -7.865   4.282  74.031  1.00  0.00     0.000 HD 
ATOM      8  N1    C A   1      -9.061   6.851  72.297  1.00  0.00    -0.135 N  
ATOM      9  O2    C A   1      -8.748   6.561  74.566  1.00  0.00    -0.139 OA 
ATOM     10  C5    C A   1      -8.107   5.258  70.831  1.00  0.00    -0.107 C  
ATOM     11  C6    C A   1      -8.739   6.412  71.032  1.00  0.00    -0.135 C  
ENDROOT
BRANCH   8  12
ATOM     12  C1*   C A   1      -9.628   8.172  72.577  1.00  0.00    -0.277 C  
ATOM     13  O4*   C A   1     -10.978   7.987  73.073  1.00  0.00    -0.374 OA 
ATOM     14  C4*   C A   1     -11.905   8.136  71.982  1.00  0.00    -0.338 C  
ATOM     15  C3*   C A   1     -11.229   9.035  70.957  1.00  0.00    -0.295 C  
ATOM     16  H2*   C A   1      -8.975  10.038  69.788  1.00  0.00     0.000 HD 
ATOM     17  C2*   C A   1      -9.819   9.257  71.495  1.00  0.00    -0.175 C  
ATOM     18  O3*   C A   1     -11.888  10.304  70.841  1.00  0.00    -0.320 OA 
ATOM     19  O2*   C A   1      -8.858   9.371  70.454  1.00  0.00    -0.217 OA 
ATOM     20  H3*   C A   1     -11.466  10.865  70.201  1.00  0.00     0.000 HD 
BRANCH  14  21
ATOM     21  C5*   C A   1     -12.229   6.754  71.402  1.00  0.00    -0.363 C  
ATOM     22  O5*   C A   1     -12.169   6.787  69.979  1.00  0.00    -0.641 OA 
ATOM     23  H5*   C A   1     -12.370   5.931  69.620  1.00  0.00     0.000 HD 
ENDBRANCH  14  21
ENDBRANCH   8  12
TORSDOF 2
ENDMDL
MODEL      119
REMARK 921   NORMALIZED FREE ENERGY PREDICTED BY IDOCK:   -3.46 KCAL/MOL
REMARK 922        TOTAL FREE ENERGY PREDICTED BY IDOCK:   -3.88 KCAL/MOL
REMARK 923 INTER-LIGAND FREE ENERGY PREDICTED BY IDOCK:   -4.06 KCAL/MOL
REMARK 924 INTRA-LIGAND FREE ENERGY PREDICTED BY IDOCK:    0.18 KCAL/MOL
REMARK 927      BINDING AFFINITY PREDICTED BY RF-SCORE:    0.00 PKD
ROOT
ATOM      1  N4    C A   1     -14.094   7.411  71.227  1.00  0.00    -0.607 NA 
ATOM      2  H42   C A   1     -14.648   7.811  71.985  1.00  0.00     0.000 HD 
ATOM      3  C4    C A   1     -12.774   7.111  71.397  1.00  0.00    -0.391 C  
ATOM      4  H41   C A   1     -14.507   7.221  70.314  1.00  0.00     0.000 HD 
ATOM      5  N3    C A   1     -12.251   7.353  72.556  1.00  0.00    -0.525 N  
ATOM      6  C2    C A   1     -10.930   7.058  72.792  1.00  0.00    -0.294 C  
ATOM      7  H3    C A   1     -12.820   7.763  73.295  1.00  0.00     0.000 HD 
ATOM      8  N1    C A   1     -10.123   6.651  71.707  1.00  0.00    -0.183 N  
ATOM      9  O2    C A   1     -10.477   7.163  73.930  1.00  0.00    -0.370 OA 
ATOM     10  C5    C A   1     -12.006   6.544  70.279  1.00  0.00    -0.252 C  
ATOM     11  C6    C A   1     -10.705   6.362  70.493  1.00  0.00    -0.257 C  
ENDROOT
BRANCH   8  12
ATOM     12  C1*   C A   1      -8.731   6.338  72.034  1.00  0.00    -0.134 C  
ATOM     13  O4*   C A   1      -8.066   7.571  72.404  1.00  0.00    -0.097 OA 
ATOM     14  C4*   C A   1      -7.377   8.098  71.255  1.00  0.00    -0.072 C  
ATOM     15  C3*   C A   1      -7.062   6.912  70.355  1.00  0.00    -0.067 C  
ATOM     16  H2*   C A   1      -7.617   4.397  69.449  1.00  0.00     0.000 HD 
ATOM     17  C2*   C A   1      -7.743   5.719  71.021  1.00  0.00    -0.101 C  
ATOM     18  O3*   C A   1      -5.653   6.658  70.277  1.00  0.00    -0.018 OA 
ATOM     19  O2*   C A   1      -8.225   4.777  70.072  1.00  0.00    -0.068 OA 
ATOM     20  H3*   C A   1      -5.456   5.918  69.716  1.00  0.00     0.000 HD 
BRANCH  14  21
ATOM     21  C5*   C A   1      -8.277   9.122  70.552  1.00  0.00    -0.180 C  
ATOM     22  O5*   C A   1      -7.632  10.391  70.493  1.00  0.00    -0.443 OA 
ATOM     23  H5*   C A   1      -8.190  11.025  70.059  1.00  0.00     0.000 HD 
ENDBRANCH  14  21
ENDBRANCH   8  12
TORSDOF 2
ENDMDL
MODEL      120
REMARK 921   NORMALIZED FREE ENERGY PREDICTED BY IDOCK:   -3.39 KCAL/MOL
REMARK 922        TOTAL FREE ENERGY PREDICTED BY IDOCK:   -3.80 KCAL/MOL
REMARK 923 INTER-LIGAND FREE ENERGY PREDICTED BY IDOCK:   -3.81 KCAL/MOL
REMARK 924 INTRA-LIGAND FREE ENERGY PREDICTED BY IDOCK:    0.01 KCAL/MOL
REMARK 927      BINDING AFFINITY PREDICTED BY RF-SCORE:    0.00 PKD
ROOT
ATOM      1  N4    C A   1      -5.902  10.221  69.359  1.00  0.00    -0.037 NA 
ATOM      2  H42   C A   1      -4.936  10.179  69.684  1.00  0.00     0.000 HD 
ATOM      3  C4    C A   1      -6.929   9.763  70.132  1.00  0.00    -0.118 C  
ATOM      4  H41   C A   1      -6.136  10.607  68.445  1.00  0.00     0.000 HD 
ATOM      5  N3    C A   1      -6.632   9.273  71.292  1.00  0.00    -0.082 N  
ATOM      6  C2    C A   1      -7.625   8.810  72.121  1.00  0.00     0.064 C  
ATOM      7  H3    C A   1      -5.658   9.230  71.592  1.00  0.00     0.000 HD 
ATOM      8  N1    C A   1      -8.941   8.724  71.618  1.00  0.00    -0.236 N  
ATOM      9  O2    C A   1      -7.350   8.472  73.271  1.00  0.00    -0.292 OA 
ATOM     10  C5    C A   1      -8.308   9.833  69.626  1.00  0.00    -0.180 C  
ATOM     11  C6    C A   1      -9.245   9.286  70.398  1.00  0.00    -0.247 C  
ENDROOT
BRANCH   8  12
ATOM     12  C1*   C A   1      -9.951   8.238  72.560  1.00  0.00    -0.303 C  
ATOM     13  O4*   C A   1      -9.832   6.795  72.643  1.00  0.00    -0.166 OA 
ATOM     14  C4*   C A   1     -10.788   6.192  71.752  1.00  0.00    -0.255 C  
ATOM     15  C3*   C A   1     -11.927   7.190  71.595  1.00  0.00    -0.318 C  
ATOM     16  H2*   C A   1     -12.865   9.753  71.614  1.00  0.00     0.000 HD 
ATOM     17  C2*   C A   1     -11.468   8.434  72.350  1.00  0.00    -0.380 C  
ATOM     18  O3*   C A   1     -13.143   6.711  72.185  1.00  0.00    -0.550 OA 
ATOM     19  O2*   C A   1     -11.932   9.632  71.743  1.00  0.00    -0.381 OA 
ATOM     20  H3*   C A   1     -13.854   7.333  72.087  1.00  0.00     0.000 HD 
BRANCH  14  21
ATOM     21  C5*   C A   1     -10.107   5.890  70.412  1.00  0.00    -0.201 C  
ATOM     22  O5*   C A   1      -8.772   5.442  70.623  1.00  0.00    -0.123 OA 
ATOM     23  H5*   C A   1      -8.351   5.255  69.793  1.00  0.00     0.000 HD 
ENDBRANCH  14  21
ENDBRANCH   8  12
TORSDOF 2
ENDMDL
MODEL      121
REMARK 921   NORMALIZED FREE ENERGY PREDICTED BY IDOCK:   -3.37 KCAL/MOL
REMARK 922        TOTAL FREE ENERGY PREDICTED BY IDOCK:   -3.78 KCAL/MOL
REMARK 923 INTER-LIGAND FREE ENERGY PREDICTED BY IDOCK:   -3.78 KCAL/MOL
REMARK 924 INTRA-LIGAND FREE ENERGY PREDICTED BY IDOCK:    0.01 KCAL/MOL
REMARK 927      BINDING AFFINITY PREDICTED BY RF-SCORE:    0.00 PKD
ROOT
ATOM      1  N4    C A   1     -13.534   8.711  71.294  1.00  0.00    -0.542 NA 
ATOM      2  H42   C A   1     -13.858   9.386  71.986  1.00  0.00     0.000 HD 
ATOM      3  C4    C A   1     -12.494   7.869  71.560  1.00  0.00    -0.318 C  
ATOM      4  H41   C A   1     -13.974   8.640  70.377  1.00  0.00     0.000 HD 
ATOM      5  N3    C A   1     -11.934   7.958  72.723  1.00  0.00    -0.615 N  
ATOM      6  C2    C A   1     -10.892   7.126  73.054  1.00  0.00    -0.328 C  
ATOM      7  H3    C A   1     -12.268   8.648  73.396  1.00  0.00     0.000 HD 
ATOM      8  N1    C A   1     -10.340   6.300  72.051  1.00  0.00    -0.200 N  
ATOM      9  O2    C A   1     -10.457   7.124  74.205  1.00  0.00    -0.291 OA 
ATOM     10  C5    C A   1     -12.048   6.915  70.533  1.00  0.00    -0.315 C  
ATOM     11  C6    C A   1     -10.973   6.189  70.833  1.00  0.00    -0.297 C  
ENDROOT
BRANCH   8  12
ATOM     12  C1*   C A   1      -9.244   5.429  72.478  1.00  0.00    -0.136 C  
ATOM     13  O4*   C A   1      -8.042   6.232  72.577  1.00  0.00    -0.103 OA 
ATOM     14  C4*   C A   1      -7.288   6.104  71.358  1.00  0.00    -0.088 C  
ATOM     15  C3*   C A   1      -7.656   4.754  70.759  1.00  0.00    -0.065 C  
ATOM     16  H2*   C A   1      -9.421   2.697  70.430  1.00  0.00     0.000 HD 
ATOM     17  C2*   C A   1      -8.763   4.212  71.658  1.00  0.00    -0.111 C  
ATOM     18  O3*   C A   1      -6.551   3.840  70.778  1.00  0.00    -0.030 OA 
ATOM     19  O2*   C A   1      -9.716   3.446  70.934  1.00  0.00    -0.171 OA 
ATOM     20  H3*   C A   1      -6.781   2.997  70.404  1.00  0.00     0.000 HD 
BRANCH  14  21
ATOM     21  C5*   C A   1      -7.647   7.261  70.418  1.00  0.00    -0.088 C  
ATOM     22  O5*   C A   1      -7.823   8.465  71.158  1.00  0.00    -0.086 OA 
ATOM     23  H5*   C A   1      -8.045   9.182  70.576  1.00  0.00     0.000 HD 
ENDBRANCH  14  21
ENDBRANCH   8  12
TORSDOF 2
ENDMDL
MODEL      122
REMARK 921   NORMALIZED FREE ENERGY PREDICTED BY IDOCK:   -3.37 KCAL/MOL
REMARK 922        TOTAL FREE ENERGY PREDICTED BY IDOCK:   -3.78 KCAL/MOL
REMARK 923 INTER-LIGAND FREE ENERGY PREDICTED BY IDOCK:   -3.84 KCAL/MOL
REMARK 924 INTRA-LIGAND FREE ENERGY PREDICTED BY IDOCK:    0.06 KCAL/MOL
REMARK 927      BINDING AFFINITY PREDICTED BY RF-SCORE:    0.00 PKD
ROOT
ATOM      1  N4    C A   1     -10.270  11.246  69.541  1.00  0.00    -0.435 NA 
ATOM      2  H42   C A   1     -10.964  11.944  69.805  1.00  0.00     0.000 HD 
ATOM      3  C4    C A   1     -10.429   9.931  69.866  1.00  0.00    -0.269 C  
ATOM      4  H41   C A   1      -9.431  11.505  69.022  1.00  0.00     0.000 HD 
ATOM      5  N3    C A   1     -11.493   9.602  70.524  1.00  0.00    -0.272 N  
ATOM      6  C2    C A   1     -11.716   8.290  70.867  1.00  0.00    -0.239 C  
ATOM      7  H3    C A   1     -12.169  10.319  70.789  1.00  0.00     0.000 HD 
ATOM      8  N1    C A   1     -10.690   7.348  70.640  1.00  0.00    -0.225 N  
ATOM      9  O2    C A   1     -12.790   7.967  71.371  1.00  0.00    -0.321 OA 
ATOM     10  C5    C A   1      -9.402   8.954  69.474  1.00  0.00    -0.155 C  
ATOM     11  C6    C A   1      -9.583   7.707  69.904  1.00  0.00    -0.160 C  
ENDROOT
BRANCH   8  12
ATOM     12  C1*   C A   1     -11.001   5.967  71.015  1.00  0.00    -0.286 C  
ATOM     13  O4*   C A   1     -11.080   5.899  72.460  1.00  0.00    -0.252 OA 
ATOM     14  C4*   C A   1      -9.815   5.452  72.980  1.00  0.00    -0.162 C  
ATOM     15  C3*   C A   1      -9.158   4.631  71.880  1.00  0.00    -0.131 C  
ATOM     16  H2*   C A   1      -8.807   4.039  69.238  1.00  0.00     0.000 HD 
ATOM     17  C2*   C A   1     -10.084   4.771  70.676  1.00  0.00    -0.218 C  
ATOM     18  O3*   C A   1      -9.061   3.244  72.233  1.00  0.00    -0.095 OA 
ATOM     19  O2*   C A   1      -9.371   4.774  69.447  1.00  0.00    -0.111 OA 
ATOM     20  H3*   C A   1      -8.651   2.732  71.546  1.00  0.00     0.000 HD 
BRANCH  14  21
ATOM     21  C5*   C A   1      -8.968   6.671  73.365  1.00  0.00    -0.124 C  
ATOM     22  O5*   C A   1      -9.785   7.677  73.956  1.00  0.00    -0.386 OA 
ATOM     23  H5*   C A   1      -9.260   8.432  74.194  1.00  0.00     0.000 HD 
ENDBRANCH  14  21
ENDBRANCH   8  12
TORSDOF 2
ENDMDL
MODEL      123
REMARK 921   NORMALIZED FREE ENERGY PREDICTED BY IDOCK:   -3.36 KCAL/MOL
REMARK 922        TOTAL FREE ENERGY PREDICTED BY IDOCK:   -3.77 KCAL/MOL
REMARK 923 INTER-LIGAND FREE ENERGY PREDICTED BY IDOCK:   -3.86 KCAL/MOL
REMARK 924 INTRA-LIGAND FREE ENERGY PREDICTED BY IDOCK:    0.09 KCAL/MOL
REMARK 927      BINDING AFFINITY PREDICTED BY RF-SCORE:    0.00 PKD
ROOT
ATOM      1  N4    C A   1     -11.574  12.445  70.402  1.00  0.00    -0.493 NA 
ATOM      2  H42   C A   1     -11.749  12.044  71.323  1.00  0.00     0.000 HD 
ATOM      3  C4    C A   1     -11.098  11.681  69.376  1.00  0.00    -0.206 C  
ATOM      4  H41   C A   1     -11.747  13.431  70.212  1.00  0.00     0.000 HD 
ATOM      5  N3    C A   1     -10.877  10.429  69.616  1.00  0.00    -0.259 N  
ATOM      6  C2    C A   1     -10.412   9.606  68.619  1.00  0.00    -0.210 C  
ATOM      7  H3    C A   1     -11.049  10.052  70.548  1.00  0.00     0.000 HD 
ATOM      8  N1    C A   1     -10.024  10.183  67.391  1.00  0.00    -0.186 N  
ATOM      9  O2    C A   1     -10.335   8.394  68.816  1.00  0.00    -0.208 OA 
ATOM     10  C5    C A   1     -10.850  12.296  68.064  1.00  0.00    -0.253 C  
ATOM     11  C6    C A   1     -10.303  11.508  67.140  1.00  0.00    -0.216 C  
ENDROOT
BRANCH   8  12
ATOM     12  C1*   C A   1      -9.554   9.247  66.369  1.00  0.00    -0.238 C  
ATOM     13  O4*   C A   1      -8.216   8.819  66.729  1.00  0.00    -0.106 OA 
ATOM     14  C4*   C A   1      -7.258   9.626  66.022  1.00  0.00    -0.098 C  
ATOM     15  C3*   C A   1      -7.947  10.111  64.755  1.00  0.00    -0.146 C  
ATOM     16  H2*   C A   1     -10.212  10.773  63.381  1.00  0.00     0.000 HD 
ATOM     17  C2*   C A   1      -9.390   9.629  64.882  1.00  0.00    -0.242 C  
ATOM     18  O3*   C A   1      -7.368   9.535  63.576  1.00  0.00    -0.102 OA 
ATOM     19  O2*   C A   1     -10.313  10.537  64.296  1.00  0.00    -0.332 OA 
ATOM     20  H3*   C A   1      -7.798   9.838  62.785  1.00  0.00     0.000 HD 
BRANCH  14  21
ATOM     21  C5*   C A   1      -6.822  10.794  66.916  1.00  0.00    -0.101 C  
ATOM     22  O5*   C A   1      -5.977  11.684  66.192  1.00  0.00    -0.461 OA 
ATOM     23  H5*   C A   1      -5.708  12.407  66.746  1.00  0.00     0.000 HD 
ENDBRANCH  14  21
ENDBRANCH   8  12
TORSDOF 2
ENDMDL
MODEL      124
REMARK 921   NORMALIZED FREE ENERGY PREDICTED BY IDOCK:   -3.33 KCAL/MOL
REMARK 922        TOTAL FREE ENERGY PREDICTED BY IDOCK:   -3.73 KCAL/MOL
REMARK 923 INTER-LIGAND FREE ENERGY PREDICTED BY IDOCK:   -4.22 KCAL/MOL
REMARK 924 INTRA-LIGAND FREE ENERGY PREDICTED BY IDOCK:    0.50 KCAL/MOL
REMARK 927      BINDING AFFINITY PREDICTED BY RF-SCORE:    0.00 PKD
ROOT
ATOM      1  N4    C A   1      -8.256  21.323  67.179  1.00  0.00    -0.556 NA 
ATOM      2  H42   C A   1      -8.029  21.896  66.367  1.00  0.00     0.000 HD 
ATOM      3  C4    C A   1      -7.935  19.998  67.223  1.00  0.00    -0.313 C  
ATOM      4  H41   C A   1      -8.732  21.720  67.989  1.00  0.00     0.000 HD 
ATOM      5  N3    C A   1      -7.332  19.495  66.195  1.00  0.00    -0.266 N  
ATOM      6  C2    C A   1      -6.969  18.169  66.188  1.00  0.00    -0.279 C  
ATOM      7  H3    C A   1      -7.125  20.083  65.389  1.00  0.00     0.000 HD 
ATOM      8  N1    C A   1      -7.415  17.340  67.239  1.00  0.00    -0.171 N  
ATOM      9  O2    C A   1      -6.278  17.732  65.269  1.00  0.00    -0.040 OA 
ATOM     10  C5    C A   1      -8.285  19.203  68.410  1.00  0.00    -0.384 C  
ATOM     11  C6    C A   1      -8.020  17.900  68.342  1.00  0.00    -0.298 C  
ENDROOT
BRANCH   8  12
ATOM     12  C1*   C A   1      -6.978  15.944  67.176  1.00  0.00    -0.192 C  
ATOM     13  O4*   C A   1      -8.146  15.116  66.950  1.00  0.00    -0.211 OA 
ATOM     14  C4*   C A   1      -8.617  14.612  68.214  1.00  0.00    -0.167 C  
ATOM     15  C3*   C A   1      -7.412  14.576  69.143  1.00  0.00    -0.118 C  
ATOM     16  H2*   C A   1      -4.961  15.509  69.901  1.00  0.00     0.000 HD 
ATOM     17  C2*   C A   1      -6.281  15.221  68.349  1.00  0.00    -0.106 C  
ATOM     18  O3*   C A   1      -7.036  13.233  69.480  1.00  0.00    -0.320 OA 
ATOM     19  O2*   C A   1      -5.390  15.953  69.180  1.00  0.00    -0.107 OA 
ATOM     20  H3*   C A   1      -6.284  13.211  70.061  1.00  0.00     0.000 HD 
BRANCH  14  21
ATOM     21  C5*   C A   1      -9.720  15.534  68.747  1.00  0.00    -0.213 C  
ATOM     22  O5*   C A   1     -10.017  15.219  70.104  1.00  0.00    -0.483 OA 
ATOM     23  H5*   C A   1     -10.700  15.790  70.434  1.00  0.00     0.000 HD 
ENDBRANCH  14  21
ENDBRANCH   8  12
TORSDOF 2
ENDMDL
MODEL      125
REMARK 921   NORMALIZED FREE ENERGY PREDICTED BY IDOCK:   -3.30 KCAL/MOL
REMARK 922        TOTAL FREE ENERGY PREDICTED BY IDOCK:   -3.70 KCAL/MOL
REMARK 923 INTER-LIGAND FREE ENERGY PREDICTED BY IDOCK:   -4.83 KCAL/MOL
REMARK 924 INTRA-LIGAND FREE ENERGY PREDICTED BY IDOCK:    1.13 KCAL/MOL
REMARK 927      BINDING AFFINITY PREDICTED BY RF-SCORE:    0.00 PKD
ROOT
ATOM      1  N4    C A   1     -10.731  10.763  62.749  1.00  0.00    -0.612 NA 
ATOM      2  H42   C A   1     -10.478   9.784  62.619  1.00  0.00     0.000 HD 
ATOM      3  C4    C A   1     -10.491  11.406  63.928  1.00  0.00    -0.387 C  
ATOM      4  H41   C A   1     -11.172  11.299  62.002  1.00  0.00     0.000 HD 
ATOM      5  N3    C A   1      -9.931  10.726  64.876  1.00  0.00    -0.287 N  
ATOM      6  C2    C A   1      -9.650  11.324  66.082  1.00  0.00    -0.214 C  
ATOM      7  H3    C A   1      -9.697   9.745  64.728  1.00  0.00     0.000 HD 
ATOM      8  N1    C A   1     -10.134  12.628  66.320  1.00  0.00    -0.248 N  
ATOM      9  O2    C A   1      -8.997  10.713  66.926  1.00  0.00    -0.137 OA 
ATOM     10  C5    C A   1     -10.876  12.817  64.081  1.00  0.00    -0.437 C  
ATOM     11  C6    C A   1     -10.692  13.349  65.288  1.00  0.00    -0.313 C  
ENDROOT
BRANCH   8  12
ATOM     12  C1*   C A   1      -9.785  13.208  67.617  1.00  0.00    -0.213 C  
ATOM     13  O4*   C A   1     -10.746  14.250  67.919  1.00  0.00    -0.237 OA 
ATOM     14  C4*   C A   1     -10.200  15.522  67.525  1.00  0.00    -0.254 C  
ATOM     15  C3*   C A   1      -8.686  15.381  67.579  1.00  0.00    -0.175 C  
ATOM     16  H2*   C A   1      -6.431  13.848  67.442  1.00  0.00     0.000 HD 
ATOM     17  C2*   C A   1      -8.438  13.909  67.896  1.00  0.00    -0.177 C  
ATOM     18  O3*   C A   1      -8.110  16.184  68.619  1.00  0.00    -0.179 OA 
ATOM     19  O2*   C A   1      -7.260  13.417  67.271  1.00  0.00    -0.139 OA 
ATOM     20  H3*   C A   1      -7.165  16.095  68.653  1.00  0.00     0.000 HD 
BRANCH  14  21
ATOM     21  C5*   C A   1     -10.690  15.868  66.114  1.00  0.00    -0.271 C  
ATOM     22  O5*   C A   1     -10.070  17.064  65.652  1.00  0.00    -0.554 OA 
ATOM     23  H5*   C A   1     -10.374  17.278  64.778  1.00  0.00     0.000 HD 
ENDBRANCH  14  21
ENDBRANCH   8  12
TORSDOF 2
ENDMDL
MODEL      126
REMARK 921   NORMALIZED FREE ENERGY PREDICTED BY IDOCK:   -3.28 KCAL/MOL
REMARK 922        TOTAL FREE ENERGY PREDICTED BY IDOCK:   -3.68 KCAL/MOL
REMARK 923 INTER-LIGAND FREE ENERGY PREDICTED BY IDOCK:   -4.07 KCAL/MOL
REMARK 924 INTRA-LIGAND FREE ENERGY PREDICTED BY IDOCK:    0.38 KCAL/MOL
REMARK 927      BINDING AFFINITY PREDICTED BY RF-SCORE:    0.00 PKD
ROOT
ATOM      1  N4    C A   1     -11.590   7.441  72.467  1.00  0.00    -0.430 NA 
ATOM      2  H42   C A   1     -11.403   7.920  73.347  1.00  0.00     0.000 HD 
ATOM      3  C4    C A   1     -10.894   7.743  71.334  1.00  0.00    -0.228 C  
ATOM      4  H41   C A   1     -12.306   6.717  72.401  1.00  0.00     0.000 HD 
ATOM      5  N3    C A   1      -9.986   8.662  71.417  1.00  0.00    -0.228 N  
ATOM      6  C2    C A   1      -9.242   9.000  70.313  1.00  0.00    -0.202 C  
ATOM      7  H3    C A   1      -9.823   9.136  72.305  1.00  0.00     0.000 HD 
ATOM      8  N1    C A   1      -9.599   8.452  69.062  1.00  0.00    -0.159 N  
ATOM      9  O2    C A   1      -8.293   9.773  70.432  1.00  0.00    -0.185 OA 
ATOM     10  C5    C A   1     -11.198   7.036  70.081  1.00  0.00    -0.325 C  
ATOM     11  C6    C A   1     -10.540   7.448  68.999  1.00  0.00    -0.192 C  
ENDROOT
BRANCH   8  12
ATOM     12  C1*   C A   1      -8.754   8.842  67.932  1.00  0.00    -0.129 C  
ATOM     13  O4*   C A   1      -8.729  10.290  67.866  1.00  0.00    -0.121 OA 
ATOM     14  C4*   C A   1      -9.712  10.734  66.913  1.00  0.00    -0.178 C  
ATOM     15  C3*   C A   1      -9.902   9.596  65.921  1.00  0.00    -0.288 C  
ATOM     16  H2*   C A   1      -9.829   6.937  65.306  1.00  0.00     0.000 HD 
ATOM     17  C2*   C A   1      -9.059   8.448  66.471  1.00  0.00    -0.176 C  
ATOM     18  O3*   C A   1      -9.421   9.939  64.614  1.00  0.00    -0.276 OA 
ATOM     19  O2*   C A   1      -9.641   7.179  66.205  1.00  0.00    -0.088 OA 
ATOM     20  H3*   C A   1      -9.540   9.229  63.994  1.00  0.00     0.000 HD 
BRANCH  14  21
ATOM     21  C5*   C A   1     -11.015  11.069  67.650  1.00  0.00    -0.275 C  
ATOM     22  O5*   C A   1     -11.880  11.827  66.809  1.00  0.00    -0.586 OA 
ATOM     23  H5*   C A   1     -12.686  12.035  67.265  1.00  0.00     0.000 HD 
ENDBRANCH  14  21
ENDBRANCH   8  12
TORSDOF 2
ENDMDL
MODEL      127
REMARK 921   NORMALIZED FREE ENERGY PREDICTED BY IDOCK:   -3.16 KCAL/MOL
REMARK 922        TOTAL FREE ENERGY PREDICTED BY IDOCK:   -3.54 KCAL/MOL
REMARK 923 INTER-LIGAND FREE ENERGY PREDICTED BY IDOCK:   -3.52 KCAL/MOL
REMARK 924 INTRA-LIGAND FREE ENERGY PREDICTED BY IDOCK:   -0.02 KCAL/MOL
REMARK 927      BINDING AFFINITY PREDICTED BY RF-SCORE:    0.00 PKD
ROOT
ATOM      1  N4    C A   1     -12.250  10.786  69.724  1.00  0.00    -0.448 NA 
ATOM      2  H42   C A   1     -12.493  11.001  68.757  1.00  0.00     0.000 HD 
ATOM      3  C4    C A   1     -11.382   9.778  70.028  1.00  0.00    -0.220 C  
ATOM      4  H41   C A   1     -12.646  11.316  70.499  1.00  0.00     0.000 HD 
ATOM      5  N3    C A   1     -10.880   9.104  69.044  1.00  0.00    -0.401 N  
ATOM      6  C2    C A   1      -9.989   8.087  69.288  1.00  0.00    -0.191 C  
ATOM      7  H3    C A   1     -11.145   9.329  68.086  1.00  0.00     0.000 HD 
ATOM      8  N1    C A   1      -9.768   7.685  70.623  1.00  0.00    -0.175 N  
ATOM      9  O2    C A   1      -9.413   7.543  68.346  1.00  0.00    -0.148 OA 
ATOM     10  C5    C A   1     -11.063   9.491  71.435  1.00  0.00    -0.438 C  
ATOM     11  C6    C A   1     -10.280   8.437  71.656  1.00  0.00    -0.241 C  
ENDROOT
BRANCH   8  12
ATOM     12  C1*   C A   1      -8.795   6.607  70.809  1.00  0.00    -0.147 C  
ATOM     13  O4*   C A   1      -9.453   5.349  70.516  1.00  0.00    -0.154 OA 
ATOM     14  C4*   C A   1      -9.912   4.760  71.746  1.00  0.00    -0.190 C  
ATOM     15  C3*   C A   1      -9.006   5.290  72.847  1.00  0.00    -0.120 C  
ATOM     16  H2*   C A   1      -7.351   7.217  73.847  1.00  0.00     0.000 HD 
ATOM     17  C2*   C A   1      -8.106   6.313  72.160  1.00  0.00    -0.109 C  
ATOM     18  O3*   C A   1      -8.187   4.256  73.410  1.00  0.00    -0.089 OA 
ATOM     19  O2*   C A   1      -7.775   7.398  73.017  1.00  0.00    -0.084 OA 
ATOM     20  H3*   C A   1      -7.621   4.586  74.097  1.00  0.00     0.000 HD 
BRANCH  14  21
ATOM     21  C5*   C A   1     -11.377   5.151  71.977  1.00  0.00     0.142 C  
ATOM     22  O5*   C A   1     -11.573   5.564  73.326  1.00  0.00    -0.511 OA 
ATOM     23  H5*   C A   1     -12.480   5.806  73.470  1.00  0.00     0.000 HD 
ENDBRANCH  14  21
ENDBRANCH   8  12
TORSDOF 2
ENDMDL
MODEL      128
REMARK 921   NORMALIZED FREE ENERGY PREDICTED BY IDOCK:   -3.09 KCAL/MOL
REMARK 922        TOTAL FREE ENERGY PREDICTED BY IDOCK:   -3.47 KCAL/MOL
REMARK 923 INTER-LIGAND FREE ENERGY PREDICTED BY IDOCK:   -3.48 KCAL/MOL
REMARK 924 INTRA-LIGAND FREE ENERGY PREDICTED BY IDOCK:    0.01 KCAL/MOL
REMARK 927      BINDING AFFINITY PREDICTED BY RF-SCORE:    0.00 PKD
ROOT
ATOM      1  N4    C A   1      -9.437  10.566  63.184  1.00  0.00    -0.309 NA 
ATOM      2  H42   C A   1      -8.833  10.372  62.385  1.00  0.00     0.000 HD 
ATOM      3  C4    C A   1      -9.210   9.990  64.400  1.00  0.00    -0.266 C  
ATOM      4  H41   C A   1     -10.233  11.198  63.104  1.00  0.00     0.000 HD 
ATOM      5  N3    C A   1      -8.201   9.187  64.502  1.00  0.00    -0.143 N  
ATOM      6  C2    C A   1      -7.913   8.588  65.705  1.00  0.00    -0.107 C  
ATOM      7  H3    C A   1      -7.617   8.998  63.687  1.00  0.00     0.000 HD 
ATOM      8  N1    C A   1      -8.830   8.732  66.768  1.00  0.00    -0.126 N  
ATOM      9  O2    C A   1      -6.877   7.937  65.828  1.00  0.00    -0.055 OA 
ATOM     10  C5    C A   1     -10.107  10.288  65.526  1.00  0.00    -0.351 C  
ATOM     11  C6    C A   1      -9.876   9.620  66.654  1.00  0.00    -0.224 C  
ENDROOT
BRANCH   8  12
ATOM     12  C1*   C A   1      -8.452   8.082  68.025  1.00  0.00    -0.126 C  
ATOM     13  O4*   C A   1      -8.718   6.662  67.895  1.00  0.00    -0.118 OA 
ATOM     14  C4*   C A   1     -10.007   6.371  68.465  1.00  0.00    -0.142 C  
ATOM     15  C3*   C A   1     -10.273   7.443  69.511  1.00  0.00    -0.204 C  
ATOM     16  H2*   C A   1      -9.899   9.968  70.482  1.00  0.00     0.000 HD 
ATOM     17  C2*   C A   1      -9.107   8.419  69.382  1.00  0.00    -0.154 C  
ATOM     18  O3*   C A   1     -10.282   6.904  70.840  1.00  0.00    -0.197 OA 
ATOM     19  O2*   C A   1      -9.497   9.760  69.647  1.00  0.00    -0.191 OA 
ATOM     20  H3*   C A   1     -10.448   7.573  71.493  1.00  0.00     0.000 HD 
BRANCH  14  21
ATOM     21  C5*   C A   1     -11.064   6.384  67.354  1.00  0.00    -0.322 C  
ATOM     22  O5*   C A   1     -10.536   5.817  66.159  1.00  0.00    -0.441 OA 
ATOM     23  H5*   C A   1     -11.191   5.825  65.472  1.00  0.00     0.000 HD 
ENDBRANCH  14  21
ENDBRANCH   8  12
TORSDOF 2
ENDMDL
MODEL      129
REMARK 921   NORMALIZED FREE ENERGY PREDICTED BY IDOCK:   -3.08 KCAL/MOL
REMARK 922        TOTAL FREE ENERGY PREDICTED BY IDOCK:   -3.45 KCAL/MOL
REMARK 923 INTER-LIGAND FREE ENERGY PREDICTED BY IDOCK:   -3.51 KCAL/MOL
REMARK 924 INTRA-LIGAND FREE ENERGY PREDICTED BY IDOCK:    0.06 KCAL/MOL
REMARK 927      BINDING AFFINITY PREDICTED BY RF-SCORE:    0.00 PKD
ROOT
ATOM      1  N4    C A   1      -7.882   2.453  72.783  1.00  0.00    -0.052 NA 
ATOM      2  H42   C A   1      -7.271   1.816  72.273  1.00  0.00     0.000 HD 
ATOM      3  C4    C A   1      -8.701   3.325  72.127  1.00  0.00    -0.086 C  
ATOM      4  H41   C A   1      -7.904   2.463  73.802  1.00  0.00     0.000 HD 
ATOM      5  N3    C A   1      -8.673   3.313  70.834  1.00  0.00    -0.071 N  
ATOM      6  C2    C A   1      -9.488   4.158  70.118  1.00  0.00    -0.184 C  
ATOM      7  H3    C A   1      -8.046   2.675  70.344  1.00  0.00     0.000 HD 
ATOM      8  N1    C A   1     -10.219   5.144  70.813  1.00  0.00    -0.237 N  
ATOM      9  O2    C A   1      -9.555   4.046  68.894  1.00  0.00    -0.170 OA 
ATOM     10  C5    C A   1      -9.563   4.235  72.897  1.00  0.00    -0.159 C  
ATOM     11  C6    C A   1     -10.267   5.116  72.189  1.00  0.00    -0.202 C  
ENDROOT
BRANCH   8  12
ATOM     12  C1*   C A   1     -11.077   5.998  69.990  1.00  0.00    -0.381 C  
ATOM     13  O4*   C A   1     -10.225   6.852  69.186  1.00  0.00    -0.174 OA 
ATOM     14  C4*   C A   1     -10.078   8.124  69.844  1.00  0.00    -0.195 C  
ATOM     15  C3*   C A   1     -11.319   8.313  70.705  1.00  0.00    -0.266 C  
ATOM     16  H2*   C A   1     -13.397   7.285  72.145  1.00  0.00     0.000 HD 
ATOM     17  C2*   C A   1     -12.090   7.002  70.582  1.00  0.00    -0.284 C  
ATOM     18  O3*   C A   1     -12.144   9.384  70.227  1.00  0.00    -0.471 OA 
ATOM     19  O2*   C A   1     -12.774   6.667  71.781  1.00  0.00    -0.350 OA 
ATOM     20  H3*   C A   1     -12.918   9.503  70.764  1.00  0.00     0.000 HD 
BRANCH  14  21
ATOM     21  C5*   C A   1      -8.797   8.112  70.686  1.00  0.00    -0.140 C  
ATOM     22  O5*   C A   1      -7.768   7.391  70.014  1.00  0.00    -0.091 OA 
ATOM     23  H5*   C A   1      -6.975   7.384  70.535  1.00  0.00     0.000 HD 
ENDBRANCH  14  21
ENDBRANCH   8  12
TORSDOF 2
ENDMDL
MODEL      130
REMARK 921   NORMALIZED FREE ENERGY PREDICTED BY IDOCK:   -3.04 KCAL/MOL
REMARK 922        TOTAL FREE ENERGY PREDICTED BY IDOCK:   -3.40 KCAL/MOL
REMARK 923 INTER-LIGAND FREE ENERGY PREDICTED BY IDOCK:   -3.43 KCAL/MOL
REMARK 924 INTRA-LIGAND FREE ENERGY PREDICTED BY IDOCK:    0.03 KCAL/MOL
REMARK 927      BINDING AFFINITY PREDICTED BY RF-SCORE:    0.00 PKD
ROOT
ATOM      1  N4    C A   1      -5.584  14.205  69.150  1.00  0.00    -0.083 NA 
ATOM      2  H42   C A   1      -4.569  14.109  69.156  1.00  0.00     0.000 HD 
ATOM      3  C4    C A   1      -6.202  15.143  68.376  1.00  0.00    -0.108 C  
ATOM      4  H41   C A   1      -6.175  13.603  69.723  1.00  0.00     0.000 HD 
ATOM      5  N3    C A   1      -5.451  15.907  67.650  1.00  0.00    -0.139 N  
ATOM      6  C2    C A   1      -6.017  16.861  66.839  1.00  0.00    -0.179 C  
ATOM      7  H3    C A   1      -4.438  15.801  67.680  1.00  0.00     0.000 HD 
ATOM      8  N1    C A   1      -7.404  17.101  66.942  1.00  0.00    -0.185 N  
ATOM      9  O2    C A   1      -5.310  17.489  66.052  1.00  0.00    -0.189 OA 
ATOM     10  C5    C A   1      -7.667  15.257  68.401  1.00  0.00    -0.124 C  
ATOM     11  C6    C A   1      -8.191  16.253  67.689  1.00  0.00    -0.153 C  
ENDROOT
BRANCH   8  12
ATOM     12  C1*   C A   1      -7.942  18.119  66.037  1.00  0.00    -0.115 C  
ATOM     13  O4*   C A   1      -7.773  19.415  66.664  1.00  0.00    -0.245 OA 
ATOM     14  C4*   C A   1      -8.994  19.776  67.334  1.00  0.00    -0.326 C  
ATOM     15  C3*   C A   1     -10.118  19.048  66.613  1.00  0.00    -0.392 C  
ATOM     16  H2*   C A   1     -11.020  16.957  65.107  1.00  0.00     0.000 HD 
ATOM     17  C2*   C A   1      -9.419  18.158  65.590  1.00  0.00     0.600 C  
ATOM     18  O3*   C A   1     -10.987  19.956  65.921  1.00  0.00    -0.334 OA 
ATOM     19  O2*   C A   1     -10.111  16.934  65.382  1.00  0.00    -0.586 OA 
ATOM     20  H3*   C A   1     -11.689  19.502  65.471  1.00  0.00     0.000 HD 
BRANCH  14  21
ATOM     21  C5*   C A   1      -8.902  19.364  68.809  1.00  0.00    -0.342 C  
ATOM     22  O5*   C A   1     -10.190  19.016  69.307  1.00  0.00    -0.530 OA 
ATOM     23  H5*   C A   1     -10.134  18.761  70.220  1.00  0.00     0.000 HD 
ENDBRANCH  14  21
ENDBRANCH   8  12
TORSDOF 2
ENDMDL
MODEL      131
REMARK 921   NORMALIZED FREE ENERGY PREDICTED BY IDOCK:   -3.03 KCAL/MOL
REMARK 922        TOTAL FREE ENERGY PREDICTED BY IDOCK:   -3.39 KCAL/MOL
REMARK 923 INTER-LIGAND FREE ENERGY PREDICTED BY IDOCK:   -3.43 KCAL/MOL
REMARK 924 INTRA-LIGAND FREE ENERGY PREDICTED BY IDOCK:    0.03 KCAL/MOL
REMARK 927      BINDING AFFINITY PREDICTED BY RF-SCORE:    0.00 PKD
ROOT
ATOM      1  N4    C A   1      -7.911  10.760  69.643  1.00  0.00    -0.377 NA 
ATOM      2  H42   C A   1      -8.261  11.266  68.830  1.00  0.00     0.000 HD 
ATOM      3  C4    C A   1      -8.327   9.491  69.921  1.00  0.00    -0.170 C  
ATOM      4  H41   C A   1      -7.237  11.184  70.280  1.00  0.00     0.000 HD 
ATOM      5  N3    C A   1      -9.182   8.952  69.113  1.00  0.00    -0.144 N  
ATOM      6  C2    C A   1      -9.627   7.670  69.332  1.00  0.00    -0.159 C  
ATOM      7  H3    C A   1      -9.527   9.480  68.312  1.00  0.00     0.000 HD 
ATOM      8  N1    C A   1      -9.267   7.025  70.534  1.00  0.00    -0.159 N  
ATOM      9  O2    C A   1     -10.332   7.118  68.488  1.00  0.00    -0.173 OA 
ATOM     10  C5    C A   1      -7.807   8.796  71.108  1.00  0.00    -0.161 C  
ATOM     11  C6    C A   1      -8.326   7.597  71.361  1.00  0.00    -0.107 C  
ENDROOT
BRANCH   8  12
ATOM     12  C1*   C A   1      -9.762   5.657  70.694  1.00  0.00    -0.180 C  
ATOM     13  O4*   C A   1     -11.079   5.721  71.295  1.00  0.00    -0.262 OA 
ATOM     14  C4*   C A   1     -10.957   5.537  72.717  1.00  0.00    -0.278 C  
ATOM     15  C3*   C A   1      -9.688   4.727  72.944  1.00  0.00    -0.139 C  
ATOM     16  H2*   C A   1      -7.195   3.939  72.159  1.00  0.00     0.000 HD 
ATOM     17  C2*   C A   1      -9.052   4.596  71.563  1.00  0.00    -0.135 C  
ATOM     18  O3*   C A   1      -9.974   3.416  73.450  1.00  0.00    -0.108 OA 
ATOM     19  O2*   C A   1      -7.632   4.591  71.625  1.00  0.00    -0.073 OA 
ATOM     20  H3*   C A   1      -9.182   2.910  73.591  1.00  0.00     0.000 HD 
BRANCH  14  21
ATOM     21  C5*   C A   1     -10.886   6.908  73.400  1.00  0.00    -0.273 C  
ATOM     22  O5*   C A   1     -11.759   7.830  72.753  1.00  0.00    -0.528 OA 
ATOM     23  H5*   C A   1     -11.715   8.679  73.176  1.00  0.00     0.000 HD 
ENDBRANCH  14  21
ENDBRANCH   8  12
TORSDOF 2
ENDMDL
MODEL      132
REMARK 921   NORMALIZED FREE ENERGY PREDICTED BY IDOCK:   -3.00 KCAL/MOL
REMARK 922        TOTAL FREE ENERGY PREDICTED BY IDOCK:   -3.37 KCAL/MOL
REMARK 923 INTER-LIGAND FREE ENERGY PREDICTED BY IDOCK:   -3.58 KCAL/MOL
REMARK 924 INTRA-LIGAND FREE ENERGY PREDICTED BY IDOCK:    0.21 KCAL/MOL
REMARK 927      BINDING AFFINITY PREDICTED BY RF-SCORE:    0.00 PKD
ROOT
ATOM      1  N4    C A   1      -9.827  15.200  68.998  1.00  0.00    -0.229 NA 
ATOM      2  H42   C A   1     -10.451  15.436  69.769  1.00  0.00     0.000 HD 
ATOM      3  C4    C A   1      -9.933  14.011  68.339  1.00  0.00    -0.236 C  
ATOM      4  H41   C A   1      -9.099  15.845  68.692  1.00  0.00     0.000 HD 
ATOM      5  N3    C A   1     -10.856  13.192  68.728  1.00  0.00    -0.268 N  
ATOM      6  C2    C A   1     -11.022  11.985  68.092  1.00  0.00    -0.230 C  
ATOM      7  H3    C A   1     -11.463  13.443  69.508  1.00  0.00     0.000 HD 
ATOM      8  N1    C A   1     -10.067  11.590  67.131  1.00  0.00    -0.195 N  
ATOM      9  O2    C A   1     -11.984  11.274  68.377  1.00  0.00    -0.555 OA 
ATOM     10  C5    C A   1      -9.009  13.703  67.237  1.00  0.00    -0.226 C  
ATOM     11  C6    C A   1      -9.116  12.489  66.702  1.00  0.00    -0.203 C  
ENDROOT
BRANCH   8  12
ATOM     12  C1*   C A   1     -10.314  10.301  66.483  1.00  0.00    -0.211 C  
ATOM     13  O4*   C A   1     -10.181   9.260  67.482  1.00  0.00    -0.209 OA 
ATOM     14  C4*   C A   1      -8.851   8.713  67.418  1.00  0.00    -0.134 C  
ATOM     15  C3*   C A   1      -8.359   8.933  65.995  1.00  0.00    -0.124 C  
ATOM     16  H2*   C A   1      -8.396  10.337  63.653  1.00  0.00     0.000 HD 
ATOM     17  C2*   C A   1      -9.452   9.758  65.322  1.00  0.00    -0.279 C  
ATOM     18  O3*   C A   1      -8.205   7.697  65.284  1.00  0.00    -0.131 OA 
ATOM     19  O2*   C A   1      -8.926  10.670  64.367  1.00  0.00    -0.192 OA 
ATOM     20  H3*   C A   1      -7.898   7.835  64.395  1.00  0.00     0.000 HD 
BRANCH  14  21
ATOM     21  C5*   C A   1      -7.962   9.424  68.445  1.00  0.00    -0.094 C  
ATOM     22  O5*   C A   1      -7.250   8.471  69.228  1.00  0.00    -0.061 OA 
ATOM     23  H5*   C A   1      -6.699   8.912  69.864  1.00  0.00     0.000 HD 
ENDBRANCH  14  21
ENDBRANCH   8  12
TORSDOF 2
ENDMDL
MODEL      133
REMARK 921   NORMALIZED FREE ENERGY PREDICTED BY IDOCK:   -2.97 KCAL/MOL
REMARK 922        TOTAL FREE ENERGY PREDICTED BY IDOCK:   -3.33 KCAL/MOL
REMARK 923 INTER-LIGAND FREE ENERGY PREDICTED BY IDOCK:   -3.45 KCAL/MOL
REMARK 924 INTRA-LIGAND FREE ENERGY PREDICTED BY IDOCK:    0.12 KCAL/MOL
REMARK 927      BINDING AFFINITY PREDICTED BY RF-SCORE:    0.00 PKD
ROOT
ATOM      1  N4    C A   1      -7.393   4.482  73.140  1.00  0.00    -0.079 NA 
ATOM      2  H42   C A   1      -7.822   3.897  73.856  1.00  0.00     0.000 HD 
ATOM      3  C4    C A   1      -8.152   5.205  72.268  1.00  0.00    -0.110 C  
ATOM      4  H41   C A   1      -6.380   4.548  73.050  1.00  0.00     0.000 HD 
ATOM      5  N3    C A   1      -9.438   5.121  72.382  1.00  0.00    -0.143 N  
ATOM      6  C2    C A   1     -10.255   5.838  71.541  1.00  0.00    -0.203 C  
ATOM      7  H3    C A   1      -9.847   4.520  73.098  1.00  0.00     0.000 HD 
ATOM      8  N1    C A   1      -9.672   6.526  70.456  1.00  0.00    -0.172 N  
ATOM      9  O2    C A   1     -11.468   5.859  71.743  1.00  0.00    -0.269 OA 
ATOM     10  C5    C A   1      -7.497   6.031  71.243  1.00  0.00    -0.089 C  
ATOM     11  C6    C A   1      -8.302   6.637  70.373  1.00  0.00    -0.127 C  
ENDROOT
BRANCH   8  12
ATOM     12  C1*   C A   1     -10.599   7.281  69.611  1.00  0.00    -0.235 C  
ATOM     13  O4*   C A   1     -11.304   6.341  68.761  1.00  0.00    -0.356 OA 
ATOM     14  C4*   C A   1     -10.644   6.276  67.484  1.00  0.00    -0.278 C  
ATOM     15  C3*   C A   1      -9.938   7.610  67.290  1.00  0.00    -0.208 C  
ATOM     16  H2*   C A   1      -8.745   9.843  68.312  1.00  0.00     0.000 HD 
ATOM     17  C2*   C A   1     -10.140   8.359  68.604  1.00  0.00    -0.193 C  
ATOM     18  O3*   C A   1     -10.520   8.375  66.226  1.00  0.00    -0.356 OA 
ATOM     19  O2*   C A   1      -9.028   9.180  68.931  1.00  0.00    -0.137 OA 
ATOM     20  H3*   C A   1     -10.079   9.207  66.105  1.00  0.00     0.000 HD 
BRANCH  14  21
ATOM     21  C5*   C A   1      -9.656   5.103  67.485  1.00  0.00    -0.140 C  
ATOM     22  O5*   C A   1     -10.156   4.033  66.690  1.00  0.00    -0.358 OA 
ATOM     23  H5*   C A   1      -9.544   3.306  66.691  1.00  0.00     0.000 HD 
ENDBRANCH  14  21
ENDBRANCH   8  12
TORSDOF 2
ENDMDL
MODEL      134
REMARK 921   NORMALIZED FREE ENERGY PREDICTED BY IDOCK:   -2.97 KCAL/MOL
REMARK 922        TOTAL FREE ENERGY PREDICTED BY IDOCK:   -3.32 KCAL/MOL
REMARK 923 INTER-LIGAND FREE ENERGY PREDICTED BY IDOCK:   -3.36 KCAL/MOL
REMARK 924 INTRA-LIGAND FREE ENERGY PREDICTED BY IDOCK:    0.04 KCAL/MOL
REMARK 927      BINDING AFFINITY PREDICTED BY RF-SCORE:    0.00 PKD
ROOT
ATOM      1  N4    C A   1      -9.872   2.221  64.379  1.00  0.00    -0.307 NA 
ATOM      2  H42   C A   1     -10.434   1.415  64.651  1.00  0.00     0.000 HD 
ATOM      3  C4    C A   1      -9.429   3.121  65.305  1.00  0.00    -0.107 C  
ATOM      4  H41   C A   1      -9.619   2.385  63.405  1.00  0.00     0.000 HD 
ATOM      5  N3    C A   1      -9.750   2.913  66.541  1.00  0.00    -0.384 N  
ATOM      6  C2    C A   1      -9.321   3.776  67.521  1.00  0.00    -0.197 C  
ATOM      7  H3    C A   1     -10.323   2.106  66.789  1.00  0.00     0.000 HD 
ATOM      8  N1    C A   1      -8.676   4.971  67.135  1.00  0.00    -0.104 N  
ATOM      9  O2    C A   1      -9.514   3.499  68.703  1.00  0.00    -0.167 OA 
ATOM     10  C5    C A   1      -8.628   4.275  64.874  1.00  0.00    -0.126 C  
ATOM     11  C6    C A   1      -8.309   5.156  65.821  1.00  0.00    -0.120 C  
ENDROOT
BRANCH   8  12
ATOM     12  C1*   C A   1      -8.232   5.835  68.229  1.00  0.00    -0.108 C  
ATOM     13  O4*   C A   1      -9.398   6.485  68.794  1.00  0.00    -0.131 OA 
ATOM     14  C4*   C A   1      -9.542   7.789  68.204  1.00  0.00    -0.151 C  
ATOM     15  C3*   C A   1      -8.150   8.225  67.767  1.00  0.00    -0.127 C  
ATOM     16  H2*   C A   1      -5.614   7.626  66.953  1.00  0.00     0.000 HD 
ATOM     17  C2*   C A   1      -7.257   7.017  68.033  1.00  0.00    -0.095 C  
ATOM     18  O3*   C A   1      -7.671   9.336  68.538  1.00  0.00    -0.084 OA 
ATOM     19  O2*   C A   1      -6.214   6.900  67.075  1.00  0.00    -0.037 OA 
ATOM     20  H3*   C A   1      -6.802   9.607  68.265  1.00  0.00     0.000 HD 
BRANCH  14  21
ATOM     21  C5*   C A   1     -10.510   7.704  67.018  1.00  0.00    -0.349 C  
ATOM     22  O5*   C A   1     -11.506   6.715  67.260  1.00  0.00    -0.766 OA 
ATOM     23  H5*   C A   1     -12.105   6.662  66.526  1.00  0.00     0.000 HD 
ENDBRANCH  14  21
ENDBRANCH   8  12
TORSDOF 2
ENDMDL
MODEL      135
REMARK 921   NORMALIZED FREE ENERGY PREDICTED BY IDOCK:   -2.95 KCAL/MOL
REMARK 922        TOTAL FREE ENERGY PREDICTED BY IDOCK:   -3.31 KCAL/MOL
REMARK 923 INTER-LIGAND FREE ENERGY PREDICTED BY IDOCK:   -3.44 KCAL/MOL
REMARK 924 INTRA-LIGAND FREE ENERGY PREDICTED BY IDOCK:    0.12 KCAL/MOL
REMARK 927      BINDING AFFINITY PREDICTED BY RF-SCORE:    0.00 PKD
ROOT
ATOM      1  N4    C A   1      -8.377   9.811  68.727  1.00  0.00    -0.109 NA 
ATOM      2  H42   C A   1      -8.911   9.006  69.054  1.00  0.00     0.000 HD 
ATOM      3  C4    C A   1      -8.887  11.074  68.797  1.00  0.00    -0.147 C  
ATOM      4  H41   C A   1      -7.442   9.702  68.336  1.00  0.00     0.000 HD 
ATOM      5  N3    C A   1     -10.074  11.213  69.293  1.00  0.00    -0.412 N  
ATOM      6  C2    C A   1     -10.635  12.463  69.402  1.00  0.00     0.251 C  
ATOM      7  H3    C A   1     -10.595  10.393  69.603  1.00  0.00     0.000 HD 
ATOM      8  N1    C A   1      -9.968  13.559  68.814  1.00  0.00    -0.135 N  
ATOM      9  O2    C A   1     -11.703  12.601  69.997  1.00  0.00    -0.293 OA 
ATOM     10  C5    C A   1      -8.090  12.210  68.309  1.00  0.00    -0.166 C  
ATOM     11  C6    C A   1      -8.689  13.399  68.327  1.00  0.00    -0.172 C  
ENDROOT
BRANCH   8  12
ATOM     12  C1*   C A   1     -10.613  14.862  68.983  1.00  0.00    -0.245 C  
ATOM     13  O4*   C A   1     -11.864  14.844  68.251  1.00  0.00    -0.324 OA 
ATOM     14  C4*   C A   1     -11.659  15.435  66.955  1.00  0.00     0.019 C  
ATOM     15  C3*   C A   1     -10.486  16.394  67.095  1.00  0.00    -0.297 C  
ATOM     16  H2*   C A   1      -8.173  17.164  68.325  1.00  0.00     0.000 HD 
ATOM     17  C2*   C A   1      -9.975  16.189  68.518  1.00  0.00    -0.229 C  
ATOM     18  O3*   C A   1     -10.891  17.761  66.939  1.00  0.00    -0.215 OA 
ATOM     19  O2*   C A   1      -8.566  16.348  68.611  1.00  0.00    -0.213 OA 
ATOM     20  H3*   C A   1     -10.159  18.360  67.027  1.00  0.00     0.000 HD 
BRANCH  14  21
ATOM     21  C5*   C A   1     -11.369  14.327  65.934  1.00  0.00    -0.328 C  
ATOM     22  O5*   C A   1     -12.331  13.283  66.049  1.00  0.00    -0.420 OA 
ATOM     23  H5*   C A   1     -12.152  12.597  65.418  1.00  0.00     0.000 HD 
ENDBRANCH  14  21
ENDBRANCH   8  12
TORSDOF 2
ENDMDL
MODEL      136
REMARK 921   NORMALIZED FREE ENERGY PREDICTED BY IDOCK:   -2.95 KCAL/MOL
REMARK 922        TOTAL FREE ENERGY PREDICTED BY IDOCK:   -3.31 KCAL/MOL
REMARK 923 INTER-LIGAND FREE ENERGY PREDICTED BY IDOCK:   -3.42 KCAL/MOL
REMARK 924 INTRA-LIGAND FREE ENERGY PREDICTED BY IDOCK:    0.11 KCAL/MOL
REMARK 927      BINDING AFFINITY PREDICTED BY RF-SCORE:    0.00 PKD
ROOT
ATOM      1  N4    C A   1     -12.345  12.651  69.595  1.00  0.00    -0.073 NA 
ATOM      2  H42   C A   1     -13.173  13.175  69.311  1.00  0.00     0.000 HD 
ATOM      3  C4    C A   1     -11.470  12.158  68.672  1.00  0.00    -0.296 C  
ATOM      4  H41   C A   1     -12.141  12.477  70.578  1.00  0.00     0.000 HD 
ATOM      5  N3    C A   1     -11.729  12.379  67.424  1.00  0.00    -0.361 N  
ATOM      6  C2    C A   1     -10.875  11.919  66.450  1.00  0.00    -0.279 C  
ATOM      7  H3    C A   1     -12.568  12.895  67.163  1.00  0.00     0.000 HD 
ATOM      8  N1    C A   1      -9.815  11.067  66.825  1.00  0.00    -0.193 N  
ATOM      9  O2    C A   1     -11.055  12.249  65.278  1.00  0.00    -0.298 OA 
ATOM     10  C5    C A   1     -10.291  11.401  69.119  1.00  0.00    -0.122 C  
ATOM     11  C6    C A   1      -9.532  10.875  68.159  1.00  0.00    -0.165 C  
ENDROOT
BRANCH   8  12
ATOM     12  C1*   C A   1      -8.937  10.628  65.740  1.00  0.00    -0.182 C  
ATOM     13  O4*   C A   1      -9.565   9.502  65.078  1.00  0.00    -0.268 OA 
ATOM     14  C4*   C A   1      -9.029   8.280  65.619  1.00  0.00    -0.109 C  
ATOM     15  C3*   C A   1      -7.636   8.608  66.137  1.00  0.00    -0.093 C  
ATOM     16  H2*   C A   1      -5.828  10.390  67.141  1.00  0.00     0.000 HD 
ATOM     17  C2*   C A   1      -7.497  10.118  65.969  1.00  0.00    -0.118 C  
ATOM     18  O3*   C A   1      -6.613   7.959  65.370  1.00  0.00    -0.044 OA 
ATOM     19  O2*   C A   1      -6.713  10.704  66.999  1.00  0.00    -0.077 OA 
ATOM     20  H3*   C A   1      -5.744   8.164  65.694  1.00  0.00     0.000 HD 
BRANCH  14  21
ATOM     21  C5*   C A   1      -9.949   7.777  66.738  1.00  0.00    -0.261 C  
ATOM     22  O5*   C A   1     -10.619   6.587  66.331  1.00  0.00    -0.480 OA 
ATOM     23  H5*   C A   1     -11.189   6.276  67.024  1.00  0.00     0.000 HD 
ENDBRANCH  14  21
ENDBRANCH   8  12
TORSDOF 2
ENDMDL
MODEL      137
REMARK 921   NORMALIZED FREE ENERGY PREDICTED BY IDOCK:   -2.95 KCAL/MOL
REMARK 922        TOTAL FREE ENERGY PREDICTED BY IDOCK:   -3.30 KCAL/MOL
REMARK 923 INTER-LIGAND FREE ENERGY PREDICTED BY IDOCK:   -4.55 KCAL/MOL
REMARK 924 INTRA-LIGAND FREE ENERGY PREDICTED BY IDOCK:    1.24 KCAL/MOL
REMARK 927      BINDING AFFINITY PREDICTED BY RF-SCORE:    0.00 PKD
ROOT
ATOM      1  N4    C A   1     -12.387  12.701  70.519  1.00  0.00    -0.314 NA 
ATOM      2  H42   C A   1     -12.020  13.534  70.059  1.00  0.00     0.000 HD 
ATOM      3  C4    C A   1     -11.792  11.484  70.359  1.00  0.00    -0.320 C  
ATOM      4  H41   C A   1     -13.212  12.747  71.116  1.00  0.00     0.000 HD 
ATOM      5  N3    C A   1     -10.744  11.426  69.601  1.00  0.00    -0.455 N  
ATOM      6  C2    C A   1     -10.093  10.230  69.414  1.00  0.00    -0.235 C  
ATOM      7  H3    C A   1     -10.401  12.269  69.142  1.00  0.00     0.000 HD 
ATOM      8  N1    C A   1     -10.682   9.052  69.920  1.00  0.00    -0.227 N  
ATOM      9  O2    C A   1      -9.024  10.208  68.805  1.00  0.00    -0.132 OA 
ATOM     10  C5    C A   1     -12.355  10.304  71.031  1.00  0.00    -0.483 C  
ATOM     11  C6    C A   1     -11.773   9.138  70.756  1.00  0.00    -0.256 C  
ENDROOT
BRANCH   8  12
ATOM     12  C1*   C A   1      -9.927   7.818  69.698  1.00  0.00    -0.190 C  
ATOM     13  O4*   C A   1     -10.872   6.724  69.585  1.00  0.00    -0.236 OA 
ATOM     14  C4*   C A   1     -10.999   6.078  70.865  1.00  0.00    -0.289 C  
ATOM     15  C3*   C A   1      -9.693   6.324  71.608  1.00  0.00    -0.161 C  
ATOM     16  H2*   C A   1      -7.465   7.833  72.070  1.00  0.00     0.000 HD 
ATOM     17  C2*   C A   1      -8.897   7.263  70.706  1.00  0.00    -0.150 C  
ATOM     18  O3*   C A   1      -8.947   5.114  71.794  1.00  0.00    -0.132 OA 
ATOM     19  O2*   C A   1      -8.099   8.173  71.450  1.00  0.00    -0.098 OA 
ATOM     20  H3*   C A   1      -8.132   5.268  72.258  1.00  0.00     0.000 HD 
BRANCH  14  21
ATOM     21  C5*   C A   1     -12.200   6.669  71.613  1.00  0.00    -0.352 C  
ATOM     22  O5*   C A   1     -11.829   7.031  72.940  1.00  0.00    -0.517 OA 
ATOM     23  H5*   C A   1     -12.573   7.396  73.403  1.00  0.00     0.000 HD 
ENDBRANCH  14  21
ENDBRANCH   8  12
TORSDOF 2
ENDMDL
MODEL      138
REMARK 921   NORMALIZED FREE ENERGY PREDICTED BY IDOCK:   -2.94 KCAL/MOL
REMARK 922        TOTAL FREE ENERGY PREDICTED BY IDOCK:   -3.29 KCAL/MOL
REMARK 923 INTER-LIGAND FREE ENERGY PREDICTED BY IDOCK:   -3.42 KCAL/MOL
REMARK 924 INTRA-LIGAND FREE ENERGY PREDICTED BY IDOCK:    0.12 KCAL/MOL
REMARK 927      BINDING AFFINITY PREDICTED BY RF-SCORE:    0.00 PKD
ROOT
ATOM      1  N4    C A   1      -6.378   7.696  68.529  1.00  0.00    -0.042 NA 
ATOM      2  H42   C A   1      -5.616   7.308  67.974  1.00  0.00     0.000 HD 
ATOM      3  C4    C A   1      -7.334   8.489  67.964  1.00  0.00    -0.092 C  
ATOM      4  H41   C A   1      -6.454   7.507  69.528  1.00  0.00     0.000 HD 
ATOM      5  N3    C A   1      -7.238   8.729  66.697  1.00  0.00    -0.080 N  
ATOM      6  C2    C A   1      -8.180   9.509  66.069  1.00  0.00    -0.115 C  
ATOM      7  H3    C A   1      -6.462   8.340  66.162  1.00  0.00     0.000 HD 
ATOM      8  N1    C A   1      -9.145  10.172  66.857  1.00  0.00    -0.142 N  
ATOM      9  O2    C A   1      -8.158   9.621  64.844  1.00  0.00    -0.120 OA 
ATOM     10  C5    C A   1      -8.413   9.037  68.800  1.00  0.00    -0.131 C  
ATOM     11  C6    C A   1      -9.256   9.873  68.196  1.00  0.00    -0.128 C  
ENDROOT
BRANCH   8  12
ATOM     12  C1*   C A   1     -10.126  10.971  66.121  1.00  0.00    -0.237 C  
ATOM     13  O4*   C A   1      -9.440  12.113  65.549  1.00  0.00    -0.185 OA 
ATOM     14  C4*   C A   1      -9.599  13.245  66.423  1.00  0.00    -0.254 C  
ATOM     15  C3*   C A   1     -10.891  13.018  67.196  1.00  0.00    -0.260 C  
ATOM     16  H2*   C A   1     -12.766  11.344  68.260  1.00  0.00     0.000 HD 
ATOM     17  C2*   C A   1     -11.356  11.624  66.787  1.00  0.00    -0.286 C  
ATOM     18  O3*   C A   1     -11.902  13.970  66.839  1.00  0.00    -0.385 OA 
ATOM     19  O2*   C A   1     -12.009  10.943  67.850  1.00  0.00    -0.585 OA 
ATOM     20  H3*   C A   1     -12.708  13.829  67.321  1.00  0.00     0.000 HD 
BRANCH  14  21
ATOM     21  C5*   C A   1      -8.386  13.338  67.356  1.00  0.00    -0.192 C  
ATOM     22  O5*   C A   1      -8.722  14.061  68.536  1.00  0.00    -0.181 OA 
ATOM     23  H5*   C A   1      -7.970  14.118  69.114  1.00  0.00     0.000 HD 
ENDBRANCH  14  21
ENDBRANCH   8  12
TORSDOF 2
ENDMDL
MODEL      139
REMARK 921   NORMALIZED FREE ENERGY PREDICTED BY IDOCK:   -2.93 KCAL/MOL
REMARK 922        TOTAL FREE ENERGY PREDICTED BY IDOCK:   -3.29 KCAL/MOL
REMARK 923 INTER-LIGAND FREE ENERGY PREDICTED BY IDOCK:   -4.38 KCAL/MOL
REMARK 924 INTRA-LIGAND FREE ENERGY PREDICTED BY IDOCK:    1.09 KCAL/MOL
REMARK 927      BINDING AFFINITY PREDICTED BY RF-SCORE:    0.00 PKD
ROOT
ATOM      1  N4    C A   1      -8.943  10.518  69.158  1.00  0.00    -0.237 NA 
ATOM      2  H42   C A   1      -9.523   9.830  69.636  1.00  0.00     0.000 HD 
ATOM      3  C4    C A   1      -9.422  11.758  68.851  1.00  0.00     0.070 C  
ATOM      4  H41   C A   1      -7.982  10.306  68.891  1.00  0.00     0.000 HD 
ATOM      5  N3    C A   1     -10.642  12.028  69.188  1.00  0.00    -0.419 N  
ATOM      6  C2    C A   1     -11.176  13.265  68.919  1.00  0.00    -0.277 C  
ATOM      7  H3    C A   1     -11.208  11.320  69.656  1.00  0.00     0.000 HD 
ATOM      8  N1    C A   1     -10.433  14.164  68.125  1.00  0.00    -0.239 N  
ATOM      9  O2    C A   1     -12.285  13.559  69.363  1.00  0.00    -0.307 OA 
ATOM     10  C5    C A   1      -8.558  12.721  68.153  1.00  0.00    -0.185 C  
ATOM     11  C6    C A   1      -9.124  13.876  67.808  1.00  0.00    -0.191 C  
ENDROOT
BRANCH   8  12
ATOM     12  C1*   C A   1     -11.054  15.469  67.891  1.00  0.00    -0.321 C  
ATOM     13  O4*   C A   1     -10.544  15.995  66.640  1.00  0.00    -0.317 OA 
ATOM     14  C4*   C A   1      -9.449  16.887  66.917  1.00  0.00    -0.251 C  
ATOM     15  C3*   C A   1      -9.673  17.428  68.322  1.00  0.00    -0.299 C  
ATOM     16  H2*   C A   1     -10.706  17.170  70.836  1.00  0.00     0.000 HD 
ATOM     17  C2*   C A   1     -10.888  16.669  68.848  1.00  0.00    -0.321 C  
ATOM     18  O3*   C A   1      -9.969  18.831  68.314  1.00  0.00    -0.345 OA 
ATOM     19  O2*   C A   1     -10.808  16.432  70.247  1.00  0.00    -0.309 OA 
ATOM     20  H3*   C A   1     -10.108  19.169  69.191  1.00  0.00     0.000 HD 
BRANCH  14  21
ATOM     21  C5*   C A   1      -8.128  16.115  66.808  1.00  0.00    -0.270 C  
ATOM     22  O5*   C A   1      -7.024  16.990  67.015  1.00  0.00    -0.156 OA 
ATOM     23  H5*   C A   1      -6.206  16.512  66.947  1.00  0.00     0.000 HD 
ENDBRANCH  14  21
ENDBRANCH   8  12
TORSDOF 2
ENDMDL
MODEL      140
REMARK 921   NORMALIZED FREE ENERGY PREDICTED BY IDOCK:   -2.92 KCAL/MOL
REMARK 922        TOTAL FREE ENERGY PREDICTED BY IDOCK:   -3.28 KCAL/MOL
REMARK 923 INTER-LIGAND FREE ENERGY PREDICTED BY IDOCK:   -3.80 KCAL/MOL
REMARK 924 INTRA-LIGAND FREE ENERGY PREDICTED BY IDOCK:    0.53 KCAL/MOL
REMARK 927      BINDING AFFINITY PREDICTED BY RF-SCORE:    0.00 PKD
ROOT
ATOM      1  N4    C A   1     -11.081  14.650  70.761  1.00  0.00    -0.509 NA 
ATOM      2  H42   C A   1     -10.724  13.707  70.911  1.00  0.00     0.000 HD 
ATOM      3  C4    C A   1     -10.451  15.521  69.922  1.00  0.00    -0.313 C  
ATOM      4  H41   C A   1     -11.924  14.977  71.233  1.00  0.00     0.000 HD 
ATOM      5  N3    C A   1      -9.381  15.106  69.324  1.00  0.00    -0.303 N  
ATOM      6  C2    C A   1      -8.711  15.934  68.455  1.00  0.00    -0.183 C  
ATOM      7  H3    C A   1      -9.035  14.163  69.497  1.00  0.00     0.000 HD 
ATOM      8  N1    C A   1      -9.111  17.284  68.362  1.00  0.00    -0.258 N  
ATOM      9  O2    C A   1      -7.777  15.489  67.789  1.00  0.00    -0.123 OA 
ATOM     10  C5    C A   1     -10.992  16.876  69.738  1.00  0.00     0.035 C  
ATOM     11  C6    C A   1     -10.273  17.697  68.974  1.00  0.00    -0.314 C  
ENDROOT
BRANCH   8  12
ATOM     12  C1*   C A   1      -8.364  18.104  67.406  1.00  0.00    -0.239 C  
ATOM     13  O4*   C A   1      -6.950  17.859  67.609  1.00  0.00    -0.192 OA 
ATOM     14  C4*   C A   1      -6.414  18.882  68.468  1.00  0.00    -0.242 C  
ATOM     15  C3*   C A   1      -7.298  20.108  68.288  1.00  0.00    -0.219 C  
ATOM     16  H2*   C A   1      -9.705  21.237  67.669  1.00  0.00     0.000 HD 
ATOM     17  C2*   C A   1      -8.433  19.646  67.378  1.00  0.00    -0.305 C  
ATOM     18  O3*   C A   1      -6.597  21.183  67.647  1.00  0.00    -0.348 OA 
ATOM     19  O2*   C A   1      -9.663  20.288  67.686  1.00  0.00    -0.391 OA 
ATOM     20  H3*   C A   1      -7.149  21.948  67.535  1.00  0.00     0.000 HD 
BRANCH  14  21
ATOM     21  C5*   C A   1      -6.423  18.381  69.917  1.00  0.00     0.013 C  
ATOM     22  O5*   C A   1      -6.571  19.474  70.818  1.00  0.00     0.087 OA 
ATOM     23  H5*   C A   1      -6.577  19.164  71.716  1.00  0.00     0.000 HD 
ENDBRANCH  14  21
ENDBRANCH   8  12
TORSDOF 2
ENDMDL
MODEL      141
REMARK 921   NORMALIZED FREE ENERGY PREDICTED BY IDOCK:   -2.92 KCAL/MOL
REMARK 922        TOTAL FREE ENERGY PREDICTED BY IDOCK:   -3.27 KCAL/MOL
REMARK 923 INTER-LIGAND FREE ENERGY PREDICTED BY IDOCK:   -3.35 KCAL/MOL
REMARK 924 INTRA-LIGAND FREE ENERGY PREDICTED BY IDOCK:    0.08 KCAL/MOL
REMARK 927      BINDING AFFINITY PREDICTED BY RF-SCORE:    0.00 PKD
ROOT
ATOM      1  N4    C A   1     -10.974   7.696  67.341  1.00  0.00    -0.546 NA 
ATOM      2  H42   C A   1     -10.797   6.990  66.626  1.00  0.00     0.000 HD 
ATOM      3  C4    C A   1     -10.372   8.919  67.293  1.00  0.00    -0.280 C  
ATOM      4  H41   C A   1     -11.609   7.513  68.118  1.00  0.00     0.000 HD 
ATOM      5  N3    C A   1      -9.567   9.151  66.308  1.00  0.00    -0.233 N  
ATOM      6  C2    C A   1      -8.942  10.370  66.198  1.00  0.00    -0.157 C  
ATOM      7  H3    C A   1      -9.395   8.427  65.611  1.00  0.00     0.000 HD 
ATOM      8  N1    C A   1      -9.064  11.291  67.261  1.00  0.00    -0.154 N  
ATOM      9  O2    C A   1      -8.287  10.630  65.190  1.00  0.00    -0.168 OA 
ATOM     10  C5    C A   1     -10.648   9.908  68.346  1.00  0.00    -0.258 C  
ATOM     11  C6    C A   1      -9.956  11.044  68.281  1.00  0.00    -0.179 C  
ENDROOT
BRANCH   8  12
ATOM     12  C1*   C A   1      -8.387  12.575  67.070  1.00  0.00    -0.144 C  
ATOM     13  O4*   C A   1      -6.957  12.345  67.134  1.00  0.00    -0.143 OA 
ATOM     14  C4*   C A   1      -6.495  12.625  68.468  1.00  0.00    -0.074 C  
ATOM     15  C3*   C A   1      -7.470  13.631  69.064  1.00  0.00     0.021 C  
ATOM     16  H2*   C A   1      -9.960  14.744  69.194  1.00  0.00     0.000 HD 
ATOM     17  C2*   C A   1      -8.572  13.779  68.019  1.00  0.00    -0.177 C  
ATOM     18  O3*   C A   1      -6.857  14.909  69.277  1.00  0.00    -0.124 OA 
ATOM     19  O2*   C A   1      -9.845  14.003  68.610  1.00  0.00    -0.225 OA 
ATOM     20  H3*   C A   1      -7.465  15.537  69.649  1.00  0.00     0.000 HD 
BRANCH  14  21
ATOM     21  C5*   C A   1      -6.458  11.321  69.275  1.00  0.00    -0.089 C  
ATOM     22  O5*   C A   1      -6.777  11.573  70.640  1.00  0.00    -0.423 OA 
ATOM     23  H5*   C A   1      -6.754  10.766  71.139  1.00  0.00     0.000 HD 
ENDBRANCH  14  21
ENDBRANCH   8  12
TORSDOF 2
ENDMDL
MODEL      142
REMARK 921   NORMALIZED FREE ENERGY PREDICTED BY IDOCK:   -2.89 KCAL/MOL
REMARK 922        TOTAL FREE ENERGY PREDICTED BY IDOCK:   -3.24 KCAL/MOL
REMARK 923 INTER-LIGAND FREE ENERGY PREDICTED BY IDOCK:   -3.31 KCAL/MOL
REMARK 924 INTRA-LIGAND FREE ENERGY PREDICTED BY IDOCK:    0.07 KCAL/MOL
REMARK 927      BINDING AFFINITY PREDICTED BY RF-SCORE:    0.00 PKD
ROOT
ATOM      1  N4    C A   1      -9.325  16.739  68.654  1.00  0.00    -0.245 NA 
ATOM      2  H42   C A   1      -8.703  17.523  68.457  1.00  0.00     0.000 HD 
ATOM      3  C4    C A   1      -8.940  15.452  68.416  1.00  0.00    -0.189 C  
ATOM      4  H41   C A   1     -10.258  16.889  69.037  1.00  0.00     0.000 HD 
ATOM      5  N3    C A   1      -7.756  15.263  67.930  1.00  0.00    -0.126 N  
ATOM      6  C2    C A   1      -7.307  13.988  67.683  1.00  0.00    -0.175 C  
ATOM      7  H3    C A   1      -7.155  16.062  67.730  1.00  0.00     0.000 HD 
ATOM      8  N1    C A   1      -8.214  12.914  67.808  1.00  0.00    -0.160 N  
ATOM      9  O2    C A   1      -6.136  13.809  67.351  1.00  0.00    -0.344 OA 
ATOM     10  C5    C A   1      -9.868  14.349  68.705  1.00  0.00    -0.214 C  
ATOM     11  C6    C A   1      -9.456  13.130  68.363  1.00  0.00    -0.166 C  
ENDROOT
BRANCH   8  12
ATOM     12  C1*   C A   1      -7.664  11.583  67.546  1.00  0.00    -0.132 C  
ATOM     13  O4*   C A   1      -7.852  11.287  66.139  1.00  0.00    -0.121 OA 
ATOM     14  C4*   C A   1      -9.051  10.508  65.979  1.00  0.00    -0.168 C  
ATOM     15  C3*   C A   1      -9.271   9.770  67.291  1.00  0.00    -0.134 C  
ATOM     16  H2*   C A   1      -8.954   9.579  69.997  1.00  0.00     0.000 HD 
ATOM     17  C2*   C A   1      -8.189  10.301  68.228  1.00  0.00    -0.115 C  
ATOM     18  O3*   C A   1      -9.103   8.354  67.144  1.00  0.00    -0.134 OA 
ATOM     19  O2*   C A   1      -8.632  10.368  69.577  1.00  0.00    -0.159 OA 
ATOM     20  H3*   C A   1      -9.240   7.893  67.964  1.00  0.00     0.000 HD 
BRANCH  14  21
ATOM     21  C5*   C A   1     -10.221  11.444  65.649  1.00  0.00    -0.251 C  
ATOM     22  O5*   C A   1      -9.783  12.508  64.809  1.00  0.00    -0.476 OA 
ATOM     23  H5*   C A   1     -10.508  13.087  64.605  1.00  0.00     0.000 HD 
ENDBRANCH  14  21
ENDBRANCH   8  12
TORSDOF 2
ENDMDL
MODEL      143
REMARK 921   NORMALIZED FREE ENERGY PREDICTED BY IDOCK:   -2.86 KCAL/MOL
REMARK 922        TOTAL FREE ENERGY PREDICTED BY IDOCK:   -3.21 KCAL/MOL
REMARK 923 INTER-LIGAND FREE ENERGY PREDICTED BY IDOCK:   -4.42 KCAL/MOL
REMARK 924 INTRA-LIGAND FREE ENERGY PREDICTED BY IDOCK:    1.22 KCAL/MOL
REMARK 927      BINDING AFFINITY PREDICTED BY RF-SCORE:    0.00 PKD
ROOT
ATOM      1  N4    C A   1     -12.029   8.563  72.591  1.00  0.00    -0.385 NA 
ATOM      2  H42   C A   1     -13.028   8.632  72.778  1.00  0.00     0.000 HD 
ATOM      3  C4    C A   1     -11.480   9.106  71.466  1.00  0.00    -0.367 C  
ATOM      4  H41   C A   1     -11.401   8.085  73.237  1.00  0.00     0.000 HD 
ATOM      5  N3    C A   1     -12.276   9.712  70.645  1.00  0.00    -0.450 N  
ATOM      6  C2    C A   1     -11.778  10.292  69.502  1.00  0.00    -0.122 C  
ATOM      7  H3    C A   1     -13.274   9.760  70.847  1.00  0.00     0.000 HD 
ATOM      8  N1    C A   1     -10.428  10.067  69.162  1.00  0.00    -0.206 N  
ATOM      9  O2    C A   1     -12.516  10.981  68.799  1.00  0.00    -0.468 OA 
ATOM     10  C5    C A   1     -10.035   8.978  71.225  1.00  0.00    -0.381 C  
ATOM     11  C6    C A   1      -9.588   9.454  70.065  1.00  0.00    -0.226 C  
ENDROOT
BRANCH   8  12
ATOM     12  C1*   C A   1      -9.962  10.727  67.941  1.00  0.00    -0.174 C  
ATOM     13  O4*   C A   1      -8.723  10.096  67.531  1.00  0.00    -0.125 OA 
ATOM     14  C4*   C A   1      -7.614  10.867  68.029  1.00  0.00    -0.092 C  
ATOM     15  C3*   C A   1      -8.115  12.296  68.187  1.00  0.00    -0.158 C  
ATOM     16  H2*   C A   1     -10.142  14.076  68.607  1.00  0.00     0.000 HD 
ATOM     17  C2*   C A   1      -9.606  12.229  67.874  1.00  0.00    -0.203 C  
ATOM     18  O3*   C A   1      -7.485  13.189  67.259  1.00  0.00    -0.283 OA 
ATOM     19  O2*   C A   1     -10.360  13.152  68.648  1.00  0.00    -0.243 OA 
ATOM     20  H3*   C A   1      -7.797  14.081  67.358  1.00  0.00     0.000 HD 
BRANCH  14  21
ATOM     21  C5*   C A   1      -7.147  10.276  69.365  1.00  0.00    -0.094 C  
ATOM     22  O5*   C A   1      -6.722  11.313  70.244  1.00  0.00    -0.446 OA 
ATOM     23  H5*   C A   1      -6.432  10.947  71.071  1.00  0.00     0.000 HD 
ENDBRANCH  14  21
ENDBRANCH   8  12
TORSDOF 2
ENDMDL
MODEL      144
REMARK 921   NORMALIZED FREE ENERGY PREDICTED BY IDOCK:   -2.84 KCAL/MOL
REMARK 922        TOTAL FREE ENERGY PREDICTED BY IDOCK:   -3.19 KCAL/MOL
REMARK 923 INTER-LIGAND FREE ENERGY PREDICTED BY IDOCK:   -3.31 KCAL/MOL
REMARK 924 INTRA-LIGAND FREE ENERGY PREDICTED BY IDOCK:    0.12 KCAL/MOL
REMARK 927      BINDING AFFINITY PREDICTED BY RF-SCORE:    0.00 PKD
ROOT
ATOM      1  N4    C A   1      -9.105   8.986  64.657  1.00  0.00    -0.434 NA 
ATOM      2  H42   C A   1      -9.302   8.580  63.743  1.00  0.00     0.000 HD 
ATOM      3  C4    C A   1      -8.934   8.201  65.759  1.00  0.00    -0.119 C  
ATOM      4  H41   C A   1      -9.027   9.995  64.782  1.00  0.00     0.000 HD 
ATOM      5  N3    C A   1      -9.033   6.920  65.601  1.00  0.00    -0.361 N  
ATOM      6  C2    C A   1      -8.857   6.077  66.672  1.00  0.00    -0.125 C  
ATOM      7  H3    C A   1      -9.242   6.536  64.680  1.00  0.00     0.000 HD 
ATOM      8  N1    C A   1      -8.737   6.636  67.962  1.00  0.00    -0.118 N  
ATOM      9  O2    C A   1      -8.817   4.861  66.489  1.00  0.00    -0.112 OA 
ATOM     10  C5    C A   1      -8.659   8.823  67.062  1.00  0.00    -0.119 C  
ATOM     11  C6    C A   1      -8.594   7.998  68.106  1.00  0.00    -0.126 C  
ENDROOT
BRANCH   8  12
ATOM     12  C1*   C A   1      -8.535   5.681  69.053  1.00  0.00    -0.102 C  
ATOM     13  O4*   C A   1      -9.834   5.188  69.466  1.00  0.00    -0.169 OA 
ATOM     14  C4*   C A   1     -10.287   5.949  70.600  1.00  0.00    -0.235 C  
ATOM     15  C3*   C A   1      -9.041   6.471  71.301  1.00  0.00    -0.148 C  
ATOM     16  H2*   C A   1      -6.424   7.246  71.239  1.00  0.00     0.000 HD 
ATOM     17  C2*   C A   1      -7.880   6.060  70.399  1.00  0.00    -0.106 C  
ATOM     18  O3*   C A   1      -8.862   5.872  72.591  1.00  0.00    -0.123 OA 
ATOM     19  O2*   C A   1      -6.827   7.013  70.411  1.00  0.00    -0.055 OA 
ATOM     20  H3*   C A   1      -8.083   6.197  73.028  1.00  0.00     0.000 HD 
BRANCH  14  21
ATOM     21  C5*   C A   1     -11.188   7.092  70.115  1.00  0.00    -0.262 C  
ATOM     22  O5*   C A   1     -12.539   6.857  70.500  1.00  0.00    -0.591 OA 
ATOM     23  H5*   C A   1     -13.096   7.565  70.199  1.00  0.00     0.000 HD 
ENDBRANCH  14  21
ENDBRANCH   8  12
TORSDOF 2
ENDMDL
MODEL      145
REMARK 921   NORMALIZED FREE ENERGY PREDICTED BY IDOCK:   -2.81 KCAL/MOL
REMARK 922        TOTAL FREE ENERGY PREDICTED BY IDOCK:   -3.15 KCAL/MOL
REMARK 923 INTER-LIGAND FREE ENERGY PREDICTED BY IDOCK:   -4.22 KCAL/MOL
REMARK 924 INTRA-LIGAND FREE ENERGY PREDICTED BY IDOCK:    1.07 KCAL/MOL
REMARK 927      BINDING AFFINITY PREDICTED BY RF-SCORE:    0.00 PKD
ROOT
ATOM      1  N4    C A   1      -6.963   9.691  69.137  1.00  0.00    -0.050 NA 
ATOM      2  H42   C A   1      -7.015   8.769  69.569  1.00  0.00     0.000 HD 
ATOM      3  C4    C A   1      -8.080  10.454  68.959  1.00  0.00    -0.138 C  
ATOM      4  H41   C A   1      -6.074  10.077  68.821  1.00  0.00     0.000 HD 
ATOM      5  N3    C A   1      -9.208   9.964  69.360  1.00  0.00    -0.200 N  
ATOM      6  C2    C A   1     -10.366  10.692  69.221  1.00  0.00    -0.218 C  
ATOM      7  H3    C A   1      -9.239   9.035  69.779  1.00  0.00     0.000 HD 
ATOM      8  N1    C A   1     -10.323  11.897  68.488  1.00  0.00    -0.215 N  
ATOM      9  O2    C A   1     -11.409  10.279  69.726  1.00  0.00    -0.247 OA 
ATOM     10  C5    C A   1      -7.966  11.775  68.324  1.00  0.00    -0.147 C  
ATOM     11  C6    C A   1      -9.109  12.422  68.104  1.00  0.00    -0.200 C  
ENDROOT
BRANCH   8  12
ATOM     12  C1*   C A   1     -11.588  12.629  68.394  1.00  0.00    -0.328 C  
ATOM     13  O4*   C A   1     -11.615  13.322  67.122  1.00  0.00    -0.319 OA 
ATOM     14  C4*   C A   1     -11.175  14.678  67.316  1.00  0.00    -0.337 C  
ATOM     15  C3*   C A   1     -11.486  15.034  68.762  1.00  0.00    -0.319 C  
ATOM     16  H2*   C A   1     -11.881  14.300  71.362  1.00  0.00     0.000 HD 
ATOM     17  C2*   C A   1     -11.999  13.739  69.386  1.00  0.00    -0.347 C  
ATOM     18  O3*   C A   1     -12.509  16.034  68.860  1.00  0.00    -0.351 OA 
ATOM     19  O2*   C A   1     -11.628  13.617  70.752  1.00  0.00    -0.071 OA 
ATOM     20  H3*   C A   1     -12.703  16.256  69.763  1.00  0.00     0.000 HD 
BRANCH  14  21
ATOM     21  C5*   C A   1      -9.674  14.771  67.016  1.00  0.00    -0.237 C  
ATOM     22  O5*   C A   1      -9.452  14.837  65.611  1.00  0.00    -0.492 OA 
ATOM     23  H5*   C A   1      -8.522  14.894  65.425  1.00  0.00     0.000 HD 
ENDBRANCH  14  21
ENDBRANCH   8  12
TORSDOF 2
ENDMDL
MODEL      146
REMARK 921   NORMALIZED FREE ENERGY PREDICTED BY IDOCK:   -2.79 KCAL/MOL
REMARK 922        TOTAL FREE ENERGY PREDICTED BY IDOCK:   -3.13 KCAL/MOL
REMARK 923 INTER-LIGAND FREE ENERGY PREDICTED BY IDOCK:   -3.24 KCAL/MOL
REMARK 924 INTRA-LIGAND FREE ENERGY PREDICTED BY IDOCK:    0.11 KCAL/MOL
REMARK 927      BINDING AFFINITY PREDICTED BY RF-SCORE:    0.00 PKD
ROOT
ATOM      1  N4    C A   1      -8.448   3.728  74.546  1.00  0.00    -0.088 NA 
ATOM      2  H42   C A   1      -8.079   4.049  75.440  1.00  0.00     0.000 HD 
ATOM      3  C4    C A   1      -8.531   4.566  73.472  1.00  0.00    -0.101 C  
ATOM      4  H41   C A   1      -8.770   2.769  74.420  1.00  0.00     0.000 HD 
ATOM      5  N3    C A   1      -8.123   5.783  73.632  1.00  0.00    -0.111 N  
ATOM      6  C2    C A   1      -8.168   6.670  72.582  1.00  0.00    -0.108 C  
ATOM      7  H3    C A   1      -7.768   6.086  74.538  1.00  0.00     0.000 HD 
ATOM      8  N1    C A   1      -8.818   6.277  71.392  1.00  0.00    -0.138 N  
ATOM      9  O2    C A   1      -7.655   7.781  72.702  1.00  0.00    -0.089 OA 
ATOM     10  C5    C A   1      -9.077   4.069  72.201  1.00  0.00    -0.158 C  
ATOM     11  C6    C A   1      -9.209   4.968  71.227  1.00  0.00    -0.145 C  
ENDROOT
BRANCH   8  12
ATOM     12  C1*   C A   1      -8.814   7.264  70.311  1.00  0.00    -0.147 C  
ATOM     13  O4*   C A   1      -9.807   8.275  70.619  1.00  0.00    -0.179 OA 
ATOM     14  C4*   C A   1     -11.032   7.955  69.935  1.00  0.00    -0.178 C  
ATOM     15  C3*   C A   1     -10.646   7.136  68.711  1.00  0.00    -0.196 C  
ATOM     16  H2*   C A   1      -8.940   5.436  67.425  1.00  0.00     0.000 HD 
ATOM     17  C2*   C A   1      -9.142   6.913  68.843  1.00  0.00    -0.134 C  
ATOM     18  O3*   C A   1     -10.905   7.843  67.491  1.00  0.00    -0.480 OA 
ATOM     19  O2*   C A   1      -8.739   5.652  68.328  1.00  0.00    -0.107 OA 
ATOM     20  H3*   C A   1     -10.664   7.332  66.727  1.00  0.00     0.000 HD 
BRANCH  14  21
ATOM     21  C5*   C A   1     -11.947   7.168  70.881  1.00  0.00    -0.334 C  
ATOM     22  O5*   C A   1     -13.224   7.792  70.968  1.00  0.00    -0.549 OA 
ATOM     23  H5*   C A   1     -13.791   7.305  71.554  1.00  0.00     0.000 HD 
ENDBRANCH  14  21
ENDBRANCH   8  12
TORSDOF 2
ENDMDL
MODEL      147
REMARK 921   NORMALIZED FREE ENERGY PREDICTED BY IDOCK:   -2.78 KCAL/MOL
REMARK 922        TOTAL FREE ENERGY PREDICTED BY IDOCK:   -3.12 KCAL/MOL
REMARK 923 INTER-LIGAND FREE ENERGY PREDICTED BY IDOCK:   -4.18 KCAL/MOL
REMARK 924 INTRA-LIGAND FREE ENERGY PREDICTED BY IDOCK:    1.06 KCAL/MOL
REMARK 927      BINDING AFFINITY PREDICTED BY RF-SCORE:    0.00 PKD
ROOT
ATOM      1  N4    C A   1      -8.490   8.027  63.967  1.00  0.00    -0.390 NA 
ATOM      2  H42   C A   1      -8.269   7.033  64.026  1.00  0.00     0.000 HD 
ATOM      3  C4    C A   1      -9.185   8.657  64.958  1.00  0.00     0.201 C  
ATOM      4  H41   C A   1      -8.202   8.586  63.165  1.00  0.00     0.000 HD 
ATOM      5  N3    C A   1      -9.551   7.947  65.976  1.00  0.00    -0.436 N  
ATOM      6  C2    C A   1     -10.240   8.530  67.012  1.00  0.00    -0.301 C  
ATOM      7  H3    C A   1      -9.329   6.953  66.009  1.00  0.00     0.000 HD 
ATOM      8  N1    C A   1     -10.682   9.863  66.867  1.00  0.00    -0.171 N  
ATOM      9  O2    C A   1     -10.465   7.883  68.033  1.00  0.00    -0.213 OA 
ATOM     10  C5    C A   1      -9.493  10.090  64.834  1.00  0.00    -0.355 C  
ATOM     11  C6    C A   1     -10.249  10.614  65.796  1.00  0.00    -0.252 C  
ENDROOT
BRANCH   8  12
ATOM     12  C1*   C A   1     -11.395  10.425  68.015  1.00  0.00    -0.204 C  
ATOM     13  O4*   C A   1     -12.397  11.347  67.517  1.00  0.00    -0.134 OA 
ATOM     14  C4*   C A   1     -11.866  12.684  67.556  1.00  0.00    -0.334 C  
ATOM     15  C3*   C A   1     -10.811  12.702  68.653  1.00  0.00    -0.249 C  
ATOM     16  H2*   C A   1      -8.952  11.422  70.189  1.00  0.00     0.000 HD 
ATOM     17  C2*   C A   1     -10.702  11.253  69.119  1.00  0.00    -0.207 C  
ATOM     18  O3*   C A   1     -11.206  13.519  69.763  1.00  0.00    -0.453 OA 
ATOM     19  O2*   C A   1      -9.378  10.913  69.510  1.00  0.00    -0.004 OA 
ATOM     20  H3*   C A   1     -10.548  13.530  70.448  1.00  0.00     0.000 HD 
BRANCH  14  21
ATOM     21  C5*   C A   1     -11.270  13.031  66.187  1.00  0.00    -0.291 C  
ATOM     22  O5*   C A   1     -12.214  13.757  65.404  1.00  0.00    -0.388 OA 
ATOM     23  H5*   C A   1     -11.844  13.971  64.556  1.00  0.00     0.000 HD 
ENDBRANCH  14  21
ENDBRANCH   8  12
TORSDOF 2
ENDMDL
MODEL      148
REMARK 921   NORMALIZED FREE ENERGY PREDICTED BY IDOCK:   -2.77 KCAL/MOL
REMARK 922        TOTAL FREE ENERGY PREDICTED BY IDOCK:   -3.11 KCAL/MOL
REMARK 923 INTER-LIGAND FREE ENERGY PREDICTED BY IDOCK:   -3.10 KCAL/MOL
REMARK 924 INTRA-LIGAND FREE ENERGY PREDICTED BY IDOCK:   -0.01 KCAL/MOL
REMARK 927      BINDING AFFINITY PREDICTED BY RF-SCORE:    0.00 PKD
ROOT
ATOM      1  N4    C A   1     -12.620  10.949  69.202  1.00  0.00    -0.625 NA 
ATOM      2  H42   C A   1     -13.237  11.411  68.534  1.00  0.00     0.000 HD 
ATOM      3  C4    C A   1     -11.526  10.247  68.787  1.00  0.00    -0.113 C  
ATOM      4  H41   C A   1     -12.798  10.994  70.205  1.00  0.00     0.000 HD 
ATOM      5  N3    C A   1     -11.300  10.190  67.515  1.00  0.00    -0.332 N  
ATOM      6  C2    C A   1     -10.204   9.510  67.038  1.00  0.00    -0.255 C  
ATOM      7  H3    C A   1     -11.936  10.649  66.864  1.00  0.00     0.000 HD 
ATOM      8  N1    C A   1      -9.437   8.744  67.941  1.00  0.00    -0.141 N  
ATOM      9  O2    C A   1      -9.922   9.574  65.842  1.00  0.00    -0.291 OA 
ATOM     10  C5    C A   1     -10.664   9.588  69.780  1.00  0.00    -0.259 C  
ATOM     11  C6    C A   1      -9.668   8.849  69.295  1.00  0.00    -0.165 C  
ENDROOT
BRANCH   8  12
ATOM     12  C1*   C A   1      -8.277   8.060  67.368  1.00  0.00    -0.123 C  
ATOM     13  O4*   C A   1      -8.752   6.904  66.633  1.00  0.00    -0.118 OA 
ATOM     14  C4*   C A   1      -8.661   5.741  67.475  1.00  0.00    -0.107 C  
ATOM     15  C3*   C A   1      -7.555   6.018  68.483  1.00  0.00    -0.091 C  
ATOM     16  H2*   C A   1      -6.047   7.764  69.942  1.00  0.00     0.000 HD 
ATOM     17  C2*   C A   1      -7.138   7.463  68.224  1.00  0.00    -0.084 C  
ATOM     18  O3*   C A   1      -6.420   5.164  68.281  1.00  0.00    -0.037 OA 
ATOM     19  O2*   C A   1      -6.747   8.131  69.416  1.00  0.00    -0.041 OA 
ATOM     20  H3*   C A   1      -5.730   5.337  68.909  1.00  0.00     0.000 HD 
BRANCH  14  21
ATOM     21  C5*   C A   1     -10.012   5.508  68.163  1.00  0.00    -0.153 C  
ATOM     22  O5*   C A   1      -9.836   5.379  69.570  1.00  0.00    -0.162 OA 
ATOM     23  H5*   C A   1     -10.673   5.234  69.996  1.00  0.00     0.000 HD 
ENDBRANCH  14  21
ENDBRANCH   8  12
TORSDOF 2
ENDMDL
MODEL      149
REMARK 921   NORMALIZED FREE ENERGY PREDICTED BY IDOCK:   -2.76 KCAL/MOL
REMARK 922        TOTAL FREE ENERGY PREDICTED BY IDOCK:   -3.10 KCAL/MOL
REMARK 923 INTER-LIGAND FREE ENERGY PREDICTED BY IDOCK:   -3.38 KCAL/MOL
REMARK 924 INTRA-LIGAND FREE ENERGY PREDICTED BY IDOCK:    0.29 KCAL/MOL
REMARK 927      BINDING AFFINITY PREDICTED BY RF-SCORE:    0.00 PKD
ROOT
ATOM      1  N4    C A   1     -11.773  14.110  66.771  1.00  0.00    -0.391 NA 
ATOM      2  H42   C A   1     -11.634  14.992  67.264  1.00  0.00     0.000 HD 
ATOM      3  C4    C A   1     -10.757  13.212  66.627  1.00  0.00    -0.279 C  
ATOM      4  H41   C A   1     -12.678  13.867  66.368  1.00  0.00     0.000 HD 
ATOM      5  N3    C A   1      -9.610  13.520  67.139  1.00  0.00    -0.233 N  
ATOM      6  C2    C A   1      -8.552  12.648  67.039  1.00  0.00    -0.181 C  
ATOM      7  H3    C A   1      -9.489  14.412  67.618  1.00  0.00     0.000 HD 
ATOM      8  N1    C A   1      -8.695  11.501  66.229  1.00  0.00    -0.181 N  
ATOM      9  O2    C A   1      -7.507  12.887  67.643  1.00  0.00    -0.122 OA 
ATOM     10  C5    C A   1     -10.994  11.954  65.903  1.00  0.00    -0.354 C  
ATOM     11  C6    C A   1      -9.933  11.169  65.726  1.00  0.00    -0.245 C  
ENDROOT
BRANCH   8  12
ATOM     12  C1*   C A   1      -7.535  10.609  66.181  1.00  0.00    -0.138 C  
ATOM     13  O4*   C A   1      -6.846  10.831  64.926  1.00  0.00     0.057 OA 
ATOM     14  C4*   C A   1      -7.282   9.848  63.969  1.00  0.00    -0.133 C  
ATOM     15  C3*   C A   1      -7.736   8.635  64.768  1.00  0.00    -0.108 C  
ATOM     16  H2*   C A   1      -8.735   7.529  67.056  1.00  0.00     0.000 HD 
ATOM     17  C2*   C A   1      -7.649   9.069  66.228  1.00  0.00    -0.092 C  
ATOM     18  O3*   C A   1      -6.873   7.507  64.567  1.00  0.00    -0.049 OA 
ATOM     19  O2*   C A   1      -8.664   8.476  67.026  1.00  0.00    -0.122 OA 
ATOM     20  H3*   C A   1      -7.157   6.750  65.065  1.00  0.00     0.000 HD 
BRANCH  14  21
ATOM     21  C5*   C A   1      -8.421  10.434  63.126  1.00  0.00    -0.179 C  
ATOM     22  O5*   C A   1      -7.984  11.609  62.450  1.00  0.00    -0.635 OA 
ATOM     23  H5*   C A   1      -8.690  11.972  61.928  1.00  0.00     0.000 HD 
ENDBRANCH  14  21
ENDBRANCH   8  12
TORSDOF 2
ENDMDL
MODEL      150
REMARK 921   NORMALIZED FREE ENERGY PREDICTED BY IDOCK:   -2.76 KCAL/MOL
REMARK 922        TOTAL FREE ENERGY PREDICTED BY IDOCK:   -3.10 KCAL/MOL
REMARK 923 INTER-LIGAND FREE ENERGY PREDICTED BY IDOCK:   -3.12 KCAL/MOL
REMARK 924 INTRA-LIGAND FREE ENERGY PREDICTED BY IDOCK:    0.02 KCAL/MOL
REMARK 927      BINDING AFFINITY PREDICTED BY RF-SCORE:    0.00 PKD
ROOT
ATOM      1  N4    C A   1      -7.868   7.468  63.799  1.00  0.00    -0.151 NA 
ATOM      2  H42   C A   1      -7.861   8.092  62.993  1.00  0.00     0.000 HD 
ATOM      3  C4    C A   1      -8.498   7.816  64.958  1.00  0.00    -0.036 C  
ATOM      4  H41   C A   1      -7.404   6.560  63.769  1.00  0.00     0.000 HD 
ATOM      5  N3    C A   1      -9.086   8.968  64.996  1.00  0.00    -0.404 N  
ATOM      6  C2    C A   1      -9.751   9.367  66.131  1.00  0.00    -0.265 C  
ATOM      7  H3    C A   1      -9.057   9.581  64.182  1.00  0.00     0.000 HD 
ATOM      8  N1    C A   1      -9.634   8.579  67.296  1.00  0.00    -0.161 N  
ATOM      9  O2    C A   1     -10.420  10.399  66.113  1.00  0.00    -0.225 OA 
ATOM     10  C5    C A   1      -8.480   6.893  66.102  1.00  0.00    -0.136 C  
ATOM     11  C6    C A   1      -9.038   7.339  67.226  1.00  0.00    -0.123 C  
ENDROOT
BRANCH   8  12
ATOM     12  C1*   C A   1     -10.380   9.054  68.462  1.00  0.00    -0.203 C  
ATOM     13  O4*   C A   1      -9.590  10.079  69.116  1.00  0.00    -0.186 OA 
ATOM     14  C4*   C A   1      -8.845   9.484  70.193  1.00  0.00    -0.235 C  
ATOM     15  C3*   C A   1      -9.628   8.256  70.637  1.00  0.00    -0.171 C  
ATOM     16  H2*   C A   1     -11.375   6.227  70.106  1.00  0.00     0.000 HD 
ATOM     17  C2*   C A   1     -10.779   8.141  69.642  1.00  0.00    -0.195 C  
ATOM     18  O3*   C A   1     -10.168   8.413  71.956  1.00  0.00    -0.239 OA 
ATOM     19  O2*   C A   1     -11.130   6.789  69.381  1.00  0.00    -0.268 OA 
ATOM     20  H3*   C A   1     -10.657   7.647  72.233  1.00  0.00     0.000 HD 
BRANCH  14  21
ATOM     21  C5*   C A   1      -7.442   9.116  69.695  1.00  0.00    -0.078 C  
ATOM     22  O5*   C A   1      -6.949   7.979  70.398  1.00  0.00    -0.041 OA 
ATOM     23  H5*   C A   1      -6.080   7.752  70.090  1.00  0.00     0.000 HD 
ENDBRANCH  14  21
ENDBRANCH   8  12
TORSDOF 2
ENDMDL
MODEL      151
REMARK 921   NORMALIZED FREE ENERGY PREDICTED BY IDOCK:   -2.75 KCAL/MOL
REMARK 922        TOTAL FREE ENERGY PREDICTED BY IDOCK:   -3.09 KCAL/MOL
REMARK 923 INTER-LIGAND FREE ENERGY PREDICTED BY IDOCK:   -3.25 KCAL/MOL
REMARK 924 INTRA-LIGAND FREE ENERGY PREDICTED BY IDOCK:    0.16 KCAL/MOL
REMARK 927      BINDING AFFINITY PREDICTED BY RF-SCORE:    0.00 PKD
ROOT
ATOM      1  N4    C A   1     -12.250   6.971  72.255  1.00  0.00    -0.495 NA 
ATOM      2  H42   C A   1     -13.249   7.177  72.245  1.00  0.00     0.000 HD 
ATOM      3  C4    C A   1     -11.383   7.632  71.435  1.00  0.00    -0.258 C  
ATOM      4  H41   C A   1     -11.863   6.263  72.878  1.00  0.00     0.000 HD 
ATOM      5  N3    C A   1     -11.875   8.530  70.644  1.00  0.00    -0.471 N  
ATOM      6  C2    C A   1     -11.049   9.240  69.806  1.00  0.00    -0.150 C  
ATOM      7  H3    C A   1     -12.878   8.712  70.643  1.00  0.00     0.000 HD 
ATOM      8  N1    C A   1      -9.695   8.854  69.705  1.00  0.00    -0.170 N  
ATOM      9  O2    C A   1     -11.503  10.182  69.158  1.00  0.00    -0.192 OA 
ATOM     10  C5    C A   1      -9.951   7.302  71.472  1.00  0.00    -0.191 C  
ATOM     11  C6    C A   1      -9.181   7.925  70.581  1.00  0.00    -0.157 C  
ENDROOT
BRANCH   8  12
ATOM     12  C1*   C A   1      -8.870   9.663  68.806  1.00  0.00    -0.130 C  
ATOM     13  O4*   C A   1      -9.287   9.394  67.445  1.00  0.00    -0.126 OA 
ATOM     14  C4*   C A   1      -8.421   8.395  66.876  1.00  0.00    -0.117 C  
ATOM     15  C3*   C A   1      -7.093   8.500  67.613  1.00  0.00    -0.080 C  
ATOM     16  H2*   C A   1      -5.651   9.151  69.838  1.00  0.00     0.000 HD 
ATOM     17  C2*   C A   1      -7.334   9.527  68.715  1.00  0.00    -0.074 C  
ATOM     18  O3*   C A   1      -6.042   8.971  66.760  1.00  0.00    -0.058 OA 
ATOM     19  O2*   C A   1      -6.596   9.234  69.894  1.00  0.00    -0.044 OA 
ATOM     20  H3*   C A   1      -5.214   9.036  67.220  1.00  0.00     0.000 HD 
BRANCH  14  21
ATOM     21  C5*   C A   1      -9.061   7.013  67.049  1.00  0.00    -0.137 C  
ATOM     22  O5*   C A   1     -10.057   6.799  66.053  1.00  0.00    -0.398 OA 
ATOM     23  H5*   C A   1     -10.454   5.943  66.160  1.00  0.00     0.000 HD 
ENDBRANCH  14  21
ENDBRANCH   8  12
TORSDOF 2
ENDMDL
MODEL      152
REMARK 921   NORMALIZED FREE ENERGY PREDICTED BY IDOCK:   -2.71 KCAL/MOL
REMARK 922        TOTAL FREE ENERGY PREDICTED BY IDOCK:   -3.04 KCAL/MOL
REMARK 923 INTER-LIGAND FREE ENERGY PREDICTED BY IDOCK:   -4.05 KCAL/MOL
REMARK 924 INTRA-LIGAND FREE ENERGY PREDICTED BY IDOCK:    1.01 KCAL/MOL
REMARK 927      BINDING AFFINITY PREDICTED BY RF-SCORE:    0.00 PKD
ROOT
ATOM      1  N4    C A   1      -8.463   9.313  65.536  1.00  0.00    -0.132 NA 
ATOM      2  H42   C A   1      -8.703   9.142  64.560  1.00  0.00     0.000 HD 
ATOM      3  C4    C A   1      -9.111   8.665  66.548  1.00  0.00    -0.165 C  
ATOM      4  H41   C A   1      -7.731   9.974  65.793  1.00  0.00     0.000 HD 
ATOM      5  N3    C A   1     -10.040   7.826  66.222  1.00  0.00    -0.468 N  
ATOM      6  C2    C A   1     -10.718   7.133  67.196  1.00  0.00    -0.352 C  
ATOM      7  H3    C A   1     -10.271   7.679  65.240  1.00  0.00     0.000 HD 
ATOM      8  N1    C A   1     -10.499   7.477  68.547  1.00  0.00    -0.197 N  
ATOM      9  O2    C A   1     -11.502   6.241  66.875  1.00  0.00    -0.134 OA 
ATOM     10  C5    C A   1      -8.744   8.944  67.944  1.00  0.00    -0.129 C  
ATOM     11  C6    C A   1      -9.480   8.342  68.876  1.00  0.00    -0.151 C  
ENDROOT
BRANCH   8  12
ATOM     12  C1*   C A   1     -11.241   6.687  69.532  1.00  0.00    -0.326 C  
ATOM     13  O4*   C A   1     -11.659   7.574  70.599  1.00  0.00    -0.288 OA 
ATOM     14  C4*   C A   1     -10.708   7.495  71.677  1.00  0.00    -0.214 C  
ATOM     15  C3*   C A   1     -10.062   6.120  71.586  1.00  0.00    -0.187 C  
ATOM     16  H2*   C A   1      -9.295   3.940  70.131  1.00  0.00     0.000 HD 
ATOM     17  C2*   C A   1     -10.622   5.504  70.308  1.00  0.00    -0.287 C  
ATOM     18  O3*   C A   1     -10.418   5.286  72.698  1.00  0.00    -0.199 OA 
ATOM     19  O2*   C A   1      -9.676   4.669  69.654  1.00  0.00    -0.177 OA 
ATOM     20  H3*   C A   1     -10.015   4.428  72.641  1.00  0.00     0.000 HD 
BRANCH  14  21
ATOM     21  C5*   C A   1      -9.677   8.619  71.525  1.00  0.00    -0.263 C  
ATOM     22  O5*   C A   1      -8.904   8.748  72.715  1.00  0.00    -0.382 OA 
ATOM     23  H5*   C A   1      -8.266   9.444  72.620  1.00  0.00     0.000 HD 
ENDBRANCH  14  21
ENDBRANCH   8  12
TORSDOF 2
ENDMDL
MODEL      153
REMARK 921   NORMALIZED FREE ENERGY PREDICTED BY IDOCK:   -2.71 KCAL/MOL
REMARK 922        TOTAL FREE ENERGY PREDICTED BY IDOCK:   -3.04 KCAL/MOL
REMARK 923 INTER-LIGAND FREE ENERGY PREDICTED BY IDOCK:   -3.09 KCAL/MOL
REMARK 924 INTRA-LIGAND FREE ENERGY PREDICTED BY IDOCK:    0.05 KCAL/MOL
REMARK 927      BINDING AFFINITY PREDICTED BY RF-SCORE:    0.00 PKD
ROOT
ATOM      1  N4    C A   1     -10.346   6.065  73.202  1.00  0.00    -0.200 NA 
ATOM      2  H42   C A   1     -10.108   6.711  73.953  1.00  0.00     0.000 HD 
ATOM      3  C4    C A   1      -9.740   6.143  71.982  1.00  0.00    -0.151 C  
ATOM      4  H41   C A   1     -11.046   5.335  73.333  1.00  0.00     0.000 HD 
ATOM      5  N3    C A   1      -8.852   7.069  71.814  1.00  0.00    -0.126 N  
ATOM      6  C2    C A   1      -8.196   7.187  70.612  1.00  0.00    -0.117 C  
ATOM      7  H3    C A   1      -8.637   7.711  72.576  1.00  0.00     0.000 HD 
ATOM      8  N1    C A   1      -8.629   6.399  69.525  1.00  0.00    -0.132 N  
ATOM      9  O2    C A   1      -7.260   7.979  70.505  1.00  0.00    -0.051 OA 
ATOM     10  C5    C A   1     -10.115   5.198  70.920  1.00  0.00    -0.302 C  
ATOM     11  C6    C A   1      -9.547   5.393  69.732  1.00  0.00    -0.168 C  
ENDROOT
BRANCH   8  12
ATOM     12  C1*   C A   1      -7.876   6.565  68.280  1.00  0.00    -0.106 C  
ATOM     13  O4*   C A   1      -8.194   7.868  67.731  1.00  0.00    -0.125 OA 
ATOM     14  C4*   C A   1      -9.234   7.724  66.747  1.00  0.00    -0.163 C  
ATOM     15  C3*   C A   1      -9.127   6.305  66.207  1.00  0.00    -0.153 C  
ATOM     16  H2*   C A   1      -8.414   3.688  66.514  1.00  0.00     0.000 HD 
ATOM     17  C2*   C A   1      -8.049   5.639  67.056  1.00  0.00    -0.102 C  
ATOM     18  O3*   C A   1      -8.714   6.285  64.833  1.00  0.00    -0.347 OA 
ATOM     19  O2*   C A   1      -8.308   4.258  67.267  1.00  0.00    -0.100 OA 
ATOM     20  H3*   C A   1      -8.648   5.399  64.496  1.00  0.00     0.000 HD 
BRANCH  14  21
ATOM     21  C5*   C A   1     -10.594   7.981  67.407  1.00  0.00    -0.267 C  
ATOM     22  O5*   C A   1     -11.570   7.076  66.900  1.00  0.00    -0.476 OA 
ATOM     23  H5*   C A   1     -12.412   7.235  67.309  1.00  0.00     0.000 HD 
ENDBRANCH  14  21
ENDBRANCH   8  12
TORSDOF 2
ENDMDL
MODEL      154
REMARK 921   NORMALIZED FREE ENERGY PREDICTED BY IDOCK:   -2.70 KCAL/MOL
REMARK 922        TOTAL FREE ENERGY PREDICTED BY IDOCK:   -3.03 KCAL/MOL
REMARK 923 INTER-LIGAND FREE ENERGY PREDICTED BY IDOCK:   -3.02 KCAL/MOL
REMARK 924 INTRA-LIGAND FREE ENERGY PREDICTED BY IDOCK:   -0.01 KCAL/MOL
REMARK 927      BINDING AFFINITY PREDICTED BY RF-SCORE:    0.00 PKD
ROOT
ATOM      1  N4    C A   1      -9.211   2.694  70.787  1.00  0.00    -0.121 NA 
ATOM      2  H42   C A   1      -8.400   2.109  70.985  1.00  0.00     0.000 HD 
ATOM      3  C4    C A   1      -9.068   3.980  70.355  1.00  0.00    -0.114 C  
ATOM      4  H41   C A   1     -10.160   2.340  70.904  1.00  0.00     0.000 HD 
ATOM      5  N3    C A   1      -7.864   4.430  70.206  1.00  0.00    -0.058 N  
ATOM      6  C2    C A   1      -7.656   5.713  69.760  1.00  0.00    -0.075 C  
ATOM      7  H3    C A   1      -7.067   3.832  70.421  1.00  0.00     0.000 HD 
ATOM      8  N1    C A   1      -8.768   6.573  69.632  1.00  0.00    -0.138 N  
ATOM      9  O2    C A   1      -6.515   6.087  69.492  1.00  0.00    -0.039 OA 
ATOM     10  C5    C A   1     -10.261   4.796  70.087  1.00  0.00    -0.259 C  
ATOM     11  C6    C A   1     -10.042   6.067  69.755  1.00  0.00    -0.191 C  
ENDROOT
BRANCH   8  12
ATOM     12  C1*   C A   1      -8.476   7.920  69.136  1.00  0.00    -0.137 C  
ATOM     13  O4*   C A   1      -7.972   8.709  70.243  1.00  0.00    -0.093 OA 
ATOM     14  C4*   C A   1      -9.056   9.465  70.813  1.00  0.00    -0.204 C  
ATOM     15  C3*   C A   1     -10.079   9.662  69.704  1.00  0.00    -0.224 C  
ATOM     16  H2*   C A   1     -11.255   8.852  67.377  1.00  0.00     0.000 HD 
ATOM     17  C2*   C A   1      -9.548   8.849  68.527  1.00  0.00    -0.157 C  
ATOM     18  O3*   C A   1     -10.182  11.037  69.309  1.00  0.00    -0.329 OA 
ATOM     19  O2*   C A   1     -10.595   8.280  67.752  1.00  0.00    -0.227 OA 
ATOM     20  H3*   C A   1     -10.821  11.161  68.617  1.00  0.00     0.000 HD 
BRANCH  14  21
ATOM     21  C5*   C A   1      -9.644   8.690  71.998  1.00  0.00    -0.314 C  
ATOM     22  O5*   C A   1     -11.066   8.772  71.989  1.00  0.00    -0.341 OA 
ATOM     23  H5*   C A   1     -11.430   8.292  72.723  1.00  0.00     0.000 HD 
ENDBRANCH  14  21
ENDBRANCH   8  12
TORSDOF 2
ENDMDL
MODEL      155
REMARK 921   NORMALIZED FREE ENERGY PREDICTED BY IDOCK:   -2.69 KCAL/MOL
REMARK 922        TOTAL FREE ENERGY PREDICTED BY IDOCK:   -3.02 KCAL/MOL
REMARK 923 INTER-LIGAND FREE ENERGY PREDICTED BY IDOCK:   -3.11 KCAL/MOL
REMARK 924 INTRA-LIGAND FREE ENERGY PREDICTED BY IDOCK:    0.10 KCAL/MOL
REMARK 927      BINDING AFFINITY PREDICTED BY RF-SCORE:    0.00 PKD
ROOT
ATOM      1  N4    C A   1     -11.759  10.680  70.873  1.00  0.00    -0.322 NA 
ATOM      2  H42   C A   1     -11.435  11.644  70.946  1.00  0.00     0.000 HD 
ATOM      3  C4    C A   1     -10.891   9.658  70.623  1.00  0.00    -0.320 C  
ATOM      4  H41   C A   1     -12.745  10.444  70.984  1.00  0.00     0.000 HD 
ATOM      5  N3    C A   1      -9.640   9.958  70.482  1.00  0.00    -0.354 N  
ATOM      6  C2    C A   1      -8.716   8.969  70.244  1.00  0.00    -0.184 C  
ATOM      7  H3    C A   1      -9.340  10.930  70.548  1.00  0.00     0.000 HD 
ATOM      8  N1    C A   1      -9.176   7.659  69.990  1.00  0.00    -0.151 N  
ATOM      9  O2    C A   1      -7.517   9.243  70.247  1.00  0.00    -0.082 OA 
ATOM     10  C5    C A   1     -11.397   8.282  70.517  1.00  0.00    -0.225 C  
ATOM     11  C6    C A   1     -10.504   7.352  70.184  1.00  0.00    -0.220 C  
ENDROOT
BRANCH   8  12
ATOM     12  C1*   C A   1      -8.137   6.654  69.761  1.00  0.00    -0.126 C  
ATOM     13  O4*   C A   1      -7.724   6.740  68.374  1.00  0.00    -0.102 OA 
ATOM     14  C4*   C A   1      -8.442   5.757  67.607  1.00  0.00    -0.103 C  
ATOM     15  C3*   C A   1      -8.813   4.639  68.571  1.00  0.00    -0.101 C  
ATOM     16  H2*   C A   1      -9.377   3.760  71.093  1.00  0.00     0.000 HD 
ATOM     17  C2*   C A   1      -8.371   5.138  69.943  1.00  0.00    -0.093 C  
ATOM     18  O3*   C A   1      -8.116   3.422  68.272  1.00  0.00    -0.072 OA 
ATOM     19  O2*   C A   1      -9.233   4.692  70.981  1.00  0.00    -0.126 OA 
ATOM     20  H3*   C A   1      -8.348   2.724  68.874  1.00  0.00     0.000 HD 
BRANCH  14  21
ATOM     21  C5*   C A   1      -9.683   6.409  66.986  1.00  0.00    -0.149 C  
ATOM     22  O5*   C A   1     -10.133   5.652  65.866  1.00  0.00    -0.384 OA 
ATOM     23  H5*   C A   1     -10.902   6.056  65.481  1.00  0.00     0.000 HD 
ENDBRANCH  14  21
ENDBRANCH   8  12
TORSDOF 2
ENDMDL
MODEL      156
REMARK 921   NORMALIZED FREE ENERGY PREDICTED BY IDOCK:   -2.69 KCAL/MOL
REMARK 922        TOTAL FREE ENERGY PREDICTED BY IDOCK:   -3.02 KCAL/MOL
REMARK 923 INTER-LIGAND FREE ENERGY PREDICTED BY IDOCK:   -3.03 KCAL/MOL
REMARK 924 INTRA-LIGAND FREE ENERGY PREDICTED BY IDOCK:    0.02 KCAL/MOL
REMARK 927      BINDING AFFINITY PREDICTED BY RF-SCORE:    0.00 PKD
ROOT
ATOM      1  N4    C A   1      -9.587   2.183  72.489  1.00  0.00    -0.090 NA 
ATOM      2  H42   C A   1     -10.151   1.797  73.245  1.00  0.00     0.000 HD 
ATOM      3  C4    C A   1      -9.453   3.530  72.321  1.00  0.00    -0.122 C  
ATOM      4  H41   C A   1      -9.102   1.576  71.829  1.00  0.00     0.000 HD 
ATOM      5  N3    C A   1     -10.070   4.300  73.159  1.00  0.00    -0.142 N  
ATOM      6  C2    C A   1      -9.961   5.666  73.050  1.00  0.00    -0.173 C  
ATOM      7  H3    C A   1     -10.638   3.893  73.901  1.00  0.00     0.000 HD 
ATOM      8  N1    C A   1      -9.310   6.205  71.919  1.00  0.00    -0.151 N  
ATOM      9  O2    C A   1     -10.436   6.386  73.926  1.00  0.00    -0.289 OA 
ATOM     10  C5    C A   1      -8.638   4.049  71.214  1.00  0.00    -0.116 C  
ATOM     11  C6    C A   1      -8.627   5.372  71.061  1.00  0.00    -0.124 C  
ENDROOT
BRANCH   8  12
ATOM     12  C1*   C A   1      -9.216   7.666  71.876  1.00  0.00    -0.134 C  
ATOM     13  O4*   C A   1     -10.454   8.181  71.326  1.00  0.00    -0.204 OA 
ATOM     14  C4*   C A   1     -10.282   8.415  69.917  1.00  0.00    -0.201 C  
ATOM     15  C3*   C A   1      -8.797   8.667  69.696  1.00  0.00    -0.137 C  
ATOM     16  H2*   C A   1      -6.190   8.329  70.431  1.00  0.00     0.000 HD 
ATOM     17  C2*   C A   1      -8.149   8.421  71.055  1.00  0.00    -0.119 C  
ATOM     18  O3*   C A   1      -8.538  10.020  69.295  1.00  0.00    -0.143 OA 
ATOM     19  O2*   C A   1      -6.847   7.864  70.936  1.00  0.00    -0.041 OA 
ATOM     20  H3*   C A   1      -7.611  10.177  69.158  1.00  0.00     0.000 HD 
BRANCH  14  21
ATOM     21  C5*   C A   1     -10.773   7.189  69.137  1.00  0.00    -0.198 C  
ATOM     22  O5*   C A   1     -11.984   6.695  69.702  1.00  0.00    -0.653 OA 
ATOM     23  H5*   C A   1     -12.288   5.936  69.219  1.00  0.00     0.000 HD 
ENDBRANCH  14  21
ENDBRANCH   8  12
TORSDOF 2
ENDMDL
MODEL      157
REMARK 921   NORMALIZED FREE ENERGY PREDICTED BY IDOCK:   -2.69 KCAL/MOL
REMARK 922        TOTAL FREE ENERGY PREDICTED BY IDOCK:   -3.01 KCAL/MOL
REMARK 923 INTER-LIGAND FREE ENERGY PREDICTED BY IDOCK:   -3.47 KCAL/MOL
REMARK 924 INTRA-LIGAND FREE ENERGY PREDICTED BY IDOCK:    0.46 KCAL/MOL
REMARK 927      BINDING AFFINITY PREDICTED BY RF-SCORE:    0.00 PKD
ROOT
ATOM      1  N4    C A   1      -6.259   8.515  70.551  1.00  0.00    -0.034 NA 
ATOM      2  H42   C A   1      -5.844   8.933  71.382  1.00  0.00     0.000 HD 
ATOM      3  C4    C A   1      -6.826   9.285  69.578  1.00  0.00    -0.048 C  
ATOM      4  H41   C A   1      -6.267   7.504  70.415  1.00  0.00     0.000 HD 
ATOM      5  N3    C A   1      -6.816  10.568  69.750  1.00  0.00    -0.122 N  
ATOM      6  C2    C A   1      -7.359  11.397  68.797  1.00  0.00    -0.114 C  
ATOM      7  H3    C A   1      -6.406  10.964  70.595  1.00  0.00     0.000 HD 
ATOM      8  N1    C A   1      -8.068  10.819  67.723  1.00  0.00    -0.110 N  
ATOM      9  O2    C A   1      -7.225  12.615  68.903  1.00  0.00    -0.101 OA 
ATOM     10  C5    C A   1      -7.422   8.645  68.396  1.00  0.00    -0.095 C  
ATOM     11  C6    C A   1      -8.034   9.456  67.535  1.00  0.00    -0.102 C  
ENDROOT
BRANCH   8  12
ATOM     12  C1*   C A   1      -8.605  11.760  66.737  1.00  0.00    -0.185 C  
ATOM     13  O4*   C A   1      -9.324  12.798  67.449  1.00  0.00    -0.182 OA 
ATOM     14  C4*   C A   1     -10.725  12.468  67.473  1.00  0.00    -0.225 C  
ATOM     15  C3*   C A   1     -10.986  11.593  66.255  1.00  0.00    -0.289 C  
ATOM     16  H2*   C A   1     -10.124   9.814  64.373  1.00  0.00     0.000 HD 
ATOM     17  C2*   C A   1      -9.611  11.353  65.639  1.00  0.00    -0.231 C  
ATOM     18  O3*   C A   1     -11.819  12.252  65.291  1.00  0.00    -0.376 OA 
ATOM     19  O2*   C A   1      -9.505  10.064  65.048  1.00  0.00    -0.235 OA 
ATOM     20  H3*   C A   1     -11.982  11.706  64.531  1.00  0.00     0.000 HD 
BRANCH  14  21
ATOM     21  C5*   C A   1     -11.050  11.736  68.780  1.00  0.00    -0.241 C  
ATOM     22  O5*   C A   1     -12.179  10.885  68.605  1.00  0.00    -0.785 OA 
ATOM     23  H5*   C A   1     -12.380  10.432  69.415  1.00  0.00     0.000 HD 
ENDBRANCH  14  21
ENDBRANCH   8  12
TORSDOF 2
ENDMDL
MODEL      158
REMARK 921   NORMALIZED FREE ENERGY PREDICTED BY IDOCK:   -2.67 KCAL/MOL
REMARK 922        TOTAL FREE ENERGY PREDICTED BY IDOCK:   -3.00 KCAL/MOL
REMARK 923 INTER-LIGAND FREE ENERGY PREDICTED BY IDOCK:   -3.01 KCAL/MOL
REMARK 924 INTRA-LIGAND FREE ENERGY PREDICTED BY IDOCK:    0.01 KCAL/MOL
REMARK 927      BINDING AFFINITY PREDICTED BY RF-SCORE:    0.00 PKD
ROOT
ATOM      1  N4    C A   1      -5.631  12.948  69.435  1.00  0.00    -0.079 NA 
ATOM      2  H42   C A   1      -4.997  13.002  70.232  1.00  0.00     0.000 HD 
ATOM      3  C4    C A   1      -6.561  11.955  69.337  1.00  0.00    -0.108 C  
ATOM      4  H41   C A   1      -5.593  13.635  68.682  1.00  0.00     0.000 HD 
ATOM      5  N3    C A   1      -6.609  11.084  70.292  1.00  0.00    -0.253 N  
ATOM      6  C2    C A   1      -7.535  10.069  70.256  1.00  0.00    -0.129 C  
ATOM      7  H3    C A   1      -5.957  11.150  71.073  1.00  0.00     0.000 HD 
ATOM      8  N1    C A   1      -8.309   9.900  69.088  1.00  0.00    -0.133 N  
ATOM      9  O2    C A   1      -7.664   9.328  71.229  1.00  0.00    -0.314 OA 
ATOM     10  C5    C A   1      -7.453  11.906  68.169  1.00  0.00    -0.100 C  
ATOM     11  C6    C A   1      -8.273  10.859  68.100  1.00  0.00    -0.121 C  
ENDROOT
BRANCH   8  12
ATOM     12  C1*   C A   1      -9.286   8.811  69.125  1.00  0.00    -0.149 C  
ATOM     13  O4*   C A   1      -8.574   7.560  68.949  1.00  0.00    -0.129 OA 
ATOM     14  C4*   C A   1      -8.629   7.178  67.563  1.00  0.00    -0.122 C  
ATOM     15  C3*   C A   1      -9.886   7.812  66.986  1.00  0.00    -0.219 C  
ATOM     16  H2*   C A   1     -11.785   9.774  67.000  1.00  0.00     0.000 HD 
ATOM     17  C2*   C A   1     -10.444   8.678  68.112  1.00  0.00    -0.187 C  
ATOM     18  O3*   C A   1     -10.866   6.828  66.628  1.00  0.00    -0.520 OA 
ATOM     19  O2*   C A   1     -11.073   9.855  67.623  1.00  0.00    -0.267 OA 
ATOM     20  H3*   C A   1     -11.651   7.224  66.268  1.00  0.00     0.000 HD 
BRANCH  14  21
ATOM     21  C5*   C A   1      -7.364   7.674  66.852  1.00  0.00    -0.090 C  
ATOM     22  O5*   C A   1      -7.681   8.144  65.545  1.00  0.00    -0.086 OA 
ATOM     23  H5*   C A   1      -6.898   8.450  65.104  1.00  0.00     0.000 HD 
ENDBRANCH  14  21
ENDBRANCH   8  12
TORSDOF 2
ENDMDL
MODEL      159
REMARK 921   NORMALIZED FREE ENERGY PREDICTED BY IDOCK:   -2.67 KCAL/MOL
REMARK 922        TOTAL FREE ENERGY PREDICTED BY IDOCK:   -2.99 KCAL/MOL
REMARK 923 INTER-LIGAND FREE ENERGY PREDICTED BY IDOCK:   -3.02 KCAL/MOL
REMARK 924 INTRA-LIGAND FREE ENERGY PREDICTED BY IDOCK:    0.02 KCAL/MOL
REMARK 927      BINDING AFFINITY PREDICTED BY RF-SCORE:    0.00 PKD
ROOT
ATOM      1  N4    C A   1     -10.302  14.265  68.312  1.00  0.00    -0.236 NA 
ATOM      2  H42   C A   1      -9.692  15.072  68.443  1.00  0.00     0.000 HD 
ATOM      3  C4    C A   1      -9.823  12.992  68.417  1.00  0.00    -0.203 C  
ATOM      4  H41   C A   1     -11.292  14.379  68.098  1.00  0.00     0.000 HD 
ATOM      5  N3    C A   1      -8.566  12.847  68.688  1.00  0.00    -0.365 N  
ATOM      6  C2    C A   1      -8.029  11.589  68.821  1.00  0.00    -0.107 C  
ATOM      7  H3    C A   1      -7.972  13.668  68.804  1.00  0.00     0.000 HD 
ATOM      8  N1    C A   1      -8.828  10.474  68.491  1.00  0.00    -0.136 N  
ATOM      9  O2    C A   1      -6.869  11.460  69.211  1.00  0.00    -0.102 OA 
ATOM     10  C5    C A   1     -10.730  11.853  68.214  1.00  0.00    -0.253 C  
ATOM     11  C6    C A   1     -10.172  10.645  68.243  1.00  0.00    -0.166 C  
ENDROOT
BRANCH   8  12
ATOM     12  C1*   C A   1      -8.198   9.165  68.671  1.00  0.00    -0.114 C  
ATOM     13  O4*   C A   1      -7.203   8.996  67.631  1.00  0.00    -0.082 OA 
ATOM     14  C4*   C A   1      -7.780   8.249  66.544  1.00  0.00    -0.092 C  
ATOM     15  C3*   C A   1      -8.892   7.400  67.142  1.00  0.00    -0.125 C  
ATOM     16  H2*   C A   1     -10.787   6.967  69.059  1.00  0.00     0.000 HD 
ATOM     17  C2*   C A   1      -8.977   7.833  68.603  1.00  0.00    -0.133 C  
ATOM     18  O3*   C A   1      -8.586   6.001  67.089  1.00  0.00    -0.108 OA 
ATOM     19  O2*   C A   1     -10.307   7.785  69.101  1.00  0.00    -0.208 OA 
ATOM     20  H3*   C A   1      -9.280   5.471  67.463  1.00  0.00     0.000 HD 
BRANCH  14  21
ATOM     21  C5*   C A   1      -8.313   9.224  65.487  1.00  0.00    -0.133 C  
ATOM     22  O5*   C A   1      -9.705   9.013  65.275  1.00  0.00    -0.452 OA 
ATOM     23  H5*   C A   1     -10.035   9.617  64.620  1.00  0.00     0.000 HD 
ENDBRANCH  14  21
ENDBRANCH   8  12
TORSDOF 2
ENDMDL
MODEL      160
REMARK 921   NORMALIZED FREE ENERGY PREDICTED BY IDOCK:   -2.60 KCAL/MOL
REMARK 922        TOTAL FREE ENERGY PREDICTED BY IDOCK:   -2.92 KCAL/MOL
REMARK 923 INTER-LIGAND FREE ENERGY PREDICTED BY IDOCK:   -2.99 KCAL/MOL
REMARK 924 INTRA-LIGAND FREE ENERGY PREDICTED BY IDOCK:    0.07 KCAL/MOL
REMARK 927      BINDING AFFINITY PREDICTED BY RF-SCORE:    0.00 PKD
ROOT
ATOM      1  N4    C A   1     -11.622   8.330  70.542  1.00  0.00    -0.444 NA 
ATOM      2  H42   C A   1     -11.313   9.018  71.228  1.00  0.00     0.000 HD 
ATOM      3  C4    C A   1     -10.776   7.367  70.075  1.00  0.00    -0.246 C  
ATOM      4  H41   C A   1     -12.575   8.335  70.180  1.00  0.00     0.000 HD 
ATOM      5  N3    C A   1      -9.566   7.360  70.535  1.00  0.00    -0.172 N  
ATOM      6  C2    C A   1      -8.673   6.404  70.112  1.00  0.00    -0.139 C  
ATOM      7  H3    C A   1      -9.275   8.064  71.211  1.00  0.00     0.000 HD 
ATOM      8  N1    C A   1      -9.046   5.549  69.055  1.00  0.00    -0.113 N  
ATOM      9  O2    C A   1      -7.571   6.321  70.653  1.00  0.00    -0.091 OA 
ATOM     10  C5    C A   1     -11.255   6.396  69.080  1.00  0.00    -0.402 C  
ATOM     11  C6    C A   1     -10.348   5.544  68.606  1.00  0.00    -0.185 C  
ENDROOT
BRANCH   8  12
ATOM     12  C1*   C A   1      -8.053   4.546  68.667  1.00  0.00    -0.081 C  
ATOM     13  O4*   C A   1      -7.135   5.159  67.728  1.00  0.00    -0.064 OA 
ATOM     14  C4*   C A   1      -7.554   4.844  66.387  1.00  0.00    -0.087 C  
ATOM     15  C3*   C A   1      -8.324   3.534  66.469  1.00  0.00    -0.101 C  
ATOM     16  H2*   C A   1      -9.858   1.757  67.862  1.00  0.00     0.000 HD 
ATOM     17  C2*   C A   1      -8.417   3.222  67.960  1.00  0.00    -0.086 C  
ATOM     18  O3*   C A   1      -7.631   2.463  65.813  1.00  0.00    -0.069 OA 
ATOM     19  O2*   C A   1      -9.634   2.571  68.297  1.00  0.00    -0.201 OA 
ATOM     20  H3*   C A   1      -8.112   1.646  65.864  1.00  0.00     0.000 HD 
BRANCH  14  21
ATOM     21  C5*   C A   1      -8.426   5.985  65.849  1.00  0.00    -0.143 C  
ATOM     22  O5*   C A   1      -9.084   5.583  64.651  1.00  0.00    -0.363 OA 
ATOM     23  H5*   C A   1      -9.623   6.290  64.318  1.00  0.00     0.000 HD 
ENDBRANCH  14  21
ENDBRANCH   8  12
TORSDOF 2
ENDMDL
MODEL      161
REMARK 921   NORMALIZED FREE ENERGY PREDICTED BY IDOCK:   -2.57 KCAL/MOL
REMARK 922        TOTAL FREE ENERGY PREDICTED BY IDOCK:   -2.88 KCAL/MOL
REMARK 923 INTER-LIGAND FREE ENERGY PREDICTED BY IDOCK:   -4.13 KCAL/MOL
REMARK 924 INTRA-LIGAND FREE ENERGY PREDICTED BY IDOCK:    1.25 KCAL/MOL
REMARK 927      BINDING AFFINITY PREDICTED BY RF-SCORE:    0.00 PKD
ROOT
ATOM      1  N4    C A   1     -12.293  13.974  71.028  1.00  0.00    -0.352 NA 
ATOM      2  H42   C A   1     -12.787  14.860  71.130  1.00  0.00     0.000 HD 
ATOM      3  C4    C A   1     -12.039  13.442  69.797  1.00  0.00    -0.310 C  
ATOM      4  H41   C A   1     -11.969  13.453  71.842  1.00  0.00     0.000 HD 
ATOM      5  N3    C A   1     -12.451  14.104  68.764  1.00  0.00    -0.483 N  
ATOM      6  C2    C A   1     -12.212  13.626  67.498  1.00  0.00    -0.222 C  
ATOM      7  H3    C A   1     -12.953  14.982  68.890  1.00  0.00     0.000 HD 
ATOM      8  N1    C A   1     -11.667  12.332  67.355  1.00  0.00    -0.356 N  
ATOM      9  O2    C A   1     -12.484  14.324  66.523  1.00  0.00    -0.428 OA 
ATOM     10  C5    C A   1     -11.331  12.159  69.690  1.00  0.00    -0.223 C  
ATOM     11  C6    C A   1     -11.200  11.660  68.462  1.00  0.00    -0.256 C  
ENDROOT
BRANCH   8  12
ATOM     12  C1*   C A   1     -11.424  11.893  65.979  1.00  0.00    -0.281 C  
ATOM     13  O4*   C A   1     -11.280  10.451  65.984  1.00  0.00     0.271 OA 
ATOM     14  C4*   C A   1      -9.881  10.119  66.033  1.00  0.00    -0.246 C  
ATOM     15  C3*   C A   1      -9.133  11.291  65.415  1.00  0.00    -0.147 C  
ATOM     16  H2*   C A   1      -8.956  13.947  64.805  1.00  0.00     0.000 HD 
ATOM     17  C2*   C A   1     -10.203  12.346  65.150  1.00  0.00    -0.281 C  
ATOM     18  O3*   C A   1      -8.512  10.936  64.172  1.00  0.00    -0.363 OA 
ATOM     19  O2*   C A   1      -9.707  13.668  65.315  1.00  0.00    -0.148 OA 
ATOM     20  H3*   C A   1      -8.046  11.668  63.787  1.00  0.00     0.000 HD 
BRANCH  14  21
ATOM     21  C5*   C A   1      -9.467   9.884  67.491  1.00  0.00    -0.151 C  
ATOM     22  O5*   C A   1      -9.780   8.552  67.887  1.00  0.00    -0.152 OA 
ATOM     23  H5*   C A   1      -9.524   8.407  68.790  1.00  0.00     0.000 HD 
ENDBRANCH  14  21
ENDBRANCH   8  12
TORSDOF 2
ENDMDL
MODEL      162
REMARK 921   NORMALIZED FREE ENERGY PREDICTED BY IDOCK:   -2.55 KCAL/MOL
REMARK 922        TOTAL FREE ENERGY PREDICTED BY IDOCK:   -2.86 KCAL/MOL
REMARK 923 INTER-LIGAND FREE ENERGY PREDICTED BY IDOCK:   -2.88 KCAL/MOL
REMARK 924 INTRA-LIGAND FREE ENERGY PREDICTED BY IDOCK:    0.02 KCAL/MOL
REMARK 927      BINDING AFFINITY PREDICTED BY RF-SCORE:    0.00 PKD
ROOT
ATOM      1  N4    C A   1      -9.703  15.934  67.681  1.00  0.00    -0.223 NA 
ATOM      2  H42   C A   1     -10.680  16.165  67.499  1.00  0.00     0.000 HD 
ATOM      3  C4    C A   1      -9.195  14.708  67.367  1.00  0.00    -0.198 C  
ATOM      4  H41   C A   1      -9.070  16.612  68.105  1.00  0.00     0.000 HD 
ATOM      5  N3    C A   1      -9.999  13.848  66.830  1.00  0.00    -0.263 N  
ATOM      6  C2    C A   1      -9.541  12.600  66.478  1.00  0.00    -0.248 C  
ATOM      7  H3    C A   1     -10.974  14.096  66.666  1.00  0.00     0.000 HD 
ATOM      8  N1    C A   1      -8.237  12.224  66.866  1.00  0.00    -0.151 N  
ATOM      9  O2    C A   1     -10.272  11.840  65.846  1.00  0.00    -0.221 OA 
ATOM     10  C5    C A   1      -7.784  14.409  67.653  1.00  0.00    -0.198 C  
ATOM     11  C6    C A   1      -7.385  13.164  67.401  1.00  0.00    -0.111 C  
ENDROOT
BRANCH   8  12
ATOM     12  C1*   C A   1      -7.809  10.889  66.445  1.00  0.00    -0.154 C  
ATOM     13  O4*   C A   1      -8.464   9.915  67.295  1.00  0.00    -0.121 OA 
ATOM     14  C4*   C A   1      -7.573   9.550  68.365  1.00  0.00    -0.081 C  
ATOM     15  C3*   C A   1      -6.160   9.778  67.850  1.00  0.00    -0.051 C  
ATOM     16  H2*   C A   1      -4.404  11.071  66.207  1.00  0.00     0.000 HD 
ATOM     17  C2*   C A   1      -6.338  10.422  66.478  1.00  0.00    -0.083 C  
ATOM     18  O3*   C A   1      -5.440   8.547  67.696  1.00  0.00    -0.034 OA 
ATOM     19  O2*   C A   1      -5.309  11.358  66.186  1.00  0.00    -0.205 OA 
ATOM     20  H3*   C A   1      -4.558   8.689  67.375  1.00  0.00     0.000 HD 
BRANCH  14  21
ATOM     21  C5*   C A   1      -7.878  10.414  69.594  1.00  0.00    -0.129 C  
ATOM     22  O5*   C A   1      -9.285  10.566  69.757  1.00  0.00    -0.409 OA 
ATOM     23  H5*   C A   1      -9.474  11.102  70.518  1.00  0.00     0.000 HD 
ENDBRANCH  14  21
ENDBRANCH   8  12
TORSDOF 2
ENDMDL
MODEL      163
REMARK 921   NORMALIZED FREE ENERGY PREDICTED BY IDOCK:   -2.53 KCAL/MOL
REMARK 922        TOTAL FREE ENERGY PREDICTED BY IDOCK:   -2.84 KCAL/MOL
REMARK 923 INTER-LIGAND FREE ENERGY PREDICTED BY IDOCK:   -2.88 KCAL/MOL
REMARK 924 INTRA-LIGAND FREE ENERGY PREDICTED BY IDOCK:    0.05 KCAL/MOL
REMARK 927      BINDING AFFINITY PREDICTED BY RF-SCORE:    0.00 PKD
ROOT
ATOM      1  N4    C A   1      -6.117   5.298  67.525  1.00  0.00    -0.029 NA 
ATOM      2  H42   C A   1      -5.516   4.543  67.856  1.00  0.00     0.000 HD 
ATOM      3  C4    C A   1      -6.828   6.070  68.396  1.00  0.00    -0.074 C  
ATOM      4  H41   C A   1      -6.209   5.503  66.531  1.00  0.00     0.000 HD 
ATOM      5  N3    C A   1      -6.712   5.809  69.658  1.00  0.00    -0.053 N  
ATOM      6  C2    C A   1      -7.392   6.563  70.585  1.00  0.00    -0.079 C  
ATOM      7  H3    C A   1      -6.114   5.043  69.966  1.00  0.00     0.000 HD 
ATOM      8  N1    C A   1      -8.339   7.504  70.128  1.00  0.00    -0.133 N  
ATOM      9  O2    C A   1      -7.171   6.398  71.783  1.00  0.00    -0.083 OA 
ATOM     10  C5    C A   1      -7.690   7.144  67.881  1.00  0.00    -0.113 C  
ATOM     11  C6    C A   1      -8.420   7.796  68.784  1.00  0.00    -0.129 C  
ENDROOT
BRANCH   8  12
ATOM     12  C1*   C A   1      -9.014   8.283  71.168  1.00  0.00    -0.158 C  
ATOM     13  O4*   C A   1      -9.916   7.399  71.879  1.00  0.00    -0.170 OA 
ATOM     14  C4*   C A   1     -11.238   7.531  71.325  1.00  0.00    -0.251 C  
ATOM     15  C3*   C A   1     -11.320   8.926  70.724  1.00  0.00    -0.278 C  
ATOM     16  H2*   C A   1     -10.126  11.107  69.596  1.00  0.00     0.000 HD 
ATOM     17  C2*   C A   1      -9.913   9.501  70.864  1.00  0.00    -0.238 C  
ATOM     18  O3*   C A   1     -12.238   9.765  71.440  1.00  0.00    -0.342 OA 
ATOM     19  O2*   C A   1      -9.573  10.358  69.783  1.00  0.00    -0.165 OA 
ATOM     20  H3*   C A   1     -12.289  10.636  71.065  1.00  0.00     0.000 HD 
BRANCH  14  21
ATOM     21  C5*   C A   1     -11.453   6.442  70.267  1.00  0.00    -0.402 C  
ATOM     22  O5*   C A   1     -10.830   5.227  70.672  1.00  0.00    -0.189 OA 
ATOM     23  H5*   C A   1     -10.963   4.552  70.017  1.00  0.00     0.000 HD 
ENDBRANCH  14  21
ENDBRANCH   8  12
TORSDOF 2
ENDMDL
MODEL      164
REMARK 921   NORMALIZED FREE ENERGY PREDICTED BY IDOCK:   -2.46 KCAL/MOL
REMARK 922        TOTAL FREE ENERGY PREDICTED BY IDOCK:   -2.76 KCAL/MOL
REMARK 923 INTER-LIGAND FREE ENERGY PREDICTED BY IDOCK:   -2.87 KCAL/MOL
REMARK 924 INTRA-LIGAND FREE ENERGY PREDICTED BY IDOCK:    0.11 KCAL/MOL
REMARK 927      BINDING AFFINITY PREDICTED BY RF-SCORE:    0.00 PKD
ROOT
ATOM      1  N4    C A   1     -12.394   7.364  72.146  1.00  0.00    -0.457 NA 
ATOM      2  H42   C A   1     -12.782   6.421  72.137  1.00  0.00     0.000 HD 
ATOM      3  C4    C A   1     -11.465   7.756  71.227  1.00  0.00    -0.269 C  
ATOM      4  H41   C A   1     -12.687   8.049  72.842  1.00  0.00     0.000 HD 
ATOM      5  N3    C A   1     -11.094   6.887  70.344  1.00  0.00    -0.279 N  
ATOM      6  C2    C A   1     -10.172   7.229  69.383  1.00  0.00    -0.192 C  
ATOM      7  H3    C A   1     -11.486   5.946  70.360  1.00  0.00     0.000 HD 
ATOM      8  N1    C A   1      -9.521   8.477  69.484  1.00  0.00    -0.164 N  
ATOM      9  O2    C A   1      -9.927   6.443  68.469  1.00  0.00    -0.134 OA 
ATOM     10  C5    C A   1     -10.923   9.122  71.277  1.00  0.00    -0.400 C  
ATOM     11  C6    C A   1      -9.956   9.403  70.405  1.00  0.00    -0.252 C  
ENDROOT
BRANCH   8  12
ATOM     12  C1*   C A   1      -8.564   8.781  68.419  1.00  0.00    -0.134 C  
ATOM     13  O4*   C A   1      -7.335   8.064  68.697  1.00  0.00    -0.085 OA 
ATOM     14  C4*   C A   1      -6.421   8.942  69.378  1.00  0.00    -0.044 C  
ATOM     15  C3*   C A   1      -6.791  10.360  68.965  1.00  0.00    -0.064 C  
ATOM     16  H2*   C A   1      -8.628  12.185  68.100  1.00  0.00     0.000 HD 
ATOM     17  C2*   C A   1      -8.054  10.208  68.122  1.00  0.00    -0.105 C  
ATOM     18  O3*   C A   1      -5.768  10.969  68.165  1.00  0.00    -0.046 OA 
ATOM     19  O2*   C A   1      -8.941  11.307  68.283  1.00  0.00    -0.158 OA 
ATOM     20  H3*   C A   1      -5.999  11.853  67.908  1.00  0.00     0.000 HD 
BRANCH  14  21
ATOM     21  C5*   C A   1      -6.555   8.736  70.892  1.00  0.00    -0.055 C  
ATOM     22  O5*   C A   1      -5.270   8.575  71.485  1.00  0.00    -0.032 OA 
ATOM     23  H5*   C A   1      -5.353   8.448  72.423  1.00  0.00     0.000 HD 
ENDBRANCH  14  21
ENDBRANCH   8  12
TORSDOF 2
ENDMDL
MODEL      165
REMARK 921   NORMALIZED FREE ENERGY PREDICTED BY IDOCK:   -2.45 KCAL/MOL
REMARK 922        TOTAL FREE ENERGY PREDICTED BY IDOCK:   -2.75 KCAL/MOL
REMARK 923 INTER-LIGAND FREE ENERGY PREDICTED BY IDOCK:   -3.52 KCAL/MOL
REMARK 924 INTRA-LIGAND FREE ENERGY PREDICTED BY IDOCK:    0.76 KCAL/MOL
REMARK 927      BINDING AFFINITY PREDICTED BY RF-SCORE:    0.00 PKD
ROOT
ATOM      1  N4    C A   1     -13.624   8.467  72.310  1.00  0.00    -0.541 NA 
ATOM      2  H42   C A   1     -13.853   9.460  72.343  1.00  0.00     0.000 HD 
ATOM      3  C4    C A   1     -12.352   8.042  72.057  1.00  0.00    -0.326 C  
ATOM      4  H41   C A   1     -14.336   7.754  72.465  1.00  0.00     0.000 HD 
ATOM      5  N3    C A   1     -11.448   8.946  71.859  1.00  0.00    -0.355 N  
ATOM      6  C2    C A   1     -10.146   8.579  71.614  1.00  0.00    -0.268 C  
ATOM      7  H3    C A   1     -11.702   9.933  71.886  1.00  0.00     0.000 HD 
ATOM      8  N1    C A   1      -9.854   7.213  71.416  1.00  0.00    -0.176 N  
ATOM      9  O2    C A   1      -9.270   9.442  71.563  1.00  0.00    -0.276 OA 
ATOM     10  C5    C A   1     -12.061   6.601  72.009  1.00  0.00    -0.353 C  
ATOM     11  C6    C A   1     -10.819   6.264  71.669  1.00  0.00    -0.251 C  
ENDROOT
BRANCH   8  12
ATOM     12  C1*   C A   1      -8.446   6.893  71.176  1.00  0.00    -0.123 C  
ATOM     13  O4*   C A   1      -8.361   6.117  69.955  1.00  0.00    -0.124 OA 
ATOM     14  C4*   C A   1      -8.325   4.717  70.288  1.00  0.00    -0.079 C  
ATOM     15  C3*   C A   1      -7.741   4.619  71.690  1.00  0.00    -0.095 C  
ATOM     16  H2*   C A   1      -7.276   5.694  74.156  1.00  0.00     0.000 HD 
ATOM     17  C2*   C A   1      -7.587   6.064  72.156  1.00  0.00    -0.097 C  
ATOM     18  O3*   C A   1      -6.452   3.990  71.690  1.00  0.00    -0.014 OA 
ATOM     19  O2*   C A   1      -7.804   6.204  73.553  1.00  0.00    -0.099 OA 
ATOM     20  H3*   C A   1      -6.088   3.929  72.565  1.00  0.00     0.000 HD 
BRANCH  14  21
ATOM     21  C5*   C A   1      -9.747   4.146  70.222  1.00  0.00    -0.207 C  
ATOM     22  O5*   C A   1      -9.795   2.864  70.841  1.00  0.00    -0.132 OA 
ATOM     23  H5*   C A   1     -10.675   2.509  70.799  1.00  0.00     0.000 HD 
ENDBRANCH  14  21
ENDBRANCH   8  12
TORSDOF 2
ENDMDL
MODEL      166
REMARK 921   NORMALIZED FREE ENERGY PREDICTED BY IDOCK:   -2.43 KCAL/MOL
REMARK 922        TOTAL FREE ENERGY PREDICTED BY IDOCK:   -2.72 KCAL/MOL
REMARK 923 INTER-LIGAND FREE ENERGY PREDICTED BY IDOCK:   -4.43 KCAL/MOL
REMARK 924 INTRA-LIGAND FREE ENERGY PREDICTED BY IDOCK:    1.71 KCAL/MOL
REMARK 927      BINDING AFFINITY PREDICTED BY RF-SCORE:    0.00 PKD
ROOT
ATOM      1  N4    C A   1      -5.659  15.722  68.558  1.00  0.00    -0.098 NA 
ATOM      2  H42   C A   1      -5.444  16.384  69.302  1.00  0.00     0.000 HD 
ATOM      3  C4    C A   1      -6.907  15.186  68.426  1.00  0.00    -0.109 C  
ATOM      4  H41   C A   1      -4.951  15.434  67.883  1.00  0.00     0.000 HD 
ATOM      5  N3    C A   1      -7.807  15.550  69.282  1.00  0.00    -0.213 N  
ATOM      6  C2    C A   1      -9.086  15.056  69.191  1.00  0.00    -0.183 C  
ATOM      7  H3    C A   1      -7.566  16.205  70.026  1.00  0.00     0.000 HD 
ATOM      8  N1    C A   1      -9.350  14.027  68.262  1.00  0.00    -0.205 N  
ATOM      9  O2    C A   1      -9.967  15.509  69.922  1.00  0.00    -0.281 OA 
ATOM     10  C5    C A   1      -7.179  14.228  67.345  1.00  0.00    -0.137 C  
ATOM     11  C6    C A   1      -8.393  13.681  67.335  1.00  0.00    -0.192 C  
ENDROOT
BRANCH   8  12
ATOM     12  C1*   C A   1     -10.737  13.560  68.208  1.00  0.00    -0.258 C  
ATOM     13  O4*   C A   1     -10.810  12.474  67.250  1.00  0.00    -0.235 OA 
ATOM     14  C4*   C A   1     -11.238  12.997  65.980  1.00  0.00    -0.292 C  
ATOM     15  C3*   C A   1     -12.046  14.252  66.275  1.00  0.00    -0.413 C  
ATOM     16  H2*   C A   1     -12.625  16.389  67.872  1.00  0.00     0.000 HD 
ATOM     17  C2*   C A   1     -11.917  14.459  67.781  1.00  0.00    -0.333 C  
ATOM     18  O3*   C A   1     -13.432  14.087  65.946  1.00  0.00    -0.562 OA 
ATOM     19  O2*   C A   1     -11.900  15.836  68.135  1.00  0.00    -0.263 OA 
ATOM     20  H3*   C A   1     -13.936  14.871  66.130  1.00  0.00     0.000 HD 
BRANCH  14  21
ATOM     21  C5*   C A   1     -10.007  13.301  65.118  1.00  0.00    -0.153 C  
ATOM     22  O5*   C A   1      -9.847  12.305  64.112  1.00  0.00    -0.502 OA 
ATOM     23  H5*   C A   1      -9.084  12.493  63.579  1.00  0.00     0.000 HD 
ENDBRANCH  14  21
ENDBRANCH   8  12
TORSDOF 2
ENDMDL
MODEL      167
REMARK 921   NORMALIZED FREE ENERGY PREDICTED BY IDOCK:   -2.39 KCAL/MOL
REMARK 922        TOTAL FREE ENERGY PREDICTED BY IDOCK:   -2.68 KCAL/MOL
REMARK 923 INTER-LIGAND FREE ENERGY PREDICTED BY IDOCK:   -2.71 KCAL/MOL
REMARK 924 INTRA-LIGAND FREE ENERGY PREDICTED BY IDOCK:    0.03 KCAL/MOL
REMARK 927      BINDING AFFINITY PREDICTED BY RF-SCORE:    0.00 PKD
ROOT
ATOM      1  N4    C A   1      -9.318  10.297  69.942  1.00  0.00    -0.408 NA 
ATOM      2  H42   C A   1      -8.665  10.571  70.676  1.00  0.00     0.000 HD 
ATOM      3  C4    C A   1      -9.215   9.088  69.318  1.00  0.00    -0.145 C  
ATOM      4  H41   C A   1     -10.073  10.916  69.648  1.00  0.00     0.000 HD 
ATOM      5  N3    C A   1      -8.258   8.302  69.692  1.00  0.00    -0.116 N  
ATOM      6  C2    C A   1      -8.113   7.066  69.110  1.00  0.00    -0.121 C  
ATOM      7  H3    C A   1      -7.609   8.601  70.419  1.00  0.00     0.000 HD 
ATOM      8  N1    C A   1      -8.914   6.745  67.993  1.00  0.00    -0.119 N  
ATOM      9  O2    C A   1      -7.288   6.273  69.562  1.00  0.00    -0.079 OA 
ATOM     10  C5    C A   1     -10.171   8.732  68.259  1.00  0.00    -0.240 C  
ATOM     11  C6    C A   1      -9.953   7.575  67.636  1.00  0.00    -0.171 C  
ENDROOT
BRANCH   8  12
ATOM     12  C1*   C A   1      -8.718   5.406  67.434  1.00  0.00    -0.107 C  
ATOM     13  O4*   C A   1      -7.422   5.373  66.786  1.00  0.00    -0.085 OA 
ATOM     14  C4*   C A   1      -7.593   5.623  65.380  1.00  0.00    -0.083 C  
ATOM     15  C3*   C A   1      -9.004   5.177  65.027  1.00  0.00    -0.106 C  
ATOM     16  H2*   C A   1     -11.601   4.713  65.732  1.00  0.00     0.000 HD 
ATOM     17  C2*   C A   1      -9.642   4.794  66.359  1.00  0.00    -0.177 C  
ATOM     18  O3*   C A   1      -9.005   4.031  64.165  1.00  0.00    -0.123 OA 
ATOM     19  O2*   C A   1     -11.032   5.089  66.393  1.00  0.00    -0.177 OA 
ATOM     20  H3*   C A   1      -9.886   3.753  63.945  1.00  0.00     0.000 HD 
BRANCH  14  21
ATOM     21  C5*   C A   1      -7.381   7.116  65.102  1.00  0.00    -0.081 C  
ATOM     22  O5*   C A   1      -8.434   7.624  64.289  1.00  0.00    -0.368 OA 
ATOM     23  H5*   C A   1      -8.302   8.548  64.117  1.00  0.00     0.000 HD 
ENDBRANCH  14  21
ENDBRANCH   8  12
TORSDOF 2
ENDMDL
MODEL      168
REMARK 921   NORMALIZED FREE ENERGY PREDICTED BY IDOCK:   -2.35 KCAL/MOL
REMARK 922        TOTAL FREE ENERGY PREDICTED BY IDOCK:   -2.64 KCAL/MOL
REMARK 923 INTER-LIGAND FREE ENERGY PREDICTED BY IDOCK:   -2.68 KCAL/MOL
REMARK 924 INTRA-LIGAND FREE ENERGY PREDICTED BY IDOCK:    0.04 KCAL/MOL
REMARK 927      BINDING AFFINITY PREDICTED BY RF-SCORE:    0.00 PKD
ROOT
ATOM      1  N4    C A   1     -10.364  11.210  67.958  1.00  0.00    -0.179 NA 
ATOM      2  H42   C A   1      -9.885  12.071  67.694  1.00  0.00     0.000 HD 
ATOM      3  C4    C A   1      -9.819  10.344  68.860  1.00  0.00    -0.200 C  
ATOM      4  H41   C A   1     -11.269  10.965  67.558  1.00  0.00     0.000 HD 
ATOM      5  N3    C A   1      -8.670  10.655  69.368  1.00  0.00    -0.361 N  
ATOM      6  C2    C A   1      -8.077   9.830  70.293  1.00  0.00    -0.154 C  
ATOM      7  H3    C A   1      -8.203  11.515  69.081  1.00  0.00     0.000 HD 
ATOM      8  N1    C A   1      -8.659   8.569  70.546  1.00  0.00    -0.137 N  
ATOM      9  O2    C A   1      -7.055  10.197  70.870  1.00  0.00    -0.325 OA 
ATOM     10  C5    C A   1     -10.536   9.109  69.210  1.00  0.00    -0.231 C  
ATOM     11  C6    C A   1      -9.900   8.273  70.028  1.00  0.00    -0.182 C  
ENDROOT
BRANCH   8  12
ATOM     12  C1*   C A   1      -7.985   7.749  71.554  1.00  0.00    -0.092 C  
ATOM     13  O4*   C A   1      -6.921   7.014  70.900  1.00  0.00    -0.059 OA 
ATOM     14  C4*   C A   1      -7.397   5.698  70.562  1.00  0.00    -0.079 C  
ATOM     15  C3*   C A   1      -8.507   5.370  71.550  1.00  0.00    -0.127 C  
ATOM     16  H2*   C A   1     -10.496   6.160  73.245  1.00  0.00     0.000 HD 
ATOM     17  C2*   C A   1      -8.701   6.646  72.365  1.00  0.00    -0.128 C  
ATOM     18  O3*   C A   1      -8.137   4.305  72.437  1.00  0.00    -0.092 OA 
ATOM     19  O2*   C A   1     -10.056   6.838  72.747  1.00  0.00    -0.170 OA 
ATOM     20  H3*   C A   1      -8.830   4.100  73.054  1.00  0.00     0.000 HD 
BRANCH  14  21
ATOM     21  C5*   C A   1      -7.905   5.700  69.115  1.00  0.00    -0.089 C  
ATOM     22  O5*   C A   1      -7.157   6.622  68.328  1.00  0.00    -0.077 OA 
ATOM     23  H5*   C A   1      -7.472   6.623  67.432  1.00  0.00     0.000 HD 
ENDBRANCH  14  21
ENDBRANCH   8  12
TORSDOF 2
ENDMDL
MODEL      169
REMARK 921   NORMALIZED FREE ENERGY PREDICTED BY IDOCK:   -2.30 KCAL/MOL
REMARK 922        TOTAL FREE ENERGY PREDICTED BY IDOCK:   -2.58 KCAL/MOL
REMARK 923 INTER-LIGAND FREE ENERGY PREDICTED BY IDOCK:   -3.90 KCAL/MOL
REMARK 924 INTRA-LIGAND FREE ENERGY PREDICTED BY IDOCK:    1.33 KCAL/MOL
REMARK 927      BINDING AFFINITY PREDICTED BY RF-SCORE:    0.00 PKD
ROOT
ATOM      1  N4    C A   1     -12.145  12.472  70.271  1.00  0.00    -0.408 NA 
ATOM      2  H42   C A   1     -12.825  12.740  70.981  1.00  0.00     0.000 HD 
ATOM      3  C4    C A   1     -11.618  11.214  70.234  1.00  0.00    -0.296 C  
ATOM      4  H41   C A   1     -11.832  13.134  69.561  1.00  0.00     0.000 HD 
ATOM      5  N3    C A   1     -12.015  10.374  71.135  1.00  0.00    -0.366 N  
ATOM      6  C2    C A   1     -11.531   9.087  71.140  1.00  0.00    -0.308 C  
ATOM      7  H3    C A   1     -12.687  10.667  71.843  1.00  0.00     0.000 HD 
ATOM      8  N1    C A   1     -10.480   8.756  70.259  1.00  0.00    -0.201 N  
ATOM      9  O2    C A   1     -12.012   8.259  71.912  1.00  0.00    -0.292 OA 
ATOM     10  C5    C A   1     -10.633  10.866  69.199  1.00  0.00    -0.253 C  
ATOM     11  C6    C A   1     -10.099   9.649  69.282  1.00  0.00    -0.193 C  
ENDROOT
BRANCH   8  12
ATOM     12  C1*   C A   1     -10.025   7.365  70.307  1.00  0.00    -0.188 C  
ATOM     13  O4*   C A   1      -8.785   7.270  69.563  1.00  0.00    -0.133 OA 
ATOM     14  C4*   C A   1      -9.072   6.829  68.224  1.00  0.00    -0.124 C  
ATOM     15  C3*   C A   1     -10.368   6.036  68.295  1.00  0.00    -0.207 C  
ATOM     16  H2*   C A   1     -12.766   5.495  69.483  1.00  0.00     0.000 HD 
ATOM     17  C2*   C A   1     -10.845   6.187  69.737  1.00  0.00    -0.353 C  
ATOM     18  O3*   C A   1     -10.161   4.644  68.017  1.00  0.00    -0.105 OA 
ATOM     19  O2*   C A   1     -12.262   6.220  69.833  1.00  0.00     0.140 OA 
ATOM     20  H3*   C A   1     -10.971   4.149  68.061  1.00  0.00     0.000 HD 
BRANCH  14  21
ATOM     21  C5*   C A   1      -9.201   8.051  67.307  1.00  0.00    -0.139 C  
ATOM     22  O5*   C A   1     -10.221   7.837  66.336  1.00  0.00    -0.474 OA 
ATOM     23  H5*   C A   1     -10.301   8.594  65.768  1.00  0.00     0.000 HD 
ENDBRANCH  14  21
ENDBRANCH   8  12
TORSDOF 2
ENDMDL
MODEL      170
REMARK 921   NORMALIZED FREE ENERGY PREDICTED BY IDOCK:   -2.27 KCAL/MOL
REMARK 922        TOTAL FREE ENERGY PREDICTED BY IDOCK:   -2.55 KCAL/MOL
REMARK 923 INTER-LIGAND FREE ENERGY PREDICTED BY IDOCK:   -2.60 KCAL/MOL
REMARK 924 INTRA-LIGAND FREE ENERGY PREDICTED BY IDOCK:    0.05 KCAL/MOL
REMARK 927      BINDING AFFINITY PREDICTED BY RF-SCORE:    0.00 PKD
ROOT
ATOM      1  N4    C A   1      -9.844   7.835  65.959  1.00  0.00    -0.431 NA 
ATOM      2  H42   C A   1     -10.327   7.477  65.135  1.00  0.00     0.000 HD 
ATOM      3  C4    C A   1      -9.622   7.044  67.049  1.00  0.00    -0.157 C  
ATOM      4  H41   C A   1      -9.508   8.796  65.998  1.00  0.00     0.000 HD 
ATOM      5  N3    C A   1     -10.048   5.824  66.998  1.00  0.00    -0.166 N  
ATOM      6  C2    C A   1      -9.841   4.976  68.060  1.00  0.00    -0.149 C  
ATOM      7  H3    C A   1     -10.540   5.490  66.170  1.00  0.00     0.000 HD 
ATOM      8  N1    C A   1      -9.312   5.506  69.256  1.00  0.00    -0.115 N  
ATOM      9  O2    C A   1     -10.127   3.784  67.952  1.00  0.00     0.077 OA 
ATOM     10  C5    C A   1      -8.928   7.598  68.221  1.00  0.00    -0.127 C  
ATOM     11  C6    C A   1      -8.828   6.794  69.278  1.00  0.00    -0.137 C  
ENDROOT
BRANCH   8  12
ATOM     12  C1*   C A   1      -9.102   4.543  70.339  1.00  0.00    -0.111 C  
ATOM     13  O4*   C A   1     -10.320   4.473  71.123  1.00  0.00    -0.137 OA 
ATOM     14  C4*   C A   1     -10.198   5.346  72.261  1.00  0.00    -0.196 C  
ATOM     15  C3*   C A   1      -8.711   5.467  72.558  1.00  0.00    -0.124 C  
ATOM     16  H2*   C A   1      -6.106   5.407  71.741  1.00  0.00     0.000 HD 
ATOM     17  C2*   C A   1      -8.019   4.714  71.426  1.00  0.00    -0.096 C  
ATOM     18  O3*   C A   1      -8.362   4.852  73.806  1.00  0.00    -0.105 OA 
ATOM     19  O2*   C A   1      -6.773   5.301  71.073  1.00  0.00    -0.040 OA 
ATOM     20  H3*   C A   1      -7.434   4.928  73.992  1.00  0.00     0.000 HD 
BRANCH  14  21
ATOM     21  C5*   C A   1     -10.825   6.705  71.925  1.00  0.00    -0.236 C  
ATOM     22  O5*   C A   1     -11.972   6.531  71.098  1.00  0.00    -0.353 OA 
ATOM     23  H5*   C A   1     -12.360   7.373  70.890  1.00  0.00     0.000 HD 
ENDBRANCH  14  21
ENDBRANCH   8  12
TORSDOF 2
ENDMDL
MODEL      171
REMARK 921   NORMALIZED FREE ENERGY PREDICTED BY IDOCK:   -2.26 KCAL/MOL
REMARK 922        TOTAL FREE ENERGY PREDICTED BY IDOCK:   -2.53 KCAL/MOL
REMARK 923 INTER-LIGAND FREE ENERGY PREDICTED BY IDOCK:   -2.84 KCAL/MOL
REMARK 924 INTRA-LIGAND FREE ENERGY PREDICTED BY IDOCK:    0.31 KCAL/MOL
REMARK 927      BINDING AFFINITY PREDICTED BY RF-SCORE:    0.00 PKD
ROOT
ATOM      1  N4    C A   1      -9.289  10.653  63.912  1.00  0.00    -0.243 NA 
ATOM      2  H42   C A   1      -9.695  10.042  63.204  1.00  0.00     0.000 HD 
ATOM      3  C4    C A   1      -8.934  10.176  65.140  1.00  0.00    -0.192 C  
ATOM      4  H41   C A   1      -9.134  11.644  63.729  1.00  0.00     0.000 HD 
ATOM      5  N3    C A   1      -9.131   8.919  65.373  1.00  0.00    -0.339 N  
ATOM      6  C2    C A   1      -8.780   8.378  66.587  1.00  0.00    -0.131 C  
ATOM      7  H3    C A   1      -9.549   8.328  64.655  1.00  0.00     0.000 HD 
ATOM      8  N1    C A   1      -8.363   9.245  67.619  1.00  0.00    -0.115 N  
ATOM      9  O2    C A   1      -8.843   7.160  66.751  1.00  0.00    -0.120 OA 
ATOM     10  C5    C A   1      -8.360  11.090  66.139  1.00  0.00    -0.163 C  
ATOM     11  C6    C A   1      -8.122  10.572  67.342  1.00  0.00    -0.111 C  
ENDROOT
BRANCH   8  12
ATOM     12  C1*   C A   1      -7.989   8.599  68.879  1.00  0.00    -0.113 C  
ATOM     13  O4*   C A   1      -9.076   7.730  69.281  1.00  0.00    -0.145 OA 
ATOM     14  C4*   C A   1      -9.914   8.427  70.220  1.00  0.00    -0.186 C  
ATOM     15  C3*   C A   1      -9.034   9.465  70.901  1.00  0.00    -0.132 C  
ATOM     16  H2*   C A   1      -6.870  11.130  70.887  1.00  0.00     0.000 HD 
ATOM     17  C2*   C A   1      -7.694   9.383  70.176  1.00  0.00    -0.136 C  
ATOM     18  O3*   C A   1      -8.831   9.168  72.289  1.00  0.00    -0.277 OA 
ATOM     19  O2*   C A   1      -7.052  10.648  70.089  1.00  0.00    -0.170 OA 
ATOM     20  H3*   C A   1      -8.282   9.816  72.714  1.00  0.00     0.000 HD 
BRANCH  14  21
ATOM     21  C5*   C A   1     -11.083   9.076  69.468  1.00  0.00    -0.024 C  
ATOM     22  O5*   C A   1     -11.045  10.492  69.620  1.00  0.00    -0.244 OA 
ATOM     23  H5*   C A   1     -11.769  10.894  69.155  1.00  0.00     0.000 HD 
ENDBRANCH  14  21
ENDBRANCH   8  12
TORSDOF 2
ENDMDL
MODEL      172
REMARK 921   NORMALIZED FREE ENERGY PREDICTED BY IDOCK:   -2.25 KCAL/MOL
REMARK 922        TOTAL FREE ENERGY PREDICTED BY IDOCK:   -2.52 KCAL/MOL
REMARK 923 INTER-LIGAND FREE ENERGY PREDICTED BY IDOCK:   -2.86 KCAL/MOL
REMARK 924 INTRA-LIGAND FREE ENERGY PREDICTED BY IDOCK:    0.34 KCAL/MOL
REMARK 927      BINDING AFFINITY PREDICTED BY RF-SCORE:    0.00 PKD
ROOT
ATOM      1  N4    C A   1     -11.609   9.093  71.621  1.00  0.00    -0.355 NA 
ATOM      2  H42   C A   1     -12.436   9.653  71.822  1.00  0.00     0.000 HD 
ATOM      3  C4    C A   1     -11.023   9.112  70.389  1.00  0.00    -0.248 C  
ATOM      4  H41   C A   1     -11.187   8.498  72.333  1.00  0.00     0.000 HD 
ATOM      5  N3    C A   1     -11.558   9.868  69.484  1.00  0.00    -0.456 N  
ATOM      6  C2    C A   1     -11.004   9.940  68.229  1.00  0.00    -0.196 C  
ATOM      7  H3    C A   1     -12.392  10.411  69.704  1.00  0.00     0.000 HD 
ATOM      8  N1    C A   1      -9.955   9.055  67.900  1.00  0.00    -0.168 N  
ATOM      9  O2    C A   1     -11.435  10.760  67.420  1.00  0.00    -0.467 OA 
ATOM     10  C5    C A   1      -9.835   8.285  70.134  1.00  0.00    -0.184 C  
ATOM     11  C6    C A   1      -9.374   8.288  68.885  1.00  0.00    -0.147 C  
ENDROOT
BRANCH   8  12
ATOM     12  C1*   C A   1      -9.402   9.198  66.552  1.00  0.00    -0.190 C  
ATOM     13  O4*   C A   1      -9.850   8.071  65.758  1.00  0.00     0.150 OA 
ATOM     14  C4*   C A   1      -8.827   7.058  65.760  1.00  0.00    -0.064 C  
ATOM     15  C3*   C A   1      -7.506   7.775  65.995  1.00  0.00    -0.078 C  
ATOM     16  H2*   C A   1      -6.082   9.871  67.010  1.00  0.00     0.000 HD 
ATOM     17  C2*   C A   1      -7.886   9.229  66.258  1.00  0.00    -0.103 C  
ATOM     18  O3*   C A   1      -6.654   7.718  64.842  1.00  0.00    -0.047 OA 
ATOM     19  O2*   C A   1      -7.014   9.852  67.191  1.00  0.00    -0.082 OA 
ATOM     20  H3*   C A   1      -5.829   8.166  64.989  1.00  0.00     0.000 HD 
BRANCH  14  21
ATOM     21  C5*   C A   1      -9.127   6.039  66.866  1.00  0.00    -0.125 C  
ATOM     22  O5*   C A   1      -7.919   5.451  67.340  1.00  0.00    -0.100 OA 
ATOM     23  H5*   C A   1      -8.105   4.820  68.025  1.00  0.00     0.000 HD 
ENDBRANCH  14  21
ENDBRANCH   8  12
TORSDOF 2
ENDMDL
MODEL      173
REMARK 921   NORMALIZED FREE ENERGY PREDICTED BY IDOCK:   -2.19 KCAL/MOL
REMARK 922        TOTAL FREE ENERGY PREDICTED BY IDOCK:   -2.46 KCAL/MOL
REMARK 923 INTER-LIGAND FREE ENERGY PREDICTED BY IDOCK:   -2.55 KCAL/MOL
REMARK 924 INTRA-LIGAND FREE ENERGY PREDICTED BY IDOCK:    0.09 KCAL/MOL
REMARK 927      BINDING AFFINITY PREDICTED BY RF-SCORE:    0.00 PKD
ROOT
ATOM      1  N4    C A   1      -6.490   7.310  64.275  1.00  0.00    -0.040 NA 
ATOM      2  H42   C A   1      -5.551   6.913  64.290  1.00  0.00     0.000 HD 
ATOM      3  C4    C A   1      -6.937   8.108  65.288  1.00  0.00    -0.063 C  
ATOM      4  H41   C A   1      -7.130   7.126  63.503  1.00  0.00     0.000 HD 
ATOM      5  N3    C A   1      -6.125   8.341  66.268  1.00  0.00    -0.044 N  
ATOM      6  C2    C A   1      -6.515   9.149  67.309  1.00  0.00    -0.060 C  
ATOM      7  H3    C A   1      -5.195   7.924  66.267  1.00  0.00     0.000 HD 
ATOM      8  N1    C A   1      -7.859   9.574  67.371  1.00  0.00    -0.102 N  
ATOM      9  O2    C A   1      -5.694   9.475  68.166  1.00  0.00    -0.040 OA 
ATOM     10  C5    C A   1      -8.301   8.655  65.236  1.00  0.00    -0.177 C  
ATOM     11  C6    C A   1      -8.696   9.350  66.301  1.00  0.00    -0.140 C  
ENDROOT
BRANCH   8  12
ATOM     12  C1*   C A   1      -8.199  10.444  68.498  1.00  0.00    -0.119 C  
ATOM     13  O4*   C A   1      -8.633   9.608  69.599  1.00  0.00    -0.153 OA 
ATOM     14  C4*   C A   1     -10.070   9.532  69.595  1.00  0.00    -0.212 C  
ATOM     15  C3*   C A   1     -10.571  10.802  68.921  1.00  0.00    -0.216 C  
ATOM     16  H2*   C A   1     -10.211  12.874  67.180  1.00  0.00     0.000 HD 
ATOM     17  C2*   C A   1      -9.311  11.514  68.435  1.00  0.00    -0.194 C  
ATOM     18  O3*   C A   1     -11.263  11.658  69.841  1.00  0.00    -0.457 OA 
ATOM     19  O2*   C A   1      -9.527  12.216  67.219  1.00  0.00    -0.178 OA 
ATOM     20  H3*   C A   1     -11.575  12.451  69.420  1.00  0.00     0.000 HD 
BRANCH  14  21
ATOM     21  C5*   C A   1     -10.507   8.274  68.835  1.00  0.00    -0.191 C  
ATOM     22  O5*   C A   1      -9.839   7.127  69.349  1.00  0.00    -0.160 OA 
ATOM     23  H5*   C A   1     -10.110   6.348  68.878  1.00  0.00     0.000 HD 
ENDBRANCH  14  21
ENDBRANCH   8  12
TORSDOF 2
ENDMDL
MODEL      174
REMARK 921   NORMALIZED FREE ENERGY PREDICTED BY IDOCK:   -2.16 KCAL/MOL
REMARK 922        TOTAL FREE ENERGY PREDICTED BY IDOCK:   -2.43 KCAL/MOL
REMARK 923 INTER-LIGAND FREE ENERGY PREDICTED BY IDOCK:   -2.59 KCAL/MOL
REMARK 924 INTRA-LIGAND FREE ENERGY PREDICTED BY IDOCK:    0.16 KCAL/MOL
REMARK 927      BINDING AFFINITY PREDICTED BY RF-SCORE:    0.00 PKD
ROOT
ATOM      1  N4    C A   1     -11.476  12.199  69.458  1.00  0.00    -0.398 NA 
ATOM      2  H42   C A   1     -11.793  12.501  70.379  1.00  0.00     0.000 HD 
ATOM      3  C4    C A   1     -10.712  11.080  69.304  1.00  0.00    -0.222 C  
ATOM      4  H41   C A   1     -11.718  12.724  68.618  1.00  0.00     0.000 HD 
ATOM      5  N3    C A   1     -10.404  10.414  70.370  1.00  0.00    -0.387 N  
ATOM      6  C2    C A   1      -9.649   9.269  70.276  1.00  0.00    -0.235 C  
ATOM      7  H3    C A   1     -10.722  10.740  71.282  1.00  0.00     0.000 HD 
ATOM      8  N1    C A   1      -9.081   8.934  69.028  1.00  0.00    -0.137 N  
ATOM      9  O2    C A   1      -9.476   8.571  71.273  1.00  0.00    -0.169 OA 
ATOM     10  C5    C A   1     -10.267  10.681  67.960  1.00  0.00    -0.202 C  
ATOM     11  C6    C A   1      -9.452   9.630  67.899  1.00  0.00    -0.131 C  
ENDROOT
BRANCH   8  12
ATOM     12  C1*   C A   1      -8.303   7.694  68.997  1.00  0.00    -0.128 C  
ATOM     13  O4*   C A   1      -6.902   8.037  69.135  1.00  0.00    -0.050 OA 
ATOM     14  C4*   C A   1      -6.304   8.108  67.828  1.00  0.00    -0.053 C  
ATOM     15  C3*   C A   1      -7.125   7.198  66.924  1.00  0.00    -0.082 C  
ATOM     16  H2*   C A   1      -9.477   5.965  66.291  1.00  0.00     0.000 HD 
ATOM     17  C2*   C A   1      -8.292   6.732  67.789  1.00  0.00    -0.119 C  
ATOM     18  O3*   C A   1      -6.376   6.052  66.496  1.00  0.00    -0.041 OA 
ATOM     19  O2*   C A   1      -9.483   6.557  67.034  1.00  0.00    -0.129 OA 
ATOM     20  H3*   C A   1      -6.889   5.485  65.932  1.00  0.00     0.000 HD 
BRANCH  14  21
ATOM     21  C5*   C A   1      -6.323   9.562  67.341  1.00  0.00    -0.065 C  
ATOM     22  O5*   C A   1      -6.066  10.451  68.424  1.00  0.00    -0.044 OA 
ATOM     23  H5*   C A   1      -6.078  11.351  68.122  1.00  0.00     0.000 HD 
ENDBRANCH  14  21
ENDBRANCH   8  12
TORSDOF 2
ENDMDL
MODEL      175
REMARK 921   NORMALIZED FREE ENERGY PREDICTED BY IDOCK:   -2.14 KCAL/MOL
REMARK 922        TOTAL FREE ENERGY PREDICTED BY IDOCK:   -2.41 KCAL/MOL
REMARK 923 INTER-LIGAND FREE ENERGY PREDICTED BY IDOCK:   -2.45 KCAL/MOL
REMARK 924 INTRA-LIGAND FREE ENERGY PREDICTED BY IDOCK:    0.05 KCAL/MOL
REMARK 927      BINDING AFFINITY PREDICTED BY RF-SCORE:    0.00 PKD
ROOT
ATOM      1  N4    C A   1      -5.206   4.713  73.743  1.00  0.00    -0.008 NA 
ATOM      2  H42   C A   1      -5.151   3.830  74.250  1.00  0.00     0.000 HD 
ATOM      3  C4    C A   1      -6.408   5.265  73.411  1.00  0.00    -0.061 C  
ATOM      4  H41   C A   1      -4.364   5.216  73.466  1.00  0.00     0.000 HD 
ATOM      5  N3    C A   1      -7.477   4.626  73.763  1.00  0.00    -0.084 N  
ATOM      6  C2    C A   1      -8.717   5.140  73.469  1.00  0.00    -0.114 C  
ATOM      7  H3    C A   1      -7.399   3.739  74.259  1.00  0.00     0.000 HD 
ATOM      8  N1    C A   1      -8.799   6.278  72.638  1.00  0.00    -0.127 N  
ATOM      9  O2    C A   1      -9.724   4.599  73.924  1.00  0.00    -0.128 OA 
ATOM     10  C5    C A   1      -6.447   6.536  72.672  1.00  0.00    -0.059 C  
ATOM     11  C6    C A   1      -7.653   6.966  72.306  1.00  0.00    -0.092 C  
ENDROOT
BRANCH   8  12
ATOM     12  C1*   C A   1     -10.149   6.781  72.379  1.00  0.00    -0.170 C  
ATOM     13  O4*   C A   1     -10.725   5.997  71.304  1.00  0.00    -0.242 OA 
ATOM     14  C4*   C A   1     -10.536   6.696  70.060  1.00  0.00    -0.224 C  
ATOM     15  C3*   C A   1     -10.434   8.176  70.403  1.00  0.00    -0.215 C  
ATOM     16  H2*   C A   1      -9.816  10.176  72.156  1.00  0.00     0.000 HD 
ATOM     17  C2*   C A   1     -10.441   8.228  71.928  1.00  0.00    -0.274 C  
ATOM     18  O3*   C A   1     -11.555   8.919  69.907  1.00  0.00    -0.454 OA 
ATOM     19  O2*   C A   1      -9.636   9.285  72.433  1.00  0.00     0.060 OA 
ATOM     20  H3*   C A   1     -11.491   9.843  70.122  1.00  0.00     0.000 HD 
BRANCH  14  21
ATOM     21  C5*   C A   1      -9.263   6.181  69.378  1.00  0.00    -0.133 C  
ATOM     22  O5*   C A   1      -8.788   7.132  68.431  1.00  0.00    -0.128 OA 
ATOM     23  H5*   C A   1      -7.999   6.812  68.009  1.00  0.00     0.000 HD 
ENDBRANCH  14  21
ENDBRANCH   8  12
TORSDOF 2
ENDMDL
MODEL      176
REMARK 921   NORMALIZED FREE ENERGY PREDICTED BY IDOCK:   -2.06 KCAL/MOL
REMARK 922        TOTAL FREE ENERGY PREDICTED BY IDOCK:   -2.32 KCAL/MOL
REMARK 923 INTER-LIGAND FREE ENERGY PREDICTED BY IDOCK:   -2.50 KCAL/MOL
REMARK 924 INTRA-LIGAND FREE ENERGY PREDICTED BY IDOCK:    0.19 KCAL/MOL
REMARK 927      BINDING AFFINITY PREDICTED BY RF-SCORE:    0.00 PKD
ROOT
ATOM      1  N4    C A   1      -7.456   2.630  69.763  1.00  0.00    -0.044 NA 
ATOM      2  H42   C A   1      -6.603   2.150  69.478  1.00  0.00     0.000 HD 
ATOM      3  C4    C A   1      -7.884   3.755  69.121  1.00  0.00    -0.052 C  
ATOM      4  H41   C A   1      -8.022   2.287  70.539  1.00  0.00     0.000 HD 
ATOM      5  N3    C A   1      -7.167   4.190  68.136  1.00  0.00    -0.059 N  
ATOM      6  C2    C A   1      -7.555   5.311  67.441  1.00  0.00    -0.088 C  
ATOM      7  H3    C A   1      -6.311   3.701  67.875  1.00  0.00     0.000 HD 
ATOM      8  N1    C A   1      -8.646   6.064  67.926  1.00  0.00    -0.114 N  
ATOM      9  O2    C A   1      -6.944   5.639  66.425  1.00  0.00    -0.058 OA 
ATOM     10  C5    C A   1      -9.116   4.424  69.566  1.00  0.00    -0.175 C  
ATOM     11  C6    C A   1      -9.420   5.564  68.949  1.00  0.00    -0.129 C  
ENDROOT
BRANCH   8  12
ATOM     12  C1*   C A   1      -9.014   7.234  67.128  1.00  0.00    -0.126 C  
ATOM     13  O4*   C A   1      -8.345   8.391  67.688  1.00  0.00    -0.127 OA 
ATOM     14  C4*   C A   1      -9.248   9.071  68.579  1.00  0.00    -0.136 C  
ATOM     15  C3*   C A   1     -10.656   8.745  68.103  1.00  0.00    -0.147 C  
ATOM     16  H2*   C A   1     -12.417   7.087  66.837  1.00  0.00     0.000 HD 
ATOM     17  C2*   C A   1     -10.468   7.733  66.977  1.00  0.00    -0.349 C  
ATOM     18  O3*   C A   1     -11.326   9.901  67.581  1.00  0.00    -0.480 OA 
ATOM     19  O2*   C A   1     -11.523   6.781  66.929  1.00  0.00    -0.176 OA 
ATOM     20  H3*   C A   1     -12.205   9.698  67.284  1.00  0.00     0.000 HD 
BRANCH  14  21
ATOM     21  C5*   C A   1      -9.005   8.586  70.013  1.00  0.00    -0.142 C  
ATOM     22  O5*   C A   1      -7.777   9.108  70.512  1.00  0.00    -0.101 OA 
ATOM     23  H5*   C A   1      -7.627   8.807  71.400  1.00  0.00     0.000 HD 
ENDBRANCH  14  21
ENDBRANCH   8  12
TORSDOF 2
ENDMDL
MODEL      177
REMARK 921   NORMALIZED FREE ENERGY PREDICTED BY IDOCK:   -2.05 KCAL/MOL
REMARK 922        TOTAL FREE ENERGY PREDICTED BY IDOCK:   -2.30 KCAL/MOL
REMARK 923 INTER-LIGAND FREE ENERGY PREDICTED BY IDOCK:   -3.33 KCAL/MOL
REMARK 924 INTRA-LIGAND FREE ENERGY PREDICTED BY IDOCK:    1.03 KCAL/MOL
REMARK 927      BINDING AFFINITY PREDICTED BY RF-SCORE:    0.00 PKD
ROOT
ATOM      1  N4    C A   1      -7.519   4.153  71.965  1.00  0.00    -0.067 NA 
ATOM      2  H42   C A   1      -6.818   4.270  72.696  1.00  0.00     0.000 HD 
ATOM      3  C4    C A   1      -7.861   5.185  71.140  1.00  0.00    -0.101 C  
ATOM      4  H41   C A   1      -7.990   3.261  71.822  1.00  0.00     0.000 HD 
ATOM      5  N3    C A   1      -7.263   6.318  71.321  1.00  0.00    -0.077 N  
ATOM      6  C2    C A   1      -7.555   7.390  70.512  1.00  0.00    -0.087 C  
ATOM      7  H3    C A   1      -6.574   6.416  72.066  1.00  0.00     0.000 HD 
ATOM      8  N1    C A   1      -8.628   7.279  69.602  1.00  0.00    -0.137 N  
ATOM      9  O2    C A   1      -6.887   8.419  70.601  1.00  0.00    -0.036 OA 
ATOM     10  C5    C A   1      -8.881   4.980  70.101  1.00  0.00    -0.138 C  
ATOM     11  C6    C A   1      -9.225   6.056  69.396  1.00  0.00    -0.132 C  
ENDROOT
BRANCH   8  12
ATOM     12  C1*   C A   1      -8.872   8.452  68.761  1.00  0.00    -0.140 C  
ATOM     13  O4*   C A   1     -10.295   8.527  68.494  1.00  0.00    -0.203 OA 
ATOM     14  C4*   C A   1     -10.567   7.914  67.220  1.00  0.00    -0.295 C  
ATOM     15  C3*   C A   1      -9.291   8.032  66.399  1.00  0.00    -0.200 C  
ATOM     16  H2*   C A   1      -6.574   8.243  66.239  1.00  0.00     0.000 HD 
ATOM     17  C2*   C A   1      -8.260   8.627  67.354  1.00  0.00    -0.105 C  
ATOM     18  O3*   C A   1      -9.453   8.916  65.281  1.00  0.00    -0.447 OA 
ATOM     19  O2*   C A   1      -6.950   8.135  67.105  1.00  0.00    -0.072 OA 
ATOM     20  H3*   C A   1      -8.656   8.989  64.769  1.00  0.00     0.000 HD 
BRANCH  14  21
ATOM     21  C5*   C A   1     -10.970   6.451  67.440  1.00  0.00    -0.376 C  
ATOM     22  O5*   C A   1     -11.057   5.768  66.193  1.00  0.00    -0.721 OA 
ATOM     23  H5*   C A   1     -11.307   4.862  66.329  1.00  0.00     0.000 HD 
ENDBRANCH  14  21
ENDBRANCH   8  12
TORSDOF 2
ENDMDL
MODEL      178
REMARK 921   NORMALIZED FREE ENERGY PREDICTED BY IDOCK:   -1.98 KCAL/MOL
REMARK 922        TOTAL FREE ENERGY PREDICTED BY IDOCK:   -2.22 KCAL/MOL
REMARK 923 INTER-LIGAND FREE ENERGY PREDICTED BY IDOCK:   -2.33 KCAL/MOL
REMARK 924 INTRA-LIGAND FREE ENERGY PREDICTED BY IDOCK:    0.11 KCAL/MOL
REMARK 927      BINDING AFFINITY PREDICTED BY RF-SCORE:    0.00 PKD
ROOT
ATOM      1  N4    C A   1      -8.250  10.421  70.065  1.00  0.00    -0.335 NA 
ATOM      2  H42   C A   1      -7.427  10.954  70.347  1.00  0.00     0.000 HD 
ATOM      3  C4    C A   1      -8.199   9.065  69.918  1.00  0.00    -0.124 C  
ATOM      4  H41   C A   1      -9.141  10.881  69.884  1.00  0.00     0.000 HD 
ATOM      5  N3    C A   1      -7.067   8.482  70.149  1.00  0.00    -0.042 N  
ATOM      6  C2    C A   1      -6.958   7.116  70.031  1.00  0.00    -0.061 C  
ATOM      7  H3    C A   1      -6.255   9.035  70.418  1.00  0.00     0.000 HD 
ATOM      8  N1    C A   1      -8.045   6.394  69.496  1.00  0.00    -0.116 N  
ATOM      9  O2    C A   1      -5.920   6.557  70.382  1.00  0.00    -0.022 OA 
ATOM     10  C5    C A   1      -9.403   8.332  69.503  1.00  0.00    -0.158 C  
ATOM     11  C6    C A   1      -9.253   7.025  69.294  1.00  0.00    -0.139 C  
ENDROOT
BRANCH   8  12
ATOM     12  C1*   C A   1      -7.866   4.943  69.415  1.00  0.00    -0.071 C  
ATOM     13  O4*   C A   1      -7.171   4.643  68.179  1.00  0.00    -0.063 OA 
ATOM     14  C4*   C A   1      -8.134   4.292  67.170  1.00  0.00    -0.100 C  
ATOM     15  C3*   C A   1      -9.351   3.745  67.901  1.00  0.00    -0.186 C  
ATOM     16  H2*   C A   1     -10.938   3.618  70.120  1.00  0.00     0.000 HD 
ATOM     17  C2*   C A   1      -9.044   3.945  69.383  1.00  0.00    -0.131 C  
ATOM     18  O3*   C A   1      -9.541   2.345  67.652  1.00  0.00    -0.385 OA 
ATOM     19  O2*   C A   1     -10.213   4.232  70.139  1.00  0.00    -0.125 OA 
ATOM     20  H3*   C A   1     -10.300   2.003  68.109  1.00  0.00     0.000 HD 
BRANCH  14  21
ATOM     21  C5*   C A   1      -8.479   5.539  66.345  1.00  0.00    -0.119 C  
ATOM     22  O5*   C A   1      -8.788   5.175  65.003  1.00  0.00    -0.154 OA 
ATOM     23  H5*   C A   1      -9.001   5.947  64.492  1.00  0.00     0.000 HD 
ENDBRANCH  14  21
ENDBRANCH   8  12
TORSDOF 2
ENDMDL
MODEL      179
REMARK 921   NORMALIZED FREE ENERGY PREDICTED BY IDOCK:   -1.96 KCAL/MOL
REMARK 922        TOTAL FREE ENERGY PREDICTED BY IDOCK:   -2.20 KCAL/MOL
REMARK 923 INTER-LIGAND FREE ENERGY PREDICTED BY IDOCK:   -2.31 KCAL/MOL
REMARK 924 INTRA-LIGAND FREE ENERGY PREDICTED BY IDOCK:    0.11 KCAL/MOL
REMARK 927      BINDING AFFINITY PREDICTED BY RF-SCORE:    0.00 PKD
ROOT
ATOM      1  N4    C A   1      -6.046   6.283  63.579  1.00  0.00    -0.022 NA 
ATOM      2  H42   C A   1      -5.029   6.284  63.503  1.00  0.00     0.000 HD 
ATOM      3  C4    C A   1      -6.672   6.737  64.703  1.00  0.00    -0.042 C  
ATOM      4  H41   C A   1      -6.632   5.944  62.817  1.00  0.00     0.000 HD 
ATOM      5  N3    C A   1      -5.928   7.167  65.670  1.00  0.00    -0.036 N  
ATOM      6  C2    C A   1      -6.502   7.650  66.821  1.00  0.00    -0.053 C  
ATOM      7  H3    C A   1      -4.913   7.148  65.577  1.00  0.00     0.000 HD 
ATOM      8  N1    C A   1      -7.896   7.510  66.993  1.00  0.00    -0.114 N  
ATOM      9  O2    C A   1      -5.796   8.182  67.677  1.00  0.00    -0.040 OA 
ATOM     10  C5    C A   1      -8.140   6.712  64.779  1.00  0.00    -0.099 C  
ATOM     11  C6    C A   1      -8.675   7.086  65.939  1.00  0.00    -0.126 C  
ENDROOT
BRANCH   8  12
ATOM     12  C1*   C A   1      -8.442   8.060  68.235  1.00  0.00    -0.123 C  
ATOM     13  O4*   C A   1      -8.252   7.079  69.285  1.00  0.00    -0.122 OA 
ATOM     14  C4*   C A   1      -9.459   6.309  69.433  1.00  0.00    -0.139 C  
ATOM     15  C3*   C A   1     -10.601   7.194  68.954  1.00  0.00    -0.201 C  
ATOM     16  H2*   C A   1     -11.543   9.237  67.408  1.00  0.00     0.000 HD 
ATOM     17  C2*   C A   1      -9.926   8.449  68.408  1.00  0.00    -0.187 C  
ATOM     18  O3*   C A   1     -11.475   7.567  70.029  1.00  0.00    -0.458 OA 
ATOM     19  O2*   C A   1     -10.630   8.998  67.302  1.00  0.00    -0.276 OA 
ATOM     20  H3*   C A   1     -12.188   8.120  69.730  1.00  0.00     0.000 HD 
BRANCH  14  21
ATOM     21  C5*   C A   1      -9.345   5.027  68.600  1.00  0.00    -0.130 C  
ATOM     22  O5*   C A   1      -9.408   3.880  69.443  1.00  0.00    -0.145 OA 
ATOM     23  H5*   C A   1      -9.337   3.086  68.927  1.00  0.00     0.000 HD 
ENDBRANCH  14  21
ENDBRANCH   8  12
TORSDOF 2
ENDMDL
MODEL      180
REMARK 921   NORMALIZED FREE ENERGY PREDICTED BY IDOCK:   -1.93 KCAL/MOL
REMARK 922        TOTAL FREE ENERGY PREDICTED BY IDOCK:   -2.17 KCAL/MOL
REMARK 923 INTER-LIGAND FREE ENERGY PREDICTED BY IDOCK:   -3.63 KCAL/MOL
REMARK 924 INTRA-LIGAND FREE ENERGY PREDICTED BY IDOCK:    1.46 KCAL/MOL
REMARK 927      BINDING AFFINITY PREDICTED BY RF-SCORE:    0.00 PKD
ROOT
ATOM      1  N4    C A   1     -13.492  14.575  70.501  1.00  0.00    -0.447 NA 
ATOM      2  H42   C A   1     -14.179  15.328  70.493  1.00  0.00     0.000 HD 
ATOM      3  C4    C A   1     -12.401  14.602  69.683  1.00  0.00    -0.230 C  
ATOM      4  H41   C A   1     -13.595  13.772  71.121  1.00  0.00     0.000 HD 
ATOM      5  N3    C A   1     -12.270  15.621  68.896  1.00  0.00    -0.580 N  
ATOM      6  C2    C A   1     -11.183  15.712  68.060  1.00  0.00    -0.339 C  
ATOM      7  H3    C A   1     -12.974  16.358  68.896  1.00  0.00     0.000 HD 
ATOM      8  N1    C A   1     -10.314  14.605  67.955  1.00  0.00    -0.232 N  
ATOM      9  O2    C A   1     -10.995  16.743  67.416  1.00  0.00    -0.232 OA 
ATOM     10  C5    C A   1     -11.436  13.493  69.717  1.00  0.00    -0.246 C  
ATOM     11  C6    C A   1     -10.447  13.547  68.828  1.00  0.00    -0.197 C  
ENDROOT
BRANCH   8  12
ATOM     12  C1*   C A   1      -9.170  14.777  67.059  1.00  0.00    -0.233 C  
ATOM     13  O4*   C A   1      -8.523  13.489  66.901  1.00  0.00    -0.160 OA 
ATOM     14  C4*   C A   1      -7.422  13.399  67.823  1.00  0.00    -0.160 C  
ATOM     15  C3*   C A   1      -6.968  14.825  68.099  1.00  0.00    -0.125 C  
ATOM     16  H2*   C A   1      -7.489  17.501  68.261  1.00  0.00     0.000 HD 
ATOM     17  C2*   C A   1      -7.980  15.709  67.375  1.00  0.00    -0.178 C  
ATOM     18  O3*   C A   1      -5.661  15.084  67.568  1.00  0.00    -0.326 OA 
ATOM     19  O2*   C A   1      -8.221  16.927  68.066  1.00  0.00    -0.193 OA 
ATOM     20  H3*   C A   1      -5.378  15.974  67.740  1.00  0.00     0.000 HD 
BRANCH  14  21
ATOM     21  C5*   C A   1      -7.889  12.693  69.101  1.00  0.00     0.386 C  
ATOM     22  O5*   C A   1      -7.792  11.280  68.950  1.00  0.00    -0.136 OA 
ATOM     23  H5*   C A   1      -8.082  10.842  69.742  1.00  0.00     0.000 HD 
ENDBRANCH  14  21
ENDBRANCH   8  12
TORSDOF 2
ENDMDL
MODEL      181
REMARK 921   NORMALIZED FREE ENERGY PREDICTED BY IDOCK:   -1.91 KCAL/MOL
REMARK 922        TOTAL FREE ENERGY PREDICTED BY IDOCK:   -2.14 KCAL/MOL
REMARK 923 INTER-LIGAND FREE ENERGY PREDICTED BY IDOCK:   -3.56 KCAL/MOL
REMARK 924 INTRA-LIGAND FREE ENERGY PREDICTED BY IDOCK:    1.42 KCAL/MOL
REMARK 927      BINDING AFFINITY PREDICTED BY RF-SCORE:    0.00 PKD
ROOT
ATOM      1  N4    C A   1      -6.603  10.218  69.581  1.00  0.00    -0.064 NA 
ATOM      2  H42   C A   1      -5.738   9.701  69.733  1.00  0.00     0.000 HD 
ATOM      3  C4    C A   1      -7.816   9.676  69.893  1.00  0.00    -0.152 C  
ATOM      4  H41   C A   1      -6.595  11.159  69.190  1.00  0.00     0.000 HD 
ATOM      5  N3    C A   1      -7.827   8.481  70.389  1.00  0.00    -0.084 N  
ATOM      6  C2    C A   1      -9.017   7.889  70.737  1.00  0.00    -0.140 C  
ATOM      7  H3    C A   1      -6.950   7.978  70.523  1.00  0.00     0.000 HD 
ATOM      8  N1    C A   1     -10.222   8.535  70.388  1.00  0.00    -0.191 N  
ATOM      9  O2    C A   1      -9.010   6.812  71.332  1.00  0.00    -0.142 OA 
ATOM     10  C5    C A   1      -9.043  10.449  69.652  1.00  0.00    -0.074 C  
ATOM     11  C6    C A   1     -10.191   9.821  69.897  1.00  0.00    -0.254 C  
ENDROOT
BRANCH   8  12
ATOM     12  C1*   C A   1     -11.451   7.855  70.803  1.00  0.00    -0.263 C  
ATOM     13  O4*   C A   1     -12.569   8.509  70.153  1.00  0.00     0.718 OA 
ATOM     14  C4*   C A   1     -13.139   9.475  71.055  1.00  0.00    -0.198 C  
ATOM     15  C3*   C A   1     -12.819   8.996  72.464  1.00  0.00    -0.338 C  
ATOM     16  H2*   C A   1     -11.236   7.614  74.207  1.00  0.00     0.000 HD 
ATOM     17  C2*   C A   1     -11.920   7.778  72.273  1.00  0.00    -0.309 C  
ATOM     18  O3*   C A   1     -13.999   8.596  73.174  1.00  0.00    -0.988 OA 
ATOM     19  O2*   C A   1     -10.948   7.661  73.303  1.00  0.00    -0.400 OA 
ATOM     20  H3*   C A   1     -13.799   8.297  74.054  1.00  0.00     0.000 HD 
BRANCH  14  21
ATOM     21  C5*   C A   1     -12.530  10.853  70.770  1.00  0.00    -0.394 C  
ATOM     22  O5*   C A   1     -13.268  11.870  71.441  1.00  0.00    -0.290 OA 
ATOM     23  H5*   C A   1     -12.891  12.723  71.264  1.00  0.00     0.000 HD 
ENDBRANCH  14  21
ENDBRANCH   8  12
TORSDOF 2
ENDMDL
MODEL      182
REMARK 921   NORMALIZED FREE ENERGY PREDICTED BY IDOCK:   -1.82 KCAL/MOL
REMARK 922        TOTAL FREE ENERGY PREDICTED BY IDOCK:   -2.05 KCAL/MOL
REMARK 923 INTER-LIGAND FREE ENERGY PREDICTED BY IDOCK:   -3.17 KCAL/MOL
REMARK 924 INTRA-LIGAND FREE ENERGY PREDICTED BY IDOCK:    1.13 KCAL/MOL
REMARK 927      BINDING AFFINITY PREDICTED BY RF-SCORE:    0.00 PKD
ROOT
ATOM      1  N4    C A   1      -7.839  10.545  64.161  1.00  0.00    -0.341 NA 
ATOM      2  H42   C A   1      -8.396  10.345  63.331  1.00  0.00     0.000 HD 
ATOM      3  C4    C A   1      -8.223  10.105  65.394  1.00  0.00    -0.151 C  
ATOM      4  H41   C A   1      -6.975  11.082  64.101  1.00  0.00     0.000 HD 
ATOM      5  N3    C A   1      -9.320   9.424  65.471  1.00  0.00    -0.239 N  
ATOM      6  C2    C A   1      -9.750   8.941  66.684  1.00  0.00    -0.237 C  
ATOM      7  H3    C A   1      -9.868   9.245  64.630  1.00  0.00     0.000 HD 
ATOM      8  N1    C A   1      -9.069   9.343  67.853  1.00  0.00    -0.130 N  
ATOM      9  O2    C A   1     -10.718   8.182  66.729  1.00  0.00    -0.278 OA 
ATOM     10  C5    C A   1      -7.398  10.420  66.570  1.00  0.00    -0.119 C  
ATOM     11  C6    C A   1      -7.882  10.034  67.749  1.00  0.00    -0.094 C  
ENDROOT
BRANCH   8  12
ATOM     12  C1*   C A   1      -9.570   8.778  69.107  1.00  0.00    -0.162 C  
ATOM     13  O4*   C A   1      -9.241   9.697  70.179  1.00  0.00    -0.226 OA 
ATOM     14  C4*   C A   1      -8.020   9.268  70.807  1.00  0.00    -0.154 C  
ATOM     15  C3*   C A   1      -7.919   7.766  70.584  1.00  0.00    -0.098 C  
ATOM     16  H2*   C A   1      -8.497   5.533  69.123  1.00  0.00     0.000 HD 
ATOM     17  C2*   C A   1      -9.096   7.423  69.674  1.00  0.00    -0.140 C  
ATOM     18  O3*   C A   1      -8.050   7.032  71.809  1.00  0.00    -0.099 OA 
ATOM     19  O2*   C A   1      -8.789   6.367  68.774  1.00  0.00    -0.125 OA 
ATOM     20  H3*   C A   1      -7.987   6.094  71.669  1.00  0.00     0.000 HD 
BRANCH  14  21
ATOM     21  C5*   C A   1      -6.838  10.017  70.180  1.00  0.00    -0.137 C  
ATOM     22  O5*   C A   1      -6.762  11.343  70.695  1.00  0.00    -0.441 OA 
ATOM     23  H5*   C A   1      -6.030  11.807  70.307  1.00  0.00     0.000 HD 
ENDBRANCH  14  21
ENDBRANCH   8  12
TORSDOF 2
ENDMDL
MODEL      183
REMARK 921   NORMALIZED FREE ENERGY PREDICTED BY IDOCK:   -1.81 KCAL/MOL
REMARK 922        TOTAL FREE ENERGY PREDICTED BY IDOCK:   -2.03 KCAL/MOL
REMARK 923 INTER-LIGAND FREE ENERGY PREDICTED BY IDOCK:   -2.12 KCAL/MOL
REMARK 924 INTRA-LIGAND FREE ENERGY PREDICTED BY IDOCK:    0.09 KCAL/MOL
REMARK 927      BINDING AFFINITY PREDICTED BY RF-SCORE:    0.00 PKD
ROOT
ATOM      1  N4    C A   1      -9.189   9.227  65.636  1.00  0.00    -0.215 NA 
ATOM      2  H42   C A   1      -8.789   8.936  64.745  1.00  0.00     0.000 HD 
ATOM      3  C4    C A   1      -8.649   8.819  66.821  1.00  0.00    -0.115 C  
ATOM      4  H41   C A   1     -10.007   9.833  65.676  1.00  0.00     0.000 HD 
ATOM      5  N3    C A   1      -7.610   8.050  66.771  1.00  0.00    -0.093 N  
ATOM      6  C2    C A   1      -7.013   7.619  67.932  1.00  0.00    -0.076 C  
ATOM      7  H3    C A   1      -7.233   7.762  65.869  1.00  0.00     0.000 HD 
ATOM      8  N1    C A   1      -7.650   7.890  69.162  1.00  0.00    -0.096 N  
ATOM      9  O2    C A   1      -5.950   7.002  67.877  1.00  0.00    -0.026 OA 
ATOM     10  C5    C A   1      -9.259   9.253  68.087  1.00  0.00    -0.136 C  
ATOM     11  C6    C A   1      -8.731   8.743  69.198  1.00  0.00    -0.136 C  
ENDROOT
BRANCH   8  12
ATOM     12  C1*   C A   1      -6.951   7.417  70.358  1.00  0.00    -0.056 C  
ATOM     13  O4*   C A   1      -7.226   6.002  70.510  1.00  0.00    -0.077 OA 
ATOM     14  C4*   C A   1      -8.319   5.832  71.431  1.00  0.00    -0.127 C  
ATOM     15  C3*   C A   1      -8.313   7.050  72.343  1.00  0.00    -0.113 C  
ATOM     16  H2*   C A   1      -7.725   9.676  72.804  1.00  0.00     0.000 HD 
ATOM     17  C2*   C A   1      -7.231   7.964  71.774  1.00  0.00    -0.071 C  
ATOM     18  O3*   C A   1      -7.970   6.708  73.693  1.00  0.00    -0.099 OA 
ATOM     19  O2*   C A   1      -7.552   9.339  71.933  1.00  0.00    -0.309 OA 
ATOM     20  H3*   C A   1      -7.966   7.468  74.262  1.00  0.00     0.000 HD 
BRANCH  14  21
ATOM     21  C5*   C A   1      -9.630   5.715  70.644  1.00  0.00    -0.168 C  
ATOM     22  O5*   C A   1     -10.641   5.116  71.450  1.00  0.00    -0.208 OA 
ATOM     23  H5*   C A   1     -11.452   5.044  70.962  1.00  0.00     0.000 HD 
ENDBRANCH  14  21
ENDBRANCH   8  12
TORSDOF 2
ENDMDL
MODEL      184
REMARK 921   NORMALIZED FREE ENERGY PREDICTED BY IDOCK:   -1.76 KCAL/MOL
REMARK 922        TOTAL FREE ENERGY PREDICTED BY IDOCK:   -1.97 KCAL/MOL
REMARK 923 INTER-LIGAND FREE ENERGY PREDICTED BY IDOCK:   -2.12 KCAL/MOL
REMARK 924 INTRA-LIGAND FREE ENERGY PREDICTED BY IDOCK:    0.14 KCAL/MOL
REMARK 927      BINDING AFFINITY PREDICTED BY RF-SCORE:    0.00 PKD
ROOT
ATOM      1  N4    C A   1      -8.120  17.360  68.399  1.00  0.00    -0.255 NA 
ATOM      2  H42   C A   1      -7.792  18.120  68.994  1.00  0.00     0.000 HD 
ATOM      3  C4    C A   1      -7.799  16.062  68.669  1.00  0.00    -0.179 C  
ATOM      4  H41   C A   1      -8.699  17.541  67.580  1.00  0.00     0.000 HD 
ATOM      5  N3    C A   1      -7.063  15.831  69.708  1.00  0.00    -0.139 N  
ATOM      6  C2    C A   1      -6.720  14.542  70.039  1.00  0.00    -0.110 C  
ATOM      7  H3    C A   1      -6.737  16.608  70.282  1.00  0.00     0.000 HD 
ATOM      8  N1    C A   1      -7.040  13.504  69.139  1.00  0.00    -0.068 N  
ATOM      9  O2    C A   1      -6.137  14.321  71.100  1.00  0.00    -0.208 OA 
ATOM     10  C5    C A   1      -8.284  14.992  67.784  1.00  0.00    -0.162 C  
ATOM     11  C6    C A   1      -7.857  13.762  68.061  1.00  0.00    -0.152 C  
ENDROOT
BRANCH   8  12
ATOM     12  C1*   C A   1      -6.660  12.155  69.563  1.00  0.00    -0.065 C  
ATOM     13  O4*   C A   1      -5.336  11.875  69.043  1.00  0.00    -0.051 OA 
ATOM     14  C4*   C A   1      -5.460  11.143  67.810  1.00  0.00    -0.040 C  
ATOM     15  C3*   C A   1      -6.789  10.405  67.875  1.00  0.00    -0.070 C  
ATOM     16  H2*   C A   1      -9.347  10.183  68.804  1.00  0.00     0.000 HD 
ATOM     17  C2*   C A   1      -7.447  10.889  69.164  1.00  0.00    -0.130 C  
ATOM     18  O3*   C A   1      -6.610   8.984  67.950  1.00  0.00    -0.059 OA 
ATOM     19  O2*   C A   1      -8.862  10.962  69.049  1.00  0.00    -0.158 OA 
ATOM     20  H3*   C A   1      -7.440   8.523  67.991  1.00  0.00     0.000 HD 
BRANCH  14  21
ATOM     21  C5*   C A   1      -5.410  12.123  66.632  1.00  0.00     0.231 C  
ATOM     22  O5*   C A   1      -5.518  11.421  65.397  1.00  0.00    -0.504 OA 
ATOM     23  H5*   C A   1      -5.486  12.028  64.668  1.00  0.00     0.000 HD 
ENDBRANCH  14  21
ENDBRANCH   8  12
TORSDOF 2
ENDMDL
MODEL      185
REMARK 921   NORMALIZED FREE ENERGY PREDICTED BY IDOCK:   -1.75 KCAL/MOL
REMARK 922        TOTAL FREE ENERGY PREDICTED BY IDOCK:   -1.96 KCAL/MOL
REMARK 923 INTER-LIGAND FREE ENERGY PREDICTED BY IDOCK:   -2.49 KCAL/MOL
REMARK 924 INTRA-LIGAND FREE ENERGY PREDICTED BY IDOCK:    0.53 KCAL/MOL
REMARK 927      BINDING AFFINITY PREDICTED BY RF-SCORE:    0.00 PKD
ROOT
ATOM      1  N4    C A   1     -10.635   3.100  73.336  1.00  0.00    -0.167 NA 
ATOM      2  H42   C A   1     -11.362   3.186  74.046  1.00  0.00     0.000 HD 
ATOM      3  C4    C A   1     -10.260   4.168  72.574  1.00  0.00    -0.174 C  
ATOM      4  H41   C A   1     -10.160   2.214  73.170  1.00  0.00     0.000 HD 
ATOM      5  N3    C A   1     -10.862   5.294  72.785  1.00  0.00    -0.244 N  
ATOM      6  C2    C A   1     -10.517   6.408  72.059  1.00  0.00    -0.208 C  
ATOM      7  H3    C A   1     -11.595   5.354  73.492  1.00  0.00     0.000 HD 
ATOM      8  N1    C A   1      -9.624   6.261  70.976  1.00  0.00    -0.175 N  
ATOM      9  O2    C A   1     -10.996   7.501  72.357  1.00  0.00    -0.246 OA 
ATOM     10  C5    C A   1      -9.213   4.004  71.555  1.00  0.00    -0.190 C  
ATOM     11  C6    C A   1      -8.964   5.066  70.792  1.00  0.00    -0.132 C  
ENDROOT
BRANCH   8  12
ATOM     12  C1*   C A   1      -9.289   7.491  70.257  1.00  0.00    -0.161 C  
ATOM     13  O4*   C A   1      -9.830   7.392  68.916  1.00  0.00    -0.152 OA 
ATOM     14  C4*   C A   1      -8.798   6.930  68.025  1.00  0.00    -0.123 C  
ATOM     15  C3*   C A   1      -7.472   7.348  68.641  1.00  0.00    -0.102 C  
ATOM     16  H2*   C A   1      -5.952   7.979  70.821  1.00  0.00     0.000 HD 
ATOM     17  C2*   C A   1      -7.837   7.949  69.995  1.00  0.00    -0.105 C  
ATOM     18  O3*   C A   1      -6.807   8.346  67.855  1.00  0.00    -0.064 OA 
ATOM     19  O2*   C A   1      -6.845   7.697  70.981  1.00  0.00    -0.048 OA 
ATOM     20  H3*   C A   1      -5.978   8.607  68.240  1.00  0.00     0.000 HD 
BRANCH  14  21
ATOM     21  C5*   C A   1      -8.903   5.407  67.878  1.00  0.00    -0.105 C  
ATOM     22  O5*   C A   1      -7.906   4.926  66.981  1.00  0.00    -0.094 OA 
ATOM     23  H5*   C A   1      -7.971   3.983  66.890  1.00  0.00     0.000 HD 
ENDBRANCH  14  21
ENDBRANCH   8  12
TORSDOF 2
ENDMDL
MODEL      186
REMARK 921   NORMALIZED FREE ENERGY PREDICTED BY IDOCK:   -1.75 KCAL/MOL
REMARK 922        TOTAL FREE ENERGY PREDICTED BY IDOCK:   -1.96 KCAL/MOL
REMARK 923 INTER-LIGAND FREE ENERGY PREDICTED BY IDOCK:   -2.75 KCAL/MOL
REMARK 924 INTRA-LIGAND FREE ENERGY PREDICTED BY IDOCK:    0.79 KCAL/MOL
REMARK 927      BINDING AFFINITY PREDICTED BY RF-SCORE:    0.00 PKD
ROOT
ATOM      1  N4    C A   1      -5.142   5.649  68.262  1.00  0.00    -0.003 NA 
ATOM      2  H42   C A   1      -4.935   4.991  69.014  1.00  0.00     0.000 HD 
ATOM      3  C4    C A   1      -6.012   6.683  68.446  1.00  0.00    -0.021 C  
ATOM      4  H41   C A   1      -4.706   5.558  67.345  1.00  0.00     0.000 HD 
ATOM      5  N3    C A   1      -6.566   6.798  69.610  1.00  0.00    -0.047 N  
ATOM      6  C2    C A   1      -7.441   7.829  69.859  1.00  0.00    -0.081 C  
ATOM      7  H3    C A   1      -6.353   6.123  70.344  1.00  0.00     0.000 HD 
ATOM      8  N1    C A   1      -7.847   8.647  68.783  1.00  0.00    -0.104 N  
ATOM      9  O2    C A   1      -7.856   8.011  71.003  1.00  0.00    -0.083 OA 
ATOM     10  C5    C A   1      -6.292   7.605  67.336  1.00  0.00    -0.054 C  
ATOM     11  C6    C A   1      -7.219   8.534  67.563  1.00  0.00    -0.084 C  
ENDROOT
BRANCH   8  12
ATOM     12  C1*   C A   1      -8.767   9.734  69.124  1.00  0.00    -0.155 C  
ATOM     13  O4*   C A   1      -9.728   9.228  70.084  1.00  0.00    -0.187 OA 
ATOM     14  C4*   C A   1     -10.920   8.823  69.388  1.00  0.00    -0.030 C  
ATOM     15  C3*   C A   1     -10.980   9.648  68.111  1.00  0.00    -0.132 C  
ATOM     16  H2*   C A   1      -9.742  11.058  66.127  1.00  0.00     0.000 HD 
ATOM     17  C2*   C A   1      -9.671  10.434  68.086  1.00  0.00    -0.151 C  
ATOM     18  O3*   C A   1     -12.076  10.573  68.121  1.00  0.00    -0.756 OA 
ATOM     19  O2*   C A   1      -9.186  10.627  66.765  1.00  0.00    -0.154 OA 
ATOM     20  H3*   C A   1     -12.113  11.088  67.323  1.00  0.00     0.000 HD 
BRANCH  14  21
ATOM     21  C5*   C A   1     -10.846   7.320  69.092  1.00  0.00    -0.136 C  
ATOM     22  O5*   C A   1     -12.063   6.681  69.466  1.00  0.00    -0.573 OA 
ATOM     23  H5*   C A   1     -12.017   5.750  69.283  1.00  0.00     0.000 HD 
ENDBRANCH  14  21
ENDBRANCH   8  12
TORSDOF 2
ENDMDL
MODEL      187
REMARK 921   NORMALIZED FREE ENERGY PREDICTED BY IDOCK:   -1.75 KCAL/MOL
REMARK 922        TOTAL FREE ENERGY PREDICTED BY IDOCK:   -1.96 KCAL/MOL
REMARK 923 INTER-LIGAND FREE ENERGY PREDICTED BY IDOCK:   -5.16 KCAL/MOL
REMARK 924 INTRA-LIGAND FREE ENERGY PREDICTED BY IDOCK:    3.20 KCAL/MOL
REMARK 927      BINDING AFFINITY PREDICTED BY RF-SCORE:    0.00 PKD
ROOT
ATOM      1  N4    C A   1     -13.233  11.713  71.964  1.00  0.00    -0.495 NA 
ATOM      2  H42   C A   1     -12.684  12.503  71.626  1.00  0.00     0.000 HD 
ATOM      3  C4    C A   1     -12.870  10.427  71.686  1.00  0.00    -0.474 C  
ATOM      4  H41   C A   1     -14.073  11.853  72.524  1.00  0.00     0.000 HD 
ATOM      5  N3    C A   1     -11.803  10.249  70.975  1.00  0.00    -0.363 N  
ATOM      6  C2    C A   1     -11.379   8.976  70.674  1.00  0.00    -0.265 C  
ATOM      7  H3    C A   1     -11.276  11.053  70.637  1.00  0.00     0.000 HD 
ATOM      8  N1    C A   1     -12.214   7.888  71.007  1.00  0.00    -0.249 N  
ATOM      9  O2    C A   1     -10.295   8.812  70.116  1.00  0.00    -0.196 OA 
ATOM     10  C5    C A   1     -13.690   9.314  72.184  1.00  0.00    -0.517 C  
ATOM     11  C6    C A   1     -13.323   8.094  71.797  1.00  0.00    -0.345 C  
ENDROOT
BRANCH   8  12
ATOM     12  C1*   C A   1     -11.693   6.562  70.672  1.00  0.00    -0.374 C  
ATOM     13  O4*   C A   1     -11.364   5.881  71.909  1.00  0.00    -0.276 OA 
ATOM     14  C4*   C A   1      -9.961   6.048  72.180  1.00  0.00    -0.165 C  
ATOM     15  C3*   C A   1      -9.281   6.265  70.835  1.00  0.00    -0.157 C  
ATOM     16  H2*   C A   1      -9.354   7.104  68.238  1.00  0.00     0.000 HD 
ATOM     17  C2*   C A   1     -10.421   6.341  69.824  1.00  0.00    -0.232 C  
ATOM     18  O3*   C A   1      -8.423   5.170  70.486  1.00  0.00    -0.106 OA 
ATOM     19  O2*   C A   1     -10.136   7.239  68.760  1.00  0.00    -0.166 OA 
ATOM     20  H3*   C A   1      -7.999   5.305  69.647  1.00  0.00     0.000 HD 
BRANCH  14  21
ATOM     21  C5*   C A   1      -9.766   7.247  73.116  1.00  0.00    -0.209 C  
ATOM     22  O5*   C A   1     -10.770   7.256  74.126  1.00  0.00    -0.565 OA 
ATOM     23  H5*   C A   1     -10.650   7.998  74.706  1.00  0.00     0.000 HD 
ENDBRANCH  14  21
ENDBRANCH   8  12
TORSDOF 2
ENDMDL
MODEL      188
REMARK 921   NORMALIZED FREE ENERGY PREDICTED BY IDOCK:   -1.71 KCAL/MOL
REMARK 922        TOTAL FREE ENERGY PREDICTED BY IDOCK:   -1.92 KCAL/MOL
REMARK 923 INTER-LIGAND FREE ENERGY PREDICTED BY IDOCK:   -4.83 KCAL/MOL
REMARK 924 INTRA-LIGAND FREE ENERGY PREDICTED BY IDOCK:    2.91 KCAL/MOL
REMARK 927      BINDING AFFINITY PREDICTED BY RF-SCORE:    0.00 PKD
ROOT
ATOM      1  N4    C A   1     -12.266  13.866  63.273  1.00  0.00    -1.111 NA 
ATOM      2  H42   C A   1     -12.116  13.589  62.303  1.00  0.00     0.000 HD 
ATOM      3  C4    C A   1     -11.887  13.061  64.306  1.00  0.00    -0.396 C  
ATOM      4  H41   C A   1     -12.704  14.757  63.506  1.00  0.00     0.000 HD 
ATOM      5  N3    C A   1     -11.331  11.930  64.010  1.00  0.00    -0.376 N  
ATOM      6  C2    C A   1     -10.914  11.083  65.009  1.00  0.00    -0.047 C  
ATOM      7  H3    C A   1     -11.202  11.668  63.033  1.00  0.00     0.000 HD 
ATOM      8  N1    C A   1     -11.255  11.390  66.343  1.00  0.00    -0.248 N  
ATOM      9  O2    C A   1     -10.267  10.077  64.722  1.00  0.00    -0.237 OA 
ATOM     10  C5    C A   1     -12.126  13.491  65.692  1.00  0.00    -0.467 C  
ATOM     11  C6    C A   1     -11.811  12.614  66.643  1.00  0.00    -0.380 C  
ENDROOT
BRANCH   8  12
ATOM     12  C1*   C A   1     -10.766  10.453  67.356  1.00  0.00    -0.283 C  
ATOM     13  O4*   C A   1     -10.656  11.165  68.614  1.00  0.00    -0.175 OA 
ATOM     14  C4*   C A   1      -9.299  11.612  68.785  1.00  0.00    -0.046 C  
ATOM     15  C3*   C A   1      -8.423  10.656  67.988  1.00  0.00    -0.119 C  
ATOM     16  H2*   C A   1      -8.076   8.905  65.922  1.00  0.00     0.000 HD 
ATOM     17  C2*   C A   1      -9.400   9.739  67.259  1.00  0.00    -0.138 C  
ATOM     18  O3*   C A   1      -7.586   9.861  68.839  1.00  0.00    -0.077 OA 
ATOM     19  O2*   C A   1      -8.916   9.344  65.982  1.00  0.00    -0.149 OA 
ATOM     20  H3*   C A   1      -7.039   9.265  68.341  1.00  0.00     0.000 HD 
BRANCH  14  21
ATOM     21  C5*   C A   1      -9.175  13.054  68.279  1.00  0.00    -0.191 C  
ATOM     22  O5*   C A   1      -9.475  13.974  69.325  1.00  0.00    -0.395 OA 
ATOM     23  H5*   C A   1      -9.399  14.867  69.012  1.00  0.00     0.000 HD 
ENDBRANCH  14  21
ENDBRANCH   8  12
TORSDOF 2
ENDMDL
MODEL      189
REMARK 921   NORMALIZED FREE ENERGY PREDICTED BY IDOCK:   -1.70 KCAL/MOL
REMARK 922        TOTAL FREE ENERGY PREDICTED BY IDOCK:   -1.91 KCAL/MOL
REMARK 923 INTER-LIGAND FREE ENERGY PREDICTED BY IDOCK:   -2.03 KCAL/MOL
REMARK 924 INTRA-LIGAND FREE ENERGY PREDICTED BY IDOCK:    0.11 KCAL/MOL
REMARK 927      BINDING AFFINITY PREDICTED BY RF-SCORE:    0.00 PKD
ROOT
ATOM      1  N4    C A   1     -11.563   8.362  70.866  1.00  0.00    -0.289 NA 
ATOM      2  H42   C A   1     -11.492   8.460  71.878  1.00  0.00     0.000 HD 
ATOM      3  C4    C A   1     -10.454   8.195  70.090  1.00  0.00    -0.225 C  
ATOM      4  H41   C A   1     -12.467   8.386  70.395  1.00  0.00     0.000 HD 
ATOM      5  N3    C A   1      -9.306   8.165  70.688  1.00  0.00    -0.153 N  
ATOM      6  C2    C A   1      -8.154   7.984  69.961  1.00  0.00    -0.116 C  
ATOM      7  H3    C A   1      -9.257   8.276  71.700  1.00  0.00     0.000 HD 
ATOM      8  N1    C A   1      -8.232   8.002  68.552  1.00  0.00    -0.125 N  
ATOM      9  O2    C A   1      -7.084   7.821  70.546  1.00  0.00    -0.046 OA 
ATOM     10  C5    C A   1     -10.596   8.066  68.633  1.00  0.00    -0.143 C  
ATOM     11  C6    C A   1      -9.464   7.995  67.936  1.00  0.00    -0.145 C  
ENDROOT
BRANCH   8  12
ATOM     12  C1*   C A   1      -6.970   7.788  67.842  1.00  0.00    -0.077 C  
ATOM     13  O4*   C A   1      -6.300   9.067  67.715  1.00  0.00    -0.055 OA 
ATOM     14  C4*   C A   1      -6.599   9.629  66.425  1.00  0.00    -0.071 C  
ATOM     15  C3*   C A   1      -6.907   8.458  65.502  1.00  0.00    -0.070 C  
ATOM     16  H2*   C A   1      -7.786   5.903  65.109  1.00  0.00     0.000 HD 
ATOM     17  C2*   C A   1      -6.891   7.229  66.405  1.00  0.00    -0.061 C  
ATOM     18  O3*   C A   1      -5.908   8.301  64.485  1.00  0.00    -0.054 OA 
ATOM     19  O2*   C A   1      -7.834   6.248  65.993  1.00  0.00    -0.100 OA 
ATOM     20  H3*   C A   1      -6.101   7.570  63.909  1.00  0.00     0.000 HD 
BRANCH  14  21
ATOM     21  C5*   C A   1      -7.793  10.583  66.553  1.00  0.00    -0.134 C  
ATOM     22  O5*   C A   1      -7.669  11.659  65.627  1.00  0.00    -0.164 OA 
ATOM     23  H5*   C A   1      -8.408  12.250  65.707  1.00  0.00     0.000 HD 
ENDBRANCH  14  21
ENDBRANCH   8  12
TORSDOF 2
ENDMDL
MODEL      190
REMARK 921   NORMALIZED FREE ENERGY PREDICTED BY IDOCK:   -1.56 KCAL/MOL
REMARK 922        TOTAL FREE ENERGY PREDICTED BY IDOCK:   -1.75 KCAL/MOL
REMARK 923 INTER-LIGAND FREE ENERGY PREDICTED BY IDOCK:   -3.08 KCAL/MOL
REMARK 924 INTRA-LIGAND FREE ENERGY PREDICTED BY IDOCK:    1.33 KCAL/MOL
REMARK 927      BINDING AFFINITY PREDICTED BY RF-SCORE:    0.00 PKD
ROOT
ATOM      1  N4    C A   1     -11.763   8.409  70.435  1.00  0.00    -0.471 NA 
ATOM      2  H42   C A   1     -11.540   8.170  71.401  1.00  0.00     0.000 HD 
ATOM      3  C4    C A   1     -10.893   9.122  69.663  1.00  0.00    -0.197 C  
ATOM      4  H41   C A   1     -12.644   8.123  70.010  1.00  0.00     0.000 HD 
ATOM      5  N3    C A   1      -9.774   9.485  70.203  1.00  0.00    -0.231 N  
ATOM      6  C2    C A   1      -8.851  10.192  69.471  1.00  0.00    -0.182 C  
ATOM      7  H3    C A   1      -9.577   9.245  71.174  1.00  0.00     0.000 HD 
ATOM      8  N1    C A   1      -9.216  10.656  68.189  1.00  0.00    -0.144 N  
ATOM      9  O2    C A   1      -7.738  10.414  69.946  1.00  0.00    -0.155 OA 
ATOM     10  C5    C A   1     -11.252   9.455  68.277  1.00  0.00     0.129 C  
ATOM     11  C6    C A   1     -10.393  10.228  67.616  1.00  0.00    -0.220 C  
ENDROOT
BRANCH   8  12
ATOM     12  C1*   C A   1      -8.180  11.389  67.459  1.00  0.00    -0.130 C  
ATOM     13  O4*   C A   1      -8.802  12.039  66.323  1.00  0.00    -0.171 OA 
ATOM     14  C4*   C A   1      -8.634  11.212  65.158  1.00  0.00     0.069 C  
ATOM     15  C3*   C A   1      -7.382  10.379  65.391  1.00  0.00    -0.124 C  
ATOM     16  H2*   C A   1      -5.610   9.166  67.077  1.00  0.00     0.000 HD 
ATOM     17  C2*   C A   1      -6.952  10.705  66.819  1.00  0.00    -0.110 C  
ATOM     18  O3*   C A   1      -6.324  10.740  64.493  1.00  0.00    -0.370 OA 
ATOM     19  O2*   C A   1      -6.365   9.587  67.471  1.00  0.00    -0.060 OA 
ATOM     20  H3*   C A   1      -5.543  10.220  64.639  1.00  0.00     0.000 HD 
BRANCH  14  21
ATOM     21  C5*   C A   1      -9.878  10.333  64.979  1.00  0.00    -0.329 C  
ATOM     22  O5*   C A   1      -9.501   9.004  64.633  1.00  0.00    -0.385 OA 
ATOM     23  H5*   C A   1     -10.271   8.460  64.522  1.00  0.00     0.000 HD 
ENDBRANCH  14  21
ENDBRANCH   8  12
TORSDOF 2
ENDMDL
MODEL      191
REMARK 921   NORMALIZED FREE ENERGY PREDICTED BY IDOCK:   -1.54 KCAL/MOL
REMARK 922        TOTAL FREE ENERGY PREDICTED BY IDOCK:   -1.73 KCAL/MOL
REMARK 923 INTER-LIGAND FREE ENERGY PREDICTED BY IDOCK:   -2.79 KCAL/MOL
REMARK 924 INTRA-LIGAND FREE ENERGY PREDICTED BY IDOCK:    1.05 KCAL/MOL
REMARK 927      BINDING AFFINITY PREDICTED BY RF-SCORE:    0.00 PKD
ROOT
ATOM      1  N4    C A   1      -8.499  14.792  68.899  1.00  0.00    -0.186 NA 
ATOM      2  H42   C A   1      -7.769  15.499  68.978  1.00  0.00     0.000 HD 
ATOM      3  C4    C A   1      -8.283  13.624  68.228  1.00  0.00    -0.156 C  
ATOM      4  H41   C A   1      -9.417  14.931  69.320  1.00  0.00     0.000 HD 
ATOM      5  N3    C A   1      -7.118  13.447  67.695  1.00  0.00    -0.152 N  
ATOM      6  C2    C A   1      -6.837  12.284  67.019  1.00  0.00    -0.031 C  
ATOM      7  H3    C A   1      -6.406  14.173  67.775  1.00  0.00     0.000 HD 
ATOM      8  N1    C A   1      -7.886  11.372  66.776  1.00  0.00    -0.157 N  
ATOM      9  O2    C A   1      -5.689  12.066  66.633  1.00  0.00    -0.277 OA 
ATOM     10  C5    C A   1      -9.363  12.630  68.130  1.00  0.00    -0.210 C  
ATOM     11  C6    C A   1      -9.107  11.557  67.385  1.00  0.00    -0.166 C  
ENDROOT
BRANCH   8  12
ATOM     12  C1*   C A   1      -7.512  10.147  66.066  1.00  0.00    -0.118 C  
ATOM     13  O4*   C A   1      -8.676   9.669  65.347  1.00  0.00    -0.141 OA 
ATOM     14  C4*   C A   1      -9.339   8.666  66.138  1.00  0.00    -0.226 C  
ATOM     15  C3*   C A   1      -8.276   8.048  67.035  1.00  0.00    -0.116 C  
ATOM     16  H2*   C A   1      -5.910   8.216  68.387  1.00  0.00     0.000 HD 
ATOM     17  C2*   C A   1      -7.017   8.871  66.781  1.00  0.00    -0.077 C  
ATOM     18  O3*   C A   1      -8.014   6.680  66.691  1.00  0.00    -0.102 OA 
ATOM     19  O2*   C A   1      -6.215   9.000  67.947  1.00  0.00    -0.050 OA 
ATOM     20  H3*   C A   1      -7.351   6.294  67.251  1.00  0.00     0.000 HD 
BRANCH  14  21
ATOM     21  C5*   C A   1     -10.459   9.323  66.953  1.00  0.00    -0.214 C  
ATOM     22  O5*   C A   1     -10.717   8.574  68.136  1.00  0.00    -0.404 OA 
ATOM     23  H5*   C A   1     -11.411   8.981  68.641  1.00  0.00     0.000 HD 
ENDBRANCH  14  21
ENDBRANCH   8  12
TORSDOF 2
ENDMDL
MODEL      192
REMARK 921   NORMALIZED FREE ENERGY PREDICTED BY IDOCK:   -1.50 KCAL/MOL
REMARK 922        TOTAL FREE ENERGY PREDICTED BY IDOCK:   -1.69 KCAL/MOL
REMARK 923 INTER-LIGAND FREE ENERGY PREDICTED BY IDOCK:   -1.74 KCAL/MOL
REMARK 924 INTRA-LIGAND FREE ENERGY PREDICTED BY IDOCK:    0.06 KCAL/MOL
REMARK 927      BINDING AFFINITY PREDICTED BY RF-SCORE:    0.00 PKD
ROOT
ATOM      1  N4    C A   1     -11.477  10.511  68.773  1.00  0.00    -0.421 NA 
ATOM      2  H42   C A   1     -11.630   9.648  68.252  1.00  0.00     0.000 HD 
ATOM      3  C4    C A   1     -10.738  11.532  68.250  1.00  0.00    -0.211 C  
ATOM      4  H41   C A   1     -11.871  10.644  69.704  1.00  0.00     0.000 HD 
ATOM      5  N3    C A   1     -10.238  11.363  67.069  1.00  0.00    -0.207 N  
ATOM      6  C2    C A   1      -9.497  12.362  66.483  1.00  0.00    -0.242 C  
ATOM      7  H3    C A   1     -10.394  10.488  66.571  1.00  0.00     0.000 HD 
ATOM      8  N1    C A   1      -9.155  13.492  67.256  1.00  0.00    -0.216 N  
ATOM      9  O2    C A   1      -9.141  12.249  65.311  1.00  0.00     0.187 OA 
ATOM     10  C5    C A   1     -10.533  12.759  69.034  1.00  0.00    -0.019 C  
ATOM     11  C6    C A   1      -9.728  13.673  68.495  1.00  0.00    -0.184 C  
ENDROOT
BRANCH   8  12
ATOM     12  C1*   C A   1      -8.379  14.523  66.565  1.00  0.00     0.288 C  
ATOM     13  O4*   C A   1      -6.972  14.207  66.716  1.00  0.00     0.378 OA 
ATOM     14  C4*   C A   1      -6.438  14.953  67.824  1.00  0.00    -0.164 C  
ATOM     15  C3*   C A   1      -7.301  16.199  67.965  1.00  0.00    -0.129 C  
ATOM     16  H2*   C A   1      -9.680  17.497  67.637  1.00  0.00     0.000 HD 
ATOM     17  C2*   C A   1      -8.425  16.018  66.950  1.00  0.00    -0.241 C  
ATOM     18  O3*   C A   1      -6.573  17.393  67.646  1.00  0.00    -0.148 OA 
ATOM     19  O2*   C A   1      -9.651  16.578  67.400  1.00  0.00    -0.234 OA 
ATOM     20  H3*   C A   1      -7.112  18.171  67.734  1.00  0.00     0.000 HD 
BRANCH  14  21
ATOM     21  C5*   C A   1      -6.481  14.084  69.087  1.00  0.00    -0.113 C  
ATOM     22  O5*   C A   1      -6.012  12.770  68.801  1.00  0.00    -0.066 OA 
ATOM     23  H5*   C A   1      -6.039  12.232  69.583  1.00  0.00     0.000 HD 
ENDBRANCH  14  21
ENDBRANCH   8  12
TORSDOF 2
ENDMDL
MODEL      193
REMARK 921   NORMALIZED FREE ENERGY PREDICTED BY IDOCK:   -1.37 KCAL/MOL
REMARK 922        TOTAL FREE ENERGY PREDICTED BY IDOCK:   -1.54 KCAL/MOL
REMARK 923 INTER-LIGAND FREE ENERGY PREDICTED BY IDOCK:   -1.90 KCAL/MOL
REMARK 924 INTRA-LIGAND FREE ENERGY PREDICTED BY IDOCK:    0.36 KCAL/MOL
REMARK 927      BINDING AFFINITY PREDICTED BY RF-SCORE:    0.00 PKD
ROOT
ATOM      1  N4    C A   1      -6.416   6.460  62.694  1.00  0.00    -0.033 NA 
ATOM      2  H42   C A   1      -6.241   7.157  61.971  1.00  0.00     0.000 HD 
ATOM      3  C4    C A   1      -7.154   6.758  63.802  1.00  0.00    -0.060 C  
ATOM      4  H41   C A   1      -6.046   5.513  62.616  1.00  0.00     0.000 HD 
ATOM      5  N3    C A   1      -7.623   7.960  63.901  1.00  0.00    -0.114 N  
ATOM      6  C2    C A   1      -8.386   8.315  64.988  1.00  0.00    -0.148 C  
ATOM      7  H3    C A   1      -7.426   8.645  63.172  1.00  0.00     0.000 HD 
ATOM      8  N1    C A   1      -8.503   7.405  66.060  1.00  0.00    -0.142 N  
ATOM      9  O2    C A   1      -8.940   9.413  65.009  1.00  0.00    -0.194 OA 
ATOM     10  C5    C A   1      -7.378   5.728  64.827  1.00  0.00    -0.069 C  
ATOM     11  C6    C A   1      -8.031   6.119  65.920  1.00  0.00    -0.112 C  
ENDROOT
BRANCH   8  12
ATOM     12  C1*   C A   1      -9.343   7.842  67.176  1.00  0.00    -0.153 C  
ATOM     13  O4*   C A   1      -8.841   9.119  67.646  1.00  0.00    -0.120 OA 
ATOM     14  C4*   C A   1      -7.966   8.896  68.767  1.00  0.00    -0.102 C  
ATOM     15  C3*   C A   1      -8.407   7.589  69.410  1.00  0.00    -0.132 C  
ATOM     16  H2*   C A   1      -9.576   5.128  69.242  1.00  0.00     0.000 HD 
ATOM     17  C2*   C A   1      -9.492   7.041  68.488  1.00  0.00    -0.134 C  
ATOM     18  O3*   C A   1      -8.966   7.797  70.714  1.00  0.00    -0.145 OA 
ATOM     19  O2*   C A   1      -9.485   5.621  68.435  1.00  0.00    -0.116 OA 
ATOM     20  H3*   C A   1      -9.241   6.981  71.116  1.00  0.00     0.000 HD 
BRANCH  14  21
ATOM     21  C5*   C A   1      -6.517   8.826  68.270  1.00  0.00    -0.060 C  
ATOM     22  O5*   C A   1      -6.330   9.700  67.161  1.00  0.00    -0.063 OA 
ATOM     23  H5*   C A   1      -5.433   9.657  66.853  1.00  0.00     0.000 HD 
ENDBRANCH  14  21
ENDBRANCH   8  12
TORSDOF 2
ENDMDL
MODEL      194
REMARK 921   NORMALIZED FREE ENERGY PREDICTED BY IDOCK:   -1.28 KCAL/MOL
REMARK 922        TOTAL FREE ENERGY PREDICTED BY IDOCK:   -1.44 KCAL/MOL
REMARK 923 INTER-LIGAND FREE ENERGY PREDICTED BY IDOCK:   -4.10 KCAL/MOL
REMARK 924 INTRA-LIGAND FREE ENERGY PREDICTED BY IDOCK:    2.65 KCAL/MOL
REMARK 927      BINDING AFFINITY PREDICTED BY RF-SCORE:    0.00 PKD
ROOT
ATOM      1  N4    C A   1     -11.127  16.887  69.778  1.00  0.00    -0.339 NA 
ATOM      2  H42   C A   1     -10.346  17.462  70.092  1.00  0.00     0.000 HD 
ATOM      3  C4    C A   1     -10.924  15.767  69.025  1.00  0.00    -0.262 C  
ATOM      4  H41   C A   1     -12.089  17.126  70.015  1.00  0.00     0.000 HD 
ATOM      5  N3    C A   1      -9.703  15.463  68.724  1.00  0.00    -0.201 N  
ATOM      6  C2    C A   1      -9.434  14.338  67.980  1.00  0.00    -0.204 C  
ATOM      7  H3    C A   1      -8.938  16.059  69.039  1.00  0.00     0.000 HD 
ATOM      8  N1    C A   1     -10.514  13.627  67.416  1.00  0.00    -0.251 N  
ATOM      9  O2    C A   1      -8.269  13.983  67.815  1.00  0.00    -0.142 OA 
ATOM     10  C5    C A   1     -12.076  14.967  68.584  1.00  0.00    -0.198 C  
ATOM     11  C6    C A   1     -11.805  13.941  67.779  1.00  0.00    -0.380 C  
ENDROOT
BRANCH   8  12
ATOM     12  C1*   C A   1     -10.157  12.432  66.650  1.00  0.00    -0.221 C  
ATOM     13  O4*   C A   1     -11.315  11.562  66.604  1.00  0.00    -0.344 OA 
ATOM     14  C4*   C A   1     -11.206  10.576  67.647  1.00  0.00    -0.265 C  
ATOM     15  C3*   C A   1      -9.721  10.406  67.931  1.00  0.00    -0.149 C  
ATOM     16  H2*   C A   1      -7.174  11.389  67.954  1.00  0.00     0.000 HD 
ATOM     17  C2*   C A   1      -9.031  11.462  67.071  1.00  0.00    -0.166 C  
ATOM     18  O3*   C A   1      -9.246   9.109  67.543  1.00  0.00    -0.128 OA 
ATOM     19  O2*   C A   1      -7.866  11.985  67.695  1.00  0.00    -0.129 OA 
ATOM     20  H3*   C A   1      -8.319   9.003  67.721  1.00  0.00     0.000 HD 
BRANCH  14  21
ATOM     21  C5*   C A   1     -11.970  11.063  68.884  1.00  0.00    -0.262 C  
ATOM     22  O5*   C A   1     -11.069  11.311  69.958  1.00  0.00    -0.455 OA 
ATOM     23  H5*   C A   1     -11.542  11.612  70.724  1.00  0.00     0.000 HD 
ENDBRANCH  14  21
ENDBRANCH   8  12
TORSDOF 2
ENDMDL
MODEL      195
REMARK 921   NORMALIZED FREE ENERGY PREDICTED BY IDOCK:   -1.28 KCAL/MOL
REMARK 922        TOTAL FREE ENERGY PREDICTED BY IDOCK:   -1.44 KCAL/MOL
REMARK 923 INTER-LIGAND FREE ENERGY PREDICTED BY IDOCK:   -1.43 KCAL/MOL
REMARK 924 INTRA-LIGAND FREE ENERGY PREDICTED BY IDOCK:   -0.01 KCAL/MOL
REMARK 927      BINDING AFFINITY PREDICTED BY RF-SCORE:    0.00 PKD
ROOT
ATOM      1  N4    C A   1      -8.011  16.532  67.302  1.00  0.00    -0.154 NA 
ATOM      2  H42   C A   1      -8.700  17.243  67.546  1.00  0.00     0.000 HD 
ATOM      3  C4    C A   1      -8.276  15.203  67.461  1.00  0.00    -0.178 C  
ATOM      4  H41   C A   1      -7.097  16.788  66.929  1.00  0.00     0.000 HD 
ATOM      5  N3    C A   1      -9.436  14.879  67.934  1.00  0.00    -0.198 N  
ATOM      6  C2    C A   1      -9.767  13.555  68.103  1.00  0.00    -0.233 C  
ATOM      7  H3    C A   1     -10.106  15.606  68.182  1.00  0.00     0.000 HD 
ATOM      8  N1    C A   1      -8.767  12.578  67.913  1.00  0.00    -0.171 N  
ATOM      9  O2    C A   1     -10.915  13.252  68.423  1.00  0.00    -0.244 OA 
ATOM     10  C5    C A   1      -7.254  14.208  67.105  1.00  0.00     0.207 C  
ATOM     11  C6    C A   1      -7.553  12.938  67.372  1.00  0.00    -0.148 C  
ENDROOT
BRANCH   8  12
ATOM     12  C1*   C A   1      -9.194  11.189  68.094  1.00  0.00    -0.166 C  
ATOM     13  O4*   C A   1      -9.137  10.880  69.509  1.00  0.00     0.019 OA 
ATOM     14  C4*   C A   1      -7.886  10.233  69.800  1.00  0.00    -0.139 C  
ATOM     15  C3*   C A   1      -7.437   9.555  68.513  1.00  0.00    -0.080 C  
ATOM     16  H2*   C A   1      -7.417   9.397  65.788  1.00  0.00     0.000 HD 
ATOM     17  C2*   C A   1      -8.456   9.988  67.463  1.00  0.00    -0.118 C  
ATOM     18  O3*   C A   1      -7.463   8.126  68.624  1.00  0.00    -0.093 OA 
ATOM     19  O2*   C A   1      -7.871  10.135  66.176  1.00  0.00    -0.107 OA 
ATOM     20  H3*   C A   1      -7.183   7.703  67.821  1.00  0.00     0.000 HD 
BRANCH  14  21
ATOM     21  C5*   C A   1      -6.873  11.281  70.275  1.00  0.00     0.409 C  
ATOM     22  O5*   C A   1      -5.598  11.042  69.686  1.00  0.00    -0.039 OA 
ATOM     23  H5*   C A   1      -4.970  11.691  69.980  1.00  0.00     0.000 HD 
ENDBRANCH  14  21
ENDBRANCH   8  12
TORSDOF 2
ENDMDL
MODEL      196
REMARK 921   NORMALIZED FREE ENERGY PREDICTED BY IDOCK:   -1.20 KCAL/MOL
REMARK 922        TOTAL FREE ENERGY PREDICTED BY IDOCK:   -1.36 KCAL/MOL
REMARK 923 INTER-LIGAND FREE ENERGY PREDICTED BY IDOCK:   -2.39 KCAL/MOL
REMARK 924 INTRA-LIGAND FREE ENERGY PREDICTED BY IDOCK:    1.03 KCAL/MOL
REMARK 927      BINDING AFFINITY PREDICTED BY RF-SCORE:    0.00 PKD
ROOT
ATOM      1  N4    C A   1      -5.746   8.994  68.260  1.00  0.00    -0.038 NA 
ATOM      2  H42   C A   1      -4.785   8.750  68.019  1.00  0.00     0.000 HD 
ATOM      3  C4    C A   1      -6.481   8.220  69.110  1.00  0.00    -0.040 C  
ATOM      4  H41   C A   1      -6.193   9.825  67.874  1.00  0.00     0.000 HD 
ATOM      5  N3    C A   1      -5.913   7.166  69.600  1.00  0.00    -0.023 N  
ATOM      6  C2    C A   1      -6.599   6.356  70.474  1.00  0.00    -0.045 C  
ATOM      7  H3    C A   1      -4.956   6.934  69.337  1.00  0.00     0.000 HD 
ATOM      8  N1    C A   1      -7.971   6.601  70.689  1.00  0.00    -0.109 N  
ATOM      9  O2    C A   1      -6.010   5.435  71.038  1.00  0.00    -0.020 OA 
ATOM     10  C5    C A   1      -7.865   8.600  69.427  1.00  0.00    -0.096 C  
ATOM     11  C6    C A   1      -8.547   7.749  70.192  1.00  0.00    -0.139 C  
ENDROOT
BRANCH   8  12
ATOM     12  C1*   C A   1      -8.634   5.711  71.644  1.00  0.00    -0.132 C  
ATOM     13  O4*   C A   1      -9.979   5.459  71.167  1.00  0.00    -0.179 OA 
ATOM     14  C4*   C A   1     -10.887   6.364  71.820  1.00  0.00    -0.241 C  
ATOM     15  C3*   C A   1     -10.249   6.735  73.151  1.00  0.00    -0.230 C  
ATOM     16  H2*   C A   1      -8.041   7.086  74.717  1.00  0.00     0.000 HD 
ATOM     17  C2*   C A   1      -8.871   6.082  73.124  1.00  0.00    -0.128 C  
ATOM     18  O3*   C A   1     -10.989   6.214  74.263  1.00  0.00    -0.303 OA 
ATOM     19  O2*   C A   1      -7.895   6.858  73.806  1.00  0.00    -0.097 OA 
ATOM     20  H3*   C A   1     -10.591   6.446  75.094  1.00  0.00     0.000 HD 
BRANCH  14  21
ATOM     21  C5*   C A   1     -11.103   7.594  70.929  1.00  0.00    -0.263 C  
ATOM     22  O5*   C A   1     -12.326   8.242  71.266  1.00  0.00    -0.308 OA 
ATOM     23  H5*   C A   1     -12.459   9.003  70.714  1.00  0.00     0.000 HD 
ENDBRANCH  14  21
ENDBRANCH   8  12
TORSDOF 2
ENDMDL
MODEL      197
REMARK 921   NORMALIZED FREE ENERGY PREDICTED BY IDOCK:   -1.13 KCAL/MOL
REMARK 922        TOTAL FREE ENERGY PREDICTED BY IDOCK:   -1.28 KCAL/MOL
REMARK 923 INTER-LIGAND FREE ENERGY PREDICTED BY IDOCK:   -4.54 KCAL/MOL
REMARK 924 INTRA-LIGAND FREE ENERGY PREDICTED BY IDOCK:    3.27 KCAL/MOL
REMARK 927      BINDING AFFINITY PREDICTED BY RF-SCORE:    0.00 PKD
ROOT
ATOM      1  N4    C A   1      -9.774  20.497  65.101  1.00  0.00    -0.104 NA 
ATOM      2  H42   C A   1     -10.511  20.401  64.403  1.00  0.00     0.000 HD 
ATOM      3  C4    C A   1      -9.668  19.624  66.144  1.00  0.00    -0.406 C  
ATOM      4  H41   C A   1      -9.088  21.249  65.045  1.00  0.00     0.000 HD 
ATOM      5  N3    C A   1     -10.539  18.669  66.215  1.00  0.00    -0.398 N  
ATOM      6  C2    C A   1     -10.475  17.750  67.235  1.00  0.00    -0.353 C  
ATOM      7  H3    C A   1     -11.275  18.599  65.513  1.00  0.00     0.000 HD 
ATOM      8  N1    C A   1      -9.556  17.966  68.284  1.00  0.00    -0.299 N  
ATOM      9  O2    C A   1     -11.220  16.771  67.220  1.00  0.00    -0.017 OA 
ATOM     10  C5    C A   1      -8.597  19.799  67.135  1.00  0.00    -0.376 C  
ATOM     11  C6    C A   1      -8.612  18.963  68.172  1.00  0.00    -0.316 C  
ENDROOT
BRANCH   8  12
ATOM     12  C1*   C A   1      -9.530  16.940  69.328  1.00  0.00    -0.051 C  
ATOM     13  O4*   C A   1      -8.389  16.079  69.087  1.00  0.00    -0.231 OA 
ATOM     14  C4*   C A   1      -8.822  14.918  68.356  1.00  0.00    -0.178 C  
ATOM     15  C3*   C A   1     -10.293  14.717  68.690  1.00  0.00    -0.246 C  
ATOM     16  H2*   C A   1     -12.718  15.711  69.457  1.00  0.00     0.000 HD 
ATOM     17  C2*   C A   1     -10.673  15.924  69.544  1.00  0.00    -0.288 C  
ATOM     18  O3*   C A   1     -10.511  13.522  69.453  1.00  0.00    -0.437 OA 
ATOM     19  O2*   C A   1     -12.015  16.336  69.325  1.00  0.00    -0.191 OA 
ATOM     20  H3*   C A   1     -11.429  13.397  69.661  1.00  0.00     0.000 HD 
BRANCH  14  21
ATOM     21  C5*   C A   1      -8.606  15.154  66.856  1.00  0.00    -0.257 C  
ATOM     22  O5*   C A   1      -9.470  14.318  66.093  1.00  0.00    -0.396 OA 
ATOM     23  H5*   C A   1      -9.336  14.464  65.164  1.00  0.00     0.000 HD 
ENDBRANCH  14  21
ENDBRANCH   8  12
TORSDOF 2
ENDMDL
MODEL      198
REMARK 921   NORMALIZED FREE ENERGY PREDICTED BY IDOCK:   -0.88 KCAL/MOL
REMARK 922        TOTAL FREE ENERGY PREDICTED BY IDOCK:   -0.99 KCAL/MOL
REMARK 923 INTER-LIGAND FREE ENERGY PREDICTED BY IDOCK:   -4.00 KCAL/MOL
REMARK 924 INTRA-LIGAND FREE ENERGY PREDICTED BY IDOCK:    3.01 KCAL/MOL
REMARK 927      BINDING AFFINITY PREDICTED BY RF-SCORE:    0.00 PKD
ROOT
ATOM      1  N4    C A   1      -8.989   7.666  67.278  1.00  0.00    -0.126 NA 
ATOM      2  H42   C A   1      -9.711   7.164  67.794  1.00  0.00     0.000 HD 
ATOM      3  C4    C A   1      -9.212   8.918  66.786  1.00  0.00    -0.159 C  
ATOM      4  H41   C A   1      -8.073   7.250  67.111  1.00  0.00     0.000 HD 
ATOM      5  N3    C A   1     -10.375   9.445  66.998  1.00  0.00    -0.253 N  
ATOM      6  C2    C A   1     -10.653  10.711  66.539  1.00  0.00    -0.193 C  
ATOM      7  H3    C A   1     -11.086   8.921  67.507  1.00  0.00     0.000 HD 
ATOM      8  N1    C A   1      -9.717  11.346  65.696  1.00  0.00    -0.224 N  
ATOM      9  O2    C A   1     -11.708  11.256  66.861  1.00  0.00    -0.464 OA 
ATOM     10  C5    C A   1      -8.149   9.608  66.040  1.00  0.00    -0.112 C  
ATOM     11  C6    C A   1      -8.471  10.788  65.515  1.00  0.00    -0.153 C  
ENDROOT
BRANCH   8  12
ATOM     12  C1*   C A   1     -10.070  12.698  65.258  1.00  0.00    -0.253 C  
ATOM     13  O4*   C A   1      -9.180  13.633  65.916  1.00  0.00    -0.013 OA 
ATOM     14  C4*   C A   1      -9.828  14.154  67.090  1.00  0.00    -0.253 C  
ATOM     15  C3*   C A   1     -11.326  14.062  66.837  1.00  0.00    -0.329 C  
ATOM     16  H2*   C A   1     -13.466  12.895  65.607  1.00  0.00     0.000 HD 
ATOM     17  C2*   C A   1     -11.457  13.331  65.504  1.00  0.00    -0.311 C  
ATOM     18  O3*   C A   1     -11.929  15.358  66.718  1.00  0.00     0.111 OA 
ATOM     19  O2*   C A   1     -12.613  12.505  65.456  1.00  0.00    -0.642 OA 
ATOM     20  H3*   C A   1     -12.864  15.300  66.560  1.00  0.00     0.000 HD 
BRANCH  14  21
ATOM     21  C5*   C A   1      -9.405  13.326  68.310  1.00  0.00    -0.205 C  
ATOM     22  O5*   C A   1     -10.537  13.022  69.120  1.00  0.00    -0.427 OA 
ATOM     23  H5*   C A   1     -10.274  12.509  69.875  1.00  0.00     0.000 HD 
ENDBRANCH  14  21
ENDBRANCH   8  12
TORSDOF 2
ENDMDL
MODEL      199
REMARK 921   NORMALIZED FREE ENERGY PREDICTED BY IDOCK:   -0.82 KCAL/MOL
REMARK 922        TOTAL FREE ENERGY PREDICTED BY IDOCK:   -0.93 KCAL/MOL
REMARK 923 INTER-LIGAND FREE ENERGY PREDICTED BY IDOCK:   -2.27 KCAL/MOL
REMARK 924 INTRA-LIGAND FREE ENERGY PREDICTED BY IDOCK:    1.33 KCAL/MOL
REMARK 927      BINDING AFFINITY PREDICTED BY RF-SCORE:    0.00 PKD
ROOT
ATOM      1  N4    C A   1     -10.869  12.710  64.822  1.00  0.00    -0.289 NA 
ATOM      2  H42   C A   1     -10.180  12.806  64.077  1.00  0.00     0.000 HD 
ATOM      3  C4    C A   1     -10.661  13.257  66.054  1.00  0.00    -0.277 C  
ATOM      4  H41   C A   1     -11.741  12.201  64.674  1.00  0.00     0.000 HD 
ATOM      5  N3    C A   1      -9.556  13.902  66.243  1.00  0.00    -0.382 N  
ATOM      6  C2    C A   1      -9.297  14.487  67.459  1.00  0.00    -0.193 C  
ATOM      7  H3    C A   1      -8.875  13.976  65.488  1.00  0.00     0.000 HD 
ATOM      8  N1    C A   1     -10.172  14.229  68.535  1.00  0.00    -0.241 N  
ATOM      9  O2    C A   1      -8.310  15.211  67.588  1.00  0.00    -0.144 OA 
ATOM     10  C5    C A   1     -11.676  13.091  67.106  1.00  0.00    -0.439 C  
ATOM     11  C6    C A   1     -11.362  13.575  68.306  1.00  0.00    -0.294 C  
ENDROOT
BRANCH   8  12
ATOM     12  C1*   C A   1      -9.845  14.898  69.796  1.00  0.00     0.075 C  
ATOM     13  O4*   C A   1     -10.622  14.278  70.850  1.00  0.00     0.848 OA 
ATOM     14  C4*   C A   1     -11.811  15.057  71.078  1.00  0.00    -0.323 C  
ATOM     15  C3*   C A   1     -11.487  16.480  70.649  1.00  0.00     0.001 C  
ATOM     16  H2*   C A   1     -10.066  18.242  69.122  1.00  0.00     0.000 HD 
ATOM     17  C2*   C A   1     -10.089  16.402  70.044  1.00  0.00     0.194 C  
ATOM     18  O3*   C A   1     -11.462  17.383  71.763  1.00  0.00     0.145 OA 
ATOM     19  O2*   C A   1      -9.916  17.316  68.970  1.00  0.00    -0.298 OA 
ATOM     20  H3*   C A   1     -11.260  18.272  71.495  1.00  0.00     0.000 HD 
BRANCH  14  21
ATOM     21  C5*   C A   1     -12.967  14.465  70.262  1.00  0.00    -0.070 C  
ATOM     22  O5*   C A   1     -14.218  14.850  70.823  1.00  0.00    -0.580 OA 
ATOM     23  H5*   C A   1     -14.934  14.483  70.318  1.00  0.00     0.000 HD 
ENDBRANCH  14  21
ENDBRANCH   8  12
TORSDOF 2
ENDMDL
MODEL      200
REMARK 921   NORMALIZED FREE ENERGY PREDICTED BY IDOCK:   -0.80 KCAL/MOL
REMARK 922        TOTAL FREE ENERGY PREDICTED BY IDOCK:   -0.91 KCAL/MOL
REMARK 923 INTER-LIGAND FREE ENERGY PREDICTED BY IDOCK:   -2.60 KCAL/MOL
REMARK 924 INTRA-LIGAND FREE ENERGY PREDICTED BY IDOCK:    1.69 KCAL/MOL
REMARK 927      BINDING AFFINITY PREDICTED BY RF-SCORE:    0.00 PKD
ROOT
ATOM      1  N4    C A   1      -8.135  17.568  68.494  1.00  0.00    -0.269 NA 
ATOM      2  H42   C A   1      -7.586  18.258  69.006  1.00  0.00     0.000 HD 
ATOM      3  C4    C A   1      -7.716  16.275  68.377  1.00  0.00    -0.169 C  
ATOM      4  H41   C A   1      -9.018  17.819  68.050  1.00  0.00     0.000 HD 
ATOM      5  N3    C A   1      -6.595  15.957  68.940  1.00  0.00    -0.119 N  
ATOM      6  C2    C A   1      -6.129  14.666  68.869  1.00  0.00    -0.086 C  
ATOM      7  H3    C A   1      -6.057  16.666  69.437  1.00  0.00     0.000 HD 
ATOM      8  N1    C A   1      -6.803  13.748  68.037  1.00  0.00    -0.121 N  
ATOM      9  O2    C A   1      -5.136  14.341  69.519  1.00  0.00    -0.090 OA 
ATOM     10  C5    C A   1      -8.531  15.311  67.624  1.00  0.00    -0.172 C  
ATOM     11  C6    C A   1      -8.014  14.092  67.478  1.00  0.00    -0.188 C  
ENDROOT
BRANCH   8  12
ATOM     12  C1*   C A   1      -6.262  12.388  68.022  1.00  0.00    -0.082 C  
ATOM     13  O4*   C A   1      -6.946  11.641  66.984  1.00  0.00    -0.132 OA 
ATOM     14  C4*   C A   1      -8.027  10.897  67.575  1.00  0.00    -0.115 C  
ATOM     15  C3*   C A   1      -7.644  10.653  69.028  1.00  0.00    -0.122 C  
ATOM     16  H2*   C A   1      -6.291  11.374  71.286  1.00  0.00     0.000 HD 
ATOM     17  C2*   C A   1      -6.347  11.430  69.230  1.00  0.00    -0.084 C  
ATOM     18  O3*   C A   1      -7.401   9.264  69.291  1.00  0.00    -0.067 OA 
ATOM     19  O2*   C A   1      -6.239  11.963  70.543  1.00  0.00    -0.250 OA 
ATOM     20  H3*   C A   1      -7.162   9.112  70.198  1.00  0.00     0.000 HD 
BRANCH  14  21
ATOM     21  C5*   C A   1      -9.323  11.708  67.456  1.00  0.00    -0.168 C  
ATOM     22  O5*   C A   1      -9.809  12.059  68.748  1.00  0.00    -0.366 OA 
ATOM     23  H5*   C A   1     -10.612  12.561  68.674  1.00  0.00     0.000 HD 
ENDBRANCH  14  21
ENDBRANCH   8  12
TORSDOF 2
ENDMDL
MODEL      201
REMARK 921   NORMALIZED FREE ENERGY PREDICTED BY IDOCK:   -0.71 KCAL/MOL
REMARK 922        TOTAL FREE ENERGY PREDICTED BY IDOCK:   -0.81 KCAL/MOL
REMARK 923 INTER-LIGAND FREE ENERGY PREDICTED BY IDOCK:   -1.35 KCAL/MOL
REMARK 924 INTRA-LIGAND FREE ENERGY PREDICTED BY IDOCK:    0.55 KCAL/MOL
REMARK 927      BINDING AFFINITY PREDICTED BY RF-SCORE:    0.00 PKD
ROOT
ATOM      1  N4    C A   1      -7.940   8.109  63.716  1.00  0.00    -0.171 NA 
ATOM      2  H42   C A   1      -8.412   7.939  62.829  1.00  0.00     0.000 HD 
ATOM      3  C4    C A   1      -8.281   9.167  64.508  1.00  0.00    -0.152 C  
ATOM      4  H41   C A   1      -7.196   7.495  64.045  1.00  0.00     0.000 HD 
ATOM      5  N3    C A   1      -9.226   9.946  64.090  1.00  0.00    -0.275 N  
ATOM      6  C2    C A   1      -9.623  11.019  64.852  1.00  0.00    -0.245 C  
ATOM      7  H3    C A   1      -9.676   9.764  63.194  1.00  0.00     0.000 HD 
ATOM      8  N1    C A   1      -8.874  11.347  66.002  1.00  0.00    -0.198 N  
ATOM      9  O2    C A   1     -10.609  11.673  64.515  1.00  0.00    -0.282 OA 
ATOM     10  C5    C A   1      -7.573   9.384  65.778  1.00  0.00    -0.099 C  
ATOM     11  C6    C A   1      -7.899  10.485  66.452  1.00  0.00    -0.138 C  
ENDROOT
BRANCH   8  12
ATOM     12  C1*   C A   1      -9.363  12.491  66.774  1.00  0.00    -0.230 C  
ATOM     13  O4*   C A   1      -8.540  13.639  66.450  1.00  0.00     0.095 OA 
ATOM     14  C4*   C A   1      -7.509  13.775  67.444  1.00  0.00    -0.125 C  
ATOM     15  C3*   C A   1      -8.046  13.138  68.718  1.00  0.00     0.073 C  
ATOM     16  H2*   C A   1      -9.672  11.345  69.980  1.00  0.00     0.000 HD 
ATOM     17  C2*   C A   1      -9.384  12.524  68.318  1.00  0.00    -0.193 C  
ATOM     18  O3*   C A   1      -8.270  14.109  69.749  1.00  0.00    -0.070 OA 
ATOM     19  O2*   C A   1      -9.659  11.325  69.030  1.00  0.00    -0.146 OA 
ATOM     20  H3*   C A   1      -8.606  13.712  70.544  1.00  0.00     0.000 HD 
BRANCH  14  21
ATOM     21  C5*   C A   1      -6.236  13.076  66.951  1.00  0.00     0.852 C  
ATOM     22  O5*   C A   1      -5.853  12.046  67.857  1.00  0.00    -0.051 OA 
ATOM     23  H5*   C A   1      -5.065  11.614  67.551  1.00  0.00     0.000 HD 
ENDBRANCH  14  21
ENDBRANCH   8  12
TORSDOF 2
ENDMDL
MODEL      202
REMARK 921   NORMALIZED FREE ENERGY PREDICTED BY IDOCK:   -0.69 KCAL/MOL
REMARK 922        TOTAL FREE ENERGY PREDICTED BY IDOCK:   -0.78 KCAL/MOL
REMARK 923 INTER-LIGAND FREE ENERGY PREDICTED BY IDOCK:   -3.92 KCAL/MOL
REMARK 924 INTRA-LIGAND FREE ENERGY PREDICTED BY IDOCK:    3.13 KCAL/MOL
REMARK 927      BINDING AFFINITY PREDICTED BY RF-SCORE:    0.00 PKD
ROOT
ATOM      1  N4    C A   1      -8.036   8.159  63.782  1.00  0.00    -0.171 NA 
ATOM      2  H42   C A   1      -8.643   7.665  63.129  1.00  0.00     0.000 HD 
ATOM      3  C4    C A   1      -8.457   9.286  64.426  1.00  0.00    -0.188 C  
ATOM      4  H41   C A   1      -7.091   7.830  63.978  1.00  0.00     0.000 HD 
ATOM      5  N3    C A   1      -9.655   9.704  64.176  1.00  0.00    -0.406 N  
ATOM      6  C2    C A   1     -10.140  10.826  64.806  1.00  0.00    -0.331 C  
ATOM      7  H3    C A   1     -10.242   9.201  63.511  1.00  0.00     0.000 HD 
ATOM      8  N1    C A   1      -9.257  11.598  65.590  1.00  0.00    -0.184 N  
ATOM      9  O2    C A   1     -11.322  11.138  64.668  1.00  0.00    -0.099 OA 
ATOM     10  C5    C A   1      -7.550   9.976  65.355  1.00  0.00    -0.138 C  
ATOM     11  C6    C A   1      -7.998  11.117  65.876  1.00  0.00     0.010 C  
ENDROOT
BRANCH   8  12
ATOM     12  C1*   C A   1      -9.844  12.768  66.244  1.00  0.00    -0.267 C  
ATOM     13  O4*   C A   1      -9.232  12.910  67.550  1.00  0.00    -0.177 OA 
ATOM     14  C4*   C A   1     -10.078  12.292  68.536  1.00  0.00    -0.187 C  
ATOM     15  C3*   C A   1     -11.494  12.333  67.981  1.00  0.00    -0.321 C  
ATOM     16  H2*   C A   1     -13.223  12.405  65.869  1.00  0.00     0.000 HD 
ATOM     17  C2*   C A   1     -11.349  12.890  66.568  1.00  0.00    -0.318 C  
ATOM     18  O3*   C A   1     -12.342  13.206  68.740  1.00  0.00    -0.146 OA 
ATOM     19  O2*   C A   1     -12.297  12.330  65.670  1.00  0.00    -0.619 OA 
ATOM     20  H3*   C A   1     -13.226  13.232  68.393  1.00  0.00     0.000 HD 
BRANCH  14  21
ATOM     21  C5*   C A   1      -9.603  10.855  68.780  1.00  0.00    -0.189 C  
ATOM     22  O5*   C A   1     -10.519   9.926  68.207  1.00  0.00    -0.188 OA 
ATOM     23  H5*   C A   1     -10.224   9.036  68.358  1.00  0.00     0.000 HD 
ENDBRANCH  14  21
ENDBRANCH   8  12
TORSDOF 2
ENDMDL
MODEL      203
REMARK 921   NORMALIZED FREE ENERGY PREDICTED BY IDOCK:   -0.69 KCAL/MOL
REMARK 922        TOTAL FREE ENERGY PREDICTED BY IDOCK:   -0.78 KCAL/MOL
REMARK 923 INTER-LIGAND FREE ENERGY PREDICTED BY IDOCK:   -1.19 KCAL/MOL
REMARK 924 INTRA-LIGAND FREE ENERGY PREDICTED BY IDOCK:    0.40 KCAL/MOL
REMARK 927      BINDING AFFINITY PREDICTED BY RF-SCORE:    0.00 PKD
ROOT
ATOM      1  N4    C A   1      -8.436  14.278  68.160  1.00  0.00    -0.158 NA 
ATOM      2  H42   C A   1      -7.726  15.002  68.266  1.00  0.00     0.000 HD 
ATOM      3  C4    C A   1      -8.313  13.069  68.781  1.00  0.00     0.134 C  
ATOM      4  H41   C A   1      -9.264  14.429  67.585  1.00  0.00     0.000 HD 
ATOM      5  N3    C A   1      -7.262  12.877  69.511  1.00  0.00    -0.304 N  
ATOM      6  C2    C A   1      -7.090  11.685  70.174  1.00  0.00     0.854 C  
ATOM      7  H3    C A   1      -6.559  13.610  69.594  1.00  0.00     0.000 HD 
ATOM      8  N1    C A   1      -7.987  10.628  69.909  1.00  0.00     0.079 N  
ATOM      9  O2    C A   1      -6.161  11.560  70.970  1.00  0.00    -0.342 OA 
ATOM     10  C5    C A   1      -9.353  12.047  68.598  1.00  0.00    -0.056 C  
ATOM     11  C6    C A   1      -9.120  10.863  69.163  1.00  0.00    -0.042 C  
ENDROOT
BRANCH   8  12
ATOM     12  C1*   C A   1      -7.755   9.394  70.662  1.00  0.00    -0.149 C  
ATOM     13  O4*   C A   1      -7.181   8.416  69.759  1.00  0.00    -0.054 OA 
ATOM     14  C4*   C A   1      -8.230   7.571  69.253  1.00  0.00    -0.130 C  
ATOM     15  C3*   C A   1      -9.338   7.580  70.297  1.00  0.00    -0.161 C  
ATOM     16  H2*   C A   1     -10.674   8.802  72.340  1.00  0.00     0.000 HD 
ATOM     17  C2*   C A   1      -8.885   8.593  71.344  1.00  0.00    -0.215 C  
ATOM     18  O3*   C A   1      -9.492   6.300  70.925  1.00  0.00    -0.170 OA 
ATOM     19  O2*   C A   1      -9.978   9.295  71.920  1.00  0.00    -0.228 OA 
ATOM     20  H3*   C A   1     -10.183   6.305  71.576  1.00  0.00     0.000 HD 
BRANCH  14  21
ATOM     21  C5*   C A   1      -8.714   8.118  67.904  1.00  0.00    -0.128 C  
ATOM     22  O5*   C A   1      -8.040   7.465  66.833  1.00  0.00    -0.115 OA 
ATOM     23  H5*   C A   1      -8.339   7.805  65.998  1.00  0.00     0.000 HD 
ENDBRANCH  14  21
ENDBRANCH   8  12
TORSDOF 2
ENDMDL
MODEL      204
REMARK 921   NORMALIZED FREE ENERGY PREDICTED BY IDOCK:   -0.41 KCAL/MOL
REMARK 922        TOTAL FREE ENERGY PREDICTED BY IDOCK:   -0.47 KCAL/MOL
REMARK 923 INTER-LIGAND FREE ENERGY PREDICTED BY IDOCK:   -3.73 KCAL/MOL
REMARK 924 INTRA-LIGAND FREE ENERGY PREDICTED BY IDOCK:    3.26 KCAL/MOL
REMARK 927      BINDING AFFINITY PREDICTED BY RF-SCORE:    0.00 PKD
ROOT
ATOM      1  N4    C A   1     -12.323  15.053  68.669  1.00  0.00    -0.589 NA 
ATOM      2  H42   C A   1     -11.956  15.789  69.272  1.00  0.00     0.000 HD 
ATOM      3  C4    C A   1     -11.506  14.096  68.142  1.00  0.00    -0.310 C  
ATOM      4  H41   C A   1     -13.315  15.005  68.438  1.00  0.00     0.000 HD 
ATOM      5  N3    C A   1     -10.247  14.158  68.435  1.00  0.00    -0.241 N  
ATOM      6  C2    C A   1      -9.378  13.213  67.945  1.00  0.00    -0.215 C  
ATOM      7  H3    C A   1      -9.900  14.909  69.030  1.00  0.00     0.000 HD 
ATOM      8  N1    C A   1      -9.851  12.286  66.992  1.00  0.00    -0.203 N  
ATOM      9  O2    C A   1      -8.211  13.199  68.336  1.00  0.00    -0.154 OA 
ATOM     10  C5    C A   1     -12.071  13.055  67.271  1.00  0.00    -0.304 C  
ATOM     11  C6    C A   1     -11.200  12.210  66.723  1.00  0.00    -0.322 C  
ENDROOT
BRANCH   8  12
ATOM     12  C1*   C A   1      -8.876  11.299  66.526  1.00  0.00    -0.179 C  
ATOM     13  O4*   C A   1      -9.304   9.991  66.982  1.00  0.00    -0.150 OA 
ATOM     14  C4*   C A   1      -8.616   9.671  68.205  1.00  0.00    -0.119 C  
ATOM     15  C3*   C A   1      -7.308  10.449  68.185  1.00  0.00    -0.088 C  
ATOM     16  H2*   C A   1      -5.823  12.588  67.366  1.00  0.00     0.000 HD 
ATOM     17  C2*   C A   1      -7.387  11.322  66.936  1.00  0.00    -0.145 C  
ATOM     18  O3*   C A   1      -6.171   9.582  68.075  1.00  0.00    -0.055 OA 
ATOM     19  O2*   C A   1      -6.738  12.574  67.114  1.00  0.00    -0.144 OA 
ATOM     20  H3*   C A   1      -5.354  10.068  68.062  1.00  0.00     0.000 HD 
BRANCH  14  21
ATOM     21  C5*   C A   1      -9.495  10.065  69.398  1.00  0.00    -0.223 C  
ATOM     22  O5*   C A   1      -8.721  10.101  70.594  1.00  0.00    -0.289 OA 
ATOM     23  H5*   C A   1      -9.266  10.345  71.332  1.00  0.00     0.000 HD 
ENDBRANCH  14  21
ENDBRANCH   8  12
TORSDOF 2
ENDMDL
MODEL      205
REMARK 921   NORMALIZED FREE ENERGY PREDICTED BY IDOCK:   -0.32 KCAL/MOL
REMARK 922        TOTAL FREE ENERGY PREDICTED BY IDOCK:   -0.37 KCAL/MOL
REMARK 923 INTER-LIGAND FREE ENERGY PREDICTED BY IDOCK:   -3.60 KCAL/MOL
REMARK 924 INTRA-LIGAND FREE ENERGY PREDICTED BY IDOCK:    3.23 KCAL/MOL
REMARK 927      BINDING AFFINITY PREDICTED BY RF-SCORE:    0.00 PKD
ROOT
ATOM      1  N4    C A   1      -5.738  20.362  68.468  1.00  0.00    -0.258 NA 
ATOM      2  H42   C A   1      -5.030  20.410  69.199  1.00  0.00     0.000 HD 
ATOM      3  C4    C A   1      -6.303  19.174  68.106  1.00  0.00    -0.219 C  
ATOM      4  H41   C A   1      -6.051  21.200  67.979  1.00  0.00     0.000 HD 
ATOM      5  N3    C A   1      -5.905  18.110  68.726  1.00  0.00    -0.190 N  
ATOM      6  C2    C A   1      -6.448  16.886  68.415  1.00  0.00    -0.149 C  
ATOM      7  H3    C A   1      -5.188  18.180  69.447  1.00  0.00     0.000 HD 
ATOM      8  N1    C A   1      -7.312  16.792  67.303  1.00  0.00    -0.161 N  
ATOM      9  O2    C A   1      -6.166  15.904  69.100  1.00  0.00    -0.127 OA 
ATOM     10  C5    C A   1      -7.315  19.143  67.040  1.00  0.00    -0.225 C  
ATOM     11  C6    C A   1      -7.754  17.938  66.681  1.00  0.00    -0.243 C  
ENDROOT
BRANCH   8  12
ATOM     12  C1*   C A   1      -7.866  15.462  67.040  1.00  0.00    -0.209 C  
ATOM     13  O4*   C A   1      -9.210  15.628  66.523  1.00  0.00    -0.243 OA 
ATOM     14  C4*   C A   1     -10.151  15.491  67.604  1.00  0.00    -0.243 C  
ATOM     15  C3*   C A   1      -9.482  14.616  68.654  1.00  0.00    -0.211 C  
ATOM     16  H2*   C A   1      -7.237  13.651  69.871  1.00  0.00     0.000 HD 
ATOM     17  C2*   C A   1      -8.063  14.395  68.139  1.00  0.00    -0.137 C  
ATOM     18  O3*   C A   1     -10.133  13.344  68.784  1.00  0.00    -0.368 OA 
ATOM     19  O2*   C A   1      -7.116  14.307  69.195  1.00  0.00    -0.117 OA 
ATOM     20  H3*   C A   1      -9.715  12.798  69.440  1.00  0.00     0.000 HD 
BRANCH  14  21
ATOM     21  C5*   C A   1     -10.493  16.881  68.154  1.00  0.00    -0.350 C  
ATOM     22  O5*   C A   1     -11.547  16.790  69.108  1.00  0.00    -0.153 OA 
ATOM     23  H5*   C A   1     -11.759  17.651  69.449  1.00  0.00     0.000 HD 
ENDBRANCH  14  21
ENDBRANCH   8  12
TORSDOF 2
ENDMDL
MODEL      206
REMARK 921   NORMALIZED FREE ENERGY PREDICTED BY IDOCK:    1.18 KCAL/MOL
REMARK 922        TOTAL FREE ENERGY PREDICTED BY IDOCK:    1.31 KCAL/MOL
REMARK 923 INTER-LIGAND FREE ENERGY PREDICTED BY IDOCK:   -1.88 KCAL/MOL
REMARK 924 INTRA-LIGAND FREE ENERGY PREDICTED BY IDOCK:    3.19 KCAL/MOL
REMARK 927      BINDING AFFINITY PREDICTED BY RF-SCORE:    0.00 PKD
ROOT
ATOM      1  N4    C A   1     -11.895  11.714  67.824  1.00  0.00    -0.611 NA 
ATOM      2  H42   C A   1     -12.813  12.155  67.787  1.00  0.00     0.000 HD 
ATOM      3  C4    C A   1     -10.807  12.382  68.306  1.00  0.00    -0.237 C  
ATOM      4  H41   C A   1     -11.754  10.757  67.501  1.00  0.00     0.000 HD 
ATOM      5  N3    C A   1     -10.985  13.597  68.715  1.00  0.00    -0.258 N  
ATOM      6  C2    C A   1      -9.931  14.315  69.225  1.00  0.00     0.074 C  
ATOM      7  H3    C A   1     -11.910  14.022  68.659  1.00  0.00     0.000 HD 
ATOM      8  N1    C A   1      -8.633  13.768  69.136  1.00  0.00     0.290 N  
ATOM      9  O2    C A   1     -10.134  15.416  69.736  1.00  0.00    -0.263 OA 
ATOM     10  C5    C A   1      -9.497  11.716  68.335  1.00  0.00    -0.193 C  
ATOM     11  C6    C A   1      -8.468  12.461  68.735  1.00  0.00     0.136 C  
ENDROOT
BRANCH   8  12
ATOM     12  C1*   C A   1      -7.560  14.580  69.713  1.00  0.00     0.162 C  
ATOM     13  O4*   C A   1      -8.099  15.891  70.015  1.00  0.00     0.252 OA 
ATOM     14  C4*   C A   1      -7.799  16.784  68.927  1.00  0.00    -0.244 C  
ATOM     15  C3*   C A   1      -6.546  16.244  68.253  1.00  0.00    -0.127 C  
ATOM     16  H2*   C A   1      -4.893  14.167  67.615  1.00  0.00     0.000 HD 
ATOM     17  C2*   C A   1      -6.257  14.922  68.958  1.00  0.00    -0.097 C  
ATOM     18  O3*   C A   1      -5.423  17.119  68.429  1.00  0.00    -0.125 OA 
ATOM     19  O2*   C A   1      -5.694  13.957  68.080  1.00  0.00    -0.115 OA 
ATOM     20  H3*   C A   1      -4.641  16.782  68.009  1.00  0.00     0.000 HD 
BRANCH  14  21
ATOM     21  C5*   C A   1      -8.991  16.825  67.963  1.00  0.00    -0.217 C  
ATOM     22  O5*   C A   1      -9.866  17.896  68.301  1.00  0.00    -0.310 OA 
ATOM     23  H5*   C A   1     -10.605  17.921  67.705  1.00  0.00     0.000 HD 
ENDBRANCH  14  21
ENDBRANCH   8  12
TORSDOF 2
ENDMDL
MODEL      207
REMARK 921   NORMALIZED FREE ENERGY PREDICTED BY IDOCK:    1.47 KCAL/MOL
REMARK 922        TOTAL FREE ENERGY PREDICTED BY IDOCK:    1.63 KCAL/MOL
REMARK 923 INTER-LIGAND FREE ENERGY PREDICTED BY IDOCK:    0.49 KCAL/MOL
REMARK 924 INTRA-LIGAND FREE ENERGY PREDICTED BY IDOCK:    1.14 KCAL/MOL
REMARK 927      BINDING AFFINITY PREDICTED BY RF-SCORE:    0.00 PKD
ROOT
ATOM      1  N4    C A   1     -11.267  18.273  70.117  1.00  0.00     2.105 NA 
ATOM      2  H42   C A   1     -11.779  18.242  70.998  1.00  0.00     0.000 HD 
ATOM      3  C4    C A   1     -11.366  17.263  69.205  1.00  0.00     0.753 C  
ATOM      4  H41   C A   1     -10.662  19.060  69.885  1.00  0.00     0.000 HD 
ATOM      5  N3    C A   1     -12.134  16.265  69.500  1.00  0.00    -0.212 N  
ATOM      6  C2    C A   1     -12.285  15.225  68.614  1.00  0.00     0.004 C  
ATOM      7  H3    C A   1     -12.627  16.249  70.392  1.00  0.00     0.000 HD 
ATOM      8  N1    C A   1     -11.465  15.188  67.467  1.00  0.00    -0.328 N  
ATOM      9  O2    C A   1     -13.118  14.348  68.841  1.00  0.00     1.002 OA 
ATOM     10  C5    C A   1     -10.606  17.340  67.948  1.00  0.00    -0.384 C  
ATOM     11  C6    C A   1     -10.684  16.277  67.149  1.00  0.00    -0.247 C  
ENDROOT
BRANCH   8  12
ATOM     12  C1*   C A   1     -11.691  14.062  66.559  1.00  0.00    -0.394 C  
ATOM     13  O4*   C A   1     -12.118  12.924  67.350  1.00  0.00    -0.333 OA 
ATOM     14  C4*   C A   1     -10.978  12.094  67.635  1.00  0.00    -0.243 C  
ATOM     15  C3*   C A   1      -9.974  12.335  66.517  1.00  0.00    -0.220 C  
ATOM     16  H2*   C A   1      -8.909  13.933  64.577  1.00  0.00     0.000 HD 
ATOM     17  C2*   C A   1     -10.582  13.452  65.674  1.00  0.00    -0.282 C  
ATOM     18  O3*   C A   1      -9.802  11.173  65.693  1.00  0.00    -0.213 OA 
ATOM     19  O2*   C A   1      -9.591  14.308  65.121  1.00  0.00    -0.071 OA 
ATOM     20  H3*   C A   1      -9.175  11.323  64.995  1.00  0.00     0.000 HD 
BRANCH  14  21
ATOM     21  C5*   C A   1     -10.405  12.476  69.006  1.00  0.00     0.060 C  
ATOM     22  O5*   C A   1     -11.435  12.481  69.989  1.00  0.00    -0.508 OA 
ATOM     23  H5*   C A   1     -11.081  12.717  70.838  1.00  0.00     0.000 HD 
ENDBRANCH  14  21
ENDBRANCH   8  12
TORSDOF 2
ENDMDL
MODEL      208
REMARK 921   NORMALIZED FREE ENERGY PREDICTED BY IDOCK:    2.25 KCAL/MOL
REMARK 922        TOTAL FREE ENERGY PREDICTED BY IDOCK:    2.49 KCAL/MOL
REMARK 923 INTER-LIGAND FREE ENERGY PREDICTED BY IDOCK:   -0.61 KCAL/MOL
REMARK 924 INTRA-LIGAND FREE ENERGY PREDICTED BY IDOCK:    3.10 KCAL/MOL
REMARK 927      BINDING AFFINITY PREDICTED BY RF-SCORE:    0.00 PKD
ROOT
ATOM      1  N4    C A   1      -8.986   6.942  63.470  1.00  0.00     0.430 NA 
ATOM      2  H42   C A   1      -9.711   7.624  63.691  1.00  0.00     0.000 HD 
ATOM      3  C4    C A   1      -8.318   6.274  64.454  1.00  0.00     0.028 C  
ATOM      4  H41   C A   1      -8.733   6.733  62.504  1.00  0.00     0.000 HD 
ATOM      5  N3    C A   1      -8.638   6.539  65.679  1.00  0.00    -0.205 N  
ATOM      6  C2    C A   1      -8.010   5.887  66.714  1.00  0.00    -0.102 C  
ATOM      7  H3    C A   1      -9.358   7.233  65.878  1.00  0.00     0.000 HD 
ATOM      8  N1    C A   1      -6.905   5.059  66.421  1.00  0.00    -0.060 N  
ATOM      9  O2    C A   1      -8.413   6.043  67.865  1.00  0.00    -0.115 OA 
ATOM     10  C5    C A   1      -7.273   5.303  64.096  1.00  0.00    -0.051 C  
ATOM     11  C6    C A   1      -6.605   4.758  65.111  1.00  0.00    -0.044 C  
ENDROOT
BRANCH   8  12
ATOM     12  C1*   C A   1      -6.295   4.384  67.568  1.00  0.00    -0.037 C  
ATOM     13  O4*   C A   1      -5.739   3.127  67.108  1.00  0.00    -0.021 OA 
ATOM     14  C4*   C A   1      -6.687   2.074  67.357  1.00  0.00    -0.039 C  
ATOM     15  C3*   C A   1      -7.543   2.527  68.530  1.00  0.00    -0.047 C  
ATOM     16  H2*   C A   1      -8.650   4.512  70.042  1.00  0.00     0.000 HD 
ATOM     17  C2*   C A   1      -7.092   3.956  68.819  1.00  0.00    -0.051 C  
ATOM     18  O3*   C A   1      -7.321   1.724  69.697  1.00  0.00    -0.036 OA 
ATOM     19  O2*   C A   1      -8.160   4.776  69.272  1.00  0.00    -0.073 OA 
ATOM     20  H3*   C A   1      -7.856   2.007  70.430  1.00  0.00     0.000 HD 
BRANCH  14  21
ATOM     21  C5*   C A   1      -7.527   1.841  66.095  1.00  0.00    -0.061 C  
ATOM     22  O5*   C A   1      -8.795   2.479  66.219  1.00  0.00    -0.122 OA 
ATOM     23  H5*   C A   1      -9.315   2.335  65.437  1.00  0.00     0.000 HD 
ENDBRANCH  14  21
ENDBRANCH   8  12
TORSDOF 2
ENDMDL
MODEL      209
REMARK 921   NORMALIZED FREE ENERGY PREDICTED BY IDOCK:    4.53 KCAL/MOL
REMARK 922        TOTAL FREE ENERGY PREDICTED BY IDOCK:    5.05 KCAL/MOL
REMARK 923 INTER-LIGAND FREE ENERGY PREDICTED BY IDOCK:    2.36 KCAL/MOL
REMARK 924 INTRA-LIGAND FREE ENERGY PREDICTED BY IDOCK:    2.68 KCAL/MOL
REMARK 927      BINDING AFFINITY PREDICTED BY RF-SCORE:    0.00 PKD
ROOT
ATOM      1  N4    C A   1     -10.055  18.215  71.445  1.00  0.00     3.555 NA 
ATOM      2  H42   C A   1     -10.592  18.122  72.307  1.00  0.00     0.000 HD 
ATOM      3  C4    C A   1     -10.175  17.307  70.434  1.00  0.00     1.272 C  
ATOM      4  H41   C A   1      -9.407  18.990  71.307  1.00  0.00     0.000 HD 
ATOM      5  N3    C A   1     -10.997  16.323  70.609  1.00  0.00    -0.247 N  
ATOM      6  C2    C A   1     -11.172  15.385  69.620  1.00  0.00    -0.283 C  
ATOM      7  H3    C A   1     -11.516  16.243  71.483  1.00  0.00     0.000 HD 
ATOM      8  N1    C A   1     -10.323  15.423  68.494  1.00  0.00    -0.222 N  
ATOM      9  O2    C A   1     -12.052  14.533  69.738  1.00  0.00    -0.303 OA 
ATOM     10  C5    C A   1      -9.378  17.470  69.209  1.00  0.00     0.143 C  
ATOM     11  C6    C A   1      -9.483  16.498  68.306  1.00  0.00    -0.220 C  
ENDROOT
BRANCH   8  12
ATOM     12  C1*   C A   1     -10.576  14.405  67.473  1.00  0.00    -0.265 C  
ATOM     13  O4*   C A   1      -9.740  14.697  66.326  1.00  0.00    -0.276 OA 
ATOM     14  C4*   C A   1     -10.506  15.443  65.363  1.00  0.00    -0.402 C  
ATOM     15  C3*   C A   1     -11.965  15.074  65.587  1.00  0.00     0.031 C  
ATOM     16  H2*   C A   1     -13.980  14.217  67.217  1.00  0.00     0.000 HD 
ATOM     17  C2*   C A   1     -11.960  14.181  66.825  1.00  0.00    -0.447 C  
ATOM     18  O3*   C A   1     -12.506  14.334  64.483  1.00  0.00    -0.607 OA 
ATOM     19  O2*   C A   1     -13.129  14.354  67.615  1.00  0.00     1.289 OA 
ATOM     20  H3*   C A   1     -13.416  14.103  64.624  1.00  0.00     0.000 HD 
BRANCH  14  21
ATOM     21  C5*   C A   1     -10.259  16.942  65.572  1.00  0.00    -0.126 C  
ATOM     22  O5*   C A   1      -8.867  17.198  65.733  1.00  0.00    -0.526 OA 
ATOM     23  H5*   C A   1      -8.715  18.127  65.863  1.00  0.00     0.000 HD 
ENDBRANCH  14  21
ENDBRANCH   8  12
TORSDOF 2
ENDMDL
MODEL      210
REMARK 921   NORMALIZED FREE ENERGY PREDICTED BY IDOCK:    7.79 KCAL/MOL
REMARK 922        TOTAL FREE ENERGY PREDICTED BY IDOCK:    8.69 KCAL/MOL
REMARK 923 INTER-LIGAND FREE ENERGY PREDICTED BY IDOCK:    6.21 KCAL/MOL
REMARK 924 INTRA-LIGAND FREE ENERGY PREDICTED BY IDOCK:    2.47 KCAL/MOL
REMARK 927      BINDING AFFINITY PREDICTED BY RF-SCORE:    0.00 PKD
ROOT
ATOM      1  N4    C A   1      -6.876  14.929  72.432  1.00  0.00     1.570 NA 
ATOM      2  H42   C A   1      -6.276  15.278  73.179  1.00  0.00     0.000 HD 
ATOM      3  C4    C A   1      -7.079  15.650  71.292  1.00  0.00     2.514 C  
ATOM      4  H41   C A   1      -7.348  14.028  72.509  1.00  0.00     0.000 HD 
ATOM      5  N3    C A   1      -6.481  16.793  71.193  1.00  0.00     1.904 N  
ATOM      6  C2    C A   1      -6.635  17.558  70.061  1.00  0.00     0.337 C  
ATOM      7  H3    C A   1      -5.894  17.128  71.957  1.00  0.00     0.000 HD 
ATOM      8  N1    C A   1      -7.581  17.154  69.095  1.00  0.00    -0.186 N  
ATOM      9  O2    C A   1      -5.959  18.575  69.918  1.00  0.00    -0.248 OA 
ATOM     10  C5    C A   1      -7.958  15.118  70.240  1.00  0.00     0.675 C  
ATOM     11  C6    C A   1      -8.178  15.917  69.198  1.00  0.00    -0.240 C  
ENDROOT
BRANCH   8  12
ATOM     12  C1*   C A   1      -7.681  18.006  67.909  1.00  0.00    -0.230 C  
ATOM     13  O4*   C A   1      -8.493  17.317  66.926  1.00  0.00    -0.207 OA 
ATOM     14  C4*   C A   1      -7.630  16.626  66.004  1.00  0.00     0.155 C  
ATOM     15  C3*   C A   1      -6.308  17.380  65.998  1.00  0.00    -0.102 C  
ATOM     16  H2*   C A   1      -4.476  18.984  67.233  1.00  0.00     0.000 HD 
ATOM     17  C2*   C A   1      -6.456  18.447  67.078  1.00  0.00    -0.182 C  
ATOM     18  O3*   C A   1      -6.064  18.023  64.739  1.00  0.00    -0.042 OA 
ATOM     19  O2*   C A   1      -5.229  18.712  67.744  1.00  0.00    -0.163 OA 
ATOM     20  H3*   C A   1      -5.238  18.493  64.736  1.00  0.00     0.000 HD 
BRANCH  14  21
ATOM     21  C5*   C A   1      -7.456  15.174  66.466  1.00  0.00     0.921 C  
ATOM     22  O5*   C A   1      -6.185  15.000  67.086  1.00  0.00    -0.264 OA 
ATOM     23  H5*   C A   1      -6.078  14.101  67.372  1.00  0.00     0.000 HD 
ENDBRANCH  14  21
ENDBRANCH   8  12
TORSDOF 2
ENDMDL
MODEL      211
REMARK 921   NORMALIZED FREE ENERGY PREDICTED BY IDOCK:   10.87 KCAL/MOL
REMARK 922        TOTAL FREE ENERGY PREDICTED BY IDOCK:   12.13 KCAL/MOL
REMARK 923 INTER-LIGAND FREE ENERGY PREDICTED BY IDOCK:    8.74 KCAL/MOL
REMARK 924 INTRA-LIGAND FREE ENERGY PREDICTED BY IDOCK:    3.39 KCAL/MOL
REMARK 927      BINDING AFFINITY PREDICTED BY RF-SCORE:    0.00 PKD
ROOT
ATOM      1  N4    C A   1     -11.294  18.701  72.054  1.00  0.00     2.760 NA 
ATOM      2  H42   C A   1     -11.930  17.961  72.350  1.00  0.00     0.000 HD 
ATOM      3  C4    C A   1     -10.416  18.511  71.027  1.00  0.00     2.699 C  
ATOM      4  H41   C A   1     -11.292  19.612  72.513  1.00  0.00     0.000 HD 
ATOM      5  N3    C A   1     -10.419  17.356  70.445  1.00  0.00     0.434 N  
ATOM      6  C2    C A   1      -9.567  17.109  69.395  1.00  0.00     0.097 C  
ATOM      7  H3    C A   1     -11.055  16.626  70.765  1.00  0.00     0.000 HD 
ATOM      8  N1    C A   1      -8.583  18.072  69.081  1.00  0.00     0.028 N  
ATOM      9  O2    C A   1      -9.670  16.060  68.761  1.00  0.00    -0.207 OA 
ATOM     10  C5    C A   1      -9.509  19.599  70.633  1.00  0.00     1.535 C  
ATOM     11  C6    C A   1      -8.621  19.309  69.684  1.00  0.00     0.495 C  
ENDROOT
BRANCH   8  12
ATOM     12  C1*   C A   1      -7.721  17.751  67.942  1.00  0.00    -0.225 C  
ATOM     13  O4*   C A   1      -8.114  18.592  66.828  1.00  0.00    -0.238 OA 
ATOM     14  C4*   C A   1      -9.019  17.859  65.982  1.00  0.00     0.024 C  
ATOM     15  C3*   C A   1      -8.703  16.384  66.182  1.00  0.00    -0.312 C  
ATOM     16  H2*   C A   1      -7.754  14.340  67.723  1.00  0.00     0.000 HD 
ATOM     17  C2*   C A   1      -7.659  16.351  67.295  1.00  0.00    -0.166 C  
ATOM     18  O3*   C A   1      -8.143  15.792  65.002  1.00  0.00     2.694 OA 
ATOM     19  O2*   C A   1      -7.791  15.202  68.121  1.00  0.00    -0.118 OA 
ATOM     20  H3*   C A   1      -7.946  14.871  65.127  1.00  0.00     0.000 HD 
BRANCH  14  21
ATOM     21  C5*   C A   1     -10.462  18.192  66.379  1.00  0.00    -0.350 C  
ATOM     22  O5*   C A   1     -10.527  19.480  66.984  1.00  0.00    -0.411 OA 
ATOM     23  H5*   C A   1     -11.421  19.685  67.230  1.00  0.00     0.000 HD 
ENDBRANCH  14  21
ENDBRANCH   8  12
TORSDOF 2
ENDMDL
MODEL      212
REMARK 921   NORMALIZED FREE ENERGY PREDICTED BY IDOCK:   20.97 KCAL/MOL
REMARK 922        TOTAL FREE ENERGY PREDICTED BY IDOCK:   23.41 KCAL/MOL
REMARK 923 INTER-LIGAND FREE ENERGY PREDICTED BY IDOCK:   15.78 KCAL/MOL
REMARK 924 INTRA-LIGAND FREE ENERGY PREDICTED BY IDOCK:    7.63 KCAL/MOL
REMARK 927      BINDING AFFINITY PREDICTED BY RF-SCORE:    0.00 PKD
ROOT
ATOM      1  N4    C A   1      -6.757  18.857  64.332  1.00  0.00     0.227 NA 
ATOM      2  H42   C A   1      -5.926  19.448  64.371  1.00  0.00     0.000 HD 
ATOM      3  C4    C A   1      -7.488  18.590  65.452  1.00  0.00     0.412 C  
ATOM      4  H41   C A   1      -7.071  18.444  63.455  1.00  0.00     0.000 HD 
ATOM      5  N3    C A   1      -7.089  19.114  66.566  1.00  0.00    -0.210 N  
ATOM      6  C2    C A   1      -7.794  18.892  67.725  1.00  0.00    -0.243 C  
ATOM      7  H3    C A   1      -6.249  19.692  66.584  1.00  0.00     0.000 HD 
ATOM      8  N1    C A   1      -8.850  17.957  67.707  1.00  0.00    -0.247 N  
ATOM      9  O2    C A   1      -7.487  19.501  68.749  1.00  0.00    -0.337 OA 
ATOM     10  C5    C A   1      -8.675  17.727  65.358  1.00  0.00     1.443 C  
ATOM     11  C6    C A   1      -9.285  17.440  66.507  1.00  0.00    -0.266 C  
ENDROOT
BRANCH   8  12
ATOM     12  C1*   C A   1      -9.567  17.783  68.971  1.00  0.00    -0.135 C  
ATOM     13  O4*   C A   1     -10.922  17.366  68.668  1.00  0.00    -0.224 OA 
ATOM     14  C4*   C A   1     -11.780  18.521  68.671  1.00  0.00     3.114 C  
ATOM     15  C3*   C A   1     -11.130  19.545  69.590  1.00  0.00     2.490 C  
ATOM     16  H2*   C A   1      -8.913  20.615  70.771  1.00  0.00     0.000 HD 
ATOM     17  C2*   C A   1      -9.790  18.929  69.982  1.00  0.00     0.924 C  
ATOM     18  O3*   C A   1     -11.904  19.769  70.776  1.00  0.00     6.094 OA 
ATOM     19  O2*   C A   1      -8.776  19.910  70.149  1.00  0.00     0.685 OA 
ATOM     20  H3*   C A   1     -11.498  20.408  71.349  1.00  0.00     0.000 HD 
BRANCH  14  21
ATOM     21  C5*   C A   1     -11.921  19.050  67.238  1.00  0.00     2.435 C  
ATOM     22  O5*   C A   1     -10.746  18.762  66.486  1.00  0.00    -0.382 OA 
ATOM     23  H5*   C A   1     -10.833  19.090  65.599  1.00  0.00     0.000 HD 
ENDBRANCH  14  21
ENDBRANCH   8  12
TORSDOF 2
ENDMDL
MODEL      213
REMARK 921   NORMALIZED FREE ENERGY PREDICTED BY IDOCK:   26.26 KCAL/MOL
REMARK 922        TOTAL FREE ENERGY PREDICTED BY IDOCK:   29.31 KCAL/MOL
REMARK 923 INTER-LIGAND FREE ENERGY PREDICTED BY IDOCK:   25.67 KCAL/MOL
REMARK 924 INTRA-LIGAND FREE ENERGY PREDICTED BY IDOCK:    3.64 KCAL/MOL
REMARK 927      BINDING AFFINITY PREDICTED BY RF-SCORE:    0.00 PKD
ROOT
ATOM      1  N4    C A   1      -6.145  14.818  73.918  1.00  0.00     0.401 NA 
ATOM      2  H42   C A   1      -5.576  15.500  74.420  1.00  0.00     0.000 HD 
ATOM      3  C4    C A   1      -6.806  15.154  72.772  1.00  0.00     3.479 C  
ATOM      4  H41   C A   1      -6.241  13.860  74.253  1.00  0.00     0.000 HD 
ATOM      5  N3    C A   1      -6.684  16.370  72.347  1.00  0.00     5.242 N  
ATOM      6  C2    C A   1      -7.314  16.764  71.190  1.00  0.00     4.909 C  
ATOM      7  H3    C A   1      -6.119  17.038  72.871  1.00  0.00     0.000 HD 
ATOM      8  N1    C A   1      -8.222  15.873  70.577  1.00  0.00     1.630 N  
ATOM      9  O2    C A   1      -7.084  17.877  70.721  1.00  0.00     2.203 OA 
ATOM     10  C5    C A   1      -7.623  14.147  72.080  1.00  0.00     5.537 C  
ATOM     11  C6    C A   1      -8.308  14.573  71.021  1.00  0.00     3.419 C  
ENDROOT
BRANCH   8  12
ATOM     12  C1*   C A   1      -8.844  16.351  69.341  1.00  0.00     0.003 C  
ATOM     13  O4*   C A   1      -9.498  15.227  68.702  1.00  0.00    -0.189 OA 
ATOM     14  C4*   C A   1      -8.619  14.674  67.707  1.00  0.00    -0.173 C  
ATOM     15  C3*   C A   1      -7.700  15.803  67.262  1.00  0.00    -0.199 C  
ATOM     16  H2*   C A   1      -6.415  18.161  67.755  1.00  0.00     0.000 HD 
ATOM     17  C2*   C A   1      -8.043  16.975  68.177  1.00  0.00    -0.212 C  
ATOM     18  O3*   C A   1      -7.943  16.188  65.903  1.00  0.00    -0.001 OA 
ATOM     19  O2*   C A   1      -6.908  17.777  68.471  1.00  0.00    -0.214 OA 
ATOM     20  H3*   C A   1      -7.370  16.892  65.625  1.00  0.00     0.000 HD 
BRANCH  14  21
ATOM     21  C5*   C A   1      -7.833  13.508  68.319  1.00  0.00    -0.145 C  
ATOM     22  O5*   C A   1      -8.608  12.861  69.324  1.00  0.00    -0.020 OA 
ATOM     23  H5*   C A   1      -8.121  12.139  69.704  1.00  0.00     0.000 HD 
ENDBRANCH  14  21
ENDBRANCH   8  12
TORSDOF 2
ENDMDL
MODEL      214
REMARK 921   NORMALIZED FREE ENERGY PREDICTED BY IDOCK:   33.02 KCAL/MOL
REMARK 922        TOTAL FREE ENERGY PREDICTED BY IDOCK:   36.86 KCAL/MOL
REMARK 923 INTER-LIGAND FREE ENERGY PREDICTED BY IDOCK:   31.20 KCAL/MOL
REMARK 924 INTRA-LIGAND FREE ENERGY PREDICTED BY IDOCK:    5.66 KCAL/MOL
REMARK 927      BINDING AFFINITY PREDICTED BY RF-SCORE:    0.00 PKD
ROOT
ATOM      1  N4    C A   1     -10.198  19.960  63.610  1.00  0.00     7.100 NA 
ATOM      2  H42   C A   1      -9.381  20.564  63.693  1.00  0.00     0.000 HD 
ATOM      3  C4    C A   1     -10.337  18.847  64.386  1.00  0.00     5.316 C  
ATOM      4  H41   C A   1     -10.941  20.165  62.943  1.00  0.00     0.000 HD 
ATOM      5  N3    C A   1      -9.394  18.586  65.232  1.00  0.00     1.466 N  
ATOM      6  C2    C A   1      -9.486  17.487  66.052  1.00  0.00    -0.070 C  
ATOM      7  H3    C A   1      -8.580  19.198  65.291  1.00  0.00     0.000 HD 
ATOM      8  N1    C A   1     -10.534  16.567  65.836  1.00  0.00    -0.340 N  
ATOM      9  O2    C A   1      -8.655  17.322  66.944  1.00  0.00    -0.221 OA 
ATOM     10  C5    C A   1     -11.526  17.995  64.232  1.00  0.00     4.557 C  
ATOM     11  C6    C A   1     -11.549  16.881  64.960  1.00  0.00     0.834 C  
ENDROOT
BRANCH   8  12
ATOM     12  C1*   C A   1     -10.580  15.429  66.755  1.00  0.00    -0.309 C  
ATOM     13  O4*   C A   1     -11.870  14.785  66.612  1.00  0.00    -0.342 OA 
ATOM     14  C4*   C A   1     -12.758  15.277  67.632  1.00  0.00     1.665 C  
ATOM     15  C3*   C A   1     -11.881  15.725  68.792  1.00  0.00    -0.309 C  
ATOM     16  H2*   C A   1      -9.504  16.656  69.759  1.00  0.00     0.000 HD 
ATOM     17  C2*   C A   1     -10.450  15.572  68.287  1.00  0.00    -0.242 C  
ATOM     18  O3*   C A   1     -12.057  14.894  69.948  1.00  0.00    -0.305 OA 
ATOM     19  O2*   C A   1      -9.584  16.568  68.817  1.00  0.00    -0.230 OA 
ATOM     20  H3*   C A   1     -11.510  15.173  70.672  1.00  0.00     0.000 HD 
BRANCH  14  21
ATOM     21  C5*   C A   1     -13.587  16.436  67.064  1.00  0.00     7.639 C  
ATOM     22  O5*   C A   1     -13.380  16.552  65.659  1.00  0.00     4.994 OA 
ATOM     23  H5*   C A   1     -13.893  17.270  65.308  1.00  0.00     0.000 HD 
ENDBRANCH  14  21
ENDBRANCH   8  12
TORSDOF 2
ENDMDL
