MODEL        1
REMARK 921   NORMALIZED FREE ENERGY PREDICTED BY IDOCK:   -4.17 KCAL/MOL
REMARK 922        TOTAL FREE ENERGY PREDICTED BY IDOCK:   -5.08 KCAL/MOL
REMARK 923 INTER-LIGAND FREE ENERGY PREDICTED BY IDOCK:   -4.91 KCAL/MOL
REMARK 924 INTRA-LIGAND FREE ENERGY PREDICTED BY IDOCK:   -0.17 KCAL/MOL
REMARK 927      BINDING AFFINITY PREDICTED BY RF-SCORE:    0.00 PKD
ROOT
ATOM      1  CE  MET A   1     -11.319  14.288  68.560  1.00  0.00    -0.282 C  
ATOM      2  SD  MET A   1      -9.737  13.833  67.812  1.00  0.00    -0.237 SA 
ENDROOT
BRANCH   2   3
ATOM      3  CG  MET A   1      -9.554  15.239  66.667  1.00  0.00    -0.257 C  
BRANCH   3   4
ATOM      4  CB  MET A   1     -10.070  14.850  65.284  1.00  0.00    -0.380 C  
BRANCH   4   5
ATOM      5  CA  MET A   1     -11.464  15.409  64.978  1.00  0.00    -0.263 C  
ATOM      6  C   MET A   1     -12.372  14.240  64.560  1.00  0.00    -0.410 C  
ATOM      7  N   MET A   1     -11.442  16.395  63.861  1.00  0.00    -1.618 NA 
ATOM      8  O   MET A   1     -12.442  14.131  63.207  1.00  0.00    -0.758 OA 
ATOM      9  OXT MET A   1     -12.945  13.486  65.329  1.00  0.00    -0.701 OA 
ATOM     10  H1  MET A   1     -12.370  16.768  63.659  1.00  0.00     0.000 HD 
ATOM     11  H2  MET A   1     -11.013  15.997  63.026  1.00  0.00     0.000 HD 
ENDBRANCH   4   5
ENDBRANCH   3   4
ENDBRANCH   2   3
TORSDOF 3
ENDMDL
MODEL        2
REMARK 921   NORMALIZED FREE ENERGY PREDICTED BY IDOCK:   -4.15 KCAL/MOL
REMARK 922        TOTAL FREE ENERGY PREDICTED BY IDOCK:   -5.05 KCAL/MOL
REMARK 923 INTER-LIGAND FREE ENERGY PREDICTED BY IDOCK:   -4.97 KCAL/MOL
REMARK 924 INTRA-LIGAND FREE ENERGY PREDICTED BY IDOCK:   -0.07 KCAL/MOL
REMARK 927      BINDING AFFINITY PREDICTED BY RF-SCORE:    0.00 PKD
ROOT
ATOM      1  CE  MET A   1     -11.715  11.848  69.226  1.00  0.00    -0.328 C  
ATOM      2  SD  MET A   1     -11.213  13.329  68.317  1.00  0.00    -0.297 SA 
ENDROOT
BRANCH   2   3
ATOM      3  CG  MET A   1     -11.802  12.852  66.660  1.00  0.00    -0.395 C  
BRANCH   3   4
ATOM      4  CB  MET A   1     -12.267  14.092  65.900  1.00  0.00    -0.481 C  
BRANCH   4   5
ATOM      5  CA  MET A   1     -11.435  14.382  64.646  1.00  0.00    -0.387 C  
ATOM      6  C   MET A   1     -10.916  15.827  64.735  1.00  0.00    -0.393 C  
ATOM      7  N   MET A   1     -12.238  14.260  63.397  1.00  0.00    -1.068 NA 
ATOM      8  O   MET A   1     -11.715  16.681  64.043  1.00  0.00    -1.143 OA 
ATOM      9  OXT MET A   1      -9.929  16.182  65.360  1.00  0.00    -0.482 OA 
ATOM     10  H1  MET A   1     -11.684  14.452  62.563  1.00  0.00     0.000 HD 
ATOM     11  H2  MET A   1     -13.069  14.850  63.433  1.00  0.00     0.000 HD 
ENDBRANCH   4   5
ENDBRANCH   3   4
ENDBRANCH   2   3
TORSDOF 3
ENDMDL
MODEL        3
REMARK 921   NORMALIZED FREE ENERGY PREDICTED BY IDOCK:   -3.96 KCAL/MOL
REMARK 922        TOTAL FREE ENERGY PREDICTED BY IDOCK:   -4.83 KCAL/MOL
REMARK 923 INTER-LIGAND FREE ENERGY PREDICTED BY IDOCK:   -4.72 KCAL/MOL
REMARK 924 INTRA-LIGAND FREE ENERGY PREDICTED BY IDOCK:   -0.11 KCAL/MOL
REMARK 927      BINDING AFFINITY PREDICTED BY RF-SCORE:    0.00 PKD
ROOT
ATOM      1  CE  MET A   1     -10.017  10.198  66.234  1.00  0.00    -0.242 C  
ATOM      2  SD  MET A   1     -10.219  11.826  65.472  1.00  0.00    -0.262 SA 
ENDROOT
BRANCH   2   3
ATOM      3  CG  MET A   1     -11.691  12.384  66.390  1.00  0.00    -0.391 C  
BRANCH   3   4
ATOM      4  CB  MET A   1     -12.152  13.738  65.854  1.00  0.00    -0.464 C  
BRANCH   4   5
ATOM      5  CA  MET A   1     -11.458  14.140  64.548  1.00  0.00    -0.372 C  
ATOM      6  C   MET A   1     -11.074  15.626  64.643  1.00  0.00    -0.373 C  
ATOM      7  N   MET A   1     -12.347  13.970  63.364  1.00  0.00    -1.154 NA 
ATOM      8  O   MET A   1     -12.007  16.414  64.045  1.00  0.00    -0.979 OA 
ATOM      9  OXT MET A   1     -10.078  16.061  65.196  1.00  0.00    -0.485 OA 
ATOM     10  H1  MET A   1     -11.886  14.237  62.494  1.00  0.00     0.000 HD 
ATOM     11  H2  MET A   1     -13.225  14.475  63.486  1.00  0.00     0.000 HD 
ENDBRANCH   4   5
ENDBRANCH   3   4
ENDBRANCH   2   3
TORSDOF 3
ENDMDL
MODEL        4
REMARK 921   NORMALIZED FREE ENERGY PREDICTED BY IDOCK:   -3.95 KCAL/MOL
REMARK 922        TOTAL FREE ENERGY PREDICTED BY IDOCK:   -4.82 KCAL/MOL
REMARK 923 INTER-LIGAND FREE ENERGY PREDICTED BY IDOCK:   -4.70 KCAL/MOL
REMARK 924 INTRA-LIGAND FREE ENERGY PREDICTED BY IDOCK:   -0.12 KCAL/MOL
REMARK 927      BINDING AFFINITY PREDICTED BY RF-SCORE:    0.00 PKD
ROOT
ATOM      1  CE  MET A   1     -10.455  16.643  68.859  1.00  0.00    -0.322 C  
ATOM      2  SD  MET A   1      -9.893  16.922  67.163  1.00  0.00    -0.279 SA 
ENDROOT
BRANCH   2   3
ATOM      3  CG  MET A   1      -9.662  15.187  66.656  1.00  0.00    -0.258 C  
BRANCH   3   4
ATOM      4  CB  MET A   1     -10.071  15.016  65.194  1.00  0.00    -0.350 C  
BRANCH   4   5
ATOM      5  CA  MET A   1     -11.535  15.385  64.929  1.00  0.00    -0.311 C  
ATOM      6  C   MET A   1     -12.318  14.089  64.660  1.00  0.00    -0.397 C  
ATOM      7  N   MET A   1     -11.686  16.267  63.737  1.00  0.00    -1.488 NA 
ATOM      8  O   MET A   1     -12.442  13.855  63.327  1.00  0.00    -0.817 OA 
ATOM      9  OXT MET A   1     -12.759  13.343  65.520  1.00  0.00    -0.482 OA 
ATOM     10  H1  MET A   1     -12.660  16.512  63.560  1.00  0.00     0.000 HD 
ATOM     11  H2  MET A   1     -11.254  15.849  62.912  1.00  0.00     0.000 HD 
ENDBRANCH   4   5
ENDBRANCH   3   4
ENDBRANCH   2   3
TORSDOF 3
ENDMDL
MODEL        5
REMARK 921   NORMALIZED FREE ENERGY PREDICTED BY IDOCK:   -3.93 KCAL/MOL
REMARK 922        TOTAL FREE ENERGY PREDICTED BY IDOCK:   -4.79 KCAL/MOL
REMARK 923 INTER-LIGAND FREE ENERGY PREDICTED BY IDOCK:   -4.71 KCAL/MOL
REMARK 924 INTRA-LIGAND FREE ENERGY PREDICTED BY IDOCK:   -0.09 KCAL/MOL
REMARK 927      BINDING AFFINITY PREDICTED BY RF-SCORE:    0.00 PKD
ROOT
ATOM      1  CE  MET A   1     -10.404  15.348  69.344  1.00  0.00    -0.258 C  
ATOM      2  SD  MET A   1     -12.028  15.066  68.599  1.00  0.00    -0.189 SA 
ENDROOT
BRANCH   2   3
ATOM      3  CG  MET A   1     -11.546  13.848  67.332  1.00  0.00    -0.368 C  
BRANCH   3   4
ATOM      4  CB  MET A   1     -12.329  14.102  66.046  1.00  0.00    -0.470 C  
BRANCH   4   5
ATOM      5  CA  MET A   1     -11.434  14.243  64.810  1.00  0.00    -0.393 C  
ATOM      6  C   MET A   1     -10.869  15.673  64.784  1.00  0.00    -0.355 C  
ATOM      7  N   MET A   1     -12.186  14.024  63.543  1.00  0.00    -1.079 NA 
ATOM      8  O   MET A   1     -11.607  16.479  63.977  1.00  0.00    -1.154 OA 
ATOM      9  OXT MET A   1      -9.898  16.056  65.416  1.00  0.00    -0.440 OA 
ATOM     10  H1  MET A   1     -11.590  14.117  62.720  1.00  0.00     0.000 HD 
ATOM     11  H2  MET A   1     -12.997  14.640  63.484  1.00  0.00     0.000 HD 
ENDBRANCH   4   5
ENDBRANCH   3   4
ENDBRANCH   2   3
TORSDOF 3
ENDMDL
MODEL        6
REMARK 921   NORMALIZED FREE ENERGY PREDICTED BY IDOCK:   -3.92 KCAL/MOL
REMARK 922        TOTAL FREE ENERGY PREDICTED BY IDOCK:   -4.78 KCAL/MOL
REMARK 923 INTER-LIGAND FREE ENERGY PREDICTED BY IDOCK:   -4.61 KCAL/MOL
REMARK 924 INTRA-LIGAND FREE ENERGY PREDICTED BY IDOCK:   -0.18 KCAL/MOL
REMARK 927      BINDING AFFINITY PREDICTED BY RF-SCORE:    0.00 PKD
ROOT
ATOM      1  CE  MET A   1     -10.438  11.470  63.957  1.00  0.00    -0.370 C  
ATOM      2  SD  MET A   1     -12.017  12.290  63.632  1.00  0.00    -0.565 SA 
ENDROOT
BRANCH   2   3
ATOM      3  CG  MET A   1     -12.389  12.861  65.322  1.00  0.00    -0.490 C  
BRANCH   3   4
ATOM      4  CB  MET A   1     -12.480  14.385  65.345  1.00  0.00    -0.357 C  
BRANCH   4   5
ATOM      5  CA  MET A   1     -11.277  15.073  64.689  1.00  0.00    -0.332 C  
ATOM      6  C   MET A   1     -10.253  15.404  65.787  1.00  0.00    -0.354 C  
ATOM      7  N   MET A   1     -11.656  16.347  64.016  1.00  0.00    -1.542 NA 
ATOM      8  O   MET A   1     -10.383  16.690  66.211  1.00  0.00    -0.311 OA 
ATOM      9  OXT MET A   1      -9.437  14.622  66.246  1.00  0.00    -0.286 OA 
ATOM     10  H1  MET A   1     -10.856  16.805  63.579  1.00  0.00     0.000 HD 
ATOM     11  H2  MET A   1     -12.136  16.977  64.660  1.00  0.00     0.000 HD 
ENDBRANCH   4   5
ENDBRANCH   3   4
ENDBRANCH   2   3
TORSDOF 3
ENDMDL
MODEL        7
REMARK 921   NORMALIZED FREE ENERGY PREDICTED BY IDOCK:   -3.64 KCAL/MOL
REMARK 922        TOTAL FREE ENERGY PREDICTED BY IDOCK:   -4.44 KCAL/MOL
REMARK 923 INTER-LIGAND FREE ENERGY PREDICTED BY IDOCK:   -4.53 KCAL/MOL
REMARK 924 INTRA-LIGAND FREE ENERGY PREDICTED BY IDOCK:    0.08 KCAL/MOL
REMARK 927      BINDING AFFINITY PREDICTED BY RF-SCORE:    0.00 PKD
ROOT
ATOM      1  CE  MET A   1     -11.412  12.997  68.032  1.00  0.00    -0.309 C  
ATOM      2  SD  MET A   1      -9.963  13.946  67.509  1.00  0.00    -0.243 SA 
ENDROOT
BRANCH   2   3
ATOM      3  CG  MET A   1     -10.309  14.023  65.722  1.00  0.00    -0.319 C  
BRANCH   3   4
ATOM      4  CB  MET A   1     -10.438  12.609  65.159  1.00  0.00    -0.319 C  
BRANCH   4   5
ATOM      5  CA  MET A   1     -10.819  12.581  63.675  1.00  0.00    -0.441 C  
ATOM      6  C   MET A   1     -12.252  13.122  63.534  1.00  0.00    -0.476 C  
ATOM      7  N   MET A   1     -10.794  11.200  63.113  1.00  0.00    -0.820 NA 
ATOM      8  O   MET A   1     -13.158  12.110  63.483  1.00  0.00    -0.785 OA 
ATOM      9  OXT MET A   1     -12.556  14.303  63.494  1.00  0.00    -0.814 OA 
ATOM     10  H1  MET A   1     -11.047  11.182  62.126  1.00  0.00     0.000 HD 
ATOM     11  H2  MET A   1     -11.382  10.569  63.658  1.00  0.00     0.000 HD 
ENDBRANCH   4   5
ENDBRANCH   3   4
ENDBRANCH   2   3
TORSDOF 3
ENDMDL
MODEL        8
REMARK 921   NORMALIZED FREE ENERGY PREDICTED BY IDOCK:   -3.62 KCAL/MOL
REMARK 922        TOTAL FREE ENERGY PREDICTED BY IDOCK:   -4.42 KCAL/MOL
REMARK 923 INTER-LIGAND FREE ENERGY PREDICTED BY IDOCK:   -4.31 KCAL/MOL
REMARK 924 INTRA-LIGAND FREE ENERGY PREDICTED BY IDOCK:   -0.11 KCAL/MOL
REMARK 927      BINDING AFFINITY PREDICTED BY RF-SCORE:    0.00 PKD
ROOT
ATOM      1  CE  MET A   1      -9.375  12.178  66.337  1.00  0.00    -0.224 C  
ATOM      2  SD  MET A   1      -9.871  10.596  65.612  1.00  0.00    -0.268 SA 
ENDROOT
BRANCH   2   3
ATOM      3  CG  MET A   1     -10.392  11.191  63.971  1.00  0.00    -0.376 C  
BRANCH   3   4
ATOM      4  CB  MET A   1     -10.579  12.706  64.005  1.00  0.00    -0.457 C  
BRANCH   4   5
ATOM      5  CA  MET A   1     -11.945  13.160  63.477  1.00  0.00    -0.513 C  
ATOM      6  C   MET A   1     -12.380  14.404  64.269  1.00  0.00    -0.373 C  
ATOM      7  N   MET A   1     -12.992  12.114  63.654  1.00  0.00    -0.790 NA 
ATOM      8  O   MET A   1     -13.215  14.071  65.289  1.00  0.00    -0.782 OA 
ATOM      9  OXT MET A   1     -12.016  15.546  64.040  1.00  0.00    -0.531 OA 
ATOM     10  H1  MET A   1     -13.900  12.416  63.302  1.00  0.00     0.000 HD 
ATOM     11  H2  MET A   1     -13.054  11.814  64.627  1.00  0.00     0.000 HD 
ENDBRANCH   4   5
ENDBRANCH   3   4
ENDBRANCH   2   3
TORSDOF 3
ENDMDL
MODEL        9
REMARK 921   NORMALIZED FREE ENERGY PREDICTED BY IDOCK:   -3.61 KCAL/MOL
REMARK 922        TOTAL FREE ENERGY PREDICTED BY IDOCK:   -4.41 KCAL/MOL
REMARK 923 INTER-LIGAND FREE ENERGY PREDICTED BY IDOCK:   -4.28 KCAL/MOL
REMARK 924 INTRA-LIGAND FREE ENERGY PREDICTED BY IDOCK:   -0.13 KCAL/MOL
REMARK 927      BINDING AFFINITY PREDICTED BY RF-SCORE:    0.00 PKD
ROOT
ATOM      1  CE  MET A   1      -9.087  11.044  65.912  1.00  0.00    -0.197 C  
ATOM      2  SD  MET A   1      -9.654  10.231  64.399  1.00  0.00    -0.311 SA 
ENDROOT
BRANCH   2   3
ATOM      3  CG  MET A   1     -10.366  11.679  63.553  1.00  0.00    -0.441 C  
BRANCH   3   4
ATOM      4  CB  MET A   1     -10.235  12.913  64.442  1.00  0.00    -0.342 C  
BRANCH   4   5
ATOM      5  CA  MET A   1     -11.475  13.814  64.415  1.00  0.00    -0.372 C  
ATOM      6  C   MET A   1     -12.457  13.316  65.489  1.00  0.00    -0.474 C  
ATOM      7  N   MET A   1     -12.174  13.769  63.099  1.00  0.00    -1.066 NA 
ATOM      8  O   MET A   1     -13.401  12.499  64.952  1.00  0.00    -0.702 OA 
ATOM      9  OXT MET A   1     -12.398  13.591  66.676  1.00  0.00    -0.376 OA 
ATOM     10  H1  MET A   1     -12.999  14.368  63.081  1.00  0.00     0.000 HD 
ATOM     11  H2  MET A   1     -12.407  12.811  62.837  1.00  0.00     0.000 HD 
ENDBRANCH   4   5
ENDBRANCH   3   4
ENDBRANCH   2   3
TORSDOF 3
ENDMDL
MODEL       10
REMARK 921   NORMALIZED FREE ENERGY PREDICTED BY IDOCK:   -3.59 KCAL/MOL
REMARK 922        TOTAL FREE ENERGY PREDICTED BY IDOCK:   -4.39 KCAL/MOL
REMARK 923 INTER-LIGAND FREE ENERGY PREDICTED BY IDOCK:   -4.34 KCAL/MOL
REMARK 924 INTRA-LIGAND FREE ENERGY PREDICTED BY IDOCK:   -0.05 KCAL/MOL
REMARK 927      BINDING AFFINITY PREDICTED BY RF-SCORE:    0.00 PKD
ROOT
ATOM      1  CE  MET A   1      -8.699  17.327  67.334  1.00  0.00    -0.206 C  
ATOM      2  SD  MET A   1      -8.600  15.764  66.430  1.00  0.00    -0.268 SA 
ENDROOT
BRANCH   2   3
ATOM      3  CG  MET A   1     -10.238  15.798  65.632  1.00  0.00    -0.380 C  
BRANCH   3   4
ATOM      4  CB  MET A   1     -10.453  14.511  64.839  1.00  0.00    -0.435 C  
BRANCH   4   5
ATOM      5  CA  MET A   1     -11.932  14.138  64.680  1.00  0.00    -0.445 C  
ATOM      6  C   MET A   1     -12.098  12.654  65.047  1.00  0.00    -0.444 C  
ATOM      7  N   MET A   1     -12.410  14.321  63.281  1.00  0.00    -1.092 NA 
ATOM      8  O   MET A   1     -12.085  11.868  63.938  1.00  0.00    -0.420 OA 
ATOM      9  OXT MET A   1     -12.206  12.219  66.182  1.00  0.00    -0.647 OA 
ATOM     10  H1  MET A   1     -13.394  14.073  63.175  1.00  0.00     0.000 HD 
ATOM     11  H2  MET A   1     -11.827  13.806  62.621  1.00  0.00     0.000 HD 
ENDBRANCH   4   5
ENDBRANCH   3   4
ENDBRANCH   2   3
TORSDOF 3
ENDMDL
MODEL       11
REMARK 921   NORMALIZED FREE ENERGY PREDICTED BY IDOCK:   -3.57 KCAL/MOL
REMARK 922        TOTAL FREE ENERGY PREDICTED BY IDOCK:   -4.37 KCAL/MOL
REMARK 923 INTER-LIGAND FREE ENERGY PREDICTED BY IDOCK:   -4.51 KCAL/MOL
REMARK 924 INTRA-LIGAND FREE ENERGY PREDICTED BY IDOCK:    0.14 KCAL/MOL
REMARK 927      BINDING AFFINITY PREDICTED BY RF-SCORE:    0.00 PKD
ROOT
ATOM      1  CE  MET A   1      -9.913   9.589  66.551  1.00  0.00    -0.261 C  
ATOM      2  SD  MET A   1     -10.675  10.974  67.429  1.00  0.00    -0.275 SA 
ENDROOT
BRANCH   2   3
ATOM      3  CG  MET A   1     -11.398  11.845  66.001  1.00  0.00    -0.316 C  
BRANCH   3   4
ATOM      4  CB  MET A   1     -10.287  12.324  65.070  1.00  0.00    -0.321 C  
BRANCH   4   5
ATOM      5  CA  MET A   1     -10.710  12.373  63.598  1.00  0.00    -0.455 C  
ATOM      6  C   MET A   1     -12.143  12.926  63.526  1.00  0.00    -0.555 C  
ATOM      7  N   MET A   1     -10.707  11.023  62.966  1.00  0.00    -0.803 NA 
ATOM      8  O   MET A   1     -13.055  11.921  63.448  1.00  0.00    -0.710 OA 
ATOM      9  OXT MET A   1     -12.442  14.109  63.555  1.00  0.00    -0.817 OA 
ATOM     10  H1  MET A   1     -10.988  11.056  61.986  1.00  0.00     0.000 HD 
ATOM     11  H2  MET A   1     -11.283  10.367  63.494  1.00  0.00     0.000 HD 
ENDBRANCH   4   5
ENDBRANCH   3   4
ENDBRANCH   2   3
TORSDOF 3
ENDMDL
MODEL       12
REMARK 921   NORMALIZED FREE ENERGY PREDICTED BY IDOCK:   -3.55 KCAL/MOL
REMARK 922        TOTAL FREE ENERGY PREDICTED BY IDOCK:   -4.34 KCAL/MOL
REMARK 923 INTER-LIGAND FREE ENERGY PREDICTED BY IDOCK:   -4.25 KCAL/MOL
REMARK 924 INTRA-LIGAND FREE ENERGY PREDICTED BY IDOCK:   -0.09 KCAL/MOL
REMARK 927      BINDING AFFINITY PREDICTED BY RF-SCORE:    0.00 PKD
ROOT
ATOM      1  CE  MET A   1     -11.670  15.418  68.945  1.00  0.00    -0.359 C  
ATOM      2  SD  MET A   1     -12.010  13.710  68.457  1.00  0.00    -0.306 SA 
ENDROOT
BRANCH   2   3
ATOM      3  CG  MET A   1     -11.210  13.722  66.820  1.00  0.00    -0.316 C  
BRANCH   3   4
ATOM      4  CB  MET A   1     -11.856  14.786  65.936  1.00  0.00    -0.204 C  
BRANCH   4   5
ATOM      5  CA  MET A   1     -10.861  15.481  64.999  1.00  0.00    -0.450 C  
ATOM      6  C   MET A   1     -10.037  16.482  65.827  1.00  0.00    -0.303 C  
ATOM      7  N   MET A   1     -11.546  16.238  63.914  1.00  0.00    -1.573 NA 
ATOM      8  O   MET A   1     -10.549  17.738  65.734  1.00  0.00    -0.509 OA 
ATOM      9  OXT MET A   1      -9.061  16.199  66.502  1.00  0.00    -0.227 OA 
ATOM     10  H1  MET A   1     -10.884  16.700  63.290  1.00  0.00     0.000 HD 
ATOM     11  H2  MET A   1     -12.220  16.903  64.295  1.00  0.00     0.000 HD 
ENDBRANCH   4   5
ENDBRANCH   3   4
ENDBRANCH   2   3
TORSDOF 3
ENDMDL
MODEL       13
REMARK 921   NORMALIZED FREE ENERGY PREDICTED BY IDOCK:   -3.51 KCAL/MOL
REMARK 922        TOTAL FREE ENERGY PREDICTED BY IDOCK:   -4.29 KCAL/MOL
REMARK 923 INTER-LIGAND FREE ENERGY PREDICTED BY IDOCK:   -4.19 KCAL/MOL
REMARK 924 INTRA-LIGAND FREE ENERGY PREDICTED BY IDOCK:   -0.10 KCAL/MOL
REMARK 927      BINDING AFFINITY PREDICTED BY RF-SCORE:    0.00 PKD
ROOT
ATOM      1  CE  MET A   1     -10.608  17.284  67.905  1.00  0.00    -0.384 C  
ATOM      2  SD  MET A   1     -11.381  15.748  68.463  1.00  0.00    -0.377 SA 
ENDROOT
BRANCH   2   3
ATOM      3  CG  MET A   1     -10.851  14.657  67.104  1.00  0.00    -0.303 C  
BRANCH   3   4
ATOM      4  CB  MET A   1     -12.063  13.943  66.510  1.00  0.00    -0.484 C  
BRANCH   4   5
ATOM      5  CA  MET A   1     -12.260  14.225  65.016  1.00  0.00    -0.433 C  
ATOM      6  C   MET A   1     -12.255  12.882  64.267  1.00  0.00    -0.410 C  
ATOM      7  N   MET A   1     -11.166  15.068  64.454  1.00  0.00    -0.660 NA 
ATOM      8  O   MET A   1     -11.027  12.610  63.752  1.00  0.00    -0.398 OA 
ATOM      9  OXT MET A   1     -13.214  12.136  64.157  1.00  0.00    -0.740 OA 
ATOM     10  H1  MET A   1     -11.298  15.256  63.460  1.00  0.00     0.000 HD 
ATOM     11  H2  MET A   1     -10.251  14.654  64.634  1.00  0.00     0.000 HD 
ENDBRANCH   4   5
ENDBRANCH   3   4
ENDBRANCH   2   3
TORSDOF 3
ENDMDL
MODEL       14
REMARK 921   NORMALIZED FREE ENERGY PREDICTED BY IDOCK:   -3.46 KCAL/MOL
REMARK 922        TOTAL FREE ENERGY PREDICTED BY IDOCK:   -4.24 KCAL/MOL
REMARK 923 INTER-LIGAND FREE ENERGY PREDICTED BY IDOCK:   -4.18 KCAL/MOL
REMARK 924 INTRA-LIGAND FREE ENERGY PREDICTED BY IDOCK:   -0.06 KCAL/MOL
REMARK 927      BINDING AFFINITY PREDICTED BY RF-SCORE:    0.00 PKD
ROOT
ATOM      1  CE  MET A   1      -9.484  10.496  63.024  1.00  0.00    -0.335 C  
ATOM      2  SD  MET A   1     -10.232  10.806  64.641  1.00  0.00    -0.327 SA 
ENDROOT
BRANCH   2   3
ATOM      3  CG  MET A   1     -11.312  12.202  64.187  1.00  0.00    -0.380 C  
BRANCH   3   4
ATOM      4  CB  MET A   1     -10.569  13.520  64.397  1.00  0.00    -0.394 C  
BRANCH   4   5
ATOM      5  CA  MET A   1     -11.331  14.509  65.285  1.00  0.00    -0.353 C  
ATOM      6  C   MET A   1     -11.045  15.933  64.777  1.00  0.00    -0.384 C  
ATOM      7  N   MET A   1     -10.897  14.435  66.709  1.00  0.00    -0.297 NA 
ATOM      8  O   MET A   1     -10.046  16.518  65.489  1.00  0.00    -0.535 OA 
ATOM      9  OXT MET A   1     -11.617  16.474  63.845  1.00  0.00    -1.175 OA 
ATOM     10  H1  MET A   1     -11.405  15.094  67.301  1.00  0.00     0.000 HD 
ATOM     11  H2  MET A   1      -9.889  14.562  66.795  1.00  0.00     0.000 HD 
ENDBRANCH   4   5
ENDBRANCH   3   4
ENDBRANCH   2   3
TORSDOF 3
ENDMDL
MODEL       15
REMARK 921   NORMALIZED FREE ENERGY PREDICTED BY IDOCK:   -3.43 KCAL/MOL
REMARK 922        TOTAL FREE ENERGY PREDICTED BY IDOCK:   -4.20 KCAL/MOL
REMARK 923 INTER-LIGAND FREE ENERGY PREDICTED BY IDOCK:   -4.12 KCAL/MOL
REMARK 924 INTRA-LIGAND FREE ENERGY PREDICTED BY IDOCK:   -0.07 KCAL/MOL
REMARK 927      BINDING AFFINITY PREDICTED BY RF-SCORE:    0.00 PKD
ROOT
ATOM      1  CE  MET A   1     -12.300  14.404  70.144  1.00  0.00    -0.348 C  
ATOM      2  SD  MET A   1     -11.416  13.280  69.037  1.00  0.00    -0.320 SA 
ENDROOT
BRANCH   2   3
ATOM      3  CG  MET A   1     -11.961  13.972  67.442  1.00  0.00    -0.404 C  
BRANCH   3   4
ATOM      4  CB  MET A   1     -11.699  12.966  66.324  1.00  0.00    -0.457 C  
BRANCH   4   5
ATOM      5  CA  MET A   1     -10.996  13.580  65.109  1.00  0.00    -0.320 C  
ATOM      6  C   MET A   1     -12.056  13.862  64.030  1.00  0.00    -0.396 C  
ATOM      7  N   MET A   1      -9.980  12.661  64.523  1.00  0.00    -0.549 NA 
ATOM      8  O   MET A   1     -12.111  12.855  63.119  1.00  0.00    -0.538 OA 
ATOM      9  OXT MET A   1     -12.776  14.846  63.994  1.00  0.00    -0.792 OA 
ATOM     10  H1  MET A   1      -9.512  13.070  63.715  1.00  0.00     0.000 HD 
ATOM     11  H2  MET A   1     -10.389  11.755  64.294  1.00  0.00     0.000 HD 
ENDBRANCH   4   5
ENDBRANCH   3   4
ENDBRANCH   2   3
TORSDOF 3
ENDMDL
MODEL       16
REMARK 921   NORMALIZED FREE ENERGY PREDICTED BY IDOCK:   -3.42 KCAL/MOL
REMARK 922        TOTAL FREE ENERGY PREDICTED BY IDOCK:   -4.19 KCAL/MOL
REMARK 923 INTER-LIGAND FREE ENERGY PREDICTED BY IDOCK:   -4.10 KCAL/MOL
REMARK 924 INTRA-LIGAND FREE ENERGY PREDICTED BY IDOCK:   -0.09 KCAL/MOL
REMARK 927      BINDING AFFINITY PREDICTED BY RF-SCORE:    0.00 PKD
ROOT
ATOM      1  CE  MET A   1     -10.241   6.954  73.806  1.00  0.00    -0.363 C  
ATOM      2  SD  MET A   1     -10.667   5.992  72.334  1.00  0.00    -0.241 SA 
ENDROOT
BRANCH   2   3
ATOM      3  CG  MET A   1     -11.427   7.319  71.343  1.00  0.00    -0.266 C  
BRANCH   3   4
ATOM      4  CB  MET A   1     -11.860   8.463  72.257  1.00  0.00    -0.456 C  
BRANCH   4   5
ATOM      5  CA  MET A   1     -13.237   9.035  71.899  1.00  0.00    -0.405 C  
ATOM      6  C   MET A   1     -13.033  10.419  71.259  1.00  0.00    -0.419 C  
ATOM      7  N   MET A   1     -14.103   9.208  73.099  1.00  0.00    -1.155 NA 
ATOM      8  O   MET A   1     -13.186  11.412  72.175  1.00  0.00    -0.490 OA 
ATOM      9  OXT MET A   1     -12.750  10.617  70.089  1.00  0.00    -0.308 OA 
ATOM     10  H1  MET A   1     -15.019   9.588  72.861  1.00  0.00     0.000 HD 
ATOM     11  H2  MET A   1     -13.641   9.775  73.810  1.00  0.00     0.000 HD 
ENDBRANCH   4   5
ENDBRANCH   3   4
ENDBRANCH   2   3
TORSDOF 3
ENDMDL
MODEL       17
REMARK 921   NORMALIZED FREE ENERGY PREDICTED BY IDOCK:   -3.41 KCAL/MOL
REMARK 922        TOTAL FREE ENERGY PREDICTED BY IDOCK:   -4.18 KCAL/MOL
REMARK 923 INTER-LIGAND FREE ENERGY PREDICTED BY IDOCK:   -4.07 KCAL/MOL
REMARK 924 INTRA-LIGAND FREE ENERGY PREDICTED BY IDOCK:   -0.11 KCAL/MOL
REMARK 927      BINDING AFFINITY PREDICTED BY RF-SCORE:    0.00 PKD
ROOT
ATOM      1  CE  MET A   1     -10.528  12.297  67.657  1.00  0.00    -0.214 C  
ATOM      2  SD  MET A   1     -10.604  14.053  68.083  1.00  0.00    -0.254 SA 
ENDROOT
BRANCH   2   3
ATOM      3  CG  MET A   1     -11.775  14.602  66.799  1.00  0.00    -0.341 C  
BRANCH   3   4
ATOM      4  CB  MET A   1     -12.156  13.422  65.909  1.00  0.00    -0.486 C  
BRANCH   4   5
ATOM      5  CA  MET A   1     -11.673  13.574  64.462  1.00  0.00    -0.397 C  
ATOM      6  C   MET A   1     -12.040  12.294  63.693  1.00  0.00    -0.554 C  
ATOM      7  N   MET A   1     -10.196  13.752  64.378  1.00  0.00    -0.729 NA 
ATOM      8  O   MET A   1     -10.990  11.432  63.643  1.00  0.00    -0.393 OA 
ATOM      9  OXT MET A   1     -13.133  12.056  63.205  1.00  0.00    -0.701 OA 
ATOM     10  H1  MET A   1      -9.874  13.854  63.416  1.00  0.00     0.000 HD 
ATOM     11  H2  MET A   1      -9.705  12.994  64.854  1.00  0.00     0.000 HD 
ENDBRANCH   4   5
ENDBRANCH   3   4
ENDBRANCH   2   3
TORSDOF 3
ENDMDL
MODEL       18
REMARK 921   NORMALIZED FREE ENERGY PREDICTED BY IDOCK:   -3.39 KCAL/MOL
REMARK 922        TOTAL FREE ENERGY PREDICTED BY IDOCK:   -4.16 KCAL/MOL
REMARK 923 INTER-LIGAND FREE ENERGY PREDICTED BY IDOCK:   -4.00 KCAL/MOL
REMARK 924 INTRA-LIGAND FREE ENERGY PREDICTED BY IDOCK:   -0.17 KCAL/MOL
REMARK 927      BINDING AFFINITY PREDICTED BY RF-SCORE:    0.00 PKD
ROOT
ATOM      1  CE  MET A   1     -11.472  10.921  68.661  1.00  0.00    -0.311 C  
ATOM      2  SD  MET A   1     -10.599  11.008  67.079  1.00  0.00    -0.269 SA 
ENDROOT
BRANCH   2   3
ATOM      3  CG  MET A   1     -10.667  12.810  66.820  1.00  0.00    -0.260 C  
BRANCH   3   4
ATOM      4  CB  MET A   1     -11.900  13.168  65.994  1.00  0.00    -0.457 C  
BRANCH   4   5
ATOM      5  CA  MET A   1     -11.582  13.442  64.520  1.00  0.00    -0.371 C  
ATOM      6  C   MET A   1     -12.056  12.235  63.692  1.00  0.00    -0.554 C  
ATOM      7  N   MET A   1     -10.121  13.616  64.282  1.00  0.00    -0.763 NA 
ATOM      8  O   MET A   1     -11.033  11.374  63.447  1.00  0.00    -0.383 OA 
ATOM      9  OXT MET A   1     -13.201  12.048  63.314  1.00  0.00    -0.628 OA 
ATOM     10  H1  MET A   1      -9.910  13.798  63.301  1.00  0.00     0.000 HD 
ATOM     11  H2  MET A   1      -9.592  12.816  64.632  1.00  0.00     0.000 HD 
ENDBRANCH   4   5
ENDBRANCH   3   4
ENDBRANCH   2   3
TORSDOF 3
ENDMDL
MODEL       19
REMARK 921   NORMALIZED FREE ENERGY PREDICTED BY IDOCK:   -3.38 KCAL/MOL
REMARK 922        TOTAL FREE ENERGY PREDICTED BY IDOCK:   -4.14 KCAL/MOL
REMARK 923 INTER-LIGAND FREE ENERGY PREDICTED BY IDOCK:   -4.11 KCAL/MOL
REMARK 924 INTRA-LIGAND FREE ENERGY PREDICTED BY IDOCK:   -0.04 KCAL/MOL
REMARK 927      BINDING AFFINITY PREDICTED BY RF-SCORE:    0.00 PKD
ROOT
ATOM      1  CE  MET A   1     -11.257  11.062  67.766  1.00  0.00    -0.308 C  
ATOM      2  SD  MET A   1     -11.764  11.680  69.388  1.00  0.00    -0.360 SA 
ENDROOT
BRANCH   2   3
ATOM      3  CG  MET A   1     -11.665  10.120  70.325  1.00  0.00    -0.282 C  
BRANCH   3   4
ATOM      4  CB  MET A   1     -12.952   9.912  71.120  1.00  0.00    -0.456 C  
BRANCH   4   5
ATOM      5  CA  MET A   1     -12.842   8.801  72.170  1.00  0.00    -0.400 C  
ATOM      6  C   MET A   1     -13.109   7.454  71.477  1.00  0.00    -0.374 C  
ATOM      7  N   MET A   1     -13.842   8.960  73.264  1.00  0.00    -1.162 NA 
ATOM      8  O   MET A   1     -14.404   7.068  71.633  1.00  0.00    -0.381 OA 
ATOM      9  OXT MET A   1     -12.285   6.812  70.847  1.00  0.00    -0.385 OA 
ATOM     10  H1  MET A   1     -13.768   8.221  73.963  1.00  0.00     0.000 HD 
ATOM     11  H2  MET A   1     -14.790   9.024  72.892  1.00  0.00     0.000 HD 
ENDBRANCH   4   5
ENDBRANCH   3   4
ENDBRANCH   2   3
TORSDOF 3
ENDMDL
MODEL       20
REMARK 921   NORMALIZED FREE ENERGY PREDICTED BY IDOCK:   -3.36 KCAL/MOL
REMARK 922        TOTAL FREE ENERGY PREDICTED BY IDOCK:   -4.12 KCAL/MOL
REMARK 923 INTER-LIGAND FREE ENERGY PREDICTED BY IDOCK:   -3.94 KCAL/MOL
REMARK 924 INTRA-LIGAND FREE ENERGY PREDICTED BY IDOCK:   -0.18 KCAL/MOL
REMARK 927      BINDING AFFINITY PREDICTED BY RF-SCORE:    0.00 PKD
ROOT
ATOM      1  CE  MET A   1     -10.356  17.190  67.017  1.00  0.00    -0.308 C  
ATOM      2  SD  MET A   1      -9.450  15.880  66.160  1.00  0.00    -0.360 SA 
ENDROOT
BRANCH   2   3
ATOM      3  CG  MET A   1     -10.694  15.460  64.896  1.00  0.00    -0.393 C  
BRANCH   3   4
ATOM      4  CB  MET A   1     -11.006  13.967  64.954  1.00  0.00    -0.391 C  
BRANCH   4   5
ATOM      5  CA  MET A   1     -12.361  13.656  65.600  1.00  0.00    -0.478 C  
ATOM      6  C   MET A   1     -12.113  13.205  67.049  1.00  0.00    -0.307 C  
ATOM      7  N   MET A   1     -13.082  12.559  64.895  1.00  0.00    -0.756 NA 
ATOM      8  O   MET A   1     -12.088  11.849  67.145  1.00  0.00    -0.590 OA 
ATOM      9  OXT MET A   1     -11.936  13.952  67.997  1.00  0.00    -0.361 OA 
ATOM     10  H1  MET A   1     -13.984  12.353  65.325  1.00  0.00     0.000 HD 
ATOM     11  H2  MET A   1     -12.504  11.721  64.828  1.00  0.00     0.000 HD 
ENDBRANCH   4   5
ENDBRANCH   3   4
ENDBRANCH   2   3
TORSDOF 3
ENDMDL
MODEL       21
REMARK 921   NORMALIZED FREE ENERGY PREDICTED BY IDOCK:   -3.36 KCAL/MOL
REMARK 922        TOTAL FREE ENERGY PREDICTED BY IDOCK:   -4.12 KCAL/MOL
REMARK 923 INTER-LIGAND FREE ENERGY PREDICTED BY IDOCK:   -4.03 KCAL/MOL
REMARK 924 INTRA-LIGAND FREE ENERGY PREDICTED BY IDOCK:   -0.09 KCAL/MOL
REMARK 927      BINDING AFFINITY PREDICTED BY RF-SCORE:    0.00 PKD
ROOT
ATOM      1  CE  MET A   1     -10.428  16.075  65.514  1.00  0.00    -0.405 C  
ATOM      2  SD  MET A   1      -9.241  15.393  66.697  1.00  0.00    -0.297 SA 
ENDROOT
BRANCH   2   3
ATOM      3  CG  MET A   1      -9.723  13.639  66.597  1.00  0.00    -0.284 C  
BRANCH   3   4
ATOM      4  CB  MET A   1     -10.097  13.286  65.160  1.00  0.00    -0.249 C  
BRANCH   4   5
ATOM      5  CA  MET A   1     -11.428  12.533  65.048  1.00  0.00    -0.326 C  
ATOM      6  C   MET A   1     -12.453  13.461  64.374  1.00  0.00    -0.277 C  
ATOM      7  N   MET A   1     -11.968  12.144  66.381  1.00  0.00    -0.621 NA 
ATOM      8  O   MET A   1     -13.226  14.092  65.297  1.00  0.00    -0.782 OA 
ATOM      9  OXT MET A   1     -12.557  13.636  63.171  1.00  0.00    -0.792 OA 
ATOM     10  H1  MET A   1     -12.853  11.642  66.306  1.00  0.00     0.000 HD 
ATOM     11  H2  MET A   1     -12.053  12.954  66.995  1.00  0.00     0.000 HD 
ENDBRANCH   4   5
ENDBRANCH   3   4
ENDBRANCH   2   3
TORSDOF 3
ENDMDL
MODEL       22
REMARK 921   NORMALIZED FREE ENERGY PREDICTED BY IDOCK:   -3.35 KCAL/MOL
REMARK 922        TOTAL FREE ENERGY PREDICTED BY IDOCK:   -4.11 KCAL/MOL
REMARK 923 INTER-LIGAND FREE ENERGY PREDICTED BY IDOCK:   -4.00 KCAL/MOL
REMARK 924 INTRA-LIGAND FREE ENERGY PREDICTED BY IDOCK:   -0.11 KCAL/MOL
REMARK 927      BINDING AFFINITY PREDICTED BY RF-SCORE:    0.00 PKD
ROOT
ATOM      1  CE  MET A   1     -11.725  15.085  68.508  1.00  0.00    -0.320 C  
ATOM      2  SD  MET A   1     -10.648  14.367  67.245  1.00  0.00    -0.281 SA 
ENDROOT
BRANCH   2   3
ATOM      3  CG  MET A   1     -11.796  14.426  65.831  1.00  0.00    -0.367 C  
BRANCH   3   4
ATOM      4  CB  MET A   1     -12.358  13.032  65.562  1.00  0.00    -0.527 C  
BRANCH   4   5
ATOM      5  CA  MET A   1     -12.184  12.580  64.108  1.00  0.00    -0.467 C  
ATOM      6  C   MET A   1     -10.835  11.851  63.987  1.00  0.00    -0.379 C  
ATOM      7  N   MET A   1     -12.171  13.729  63.159  1.00  0.00    -1.066 NA 
ATOM      8  O   MET A   1      -9.863  12.686  63.534  1.00  0.00    -0.297 OA 
ATOM      9  OXT MET A   1     -10.640  10.682  64.276  1.00  0.00    -0.298 OA 
ATOM     10  H1  MET A   1     -12.056  13.428  62.192  1.00  0.00     0.000 HD 
ATOM     11  H2  MET A   1     -11.462  14.415  63.420  1.00  0.00     0.000 HD 
ENDBRANCH   4   5
ENDBRANCH   3   4
ENDBRANCH   2   3
TORSDOF 3
ENDMDL
MODEL       23
REMARK 921   NORMALIZED FREE ENERGY PREDICTED BY IDOCK:   -3.35 KCAL/MOL
REMARK 922        TOTAL FREE ENERGY PREDICTED BY IDOCK:   -4.11 KCAL/MOL
REMARK 923 INTER-LIGAND FREE ENERGY PREDICTED BY IDOCK:   -4.06 KCAL/MOL
REMARK 924 INTRA-LIGAND FREE ENERGY PREDICTED BY IDOCK:   -0.05 KCAL/MOL
REMARK 927      BINDING AFFINITY PREDICTED BY RF-SCORE:    0.00 PKD
ROOT
ATOM      1  CE  MET A   1      -6.865  10.099  63.477  1.00  0.00    -0.120 C  
ATOM      2  SD  MET A   1      -8.580   9.597  63.201  1.00  0.00    -0.224 SA 
ENDROOT
BRANCH   2   3
ATOM      3  CG  MET A   1      -9.391  10.699  64.404  1.00  0.00    -0.251 C  
BRANCH   3   4
ATOM      4  CB  MET A   1     -10.252  11.723  63.668  1.00  0.00    -0.461 C  
BRANCH   4   5
ATOM      5  CA  MET A   1     -10.839  12.796  64.592  1.00  0.00    -0.335 C  
ATOM      6  C   MET A   1     -12.332  12.957  64.259  1.00  0.00    -0.385 C  
ATOM      7  N   MET A   1     -10.182  14.121  64.404  1.00  0.00    -0.676 NA 
ATOM      8  O   MET A   1     -12.537  13.997  63.408  1.00  0.00    -0.845 OA 
ATOM      9  OXT MET A   1     -13.226  12.240  64.677  1.00  0.00    -0.763 OA 
ATOM     10  H1  MET A   1     -10.572  14.835  65.020  1.00  0.00     0.000 HD 
ATOM     11  H2  MET A   1     -10.217  14.415  63.428  1.00  0.00     0.000 HD 
ENDBRANCH   4   5
ENDBRANCH   3   4
ENDBRANCH   2   3
TORSDOF 3
ENDMDL
MODEL       24
REMARK 921   NORMALIZED FREE ENERGY PREDICTED BY IDOCK:   -3.35 KCAL/MOL
REMARK 922        TOTAL FREE ENERGY PREDICTED BY IDOCK:   -4.11 KCAL/MOL
REMARK 923 INTER-LIGAND FREE ENERGY PREDICTED BY IDOCK:   -4.07 KCAL/MOL
REMARK 924 INTRA-LIGAND FREE ENERGY PREDICTED BY IDOCK:   -0.04 KCAL/MOL
REMARK 927      BINDING AFFINITY PREDICTED BY RF-SCORE:    0.00 PKD
ROOT
ATOM      1  CE  MET A   1      -9.642  14.446  68.829  1.00  0.00    -0.177 C  
ATOM      2  SD  MET A   1     -10.045  16.200  69.003  1.00  0.00    -0.262 SA 
ENDROOT
BRANCH   2   3
ATOM      3  CG  MET A   1     -11.794  16.039  69.487  1.00  0.00    -0.237 C  
BRANCH   3   4
ATOM      4  CB  MET A   1     -11.893  15.347  70.844  1.00  0.00    -0.400 C  
BRANCH   4   5
ATOM      5  CA  MET A   1     -13.187  15.675  71.598  1.00  0.00    -0.472 C  
ATOM      6  C   MET A   1     -13.165  14.928  72.942  1.00  0.00    -0.492 C  
ATOM      7  N   MET A   1     -14.400  15.239  70.850  1.00  0.00    -0.819 NA 
ATOM      8  O   MET A   1     -13.854  13.758  72.866  1.00  0.00    -0.668 OA 
ATOM      9  OXT MET A   1     -12.591  15.309  73.949  1.00  0.00    -0.543 OA 
ATOM     10  H1  MET A   1     -15.261  15.458  71.352  1.00  0.00     0.000 HD 
ATOM     11  H2  MET A   1     -14.352  14.247  70.614  1.00  0.00     0.000 HD 
ENDBRANCH   4   5
ENDBRANCH   3   4
ENDBRANCH   2   3
TORSDOF 3
ENDMDL
MODEL       25
REMARK 921   NORMALIZED FREE ENERGY PREDICTED BY IDOCK:   -3.34 KCAL/MOL
REMARK 922        TOTAL FREE ENERGY PREDICTED BY IDOCK:   -4.10 KCAL/MOL
REMARK 923 INTER-LIGAND FREE ENERGY PREDICTED BY IDOCK:   -3.97 KCAL/MOL
REMARK 924 INTRA-LIGAND FREE ENERGY PREDICTED BY IDOCK:   -0.13 KCAL/MOL
REMARK 927      BINDING AFFINITY PREDICTED BY RF-SCORE:    0.00 PKD
ROOT
ATOM      1  CE  MET A   1     -10.123  17.087  68.056  1.00  0.00    -0.305 C  
ATOM      2  SD  MET A   1     -11.089  15.659  67.509  1.00  0.00    -0.244 SA 
ENDROOT
BRANCH   2   3
ATOM      3  CG  MET A   1      -9.887  14.938  66.344  1.00  0.00    -0.274 C  
BRANCH   3   4
ATOM      4  CB  MET A   1     -10.577  14.624  65.018  1.00  0.00    -0.461 C  
BRANCH   4   5
ATOM      5  CA  MET A   1     -10.698  13.122  64.739  1.00  0.00    -0.364 C  
ATOM      6  C   MET A   1     -12.012  12.620  65.360  1.00  0.00    -0.446 C  
ATOM      7  N   MET A   1      -9.579  12.346  65.344  1.00  0.00    -0.441 NA 
ATOM      8  O   MET A   1     -11.801  12.075  66.588  1.00  0.00    -0.583 OA 
ATOM      9  OXT MET A   1     -13.113  12.710  64.842  1.00  0.00    -0.850 OA 
ATOM     10  H1  MET A   1      -9.659  11.346  65.158  1.00  0.00     0.000 HD 
ATOM     11  H2  MET A   1      -9.500  12.530  66.345  1.00  0.00     0.000 HD 
ENDBRANCH   4   5
ENDBRANCH   3   4
ENDBRANCH   2   3
TORSDOF 3
ENDMDL
MODEL       26
REMARK 921   NORMALIZED FREE ENERGY PREDICTED BY IDOCK:   -3.34 KCAL/MOL
REMARK 922        TOTAL FREE ENERGY PREDICTED BY IDOCK:   -4.10 KCAL/MOL
REMARK 923 INTER-LIGAND FREE ENERGY PREDICTED BY IDOCK:   -4.04 KCAL/MOL
REMARK 924 INTRA-LIGAND FREE ENERGY PREDICTED BY IDOCK:   -0.06 KCAL/MOL
REMARK 927      BINDING AFFINITY PREDICTED BY RF-SCORE:    0.00 PKD
ROOT
ATOM      1  CE  MET A   1     -10.435  17.256  69.036  1.00  0.00    -0.309 C  
ATOM      2  SD  MET A   1     -11.532  15.821  68.946  1.00  0.00    -0.389 SA 
ENDROOT
BRANCH   2   3
ATOM      3  CG  MET A   1     -10.948  15.121  67.368  1.00  0.00    -0.314 C  
BRANCH   3   4
ATOM      4  CB  MET A   1     -11.933  14.064  66.875  1.00  0.00    -0.479 C  
BRANCH   4   5
ATOM      5  CA  MET A   1     -11.402  13.245  65.693  1.00  0.00    -0.304 C  
ATOM      6  C   MET A   1     -12.378  13.407  64.516  1.00  0.00    -0.360 C  
ATOM      7  N   MET A   1     -11.305  11.793  66.013  1.00  0.00    -0.313 NA 
ATOM      8  O   MET A   1     -13.256  12.370  64.458  1.00  0.00    -0.834 OA 
ATOM      9  OXT MET A   1     -12.392  14.347  63.739  1.00  0.00    -0.736 OA 
ATOM     10  H1  MET A   1     -10.951  11.248  65.226  1.00  0.00     0.000 HD 
ATOM     11  H2  MET A   1     -12.199  11.427  66.343  1.00  0.00     0.000 HD 
ENDBRANCH   4   5
ENDBRANCH   3   4
ENDBRANCH   2   3
TORSDOF 3
ENDMDL
MODEL       27
REMARK 921   NORMALIZED FREE ENERGY PREDICTED BY IDOCK:   -3.30 KCAL/MOL
REMARK 922        TOTAL FREE ENERGY PREDICTED BY IDOCK:   -4.06 KCAL/MOL
REMARK 923 INTER-LIGAND FREE ENERGY PREDICTED BY IDOCK:   -3.98 KCAL/MOL
REMARK 924 INTRA-LIGAND FREE ENERGY PREDICTED BY IDOCK:   -0.08 KCAL/MOL
REMARK 927      BINDING AFFINITY PREDICTED BY RF-SCORE:    0.00 PKD
ROOT
ATOM      1  CE  MET A   1     -11.567  15.306  69.539  1.00  0.00    -0.322 C  
ATOM      2  SD  MET A   1     -10.751  13.937  68.684  1.00  0.00    -0.262 SA 
ENDROOT
BRANCH   2   3
ATOM      3  CG  MET A   1     -11.231  14.349  66.975  1.00  0.00    -0.328 C  
BRANCH   3   4
ATOM      4  CB  MET A   1     -11.206  13.089  66.113  1.00  0.00    -0.320 C  
BRANCH   4   5
ATOM      5  CA  MET A   1     -12.495  12.879  65.311  1.00  0.00    -0.493 C  
ATOM      6  C   MET A   1     -12.129  12.801  63.819  1.00  0.00    -0.517 C  
ATOM      7  N   MET A   1     -13.458  14.003  65.488  1.00  0.00    -0.627 NA 
ATOM      8  O   MET A   1     -12.294  14.004  63.208  1.00  0.00    -0.718 OA 
ATOM      9  OXT MET A   1     -11.721  11.804  63.247  1.00  0.00    -0.388 OA 
ATOM     10  H1  MET A   1     -14.316  13.863  64.955  1.00  0.00     0.000 HD 
ATOM     11  H2  MET A   1     -13.024  14.899  65.263  1.00  0.00     0.000 HD 
ENDBRANCH   4   5
ENDBRANCH   3   4
ENDBRANCH   2   3
TORSDOF 3
ENDMDL
MODEL       28
REMARK 921   NORMALIZED FREE ENERGY PREDICTED BY IDOCK:   -3.30 KCAL/MOL
REMARK 922        TOTAL FREE ENERGY PREDICTED BY IDOCK:   -4.05 KCAL/MOL
REMARK 923 INTER-LIGAND FREE ENERGY PREDICTED BY IDOCK:   -3.98 KCAL/MOL
REMARK 924 INTRA-LIGAND FREE ENERGY PREDICTED BY IDOCK:   -0.08 KCAL/MOL
REMARK 927      BINDING AFFINITY PREDICTED BY RF-SCORE:    0.00 PKD
ROOT
ATOM      1  CE  MET A   1     -12.003  11.292  70.140  1.00  0.00    -0.369 C  
ATOM      2  SD  MET A   1     -12.921  11.020  71.674  1.00  0.00    -0.397 SA 
ENDROOT
BRANCH   2   3
ATOM      3  CG  MET A   1     -13.422  12.740  72.009  1.00  0.00    -0.444 C  
BRANCH   3   4
ATOM      4  CB  MET A   1     -12.654  13.690  71.092  1.00  0.00    -0.452 C  
BRANCH   4   5
ATOM      5  CA  MET A   1     -13.181  15.128  71.133  1.00  0.00    -0.469 C  
ATOM      6  C   MET A   1     -12.000  16.066  71.437  1.00  0.00    -0.449 C  
ATOM      7  N   MET A   1     -14.206  15.322  72.198  1.00  0.00    -0.545 NA 
ATOM      8  O   MET A   1     -11.936  16.364  72.762  1.00  0.00    -0.531 OA 
ATOM      9  OXT MET A   1     -11.202  16.481  70.612  1.00  0.00    -0.320 OA 
ATOM     10  H1  MET A   1     -14.557  16.279  72.225  1.00  0.00     0.000 HD 
ATOM     11  H2  MET A   1     -13.850  15.032  73.110  1.00  0.00     0.000 HD 
ENDBRANCH   4   5
ENDBRANCH   3   4
ENDBRANCH   2   3
TORSDOF 3
ENDMDL
MODEL       29
REMARK 921   NORMALIZED FREE ENERGY PREDICTED BY IDOCK:   -3.28 KCAL/MOL
REMARK 922        TOTAL FREE ENERGY PREDICTED BY IDOCK:   -4.02 KCAL/MOL
REMARK 923 INTER-LIGAND FREE ENERGY PREDICTED BY IDOCK:   -3.92 KCAL/MOL
REMARK 924 INTRA-LIGAND FREE ENERGY PREDICTED BY IDOCK:   -0.11 KCAL/MOL
REMARK 927      BINDING AFFINITY PREDICTED BY RF-SCORE:    0.00 PKD
ROOT
ATOM      1  CE  MET A   1     -11.441  11.777  66.482  1.00  0.00    -0.255 C  
ATOM      2  SD  MET A   1     -11.958  12.855  65.125  1.00  0.00    -0.441 SA 
ENDROOT
BRANCH   2   3
ATOM      3  CG  MET A   1     -10.322  13.490  64.634  1.00  0.00    -0.385 C  
BRANCH   3   4
ATOM      4  CB  MET A   1      -9.814  14.477  65.682  1.00  0.00    -0.337 C  
BRANCH   4   5
ATOM      5  CA  MET A   1     -10.881  15.479  66.137  1.00  0.00    -0.295 C  
ATOM      6  C   MET A   1     -11.007  16.571  65.061  1.00  0.00    -0.210 C  
ATOM      7  N   MET A   1     -10.520  16.142  67.422  1.00  0.00    -0.305 NA 
ATOM      8  O   MET A   1     -10.265  17.665  65.381  1.00  0.00    -0.576 OA 
ATOM      9  OXT MET A   1     -11.665  16.477  64.038  1.00  0.00    -1.111 OA 
ATOM     10  H1  MET A   1     -11.230  16.808  67.725  1.00  0.00     0.000 HD 
ATOM     11  H2  MET A   1      -9.601  16.581  67.366  1.00  0.00     0.000 HD 
ENDBRANCH   4   5
ENDBRANCH   3   4
ENDBRANCH   2   3
TORSDOF 3
ENDMDL
MODEL       30
REMARK 921   NORMALIZED FREE ENERGY PREDICTED BY IDOCK:   -3.24 KCAL/MOL
REMARK 922        TOTAL FREE ENERGY PREDICTED BY IDOCK:   -3.98 KCAL/MOL
REMARK 923 INTER-LIGAND FREE ENERGY PREDICTED BY IDOCK:   -3.80 KCAL/MOL
REMARK 924 INTRA-LIGAND FREE ENERGY PREDICTED BY IDOCK:   -0.17 KCAL/MOL
REMARK 927      BINDING AFFINITY PREDICTED BY RF-SCORE:    0.00 PKD
ROOT
ATOM      1  CE  MET A   1      -9.767  15.244  68.410  1.00  0.00    -0.213 C  
ATOM      2  SD  MET A   1      -9.544  14.172  66.971  1.00  0.00    -0.271 SA 
ENDROOT
BRANCH   2   3
ATOM      3  CG  MET A   1      -9.749  15.419  65.658  1.00  0.00    -0.331 C  
BRANCH   3   4
ATOM      4  CB  MET A   1     -11.026  15.137  64.872  1.00  0.00    -0.434 C  
BRANCH   4   5
ATOM      5  CA  MET A   1     -11.593  13.734  65.119  1.00  0.00    -0.331 C  
ATOM      6  C   MET A   1     -11.411  12.907  63.835  1.00  0.00    -0.446 C  
ATOM      7  N   MET A   1     -13.047  13.764  65.444  1.00  0.00    -0.712 NA 
ATOM      8  O   MET A   1     -12.543  12.910  63.083  1.00  0.00    -0.636 OA 
ATOM      9  OXT MET A   1     -10.385  12.334  63.508  1.00  0.00    -0.429 OA 
ATOM     10  H1  MET A   1     -13.423  12.831  65.609  1.00  0.00     0.000 HD 
ATOM     11  H2  MET A   1     -13.576  14.254  64.722  1.00  0.00     0.000 HD 
ENDBRANCH   4   5
ENDBRANCH   3   4
ENDBRANCH   2   3
TORSDOF 3
ENDMDL
MODEL       31
REMARK 921   NORMALIZED FREE ENERGY PREDICTED BY IDOCK:   -3.22 KCAL/MOL
REMARK 922        TOTAL FREE ENERGY PREDICTED BY IDOCK:   -3.95 KCAL/MOL
REMARK 923 INTER-LIGAND FREE ENERGY PREDICTED BY IDOCK:   -3.88 KCAL/MOL
REMARK 924 INTRA-LIGAND FREE ENERGY PREDICTED BY IDOCK:   -0.08 KCAL/MOL
REMARK 927      BINDING AFFINITY PREDICTED BY RF-SCORE:    0.00 PKD
ROOT
ATOM      1  CE  MET A   1      -6.973  17.446  68.057  1.00  0.00    -0.186 C  
ATOM      2  SD  MET A   1      -8.095  17.182  66.663  1.00  0.00    -0.284 SA 
ENDROOT
BRANCH   2   3
ATOM      3  CG  MET A   1      -8.651  15.494  67.067  1.00  0.00    -0.233 C  
BRANCH   3   4
ATOM      4  CB  MET A   1     -10.054  15.265  66.511  1.00  0.00    -0.280 C  
BRANCH   4   5
ATOM      5  CA  MET A   1     -10.071  14.998  65.002  1.00  0.00    -0.253 C  
ATOM      6  C   MET A   1     -11.324  15.664  64.407  1.00  0.00    -0.263 C  
ATOM      7  N   MET A   1     -10.134  13.542  64.689  1.00  0.00    -0.630 NA 
ATOM      8  O   MET A   1     -12.341  14.772  64.279  1.00  0.00    -0.571 OA 
ATOM      9  OXT MET A   1     -11.416  16.842  64.105  1.00  0.00    -1.174 OA 
ATOM     10  H1  MET A   1     -10.145  13.364  63.685  1.00  0.00     0.000 HD 
ATOM     11  H2  MET A   1     -10.928  13.099  65.152  1.00  0.00     0.000 HD 
ENDBRANCH   4   5
ENDBRANCH   3   4
ENDBRANCH   2   3
TORSDOF 3
ENDMDL
MODEL       32
REMARK 921   NORMALIZED FREE ENERGY PREDICTED BY IDOCK:   -3.19 KCAL/MOL
REMARK 922        TOTAL FREE ENERGY PREDICTED BY IDOCK:   -3.92 KCAL/MOL
REMARK 923 INTER-LIGAND FREE ENERGY PREDICTED BY IDOCK:   -3.75 KCAL/MOL
REMARK 924 INTRA-LIGAND FREE ENERGY PREDICTED BY IDOCK:   -0.17 KCAL/MOL
REMARK 927      BINDING AFFINITY PREDICTED BY RF-SCORE:    0.00 PKD
ROOT
ATOM      1  CE  MET A   1     -10.040   9.759  66.086  1.00  0.00    -0.245 C  
ATOM      2  SD  MET A   1     -10.233  10.826  67.533  1.00  0.00    -0.206 SA 
ENDROOT
BRANCH   2   3
ATOM      3  CG  MET A   1     -10.160  12.445  66.699  1.00  0.00    -0.221 C  
BRANCH   3   4
ATOM      4  CB  MET A   1     -11.524  12.781  66.103  1.00  0.00    -0.399 C  
BRANCH   4   5
ATOM      5  CA  MET A   1     -11.441  13.338  64.677  1.00  0.00    -0.342 C  
ATOM      6  C   MET A   1     -11.940  12.255  63.705  1.00  0.00    -0.519 C  
ATOM      7  N   MET A   1     -10.046  13.693  64.292  1.00  0.00    -0.763 NA 
ATOM      8  O   MET A   1     -10.902  11.554  63.176  1.00  0.00    -0.306 OA 
ATOM      9  OXT MET A   1     -13.110  12.026  63.448  1.00  0.00    -0.747 OA 
ATOM     10  H1  MET A   1      -9.991  14.064  63.344  1.00  0.00     0.000 HD 
ATOM     11  H2  MET A   1      -9.416  12.900  64.416  1.00  0.00     0.000 HD 
ENDBRANCH   4   5
ENDBRANCH   3   4
ENDBRANCH   2   3
TORSDOF 3
ENDMDL
MODEL       33
REMARK 921   NORMALIZED FREE ENERGY PREDICTED BY IDOCK:   -3.16 KCAL/MOL
REMARK 922        TOTAL FREE ENERGY PREDICTED BY IDOCK:   -3.89 KCAL/MOL
REMARK 923 INTER-LIGAND FREE ENERGY PREDICTED BY IDOCK:   -3.65 KCAL/MOL
REMARK 924 INTRA-LIGAND FREE ENERGY PREDICTED BY IDOCK:   -0.24 KCAL/MOL
REMARK 927      BINDING AFFINITY PREDICTED BY RF-SCORE:    0.00 PKD
ROOT
ATOM      1  CE  MET A   1     -12.476  12.027  63.528  1.00  0.00    -0.540 C  
ATOM      2  SD  MET A   1     -10.724  12.170  63.954  1.00  0.00    -0.452 SA 
ENDROOT
BRANCH   2   3
ATOM      3  CG  MET A   1     -10.731  13.877  64.592  1.00  0.00    -0.407 C  
BRANCH   3   4
ATOM      4  CB  MET A   1     -10.152  13.903  66.005  1.00  0.00    -0.324 C  
BRANCH   4   5
ATOM      5  CA  MET A   1     -11.226  13.902  67.099  1.00  0.00    -0.313 C  
ATOM      6  C   MET A   1     -11.203  12.531  67.796  1.00  0.00    -0.269 C  
ATOM      7  N   MET A   1     -12.594  14.111  66.544  1.00  0.00    -0.519 NA 
ATOM      8  O   MET A   1     -12.147  11.700  67.280  1.00  0.00    -0.595 OA 
ATOM      9  OXT MET A   1     -10.431  12.208  68.683  1.00  0.00    -0.228 OA 
ATOM     10  H1  MET A   1     -13.308  14.111  67.272  1.00  0.00     0.000 HD 
ATOM     11  H2  MET A   1     -12.806  13.428  65.817  1.00  0.00     0.000 HD 
ENDBRANCH   4   5
ENDBRANCH   3   4
ENDBRANCH   2   3
TORSDOF 3
ENDMDL
MODEL       34
REMARK 921   NORMALIZED FREE ENERGY PREDICTED BY IDOCK:   -3.10 KCAL/MOL
REMARK 922        TOTAL FREE ENERGY PREDICTED BY IDOCK:   -3.82 KCAL/MOL
REMARK 923 INTER-LIGAND FREE ENERGY PREDICTED BY IDOCK:   -3.77 KCAL/MOL
REMARK 924 INTRA-LIGAND FREE ENERGY PREDICTED BY IDOCK:   -0.05 KCAL/MOL
REMARK 927      BINDING AFFINITY PREDICTED BY RF-SCORE:    0.00 PKD
ROOT
ATOM      1  CE  MET A   1      -9.859   9.621  66.005  1.00  0.00    -0.274 C  
ATOM      2  SD  MET A   1     -10.070  10.918  67.248  1.00  0.00    -0.198 SA 
ENDROOT
BRANCH   2   3
ATOM      3  CG  MET A   1     -10.429  12.316  66.136  1.00  0.00    -0.240 C  
BRANCH   3   4
ATOM      4  CB  MET A   1     -11.885  12.255  65.682  1.00  0.00    -0.423 C  
BRANCH   4   5
ATOM      5  CA  MET A   1     -12.618  13.595  65.818  1.00  0.00    -0.461 C  
ATOM      6  C   MET A   1     -12.242  14.475  64.614  1.00  0.00    -0.460 C  
ATOM      7  N   MET A   1     -12.230  14.325  67.058  1.00  0.00    -0.575 NA 
ATOM      8  O   MET A   1     -11.233  15.331  64.925  1.00  0.00    -0.398 OA 
ATOM      9  OXT MET A   1     -12.757  14.411  63.509  1.00  0.00    -0.742 OA 
ATOM     10  H1  MET A   1     -12.717  15.217  67.148  1.00  0.00     0.000 HD 
ATOM     11  H2  MET A   1     -11.218  14.450  67.112  1.00  0.00     0.000 HD 
ENDBRANCH   4   5
ENDBRANCH   3   4
ENDBRANCH   2   3
TORSDOF 3
ENDMDL
MODEL       35
REMARK 921   NORMALIZED FREE ENERGY PREDICTED BY IDOCK:   -3.10 KCAL/MOL
REMARK 922        TOTAL FREE ENERGY PREDICTED BY IDOCK:   -3.81 KCAL/MOL
REMARK 923 INTER-LIGAND FREE ENERGY PREDICTED BY IDOCK:   -3.76 KCAL/MOL
REMARK 924 INTRA-LIGAND FREE ENERGY PREDICTED BY IDOCK:   -0.05 KCAL/MOL
REMARK 927      BINDING AFFINITY PREDICTED BY RF-SCORE:    0.00 PKD
ROOT
ATOM      1  CE  MET A   1     -12.418  13.861  66.122  1.00  0.00    -0.436 C  
ATOM      2  SD  MET A   1     -10.965  14.141  67.161  1.00  0.00    -0.306 SA 
ENDROOT
BRANCH   2   3
ATOM      3  CG  MET A   1     -11.762  15.064  68.515  1.00  0.00    -0.320 C  
BRANCH   3   4
ATOM      4  CB  MET A   1     -12.274  14.089  69.573  1.00  0.00    -0.355 C  
BRANCH   4   5
ATOM      5  CA  MET A   1     -12.165  14.634  71.002  1.00  0.00    -0.332 C  
ATOM      6  C   MET A   1     -13.461  14.285  71.752  1.00  0.00    -0.381 C  
ATOM      7  N   MET A   1     -12.004  16.116  71.028  1.00  0.00    -0.567 NA 
ATOM      8  O   MET A   1     -14.334  15.327  71.737  1.00  0.00    -0.513 OA 
ATOM      9  OXT MET A   1     -13.700  13.212  72.280  1.00  0.00    -0.550 OA 
ATOM     10  H1  MET A   1     -11.931  16.478  71.978  1.00  0.00     0.000 HD 
ATOM     11  H2  MET A   1     -12.754  16.577  70.513  1.00  0.00     0.000 HD 
ENDBRANCH   4   5
ENDBRANCH   3   4
ENDBRANCH   2   3
TORSDOF 3
ENDMDL
MODEL       36
REMARK 921   NORMALIZED FREE ENERGY PREDICTED BY IDOCK:   -3.09 KCAL/MOL
REMARK 922        TOTAL FREE ENERGY PREDICTED BY IDOCK:   -3.81 KCAL/MOL
REMARK 923 INTER-LIGAND FREE ENERGY PREDICTED BY IDOCK:   -3.70 KCAL/MOL
REMARK 924 INTRA-LIGAND FREE ENERGY PREDICTED BY IDOCK:   -0.11 KCAL/MOL
REMARK 927      BINDING AFFINITY PREDICTED BY RF-SCORE:    0.00 PKD
ROOT
ATOM      1  CE  MET A   1      -9.429  12.259  68.414  1.00  0.00    -0.175 C  
ATOM      2  SD  MET A   1      -8.525  13.683  67.763  1.00  0.00    -0.199 SA 
ENDROOT
BRANCH   2   3
ATOM      3  CG  MET A   1      -9.713  14.209  66.485  1.00  0.00    -0.295 C  
BRANCH   3   4
ATOM      4  CB  MET A   1     -10.439  12.990  65.921  1.00  0.00    -0.293 C  
BRANCH   4   5
ATOM      5  CA  MET A   1     -11.966  13.109  65.988  1.00  0.00    -0.433 C  
ATOM      6  C   MET A   1     -12.507  13.185  64.551  1.00  0.00    -0.342 C  
ATOM      7  N   MET A   1     -12.403  14.339  66.708  1.00  0.00    -0.559 NA 
ATOM      8  O   MET A   1     -12.718  14.473  64.171  1.00  0.00    -0.711 OA 
ATOM      9  OXT MET A   1     -12.707  12.225  63.824  1.00  0.00    -0.693 OA 
ATOM     10  H1  MET A   1     -13.419  14.418  66.753  1.00  0.00     0.000 HD 
ATOM     11  H2  MET A   1     -11.984  15.175  66.299  1.00  0.00     0.000 HD 
ENDBRANCH   4   5
ENDBRANCH   3   4
ENDBRANCH   2   3
TORSDOF 3
ENDMDL
MODEL       37
REMARK 921   NORMALIZED FREE ENERGY PREDICTED BY IDOCK:   -3.00 KCAL/MOL
REMARK 922        TOTAL FREE ENERGY PREDICTED BY IDOCK:   -3.70 KCAL/MOL
REMARK 923 INTER-LIGAND FREE ENERGY PREDICTED BY IDOCK:   -3.54 KCAL/MOL
REMARK 924 INTRA-LIGAND FREE ENERGY PREDICTED BY IDOCK:   -0.15 KCAL/MOL
REMARK 927      BINDING AFFINITY PREDICTED BY RF-SCORE:    0.00 PKD
ROOT
ATOM      1  CE  MET A   1     -10.416   9.775  67.307  1.00  0.00    -0.261 C  
ATOM      2  SD  MET A   1      -9.044  10.852  66.828  1.00  0.00    -0.155 SA 
ENDROOT
BRANCH   2   3
ATOM      3  CG  MET A   1      -9.365  10.934  65.036  1.00  0.00    -0.226 C  
BRANCH   3   4
ATOM      4  CB  MET A   1     -10.833  11.275  64.789  1.00  0.00    -0.314 C  
BRANCH   4   5
ATOM      5  CA  MET A   1     -11.056  12.740  64.397  1.00  0.00    -0.349 C  
ATOM      6  C   MET A   1     -11.813  13.435  65.542  1.00  0.00    -0.363 C  
ATOM      7  N   MET A   1     -11.875  12.873  63.159  1.00  0.00    -0.848 NA 
ATOM      8  O   MET A   1     -13.150  13.473  65.296  1.00  0.00    -0.713 OA 
ATOM      9  OXT MET A   1     -11.300  13.881  66.555  1.00  0.00    -0.314 OA 
ATOM     10  H1  MET A   1     -12.023  13.848  62.899  1.00  0.00     0.000 HD 
ATOM     11  H2  MET A   1     -12.761  12.375  63.247  1.00  0.00     0.000 HD 
ENDBRANCH   4   5
ENDBRANCH   3   4
ENDBRANCH   2   3
TORSDOF 3
ENDMDL
MODEL       38
REMARK 921   NORMALIZED FREE ENERGY PREDICTED BY IDOCK:   -2.97 KCAL/MOL
REMARK 922        TOTAL FREE ENERGY PREDICTED BY IDOCK:   -3.67 KCAL/MOL
REMARK 923 INTER-LIGAND FREE ENERGY PREDICTED BY IDOCK:   -3.63 KCAL/MOL
REMARK 924 INTRA-LIGAND FREE ENERGY PREDICTED BY IDOCK:   -0.04 KCAL/MOL
REMARK 927      BINDING AFFINITY PREDICTED BY RF-SCORE:    0.00 PKD
ROOT
ATOM      1  CE  MET A   1     -11.931  12.991  63.713  1.00  0.00    -0.518 C  
ATOM      2  SD  MET A   1     -12.358  14.018  65.139  1.00  0.00    -0.454 SA 
ENDROOT
BRANCH   2   3
ATOM      3  CG  MET A   1     -10.688  14.602  65.574  1.00  0.00    -0.349 C  
BRANCH   3   4
ATOM      4  CB  MET A   1     -10.638  16.126  65.502  1.00  0.00    -0.394 C  
BRANCH   4   5
ATOM      5  CA  MET A   1      -9.616  16.745  66.463  1.00  0.00    -0.266 C  
ATOM      6  C   MET A   1     -10.060  18.183  66.779  1.00  0.00    -0.362 C  
ATOM      7  N   MET A   1      -8.251  16.806  65.869  1.00  0.00    -0.411 NA 
ATOM      8  O   MET A   1      -9.417  19.082  65.987  1.00  0.00    -0.457 OA 
ATOM      9  OXT MET A   1     -10.893  18.493  67.614  1.00  0.00    -0.412 OA 
ATOM     10  H1  MET A   1      -7.571  17.217  66.508  1.00  0.00     0.000 HD 
ATOM     11  H2  MET A   1      -8.259  17.295  64.974  1.00  0.00     0.000 HD 
ENDBRANCH   4   5
ENDBRANCH   3   4
ENDBRANCH   2   3
TORSDOF 3
ENDMDL
MODEL       39
REMARK 921   NORMALIZED FREE ENERGY PREDICTED BY IDOCK:   -2.96 KCAL/MOL
REMARK 922        TOTAL FREE ENERGY PREDICTED BY IDOCK:   -3.65 KCAL/MOL
REMARK 923 INTER-LIGAND FREE ENERGY PREDICTED BY IDOCK:   -3.55 KCAL/MOL
REMARK 924 INTRA-LIGAND FREE ENERGY PREDICTED BY IDOCK:   -0.11 KCAL/MOL
REMARK 927      BINDING AFFINITY PREDICTED BY RF-SCORE:    0.00 PKD
ROOT
ATOM      1  CE  MET A   1      -8.561  13.012  67.176  1.00  0.00    -0.195 C  
ATOM      2  SD  MET A   1      -8.073  14.753  67.154  1.00  0.00    -0.151 SA 
ENDROOT
BRANCH   2   3
ATOM      3  CG  MET A   1      -9.610  15.466  66.481  1.00  0.00    -0.275 C  
BRANCH   3   4
ATOM      4  CB  MET A   1     -10.110  14.612  65.318  1.00  0.00    -0.393 C  
BRANCH   4   5
ATOM      5  CA  MET A   1     -11.638  14.571  65.211  1.00  0.00    -0.359 C  
ATOM      6  C   MET A   1     -12.171  13.595  66.273  1.00  0.00    -0.436 C  
ATOM      7  N   MET A   1     -12.095  14.090  63.876  1.00  0.00    -0.776 NA 
ATOM      8  O   MET A   1     -12.395  12.363  65.742  1.00  0.00    -0.644 OA 
ATOM      9  OXT MET A   1     -12.354  13.867  67.448  1.00  0.00    -0.316 OA 
ATOM     10  H1  MET A   1     -13.113  14.064  63.804  1.00  0.00     0.000 HD 
ATOM     11  H2  MET A   1     -11.685  13.184  63.649  1.00  0.00     0.000 HD 
ENDBRANCH   4   5
ENDBRANCH   3   4
ENDBRANCH   2   3
TORSDOF 3
ENDMDL
MODEL       40
REMARK 921   NORMALIZED FREE ENERGY PREDICTED BY IDOCK:   -2.94 KCAL/MOL
REMARK 922        TOTAL FREE ENERGY PREDICTED BY IDOCK:   -3.63 KCAL/MOL
REMARK 923 INTER-LIGAND FREE ENERGY PREDICTED BY IDOCK:   -3.58 KCAL/MOL
REMARK 924 INTRA-LIGAND FREE ENERGY PREDICTED BY IDOCK:   -0.05 KCAL/MOL
REMARK 927      BINDING AFFINITY PREDICTED BY RF-SCORE:    0.00 PKD
ROOT
ATOM      1  CE  MET A   1      -8.182  19.016  68.532  1.00  0.00    -0.355 C  
ATOM      2  SD  MET A   1      -9.722  19.429  67.678  1.00  0.00    -0.351 SA 
ENDROOT
BRANCH   2   3
ATOM      3  CG  MET A   1      -9.429  18.527  66.122  1.00  0.00    -0.165 C  
BRANCH   3   4
ATOM      4  CB  MET A   1      -9.531  17.024  66.369  1.00  0.00    -0.294 C  
BRANCH   4   5
ATOM      5  CA  MET A   1     -10.846  16.416  65.867  1.00  0.00    -0.114 C  
ATOM      6  C   MET A   1     -10.729  14.884  65.941  1.00  0.00    -0.323 C  
ATOM      7  N   MET A   1     -11.133  16.787  64.453  1.00  0.00    -1.260 NA 
ATOM      8  O   MET A   1     -10.370  14.360  64.739  1.00  0.00    -0.431 OA 
ATOM      9  OXT MET A   1     -10.909  14.213  66.943  1.00  0.00    -0.290 OA 
ATOM     10  H1  MET A   1     -12.008  16.382  64.119  1.00  0.00     0.000 HD 
ATOM     11  H2  MET A   1     -10.355  16.539  63.841  1.00  0.00     0.000 HD 
ENDBRANCH   4   5
ENDBRANCH   3   4
ENDBRANCH   2   3
TORSDOF 3
ENDMDL
MODEL       41
REMARK 921   NORMALIZED FREE ENERGY PREDICTED BY IDOCK:   -2.93 KCAL/MOL
REMARK 922        TOTAL FREE ENERGY PREDICTED BY IDOCK:   -3.61 KCAL/MOL
REMARK 923 INTER-LIGAND FREE ENERGY PREDICTED BY IDOCK:   -3.47 KCAL/MOL
REMARK 924 INTRA-LIGAND FREE ENERGY PREDICTED BY IDOCK:   -0.14 KCAL/MOL
REMARK 927      BINDING AFFINITY PREDICTED BY RF-SCORE:    0.00 PKD
ROOT
ATOM      1  CE  MET A   1     -11.844  12.905  66.540  1.00  0.00    -0.407 C  
ATOM      2  SD  MET A   1     -12.118  13.450  64.837  1.00  0.00    -0.417 SA 
ENDROOT
BRANCH   2   3
ATOM      3  CG  MET A   1     -10.596  14.423  64.606  1.00  0.00    -0.306 C  
BRANCH   3   4
ATOM      4  CB  MET A   1     -10.783  15.822  65.188  1.00  0.00    -0.455 C  
BRANCH   4   5
ATOM      5  CA  MET A   1      -9.801  16.144  66.320  1.00  0.00    -0.307 C  
ATOM      6  C   MET A   1     -10.601  16.700  67.510  1.00  0.00    -0.311 C  
ATOM      7  N   MET A   1      -8.799  17.172  65.920  1.00  0.00    -0.534 NA 
ATOM      8  O   MET A   1     -10.594  18.060  67.515  1.00  0.00    -0.395 OA 
ATOM      9  OXT MET A   1     -11.191  16.025  68.338  1.00  0.00    -0.339 OA 
ATOM     10  H1  MET A   1      -8.145  17.385  66.674  1.00  0.00     0.000 HD 
ATOM     11  H2  MET A   1      -9.254  18.017  65.575  1.00  0.00     0.000 HD 
ENDBRANCH   4   5
ENDBRANCH   3   4
ENDBRANCH   2   3
TORSDOF 3
ENDMDL
MODEL       42
REMARK 921   NORMALIZED FREE ENERGY PREDICTED BY IDOCK:   -2.92 KCAL/MOL
REMARK 922        TOTAL FREE ENERGY PREDICTED BY IDOCK:   -3.61 KCAL/MOL
REMARK 923 INTER-LIGAND FREE ENERGY PREDICTED BY IDOCK:   -3.43 KCAL/MOL
REMARK 924 INTRA-LIGAND FREE ENERGY PREDICTED BY IDOCK:   -0.17 KCAL/MOL
REMARK 927      BINDING AFFINITY PREDICTED BY RF-SCORE:    0.00 PKD
ROOT
ATOM      1  CE  MET A   1     -10.230  10.829  64.434  1.00  0.00    -0.364 C  
ATOM      2  SD  MET A   1     -11.105  12.080  63.464  1.00  0.00    -0.435 SA 
ENDROOT
BRANCH   2   3
ATOM      3  CG  MET A   1     -12.519  12.359  64.578  1.00  0.00    -0.435 C  
BRANCH   3   4
ATOM      4  CB  MET A   1     -12.020  12.552  66.008  1.00  0.00    -0.456 C  
BRANCH   4   5
ATOM      5  CA  MET A   1     -11.865  14.026  66.402  1.00  0.00    -0.418 C  
ATOM      6  C   MET A   1     -10.364  14.352  66.468  1.00  0.00    -0.281 C  
ATOM      7  N   MET A   1     -12.457  14.317  67.738  1.00  0.00    -0.509 NA 
ATOM      8  O   MET A   1      -9.897  14.269  67.742  1.00  0.00    -0.217 OA 
ATOM      9  OXT MET A   1      -9.662  14.631  65.509  1.00  0.00    -0.320 OA 
ATOM     10  H1  MET A   1     -12.354  15.297  67.999  1.00  0.00     0.000 HD 
ATOM     11  H2  MET A   1     -12.072  13.701  68.454  1.00  0.00     0.000 HD 
ENDBRANCH   4   5
ENDBRANCH   3   4
ENDBRANCH   2   3
TORSDOF 3
ENDMDL
MODEL       43
REMARK 921   NORMALIZED FREE ENERGY PREDICTED BY IDOCK:   -2.89 KCAL/MOL
REMARK 922        TOTAL FREE ENERGY PREDICTED BY IDOCK:   -3.57 KCAL/MOL
REMARK 923 INTER-LIGAND FREE ENERGY PREDICTED BY IDOCK:   -3.49 KCAL/MOL
REMARK 924 INTRA-LIGAND FREE ENERGY PREDICTED BY IDOCK:   -0.09 KCAL/MOL
REMARK 927      BINDING AFFINITY PREDICTED BY RF-SCORE:    0.00 PKD
ROOT
ATOM      1  CE  MET A   1      -9.385  10.194  63.453  1.00  0.00    -0.294 C  
ATOM      2  SD  MET A   1      -9.959  10.712  65.088  1.00  0.00    -0.321 SA 
ENDROOT
BRANCH   2   3
ATOM      3  CG  MET A   1     -11.259  11.880  64.572  1.00  0.00    -0.319 C  
BRANCH   3   4
ATOM      4  CB  MET A   1     -10.722  13.308  64.627  1.00  0.00    -0.415 C  
BRANCH   4   5
ATOM      5  CA  MET A   1     -11.755  14.324  65.128  1.00  0.00    -0.368 C  
ATOM      6  C   MET A   1     -11.435  14.654  66.595  1.00  0.00    -0.357 C  
ATOM      7  N   MET A   1     -13.144  13.788  65.070  1.00  0.00    -0.737 NA 
ATOM      8  O   MET A   1     -12.192  13.909  67.444  1.00  0.00    -0.378 OA 
ATOM      9  OXT MET A   1     -10.598  15.460  66.968  1.00  0.00    -0.296 OA 
ATOM     10  H1  MET A   1     -13.831  14.465  65.403  1.00  0.00     0.000 HD 
ATOM     11  H2  MET A   1     -13.220  12.905  65.575  1.00  0.00     0.000 HD 
ENDBRANCH   4   5
ENDBRANCH   3   4
ENDBRANCH   2   3
TORSDOF 3
ENDMDL
MODEL       44
REMARK 921   NORMALIZED FREE ENERGY PREDICTED BY IDOCK:   -2.87 KCAL/MOL
REMARK 922        TOTAL FREE ENERGY PREDICTED BY IDOCK:   -3.54 KCAL/MOL
REMARK 923 INTER-LIGAND FREE ENERGY PREDICTED BY IDOCK:   -3.40 KCAL/MOL
REMARK 924 INTRA-LIGAND FREE ENERGY PREDICTED BY IDOCK:   -0.14 KCAL/MOL
REMARK 927      BINDING AFFINITY PREDICTED BY RF-SCORE:    0.00 PKD
ROOT
ATOM      1  CE  MET A   1     -10.464  11.858  63.573  1.00  0.00    -0.459 C  
ATOM      2  SD  MET A   1     -12.192  12.384  63.486  1.00  0.00    -0.536 SA 
ENDROOT
BRANCH   2   3
ATOM      3  CG  MET A   1     -12.266  13.358  65.024  1.00  0.00    -0.424 C  
BRANCH   3   4
ATOM      4  CB  MET A   1     -11.830  12.494  66.205  1.00  0.00    -0.459 C  
BRANCH   4   5
ATOM      5  CA  MET A   1     -10.840  13.200  67.138  1.00  0.00    -0.257 C  
ATOM      6  C   MET A   1     -11.642  14.005  68.174  1.00  0.00    -0.334 C  
ATOM      7  N   MET A   1      -9.955  14.149  66.405  1.00  0.00    -0.284 NA 
ATOM      8  O   MET A   1     -11.763  15.306  67.800  1.00  0.00    -0.319 OA 
ATOM      9  OXT MET A   1     -12.133  13.546  69.193  1.00  0.00    -0.329 OA 
ATOM     10  H1  MET A   1      -9.296  14.618  67.026  1.00  0.00     0.000 HD 
ATOM     11  H2  MET A   1     -10.501  14.823  65.868  1.00  0.00     0.000 HD 
ENDBRANCH   4   5
ENDBRANCH   3   4
ENDBRANCH   2   3
TORSDOF 3
ENDMDL
MODEL       45
REMARK 921   NORMALIZED FREE ENERGY PREDICTED BY IDOCK:   -2.86 KCAL/MOL
REMARK 922        TOTAL FREE ENERGY PREDICTED BY IDOCK:   -3.53 KCAL/MOL
REMARK 923 INTER-LIGAND FREE ENERGY PREDICTED BY IDOCK:   -3.39 KCAL/MOL
REMARK 924 INTRA-LIGAND FREE ENERGY PREDICTED BY IDOCK:   -0.14 KCAL/MOL
REMARK 927      BINDING AFFINITY PREDICTED BY RF-SCORE:    0.00 PKD
ROOT
ATOM      1  CE  MET A   1     -11.293  14.266  66.224  1.00  0.00    -0.346 C  
ATOM      2  SD  MET A   1     -12.462  13.204  65.342  1.00  0.00    -0.442 SA 
ENDROOT
BRANCH   2   3
ATOM      3  CG  MET A   1     -11.684  13.240  63.694  1.00  0.00    -0.394 C  
BRANCH   3   4
ATOM      4  CB  MET A   1     -10.351  12.497  63.736  1.00  0.00    -0.418 C  
BRANCH   4   5
ATOM      5  CA  MET A   1     -10.500  10.977  63.604  1.00  0.00    -0.322 C  
ATOM      6  C   MET A   1      -9.846  10.320  64.831  1.00  0.00    -0.336 C  
ATOM      7  N   MET A   1      -9.822  10.449  62.386  1.00  0.00    -0.743 NA 
ATOM      8  O   MET A   1      -8.575   9.923  64.558  1.00  0.00    -0.157 OA 
ATOM      9  OXT MET A   1     -10.377  10.184  65.921  1.00  0.00    -0.229 OA 
ATOM     10  H1  MET A   1      -9.922   9.438  62.298  1.00  0.00     0.000 HD 
ATOM     11  H2  MET A   1      -8.841  10.728  62.359  1.00  0.00     0.000 HD 
ENDBRANCH   4   5
ENDBRANCH   3   4
ENDBRANCH   2   3
TORSDOF 3
ENDMDL
MODEL       46
REMARK 921   NORMALIZED FREE ENERGY PREDICTED BY IDOCK:   -2.85 KCAL/MOL
REMARK 922        TOTAL FREE ENERGY PREDICTED BY IDOCK:   -3.53 KCAL/MOL
REMARK 923 INTER-LIGAND FREE ENERGY PREDICTED BY IDOCK:   -3.42 KCAL/MOL
REMARK 924 INTRA-LIGAND FREE ENERGY PREDICTED BY IDOCK:   -0.10 KCAL/MOL
REMARK 927      BINDING AFFINITY PREDICTED BY RF-SCORE:    0.00 PKD
ROOT
ATOM      1  CE  MET A   1      -8.498   8.240  72.260  1.00  0.00    -0.187 C  
ATOM      2  SD  MET A   1      -9.349   7.243  73.506  1.00  0.00    -0.232 SA 
ENDROOT
BRANCH   2   3
ATOM      3  CG  MET A   1     -11.068   7.556  72.988  1.00  0.00    -0.362 C  
BRANCH   3   4
ATOM      4  CB  MET A   1     -11.128   8.821  72.134  1.00  0.00    -0.406 C  
BRANCH   4   5
ATOM      5  CA  MET A   1     -12.362   8.879  71.226  1.00  0.00    -0.291 C  
ATOM      6  C   MET A   1     -13.444   9.712  71.935  1.00  0.00    -0.413 C  
ATOM      7  N   MET A   1     -12.927   7.527  70.956  1.00  0.00    -0.574 NA 
ATOM      8  O   MET A   1     -14.329   8.914  72.589  1.00  0.00    -0.613 OA 
ATOM      9  OXT MET A   1     -13.503  10.930  71.938  1.00  0.00    -0.345 OA 
ATOM     10  H1  MET A   1     -13.747   7.566  70.352  1.00  0.00     0.000 HD 
ATOM     11  H2  MET A   1     -13.131   7.032  71.825  1.00  0.00     0.000 HD 
ENDBRANCH   4   5
ENDBRANCH   3   4
ENDBRANCH   2   3
TORSDOF 3
ENDMDL
MODEL       47
REMARK 921   NORMALIZED FREE ENERGY PREDICTED BY IDOCK:   -2.81 KCAL/MOL
REMARK 922        TOTAL FREE ENERGY PREDICTED BY IDOCK:   -3.47 KCAL/MOL
REMARK 923 INTER-LIGAND FREE ENERGY PREDICTED BY IDOCK:   -3.36 KCAL/MOL
REMARK 924 INTRA-LIGAND FREE ENERGY PREDICTED BY IDOCK:   -0.11 KCAL/MOL
REMARK 927      BINDING AFFINITY PREDICTED BY RF-SCORE:    0.00 PKD
ROOT
ATOM      1  CE  MET A   1     -10.560  14.469  67.616  1.00  0.00    -0.251 C  
ATOM      2  SD  MET A   1     -11.321  14.588  69.253  1.00  0.00    -0.300 SA 
ENDROOT
BRANCH   2   3
ATOM      3  CG  MET A   1     -11.224  16.394  69.476  1.00  0.00    -0.250 C  
BRANCH   3   4
ATOM      4  CB  MET A   1     -10.243  16.988  68.468  1.00  0.00    -0.324 C  
BRANCH   4   5
ATOM      5  CA  MET A   1     -10.759  18.270  67.806  1.00  0.00    -0.333 C  
ATOM      6  C   MET A   1     -10.162  18.356  66.391  1.00  0.00    -0.410 C  
ATOM      7  N   MET A   1     -10.347  19.493  68.552  1.00  0.00    -0.503 NA 
ATOM      8  O   MET A   1      -9.053  19.142  66.371  1.00  0.00    -0.330 OA 
ATOM      9  OXT MET A   1     -10.601  17.782  65.408  1.00  0.00    -0.659 OA 
ATOM     10  H1  MET A   1     -10.690  20.347  68.111  1.00  0.00     0.000 HD 
ATOM     11  H2  MET A   1      -9.335  19.524  68.680  1.00  0.00     0.000 HD 
ENDBRANCH   4   5
ENDBRANCH   3   4
ENDBRANCH   2   3
TORSDOF 3
ENDMDL
MODEL       48
REMARK 921   NORMALIZED FREE ENERGY PREDICTED BY IDOCK:   -2.79 KCAL/MOL
REMARK 922        TOTAL FREE ENERGY PREDICTED BY IDOCK:   -3.45 KCAL/MOL
REMARK 923 INTER-LIGAND FREE ENERGY PREDICTED BY IDOCK:   -3.41 KCAL/MOL
REMARK 924 INTRA-LIGAND FREE ENERGY PREDICTED BY IDOCK:   -0.04 KCAL/MOL
REMARK 927      BINDING AFFINITY PREDICTED BY RF-SCORE:    0.00 PKD
ROOT
ATOM      1  CE  MET A   1     -13.984   8.952  72.011  1.00  0.00    -0.437 C  
ATOM      2  SD  MET A   1     -12.335   9.447  71.456  1.00  0.00    -0.394 SA 
ENDROOT
BRANCH   2   3
ATOM      3  CG  MET A   1     -12.737  11.113  70.838  1.00  0.00    -0.344 C  
BRANCH   3   4
ATOM      4  CB  MET A   1     -12.845  12.087  72.009  1.00  0.00    -0.251 C  
BRANCH   4   5
ATOM      5  CA  MET A   1     -13.355  13.473  71.599  1.00  0.00    -0.340 C  
ATOM      6  C   MET A   1     -12.162  14.289  71.072  1.00  0.00    -0.356 C  
ATOM      7  N   MET A   1     -13.948  14.217  72.746  1.00  0.00    -0.619 NA 
ATOM      8  O   MET A   1     -11.647  15.091  72.042  1.00  0.00    -0.395 OA 
ATOM      9  OXT MET A   1     -11.711  14.223  69.940  1.00  0.00    -0.279 OA 
ATOM     10  H1  MET A   1     -14.287  15.139  72.473  1.00  0.00     0.000 HD 
ATOM     11  H2  MET A   1     -13.291  14.280  73.524  1.00  0.00     0.000 HD 
ENDBRANCH   4   5
ENDBRANCH   3   4
ENDBRANCH   2   3
TORSDOF 3
ENDMDL
MODEL       49
REMARK 921   NORMALIZED FREE ENERGY PREDICTED BY IDOCK:   -2.79 KCAL/MOL
REMARK 922        TOTAL FREE ENERGY PREDICTED BY IDOCK:   -3.45 KCAL/MOL
REMARK 923 INTER-LIGAND FREE ENERGY PREDICTED BY IDOCK:   -3.39 KCAL/MOL
REMARK 924 INTRA-LIGAND FREE ENERGY PREDICTED BY IDOCK:   -0.06 KCAL/MOL
REMARK 927      BINDING AFFINITY PREDICTED BY RF-SCORE:    0.00 PKD
ROOT
ATOM      1  CE  MET A   1      -6.081  17.995  68.920  1.00  0.00    -0.212 C  
ATOM      2  SD  MET A   1      -7.638  17.078  68.823  1.00  0.00    -0.235 SA 
ENDROOT
BRANCH   2   3
ATOM      3  CG  MET A   1      -7.621  16.685  67.043  1.00  0.00    -0.202 C  
BRANCH   3   4
ATOM      4  CB  MET A   1      -8.380  17.760  66.269  1.00  0.00    -0.240 C  
BRANCH   4   5
ATOM      5  CA  MET A   1      -9.888  17.753  66.546  1.00  0.00    -0.329 C  
ATOM      6  C   MET A   1     -10.534  16.664  65.673  1.00  0.00    -0.297 C  
ATOM      7  N   MET A   1     -10.528  19.055  66.203  1.00  0.00    -0.463 NA 
ATOM      8  O   MET A   1     -11.044  17.189  64.528  1.00  0.00    -1.105 OA 
ATOM      9  OXT MET A   1     -10.572  15.476  65.947  1.00  0.00    -0.309 OA 
ATOM     10  H1  MET A   1     -11.532  19.050  66.387  1.00  0.00     0.000 HD 
ATOM     11  H2  MET A   1     -10.331  19.321  65.238  1.00  0.00     0.000 HD 
ENDBRANCH   4   5
ENDBRANCH   3   4
ENDBRANCH   2   3
TORSDOF 3
ENDMDL
MODEL       50
REMARK 921   NORMALIZED FREE ENERGY PREDICTED BY IDOCK:   -2.77 KCAL/MOL
REMARK 922        TOTAL FREE ENERGY PREDICTED BY IDOCK:   -3.43 KCAL/MOL
REMARK 923 INTER-LIGAND FREE ENERGY PREDICTED BY IDOCK:   -3.24 KCAL/MOL
REMARK 924 INTRA-LIGAND FREE ENERGY PREDICTED BY IDOCK:   -0.18 KCAL/MOL
REMARK 927      BINDING AFFINITY PREDICTED BY RF-SCORE:    0.00 PKD
ROOT
ATOM      1  CE  MET A   1      -8.229  16.436  68.430  1.00  0.00    -0.190 C  
ATOM      2  SD  MET A   1      -6.772  17.297  69.067  1.00  0.00    -0.243 SA 
ENDROOT
BRANCH   2   3
ATOM      3  CG  MET A   1      -6.892  18.821  68.075  1.00  0.00    -0.229 C  
BRANCH   3   4
ATOM      4  CB  MET A   1      -8.177  19.566  68.425  1.00  0.00    -0.379 C  
BRANCH   4   5
ATOM      5  CA  MET A   1      -8.865  20.193  67.207  1.00  0.00    -0.353 C  
ATOM      6  C   MET A   1     -10.053  19.300  66.812  1.00  0.00    -0.389 C  
ATOM      7  N   MET A   1      -7.952  20.287  66.032  1.00  0.00    -0.536 NA 
ATOM      8  O   MET A   1      -9.715  18.444  65.811  1.00  0.00    -0.483 OA 
ATOM      9  OXT MET A   1     -11.157  19.328  67.332  1.00  0.00    -0.444 OA 
ATOM     10  H1  MET A   1      -8.410  20.705  65.222  1.00  0.00     0.000 HD 
ATOM     11  H2  MET A   1      -7.550  19.378  65.803  1.00  0.00     0.000 HD 
ENDBRANCH   4   5
ENDBRANCH   3   4
ENDBRANCH   2   3
TORSDOF 3
ENDMDL
MODEL       51
REMARK 921   NORMALIZED FREE ENERGY PREDICTED BY IDOCK:   -2.77 KCAL/MOL
REMARK 922        TOTAL FREE ENERGY PREDICTED BY IDOCK:   -3.42 KCAL/MOL
REMARK 923 INTER-LIGAND FREE ENERGY PREDICTED BY IDOCK:   -3.34 KCAL/MOL
REMARK 924 INTRA-LIGAND FREE ENERGY PREDICTED BY IDOCK:   -0.08 KCAL/MOL
REMARK 927      BINDING AFFINITY PREDICTED BY RF-SCORE:    0.00 PKD
ROOT
ATOM      1  CE  MET A   1     -12.958  10.928  71.579  1.00  0.00    -0.451 C  
ATOM      2  SD  MET A   1     -11.704  10.460  70.362  1.00  0.00    -0.355 SA 
ENDROOT
BRANCH   2   3
ATOM      3  CG  MET A   1     -10.891   9.124  71.297  1.00  0.00    -0.332 C  
BRANCH   3   4
ATOM      4  CB  MET A   1     -11.935   8.334  72.082  1.00  0.00    -0.429 C  
BRANCH   4   5
ATOM      5  CA  MET A   1     -12.180   6.929  71.520  1.00  0.00    -0.371 C  
ATOM      6  C   MET A   1     -11.175   5.965  72.173  1.00  0.00    -0.287 C  
ATOM      7  N   MET A   1     -11.979   6.871  70.044  1.00  0.00    -0.644 NA 
ATOM      8  O   MET A   1     -10.089   5.774  71.378  1.00  0.00    -0.186 OA 
ATOM      9  OXT MET A   1     -11.309   5.448  73.270  1.00  0.00    -0.289 OA 
ATOM     10  H1  MET A   1     -12.143   5.937  69.670  1.00  0.00     0.000 HD 
ATOM     11  H2  MET A   1     -11.055   7.217  69.784  1.00  0.00     0.000 HD 
ENDBRANCH   4   5
ENDBRANCH   3   4
ENDBRANCH   2   3
TORSDOF 3
ENDMDL
MODEL       52
REMARK 921   NORMALIZED FREE ENERGY PREDICTED BY IDOCK:   -2.76 KCAL/MOL
REMARK 922        TOTAL FREE ENERGY PREDICTED BY IDOCK:   -3.41 KCAL/MOL
REMARK 923 INTER-LIGAND FREE ENERGY PREDICTED BY IDOCK:   -3.34 KCAL/MOL
REMARK 924 INTRA-LIGAND FREE ENERGY PREDICTED BY IDOCK:   -0.07 KCAL/MOL
REMARK 927      BINDING AFFINITY PREDICTED BY RF-SCORE:    0.00 PKD
ROOT
ATOM      1  CE  MET A   1     -11.317  13.531  68.913  1.00  0.00    -0.289 C  
ATOM      2  SD  MET A   1     -12.112  11.910  68.802  1.00  0.00     0.032 SA 
ENDROOT
BRANCH   2   3
ATOM      3  CG  MET A   1     -12.350  11.591  70.580  1.00  0.00    -0.364 C  
BRANCH   3   4
ATOM      4  CB  MET A   1     -13.017  10.232  70.777  1.00  0.00    -0.408 C  
BRANCH   4   5
ATOM      5  CA  MET A   1     -12.939   9.724  72.221  1.00  0.00    -0.333 C  
ATOM      6  C   MET A   1     -11.928   8.566  72.271  1.00  0.00    -0.385 C  
ATOM      7  N   MET A   1     -14.251   9.209  72.708  1.00  0.00    -1.008 NA 
ATOM      8  O   MET A   1     -12.555   7.362  72.193  1.00  0.00    -0.247 OA 
ATOM      9  OXT MET A   1     -10.717   8.693  72.350  1.00  0.00    -0.339 OA 
ATOM     10  H1  MET A   1     -14.199   8.871  73.669  1.00  0.00     0.000 HD 
ATOM     11  H2  MET A   1     -14.621   8.492  72.083  1.00  0.00     0.000 HD 
ENDBRANCH   4   5
ENDBRANCH   3   4
ENDBRANCH   2   3
TORSDOF 3
ENDMDL
MODEL       53
REMARK 921   NORMALIZED FREE ENERGY PREDICTED BY IDOCK:   -2.73 KCAL/MOL
REMARK 922        TOTAL FREE ENERGY PREDICTED BY IDOCK:   -3.37 KCAL/MOL
REMARK 923 INTER-LIGAND FREE ENERGY PREDICTED BY IDOCK:   -3.29 KCAL/MOL
REMARK 924 INTRA-LIGAND FREE ENERGY PREDICTED BY IDOCK:   -0.08 KCAL/MOL
REMARK 927      BINDING AFFINITY PREDICTED BY RF-SCORE:    0.00 PKD
ROOT
ATOM      1  CE  MET A   1     -12.172  15.362  70.047  1.00  0.00    -0.361 C  
ATOM      2  SD  MET A   1     -11.112  15.240  68.587  1.00  0.00    -0.297 SA 
ENDROOT
BRANCH   2   3
ATOM      3  CG  MET A   1     -10.849  17.018  68.283  1.00  0.00    -0.341 C  
BRANCH   3   4
ATOM      4  CB  MET A   1      -9.407  17.259  67.842  1.00  0.00    -0.258 C  
BRANCH   4   5
ATOM      5  CA  MET A   1      -9.297  17.864  66.438  1.00  0.00    -0.255 C  
ATOM      6  C   MET A   1      -9.398  19.394  66.562  1.00  0.00    -0.359 C  
ATOM      7  N   MET A   1     -10.392  17.403  65.539  1.00  0.00    -0.644 NA 
ATOM      8  O   MET A   1     -10.666  19.824  66.327  1.00  0.00    -0.468 OA 
ATOM      9  OXT MET A   1      -8.476  20.138  66.854  1.00  0.00    -0.309 OA 
ATOM     10  H1  MET A   1     -10.319  17.806  64.605  1.00  0.00     0.000 HD 
ATOM     11  H2  MET A   1     -11.308  17.587  65.949  1.00  0.00     0.000 HD 
ENDBRANCH   4   5
ENDBRANCH   3   4
ENDBRANCH   2   3
TORSDOF 3
ENDMDL
MODEL       54
REMARK 921   NORMALIZED FREE ENERGY PREDICTED BY IDOCK:   -2.70 KCAL/MOL
REMARK 922        TOTAL FREE ENERGY PREDICTED BY IDOCK:   -3.35 KCAL/MOL
REMARK 923 INTER-LIGAND FREE ENERGY PREDICTED BY IDOCK:   -3.29 KCAL/MOL
REMARK 924 INTRA-LIGAND FREE ENERGY PREDICTED BY IDOCK:   -0.05 KCAL/MOL
REMARK 927      BINDING AFFINITY PREDICTED BY RF-SCORE:    0.00 PKD
ROOT
ATOM      1  CE  MET A   1      -9.387  10.428  68.474  1.00  0.00    -0.160 C  
ATOM      2  SD  MET A   1     -10.963  10.996  69.156  1.00  0.00    -0.255 SA 
ENDROOT
BRANCH   2   3
ATOM      3  CG  MET A   1     -11.042  12.630  68.355  1.00  0.00    -0.265 C  
BRANCH   3   4
ATOM      4  CB  MET A   1     -11.779  12.518  67.023  1.00  0.00    -0.437 C  
BRANCH   4   5
ATOM      5  CA  MET A   1     -12.087  13.878  66.385  1.00  0.00    -0.455 C  
ATOM      6  C   MET A   1     -11.675  13.820  64.904  1.00  0.00    -0.363 C  
ATOM      7  N   MET A   1     -11.328  14.986  67.030  1.00  0.00    -0.341 NA 
ATOM      8  O   MET A   1     -10.435  14.345  64.718  1.00  0.00    -0.430 OA 
ATOM      9  OXT MET A   1     -12.352  13.350  64.004  1.00  0.00    -0.588 OA 
ATOM     10  H1  MET A   1     -11.534  15.891  66.605  1.00  0.00     0.000 HD 
ATOM     11  H2  MET A   1     -10.326  14.797  67.029  1.00  0.00     0.000 HD 
ENDBRANCH   4   5
ENDBRANCH   3   4
ENDBRANCH   2   3
TORSDOF 3
ENDMDL
MODEL       55
REMARK 921   NORMALIZED FREE ENERGY PREDICTED BY IDOCK:   -2.69 KCAL/MOL
REMARK 922        TOTAL FREE ENERGY PREDICTED BY IDOCK:   -3.33 KCAL/MOL
REMARK 923 INTER-LIGAND FREE ENERGY PREDICTED BY IDOCK:   -3.36 KCAL/MOL
REMARK 924 INTRA-LIGAND FREE ENERGY PREDICTED BY IDOCK:    0.02 KCAL/MOL
REMARK 927      BINDING AFFINITY PREDICTED BY RF-SCORE:    0.00 PKD
ROOT
ATOM      1  CE  MET A   1     -13.418  15.648  73.044  1.00  0.00    -0.562 C  
ATOM      2  SD  MET A   1     -12.061  16.045  71.916  1.00  0.00    -0.500 SA 
ENDROOT
BRANCH   2   3
ATOM      3  CG  MET A   1     -12.484  14.906  70.558  1.00  0.00    -0.363 C  
BRANCH   3   4
ATOM      4  CB  MET A   1     -11.894  15.422  69.248  1.00  0.00    -0.365 C  
BRANCH   4   5
ATOM      5  CA  MET A   1     -10.665  16.315  69.448  1.00  0.00    -0.318 C  
ATOM      6  C   MET A   1     -10.425  17.104  68.149  1.00  0.00    -0.366 C  
ATOM      7  N   MET A   1      -9.435  15.525  69.738  1.00  0.00    -0.361 NA 
ATOM      8  O   MET A   1      -9.490  16.497  67.370  1.00  0.00    -0.225 OA 
ATOM      9  OXT MET A   1     -11.004  18.130  67.833  1.00  0.00    -0.298 OA 
ATOM     10  H1  MET A   1      -8.618  16.120  69.871  1.00  0.00     0.000 HD 
ATOM     11  H2  MET A   1      -9.268  14.824  69.016  1.00  0.00     0.000 HD 
ENDBRANCH   4   5
ENDBRANCH   3   4
ENDBRANCH   2   3
TORSDOF 3
ENDMDL
MODEL       56
REMARK 921   NORMALIZED FREE ENERGY PREDICTED BY IDOCK:   -2.69 KCAL/MOL
REMARK 922        TOTAL FREE ENERGY PREDICTED BY IDOCK:   -3.33 KCAL/MOL
REMARK 923 INTER-LIGAND FREE ENERGY PREDICTED BY IDOCK:   -3.24 KCAL/MOL
REMARK 924 INTRA-LIGAND FREE ENERGY PREDICTED BY IDOCK:   -0.09 KCAL/MOL
REMARK 927      BINDING AFFINITY PREDICTED BY RF-SCORE:    0.00 PKD
ROOT
ATOM      1  CE  MET A   1     -11.569  14.365  64.545  1.00  0.00    -0.384 C  
ATOM      2  SD  MET A   1     -12.313  12.781  65.001  1.00  0.00    -0.492 SA 
ENDROOT
BRANCH   2   3
ATOM      3  CG  MET A   1     -11.827  12.739  66.757  1.00  0.00    -0.382 C  
BRANCH   3   4
ATOM      4  CB  MET A   1     -12.004  14.124  67.375  1.00  0.00    -0.439 C  
BRANCH   4   5
ATOM      5  CA  MET A   1     -11.008  14.414  68.504  1.00  0.00    -0.251 C  
ATOM      6  C   MET A   1     -11.494  15.657  69.269  1.00  0.00    -0.362 C  
ATOM      7  N   MET A   1      -9.640  14.700  67.987  1.00  0.00    -0.207 NA 
ATOM      8  O   MET A   1     -10.870  16.781  68.828  1.00  0.00    -0.328 OA 
ATOM      9  OXT MET A   1     -12.343  15.655  70.145  1.00  0.00    -0.395 OA 
ATOM     10  H1  MET A   1      -8.977  14.893  68.738  1.00  0.00     0.000 HD 
ATOM     11  H2  MET A   1      -9.654  15.457  67.303  1.00  0.00     0.000 HD 
ENDBRANCH   4   5
ENDBRANCH   3   4
ENDBRANCH   2   3
TORSDOF 3
ENDMDL
MODEL       57
REMARK 921   NORMALIZED FREE ENERGY PREDICTED BY IDOCK:   -2.68 KCAL/MOL
REMARK 922        TOTAL FREE ENERGY PREDICTED BY IDOCK:   -3.32 KCAL/MOL
REMARK 923 INTER-LIGAND FREE ENERGY PREDICTED BY IDOCK:   -3.27 KCAL/MOL
REMARK 924 INTRA-LIGAND FREE ENERGY PREDICTED BY IDOCK:   -0.05 KCAL/MOL
REMARK 927      BINDING AFFINITY PREDICTED BY RF-SCORE:    0.00 PKD
ROOT
ATOM      1  CE  MET A   1     -10.302   5.677  71.163  1.00  0.00    -0.232 C  
ATOM      2  SD  MET A   1     -10.472   7.275  70.333  1.00  0.00    -0.224 SA 
ENDROOT
BRANCH   2   3
ATOM      3  CG  MET A   1     -11.388   8.168  71.631  1.00  0.00    -0.264 C  
BRANCH   3   4
ATOM      4  CB  MET A   1     -11.290   9.673  71.390  1.00  0.00    -0.444 C  
BRANCH   4   5
ATOM      5  CA  MET A   1     -12.633  10.316  71.025  1.00  0.00    -0.390 C  
ATOM      6  C   MET A   1     -12.380  11.382  69.946  1.00  0.00    -0.214 C  
ATOM      7  N   MET A   1     -13.271  10.987  72.193  1.00  0.00    -0.583 NA 
ATOM      8  O   MET A   1     -12.271  12.621  70.494  1.00  0.00    -0.365 OA 
ATOM      9  OXT MET A   1     -12.268  11.160  68.751  1.00  0.00    -0.555 OA 
ATOM     10  H1  MET A   1     -14.165  11.414  71.950  1.00  0.00     0.000 HD 
ATOM     11  H2  MET A   1     -12.640  11.666  72.618  1.00  0.00     0.000 HD 
ENDBRANCH   4   5
ENDBRANCH   3   4
ENDBRANCH   2   3
TORSDOF 3
ENDMDL
MODEL       58
REMARK 921   NORMALIZED FREE ENERGY PREDICTED BY IDOCK:   -2.66 KCAL/MOL
REMARK 922        TOTAL FREE ENERGY PREDICTED BY IDOCK:   -3.30 KCAL/MOL
REMARK 923 INTER-LIGAND FREE ENERGY PREDICTED BY IDOCK:   -3.19 KCAL/MOL
REMARK 924 INTRA-LIGAND FREE ENERGY PREDICTED BY IDOCK:   -0.11 KCAL/MOL
REMARK 927      BINDING AFFINITY PREDICTED BY RF-SCORE:    0.00 PKD
ROOT
ATOM      1  CE  MET A   1     -12.402  12.517  64.593  1.00  0.00    -0.474 C  
ATOM      2  SD  MET A   1     -10.804  13.355  64.471  1.00  0.00    -0.408 SA 
ENDROOT
BRANCH   2   3
ATOM      3  CG  MET A   1     -11.276  14.963  65.186  1.00  0.00    -0.386 C  
BRANCH   3   4
ATOM      4  CB  MET A   1     -10.598  15.144  66.543  1.00  0.00    -0.304 C  
BRANCH   4   5
ATOM      5  CA  MET A   1     -11.591  15.335  67.694  1.00  0.00    -0.239 C  
ATOM      6  C   MET A   1     -10.842  15.970  68.878  1.00  0.00    -0.286 C  
ATOM      7  N   MET A   1     -12.170  14.042  68.158  1.00  0.00    -0.536 NA 
ATOM      8  O   MET A   1     -10.441  15.026  69.770  1.00  0.00    -0.237 OA 
ATOM      9  OXT MET A   1     -10.609  17.161  69.005  1.00  0.00    -0.324 OA 
ATOM     10  H1  MET A   1     -12.831  14.170  68.925  1.00  0.00     0.000 HD 
ATOM     11  H2  MET A   1     -11.437  13.378  68.409  1.00  0.00     0.000 HD 
ENDBRANCH   4   5
ENDBRANCH   3   4
ENDBRANCH   2   3
TORSDOF 3
ENDMDL
MODEL       59
REMARK 921   NORMALIZED FREE ENERGY PREDICTED BY IDOCK:   -2.64 KCAL/MOL
REMARK 922        TOTAL FREE ENERGY PREDICTED BY IDOCK:   -3.27 KCAL/MOL
REMARK 923 INTER-LIGAND FREE ENERGY PREDICTED BY IDOCK:   -3.19 KCAL/MOL
REMARK 924 INTRA-LIGAND FREE ENERGY PREDICTED BY IDOCK:   -0.08 KCAL/MOL
REMARK 927      BINDING AFFINITY PREDICTED BY RF-SCORE:    0.00 PKD
ROOT
ATOM      1  CE  MET A   1     -11.126  14.853  66.411  1.00  0.00    -0.342 C  
ATOM      2  SD  MET A   1      -9.356  14.746  66.763  1.00  0.00    -0.262 SA 
ENDROOT
BRANCH   2   3
ATOM      3  CG  MET A   1      -8.867  16.427  66.254  1.00  0.00    -0.332 C  
BRANCH   3   4
ATOM      4  CB  MET A   1      -9.997  17.408  66.557  1.00  0.00    -0.314 C  
BRANCH   4   5
ATOM      5  CA  MET A   1      -9.525  18.863  66.656  1.00  0.00    -0.334 C  
ATOM      6  C   MET A   1      -9.224  19.174  68.131  1.00  0.00    -0.327 C  
ATOM      7  N   MET A   1     -10.563  19.824  66.187  1.00  0.00    -0.489 NA 
ATOM      8  O   MET A   1     -10.280  19.785  68.731  1.00  0.00    -0.449 OA 
ATOM      9  OXT MET A   1      -8.187  18.896  68.711  1.00  0.00    -0.344 OA 
ATOM     10  H1  MET A   1     -10.249  20.792  66.252  1.00  0.00     0.000 HD 
ATOM     11  H2  MET A   1     -11.444  19.687  66.683  1.00  0.00     0.000 HD 
ENDBRANCH   4   5
ENDBRANCH   3   4
ENDBRANCH   2   3
TORSDOF 3
ENDMDL
MODEL       60
REMARK 921   NORMALIZED FREE ENERGY PREDICTED BY IDOCK:   -2.63 KCAL/MOL
REMARK 922        TOTAL FREE ENERGY PREDICTED BY IDOCK:   -3.27 KCAL/MOL
REMARK 923 INTER-LIGAND FREE ENERGY PREDICTED BY IDOCK:   -3.17 KCAL/MOL
REMARK 924 INTRA-LIGAND FREE ENERGY PREDICTED BY IDOCK:   -0.10 KCAL/MOL
REMARK 927      BINDING AFFINITY PREDICTED BY RF-SCORE:    0.00 PKD
ROOT
ATOM      1  CE  MET A   1     -11.582  15.222  71.835  1.00  0.00    -0.437 C  
ATOM      2  SD  MET A   1     -12.381  13.958  70.817  1.00  0.00    -0.386 SA 
ENDROOT
BRANCH   2   3
ATOM      3  CG  MET A   1     -11.708  14.440  69.194  1.00  0.00    -0.317 C  
BRANCH   3   4
ATOM      4  CB  MET A   1     -11.967  13.331  68.177  1.00  0.00    -0.340 C  
BRANCH   4   5
ATOM      5  CA  MET A   1     -11.233  12.026  68.505  1.00  0.00    -0.256 C  
ATOM      6  C   MET A   1     -10.174  11.782  67.416  1.00  0.00    -0.199 C  
ATOM      7  N   MET A   1     -12.151  10.853  68.522  1.00  0.00    -0.812 NA 
ATOM      8  O   MET A   1     -10.638  10.936  66.459  1.00  0.00    -0.248 OA 
ATOM      9  OXT MET A   1      -9.065  12.290  67.389  1.00  0.00    -0.172 OA 
ATOM     10  H1  MET A   1     -11.663   9.985  68.740  1.00  0.00     0.000 HD 
ATOM     11  H2  MET A   1     -12.668  10.776  67.646  1.00  0.00     0.000 HD 
ENDBRANCH   4   5
ENDBRANCH   3   4
ENDBRANCH   2   3
TORSDOF 3
ENDMDL
MODEL       61
REMARK 921   NORMALIZED FREE ENERGY PREDICTED BY IDOCK:   -2.63 KCAL/MOL
REMARK 922        TOTAL FREE ENERGY PREDICTED BY IDOCK:   -3.26 KCAL/MOL
REMARK 923 INTER-LIGAND FREE ENERGY PREDICTED BY IDOCK:   -3.20 KCAL/MOL
REMARK 924 INTRA-LIGAND FREE ENERGY PREDICTED BY IDOCK:   -0.07 KCAL/MOL
REMARK 927      BINDING AFFINITY PREDICTED BY RF-SCORE:    0.00 PKD
ROOT
ATOM      1  CE  MET A   1     -11.311  15.213  70.845  1.00  0.00    -0.307 C  
ATOM      2  SD  MET A   1      -9.953  15.813  69.812  1.00  0.00    -0.184 SA 
ENDROOT
BRANCH   2   3
ATOM      3  CG  MET A   1     -10.298  14.845  68.307  1.00  0.00    -0.232 C  
BRANCH   3   4
ATOM      4  CB  MET A   1     -10.231  15.753  67.082  1.00  0.00    -0.279 C  
BRANCH   4   5
ATOM      5  CA  MET A   1      -9.856  15.007  65.796  1.00  0.00    -0.353 C  
ATOM      6  C   MET A   1     -10.964  15.250  64.757  1.00  0.00    -0.386 C  
ATOM      7  N   MET A   1      -9.743  13.537  66.011  1.00  0.00    -0.419 NA 
ATOM      8  O   MET A   1     -11.857  14.225  64.740  1.00  0.00    -0.384 OA 
ATOM      9  OXT MET A   1     -11.056  16.238  64.047  1.00  0.00    -0.655 OA 
ATOM     10  H1  MET A   1      -9.493  13.041  65.155  1.00  0.00     0.000 HD 
ATOM     11  H2  MET A   1     -10.596  13.157  66.422  1.00  0.00     0.000 HD 
ENDBRANCH   4   5
ENDBRANCH   3   4
ENDBRANCH   2   3
TORSDOF 3
ENDMDL
MODEL       62
REMARK 921   NORMALIZED FREE ENERGY PREDICTED BY IDOCK:   -2.62 KCAL/MOL
REMARK 922        TOTAL FREE ENERGY PREDICTED BY IDOCK:   -3.25 KCAL/MOL
REMARK 923 INTER-LIGAND FREE ENERGY PREDICTED BY IDOCK:   -3.12 KCAL/MOL
REMARK 924 INTRA-LIGAND FREE ENERGY PREDICTED BY IDOCK:   -0.14 KCAL/MOL
REMARK 927      BINDING AFFINITY PREDICTED BY RF-SCORE:    0.00 PKD
ROOT
ATOM      1  CE  MET A   1      -9.863   4.641  69.264  1.00  0.00    -0.190 C  
ATOM      2  SD  MET A   1     -10.865   6.049  69.797  1.00  0.00    -0.388 SA 
ENDROOT
BRANCH   2   3
ATOM      3  CG  MET A   1     -10.589   5.925  71.594  1.00  0.00    -0.241 C  
BRANCH   3   4
ATOM      4  CB  MET A   1     -11.482   6.925  72.325  1.00  0.00    -0.313 C  
BRANCH   4   5
ATOM      5  CA  MET A   1     -12.678   7.393  71.487  1.00  0.00    -0.372 C  
ATOM      6  C   MET A   1     -12.688   8.931  71.478  1.00  0.00    -0.335 C  
ATOM      7  N   MET A   1     -13.977   6.929  72.053  1.00  0.00    -0.540 NA 
ATOM      8  O   MET A   1     -13.533   9.423  72.422  1.00  0.00    -0.457 OA 
ATOM      9  OXT MET A   1     -12.016   9.633  70.741  1.00  0.00    -0.282 OA 
ATOM     10  H1  MET A   1     -14.772   7.241  71.495  1.00  0.00     0.000 HD 
ATOM     11  H2  MET A   1     -14.076   7.211  73.029  1.00  0.00     0.000 HD 
ENDBRANCH   4   5
ENDBRANCH   3   4
ENDBRANCH   2   3
TORSDOF 3
ENDMDL
MODEL       63
REMARK 921   NORMALIZED FREE ENERGY PREDICTED BY IDOCK:   -2.62 KCAL/MOL
REMARK 922        TOTAL FREE ENERGY PREDICTED BY IDOCK:   -3.25 KCAL/MOL
REMARK 923 INTER-LIGAND FREE ENERGY PREDICTED BY IDOCK:   -3.17 KCAL/MOL
REMARK 924 INTRA-LIGAND FREE ENERGY PREDICTED BY IDOCK:   -0.08 KCAL/MOL
REMARK 927      BINDING AFFINITY PREDICTED BY RF-SCORE:    0.00 PKD
ROOT
ATOM      1  CE  MET A   1     -12.871  11.656  71.254  1.00  0.00    -0.328 C  
ATOM      2  SD  MET A   1     -11.871  10.504  70.283  1.00  0.00    -0.354 SA 
ENDROOT
BRANCH   2   3
ATOM      3  CG  MET A   1     -11.869  11.402  68.698  1.00  0.00    -0.310 C  
BRANCH   3   4
ATOM      4  CB  MET A   1     -11.310  12.808  68.900  1.00  0.00    -0.344 C  
BRANCH   4   5
ATOM      5  CA  MET A   1     -12.087  13.885  68.134  1.00  0.00    -0.282 C  
ATOM      6  C   MET A   1     -11.508  13.977  66.712  1.00  0.00    -0.363 C  
ATOM      7  N   MET A   1     -11.961  15.227  68.769  1.00  0.00    -0.547 NA 
ATOM      8  O   MET A   1     -10.598  14.983  66.616  1.00  0.00    -0.289 OA 
ATOM      9  OXT MET A   1     -11.800  13.239  65.786  1.00  0.00    -0.349 OA 
ATOM     10  H1  MET A   1     -12.478  15.944  68.259  1.00  0.00     0.000 HD 
ATOM     11  H2  MET A   1     -10.982  15.490  68.886  1.00  0.00     0.000 HD 
ENDBRANCH   4   5
ENDBRANCH   3   4
ENDBRANCH   2   3
TORSDOF 3
ENDMDL
MODEL       64
REMARK 921   NORMALIZED FREE ENERGY PREDICTED BY IDOCK:   -2.60 KCAL/MOL
REMARK 922        TOTAL FREE ENERGY PREDICTED BY IDOCK:   -3.23 KCAL/MOL
REMARK 923 INTER-LIGAND FREE ENERGY PREDICTED BY IDOCK:   -3.11 KCAL/MOL
REMARK 924 INTRA-LIGAND FREE ENERGY PREDICTED BY IDOCK:   -0.12 KCAL/MOL
REMARK 927      BINDING AFFINITY PREDICTED BY RF-SCORE:    0.00 PKD
ROOT
ATOM      1  CE  MET A   1     -12.571  10.479  70.594  1.00  0.00    -0.369 C  
ATOM      2  SD  MET A   1     -11.889  11.941  69.776  1.00  0.00    -0.318 SA 
ENDROOT
BRANCH   2   3
ATOM      3  CG  MET A   1     -11.188  11.134  68.300  1.00  0.00    -0.279 C  
BRANCH   3   4
ATOM      4  CB  MET A   1     -11.475  11.980  67.062  1.00  0.00    -0.402 C  
BRANCH   4   5
ATOM      5  CA  MET A   1     -10.502  13.152  66.891  1.00  0.00    -0.256 C  
ATOM      6  C   MET A   1     -11.321  14.449  66.783  1.00  0.00    -0.352 C  
ATOM      7  N   MET A   1      -9.680  13.024  65.654  1.00  0.00    -0.457 NA 
ATOM      8  O   MET A   1     -11.514  14.803  65.485  1.00  0.00    -0.341 OA 
ATOM      9  OXT MET A   1     -11.768  15.078  67.728  1.00  0.00    -0.339 OA 
ATOM     10  H1  MET A   1      -9.032  13.804  65.541  1.00  0.00     0.000 HD 
ATOM     11  H2  MET A   1     -10.270  12.910  64.830  1.00  0.00     0.000 HD 
ENDBRANCH   4   5
ENDBRANCH   3   4
ENDBRANCH   2   3
TORSDOF 3
ENDMDL
MODEL       65
REMARK 921   NORMALIZED FREE ENERGY PREDICTED BY IDOCK:   -2.60 KCAL/MOL
REMARK 922        TOTAL FREE ENERGY PREDICTED BY IDOCK:   -3.23 KCAL/MOL
REMARK 923 INTER-LIGAND FREE ENERGY PREDICTED BY IDOCK:   -3.16 KCAL/MOL
REMARK 924 INTRA-LIGAND FREE ENERGY PREDICTED BY IDOCK:   -0.07 KCAL/MOL
REMARK 927      BINDING AFFINITY PREDICTED BY RF-SCORE:    0.00 PKD
ROOT
ATOM      1  CE  MET A   1     -10.373  17.535  66.340  1.00  0.00    -0.334 C  
ATOM      2  SD  MET A   1     -10.334  17.138  68.104  1.00  0.00    -0.368 SA 
ENDROOT
BRANCH   2   3
ATOM      3  CG  MET A   1     -10.883  15.403  68.013  1.00  0.00    -0.292 C  
BRANCH   3   4
ATOM      4  CB  MET A   1     -11.269  15.058  66.576  1.00  0.00    -0.312 C  
BRANCH   4   5
ATOM      5  CA  MET A   1     -10.527  13.834  66.028  1.00  0.00    -0.297 C  
ATOM      6  C   MET A   1     -11.122  12.576  66.683  1.00  0.00    -0.283 C  
ATOM      7  N   MET A   1      -9.071  13.870  66.344  1.00  0.00    -0.476 NA 
ATOM      8  O   MET A   1     -10.381  12.179  67.751  1.00  0.00    -0.199 OA 
ATOM      9  OXT MET A   1     -12.139  12.008  66.318  1.00  0.00    -0.596 OA 
ATOM     10  H1  MET A   1      -8.578  13.056  65.979  1.00  0.00     0.000 HD 
ATOM     11  H2  MET A   1      -8.914  13.979  67.346  1.00  0.00     0.000 HD 
ENDBRANCH   4   5
ENDBRANCH   3   4
ENDBRANCH   2   3
TORSDOF 3
ENDMDL
MODEL       66
REMARK 921   NORMALIZED FREE ENERGY PREDICTED BY IDOCK:   -2.59 KCAL/MOL
REMARK 922        TOTAL FREE ENERGY PREDICTED BY IDOCK:   -3.21 KCAL/MOL
REMARK 923 INTER-LIGAND FREE ENERGY PREDICTED BY IDOCK:   -3.14 KCAL/MOL
REMARK 924 INTRA-LIGAND FREE ENERGY PREDICTED BY IDOCK:   -0.08 KCAL/MOL
REMARK 927      BINDING AFFINITY PREDICTED BY RF-SCORE:    0.00 PKD
ROOT
ATOM      1  CE  MET A   1     -11.893  11.117  69.142  1.00  0.00    -0.350 C  
ATOM      2  SD  MET A   1     -11.531  12.735  68.421  1.00  0.00    -0.335 SA 
ENDROOT
BRANCH   2   3
ATOM      3  CG  MET A   1     -10.215  12.237  67.263  1.00  0.00    -0.210 C  
BRANCH   3   4
ATOM      4  CB  MET A   1     -10.762  11.220  66.264  1.00  0.00    -0.312 C  
BRANCH   4   5
ATOM      5  CA  MET A   1     -10.211  11.407  64.846  1.00  0.00    -0.278 C  
ATOM      6  C   MET A   1     -11.123  12.394  64.099  1.00  0.00    -0.372 C  
ATOM      7  N   MET A   1     -10.190  10.129  64.078  1.00  0.00    -0.435 NA 
ATOM      8  O   MET A   1     -12.040  11.738  63.339  1.00  0.00    -0.491 OA 
ATOM      9  OXT MET A   1     -11.061  13.609  64.183  1.00  0.00    -0.354 OA 
ATOM     10  H1  MET A   1      -9.823  10.254  63.135  1.00  0.00     0.000 HD 
ATOM     11  H2  MET A   1     -11.113   9.694  64.061  1.00  0.00     0.000 HD 
ENDBRANCH   4   5
ENDBRANCH   3   4
ENDBRANCH   2   3
TORSDOF 3
ENDMDL
MODEL       67
REMARK 921   NORMALIZED FREE ENERGY PREDICTED BY IDOCK:   -2.58 KCAL/MOL
REMARK 922        TOTAL FREE ENERGY PREDICTED BY IDOCK:   -3.20 KCAL/MOL
REMARK 923 INTER-LIGAND FREE ENERGY PREDICTED BY IDOCK:   -3.10 KCAL/MOL
REMARK 924 INTRA-LIGAND FREE ENERGY PREDICTED BY IDOCK:   -0.10 KCAL/MOL
REMARK 927      BINDING AFFINITY PREDICTED BY RF-SCORE:    0.00 PKD
ROOT
ATOM      1  CE  MET A   1      -8.056  17.387  67.528  1.00  0.00    -0.196 C  
ATOM      2  SD  MET A   1      -9.631  17.627  68.385  1.00  0.00    -0.322 SA 
ENDROOT
BRANCH   2   3
ATOM      3  CG  MET A   1     -10.455  16.077  67.896  1.00  0.00    -0.292 C  
BRANCH   3   4
ATOM      4  CB  MET A   1     -11.842  16.006  68.530  1.00  0.00    -0.126 C  
BRANCH   4   5
ATOM      5  CA  MET A   1     -11.939  14.975  69.660  1.00  0.00    -0.321 C  
ATOM      6  C   MET A   1     -12.590  15.651  70.877  1.00  0.00    -0.449 C  
ATOM      7  N   MET A   1     -10.600  14.470  70.077  1.00  0.00    -0.453 NA 
ATOM      8  O   MET A   1     -11.652  16.090  71.757  1.00  0.00    -0.444 OA 
ATOM      9  OXT MET A   1     -13.790  15.803  71.038  1.00  0.00    -0.501 OA 
ATOM     10  H1  MET A   1     -10.664  13.783  70.828  1.00  0.00     0.000 HD 
ATOM     11  H2  MET A   1      -9.979  15.239  70.331  1.00  0.00     0.000 HD 
ENDBRANCH   4   5
ENDBRANCH   3   4
ENDBRANCH   2   3
TORSDOF 3
ENDMDL
MODEL       68
REMARK 921   NORMALIZED FREE ENERGY PREDICTED BY IDOCK:   -2.58 KCAL/MOL
REMARK 922        TOTAL FREE ENERGY PREDICTED BY IDOCK:   -3.20 KCAL/MOL
REMARK 923 INTER-LIGAND FREE ENERGY PREDICTED BY IDOCK:   -3.11 KCAL/MOL
REMARK 924 INTRA-LIGAND FREE ENERGY PREDICTED BY IDOCK:   -0.09 KCAL/MOL
REMARK 927      BINDING AFFINITY PREDICTED BY RF-SCORE:    0.00 PKD
ROOT
ATOM      1  CE  MET A   1     -10.558  12.117  63.730  1.00  0.00    -0.439 C  
ATOM      2  SD  MET A   1      -9.451  10.818  64.329  1.00  0.00    -0.287 SA 
ENDROOT
BRANCH   2   3
ATOM      3  CG  MET A   1     -10.376  10.327  65.820  1.00  0.00    -0.165 C  
BRANCH   3   4
ATOM      4  CB  MET A   1     -10.365  11.468  66.834  1.00  0.00    -0.258 C  
BRANCH   4   5
ATOM      5  CA  MET A   1     -11.750  11.777  67.414  1.00  0.00    -0.230 C  
ATOM      6  C   MET A   1     -11.835  13.289  67.683  1.00  0.00    -0.357 C  
ATOM      7  N   MET A   1     -11.991  11.067  68.702  1.00  0.00    -0.672 NA 
ATOM      8  O   MET A   1     -11.553  13.574  68.982  1.00  0.00    -0.266 OA 
ATOM      9  OXT MET A   1     -12.098  14.137  66.847  1.00  0.00    -0.430 OA 
ATOM     10  H1  MET A   1     -12.913  11.272  69.088  1.00  0.00     0.000 HD 
ATOM     11  H2  MET A   1     -11.255  11.270  69.379  1.00  0.00     0.000 HD 
ENDBRANCH   4   5
ENDBRANCH   3   4
ENDBRANCH   2   3
TORSDOF 3
ENDMDL
MODEL       69
REMARK 921   NORMALIZED FREE ENERGY PREDICTED BY IDOCK:   -2.57 KCAL/MOL
REMARK 922        TOTAL FREE ENERGY PREDICTED BY IDOCK:   -3.19 KCAL/MOL
REMARK 923 INTER-LIGAND FREE ENERGY PREDICTED BY IDOCK:   -3.12 KCAL/MOL
REMARK 924 INTRA-LIGAND FREE ENERGY PREDICTED BY IDOCK:   -0.07 KCAL/MOL
REMARK 927      BINDING AFFINITY PREDICTED BY RF-SCORE:    0.00 PKD
ROOT
ATOM      1  CE  MET A   1     -12.316  13.892  65.805  1.00  0.00    -0.486 C  
ATOM      2  SD  MET A   1     -10.553  14.070  65.444  1.00  0.00    -0.362 SA 
ENDROOT
BRANCH   2   3
ATOM      3  CG  MET A   1     -10.471  15.888  65.342  1.00  0.00    -0.405 C  
BRANCH   3   4
ATOM      4  CB  MET A   1      -9.823  16.448  66.606  1.00  0.00    -0.272 C  
BRANCH   4   5
ATOM      5  CA  MET A   1      -9.672  17.973  66.584  1.00  0.00    -0.332 C  
ATOM      6  C   MET A   1      -8.179  18.308  66.425  1.00  0.00    -0.251 C  
ATOM      7  N   MET A   1     -10.152  18.604  67.846  1.00  0.00    -0.350 NA 
ATOM      8  O   MET A   1      -7.601  18.563  67.629  1.00  0.00    -0.226 OA 
ATOM      9  OXT MET A   1      -7.571  18.326  65.367  1.00  0.00    -0.434 OA 
ATOM     10  H1  MET A   1     -10.052  19.619  67.831  1.00  0.00     0.000 HD 
ATOM     11  H2  MET A   1      -9.690  18.199  68.660  1.00  0.00     0.000 HD 
ENDBRANCH   4   5
ENDBRANCH   3   4
ENDBRANCH   2   3
TORSDOF 3
ENDMDL
MODEL       70
REMARK 921   NORMALIZED FREE ENERGY PREDICTED BY IDOCK:   -2.56 KCAL/MOL
REMARK 922        TOTAL FREE ENERGY PREDICTED BY IDOCK:   -3.18 KCAL/MOL
REMARK 923 INTER-LIGAND FREE ENERGY PREDICTED BY IDOCK:   -3.09 KCAL/MOL
REMARK 924 INTRA-LIGAND FREE ENERGY PREDICTED BY IDOCK:   -0.09 KCAL/MOL
REMARK 927      BINDING AFFINITY PREDICTED BY RF-SCORE:    0.00 PKD
ROOT
ATOM      1  CE  MET A   1      -8.606  16.683  68.872  1.00  0.00    -0.235 C  
ATOM      2  SD  MET A   1      -8.928  14.904  68.835  1.00  0.00    -0.164 SA 
ENDROOT
BRANCH   2   3
ATOM      3  CG  MET A   1     -10.650  14.944  68.238  1.00  0.00    -0.240 C  
BRANCH   3   4
ATOM      4  CB  MET A   1     -11.512  15.756  69.201  1.00  0.00    -0.383 C  
BRANCH   4   5
ATOM      5  CA  MET A   1     -11.477  15.226  70.639  1.00  0.00    -0.319 C  
ATOM      6  C   MET A   1     -12.421  14.014  70.730  1.00  0.00    -0.372 C  
ATOM      7  N   MET A   1     -11.941  16.243  71.625  1.00  0.00    -0.656 NA 
ATOM      8  O   MET A   1     -13.642  14.376  71.206  1.00  0.00    -0.362 OA 
ATOM      9  OXT MET A   1     -12.135  12.875  70.401  1.00  0.00    -0.361 OA 
ATOM     10  H1  MET A   1     -11.917  15.890  72.582  1.00  0.00     0.000 HD 
ATOM     11  H2  MET A   1     -12.867  16.596  71.384  1.00  0.00     0.000 HD 
ENDBRANCH   4   5
ENDBRANCH   3   4
ENDBRANCH   2   3
TORSDOF 3
ENDMDL
MODEL       71
REMARK 921   NORMALIZED FREE ENERGY PREDICTED BY IDOCK:   -2.56 KCAL/MOL
REMARK 922        TOTAL FREE ENERGY PREDICTED BY IDOCK:   -3.17 KCAL/MOL
REMARK 923 INTER-LIGAND FREE ENERGY PREDICTED BY IDOCK:   -3.08 KCAL/MOL
REMARK 924 INTRA-LIGAND FREE ENERGY PREDICTED BY IDOCK:   -0.10 KCAL/MOL
REMARK 927      BINDING AFFINITY PREDICTED BY RF-SCORE:    0.00 PKD
ROOT
ATOM      1  CE  MET A   1     -11.800  15.983  71.780  1.00  0.00    -0.519 C  
ATOM      2  SD  MET A   1     -12.350  14.751  70.576  1.00  0.00    -0.362 SA 
ENDROOT
BRANCH   2   3
ATOM      3  CG  MET A   1     -11.592  15.464  69.080  1.00  0.00    -0.339 C  
BRANCH   3   4
ATOM      4  CB  MET A   1     -10.633  16.586  69.472  1.00  0.00    -0.321 C  
BRANCH   4   5
ATOM      5  CA  MET A   1     -10.415  17.614  68.355  1.00  0.00    -0.359 C  
ATOM      6  C   MET A   1      -9.063  17.320  67.685  1.00  0.00    -0.228 C  
ATOM      7  N   MET A   1     -10.375  19.010  68.876  1.00  0.00    -0.491 NA 
ATOM      8  O   MET A   1      -8.078  18.105  68.196  1.00  0.00    -0.264 OA 
ATOM      9  OXT MET A   1      -8.875  16.479  66.820  1.00  0.00    -0.194 OA 
ATOM     10  H1  MET A   1     -10.231  19.694  68.133  1.00  0.00     0.000 HD 
ATOM     11  H2  MET A   1      -9.675  19.109  69.611  1.00  0.00     0.000 HD 
ENDBRANCH   4   5
ENDBRANCH   3   4
ENDBRANCH   2   3
TORSDOF 3
ENDMDL
MODEL       72
REMARK 921   NORMALIZED FREE ENERGY PREDICTED BY IDOCK:   -2.55 KCAL/MOL
REMARK 922        TOTAL FREE ENERGY PREDICTED BY IDOCK:   -3.17 KCAL/MOL
REMARK 923 INTER-LIGAND FREE ENERGY PREDICTED BY IDOCK:   -3.02 KCAL/MOL
REMARK 924 INTRA-LIGAND FREE ENERGY PREDICTED BY IDOCK:   -0.15 KCAL/MOL
REMARK 927      BINDING AFFINITY PREDICTED BY RF-SCORE:    0.00 PKD
ROOT
ATOM      1  CE  MET A   1     -10.511  17.514  67.863  1.00  0.00    -0.384 C  
ATOM      2  SD  MET A   1     -10.145  19.102  68.649  1.00  0.00    -0.349 SA 
ENDROOT
BRANCH   2   3
ATOM      3  CG  MET A   1      -9.255  19.897  67.272  1.00  0.00    -0.348 C  
BRANCH   3   4
ATOM      4  CB  MET A   1      -7.987  19.109  66.952  1.00  0.00    -0.273 C  
BRANCH   4   5
ATOM      5  CA  MET A   1      -6.700  19.890  67.238  1.00  0.00    -0.210 C  
ATOM      6  C   MET A   1      -6.159  19.445  68.607  1.00  0.00    -0.233 C  
ATOM      7  N   MET A   1      -6.935  21.361  67.295  1.00  0.00    -0.757 NA 
ATOM      8  O   MET A   1      -6.546  20.299  69.591  1.00  0.00    -0.284 OA 
ATOM      9  OXT MET A   1      -5.486  18.446  68.805  1.00  0.00    -0.181 OA 
ATOM     10  H1  MET A   1      -6.079  21.881  67.484  1.00  0.00     0.000 HD 
ATOM     11  H2  MET A   1      -7.665  21.592  67.969  1.00  0.00     0.000 HD 
ENDBRANCH   4   5
ENDBRANCH   3   4
ENDBRANCH   2   3
TORSDOF 3
ENDMDL
MODEL       73
REMARK 921   NORMALIZED FREE ENERGY PREDICTED BY IDOCK:   -2.55 KCAL/MOL
REMARK 922        TOTAL FREE ENERGY PREDICTED BY IDOCK:   -3.17 KCAL/MOL
REMARK 923 INTER-LIGAND FREE ENERGY PREDICTED BY IDOCK:   -3.12 KCAL/MOL
REMARK 924 INTRA-LIGAND FREE ENERGY PREDICTED BY IDOCK:   -0.05 KCAL/MOL
REMARK 927      BINDING AFFINITY PREDICTED BY RF-SCORE:    0.00 PKD
ROOT
ATOM      1  CE  MET A   1      -9.005   5.857  71.206  1.00  0.00    -0.140 C  
ATOM      2  SD  MET A   1     -10.139   4.875  70.196  1.00  0.00    -0.240 SA 
ENDROOT
BRANCH   2   3
ATOM      3  CG  MET A   1     -11.315   6.188  69.737  1.00  0.00    -0.382 C  
BRANCH   3   4
ATOM      4  CB  MET A   1     -11.260   7.314  70.767  1.00  0.00    -0.300 C  
BRANCH   4   5
ATOM      5  CA  MET A   1     -12.178   7.077  71.972  1.00  0.00    -0.282 C  
ATOM      6  C   MET A   1     -13.444   7.930  71.790  1.00  0.00    -0.335 C  
ATOM      7  N   MET A   1     -11.535   7.477  73.255  1.00  0.00    -0.632 NA 
ATOM      8  O   MET A   1     -13.348   9.105  72.468  1.00  0.00    -0.458 OA 
ATOM      9  OXT MET A   1     -14.409   7.620  71.112  1.00  0.00    -0.352 OA 
ATOM     10  H1  MET A   1     -12.145   7.319  74.057  1.00  0.00     0.000 HD 
ATOM     11  H2  MET A   1     -11.213   8.445  73.221  1.00  0.00     0.000 HD 
ENDBRANCH   4   5
ENDBRANCH   3   4
ENDBRANCH   2   3
TORSDOF 3
ENDMDL
MODEL       74
REMARK 921   NORMALIZED FREE ENERGY PREDICTED BY IDOCK:   -2.55 KCAL/MOL
REMARK 922        TOTAL FREE ENERGY PREDICTED BY IDOCK:   -3.17 KCAL/MOL
REMARK 923 INTER-LIGAND FREE ENERGY PREDICTED BY IDOCK:   -3.04 KCAL/MOL
REMARK 924 INTRA-LIGAND FREE ENERGY PREDICTED BY IDOCK:   -0.13 KCAL/MOL
REMARK 927      BINDING AFFINITY PREDICTED BY RF-SCORE:    0.00 PKD
ROOT
ATOM      1  CE  MET A   1     -10.448  12.043  63.414  1.00  0.00    -0.433 C  
ATOM      2  SD  MET A   1     -12.253  12.154  63.462  1.00  0.00    -0.533 SA 
ENDROOT
BRANCH   2   3
ATOM      3  CG  MET A   1     -12.438  13.010  65.060  1.00  0.00    -0.477 C  
BRANCH   3   4
ATOM      4  CB  MET A   1     -11.192  12.787  65.913  1.00  0.00    -0.334 C  
BRANCH   4   5
ATOM      5  CA  MET A   1     -11.370  11.691  66.969  1.00  0.00    -0.305 C  
ATOM      6  C   MET A   1     -11.014  12.282  68.344  1.00  0.00    -0.236 C  
ATOM      7  N   MET A   1     -10.474  10.525  66.726  1.00  0.00    -0.247 NA 
ATOM      8  O   MET A   1      -9.731  11.994  68.687  1.00  0.00    -0.183 OA 
ATOM      9  OXT MET A   1     -11.766  12.945  69.040  1.00  0.00    -0.291 OA 
ATOM     10  H1  MET A   1     -10.593   9.795  67.429  1.00  0.00     0.000 HD 
ATOM     11  H2  MET A   1      -9.498  10.817  66.658  1.00  0.00     0.000 HD 
ENDBRANCH   4   5
ENDBRANCH   3   4
ENDBRANCH   2   3
TORSDOF 3
ENDMDL
MODEL       75
REMARK 921   NORMALIZED FREE ENERGY PREDICTED BY IDOCK:   -2.55 KCAL/MOL
REMARK 922        TOTAL FREE ENERGY PREDICTED BY IDOCK:   -3.16 KCAL/MOL
REMARK 923 INTER-LIGAND FREE ENERGY PREDICTED BY IDOCK:   -3.01 KCAL/MOL
REMARK 924 INTRA-LIGAND FREE ENERGY PREDICTED BY IDOCK:   -0.16 KCAL/MOL
REMARK 927      BINDING AFFINITY PREDICTED BY RF-SCORE:    0.00 PKD
ROOT
ATOM      1  CE  MET A   1      -6.235  17.970  68.322  1.00  0.00    -0.183 C  
ATOM      2  SD  MET A   1      -6.278  19.427  67.251  1.00  0.00    -0.185 SA 
ENDROOT
BRANCH   2   3
ATOM      3  CG  MET A   1      -7.908  20.082  67.734  1.00  0.00    -0.295 C  
BRANCH   3   4
ATOM      4  CB  MET A   1      -8.699  19.006  68.475  1.00  0.00    -0.392 C  
BRANCH   4   5
ATOM      5  CA  MET A   1     -10.111  18.798  67.914  1.00  0.00    -0.366 C  
ATOM      6  C   MET A   1     -10.100  17.539  67.032  1.00  0.00    -0.323 C  
ATOM      7  N   MET A   1     -10.555  19.944  67.072  1.00  0.00    -0.442 NA 
ATOM      8  O   MET A   1      -9.945  17.858  65.720  1.00  0.00    -0.551 OA 
ATOM      9  OXT MET A   1     -10.195  16.393  67.442  1.00  0.00    -0.268 OA 
ATOM     10  H1  MET A   1     -11.495  19.806  66.699  1.00  0.00     0.000 HD 
ATOM     11  H2  MET A   1      -9.886  20.135  66.326  1.00  0.00     0.000 HD 
ENDBRANCH   4   5
ENDBRANCH   3   4
ENDBRANCH   2   3
TORSDOF 3
ENDMDL
MODEL       76
REMARK 921   NORMALIZED FREE ENERGY PREDICTED BY IDOCK:   -2.52 KCAL/MOL
REMARK 922        TOTAL FREE ENERGY PREDICTED BY IDOCK:   -3.14 KCAL/MOL
REMARK 923 INTER-LIGAND FREE ENERGY PREDICTED BY IDOCK:   -3.33 KCAL/MOL
REMARK 924 INTRA-LIGAND FREE ENERGY PREDICTED BY IDOCK:    0.19 KCAL/MOL
REMARK 927      BINDING AFFINITY PREDICTED BY RF-SCORE:    0.00 PKD
ROOT
ATOM      1  CE  MET A   1      -9.978  17.237  68.635  1.00  0.00    -0.327 C  
ATOM      2  SD  MET A   1      -8.228  16.812  68.804  1.00  0.00    -0.233 SA 
ENDROOT
BRANCH   2   3
ATOM      3  CG  MET A   1      -7.527  18.493  68.768  1.00  0.00    -0.286 C  
BRANCH   3   4
ATOM      4  CB  MET A   1      -8.544  19.465  68.174  1.00  0.00    -0.374 C  
BRANCH   4   5
ATOM      5  CA  MET A   1      -8.082  20.095  66.856  1.00  0.00    -0.317 C  
ATOM      6  C   MET A   1      -7.128  19.110  66.159  1.00  0.00    -0.252 C  
ATOM      7  N   MET A   1      -7.345  21.372  67.071  1.00  0.00    -0.834 NA 
ATOM      8  O   MET A   1      -5.829  19.415  66.419  1.00  0.00    -0.165 OA 
ATOM      9  OXT MET A   1      -7.475  18.160  65.476  1.00  0.00    -0.540 OA 
ATOM     10  H1  MET A   1      -7.037  21.791  66.193  1.00  0.00     0.000 HD 
ATOM     11  H2  MET A   1      -6.563  21.244  67.713  1.00  0.00     0.000 HD 
ENDBRANCH   4   5
ENDBRANCH   3   4
ENDBRANCH   2   3
TORSDOF 3
ENDMDL
MODEL       77
REMARK 921   NORMALIZED FREE ENERGY PREDICTED BY IDOCK:   -2.52 KCAL/MOL
REMARK 922        TOTAL FREE ENERGY PREDICTED BY IDOCK:   -3.14 KCAL/MOL
REMARK 923 INTER-LIGAND FREE ENERGY PREDICTED BY IDOCK:   -3.07 KCAL/MOL
REMARK 924 INTRA-LIGAND FREE ENERGY PREDICTED BY IDOCK:   -0.07 KCAL/MOL
REMARK 927      BINDING AFFINITY PREDICTED BY RF-SCORE:    0.00 PKD
ROOT
ATOM      1  CE  MET A   1      -9.881   4.559  69.577  1.00  0.00    -0.207 C  
ATOM      2  SD  MET A   1     -10.662   6.036  68.885  1.00  0.00    -0.326 SA 
ENDROOT
BRANCH   2   3
ATOM      3  CG  MET A   1     -11.688   6.506  70.317  1.00  0.00    -0.366 C  
BRANCH   3   4
ATOM      4  CB  MET A   1     -10.872   6.380  71.601  1.00  0.00    -0.291 C  
BRANCH   4   5
ATOM      5  CA  MET A   1     -11.045   7.572  72.548  1.00  0.00    -0.321 C  
ATOM      6  C   MET A   1     -10.089   8.689  72.097  1.00  0.00    -0.318 C  
ATOM      7  N   MET A   1     -10.710   7.224  73.958  1.00  0.00    -0.572 NA 
ATOM      8  O   MET A   1      -8.932   8.667  72.811  1.00  0.00    -0.356 OA 
ATOM      9  OXT MET A   1     -10.313   9.487  71.201  1.00  0.00    -0.308 OA 
ATOM     10  H1  MET A   1     -10.825   8.018  74.588  1.00  0.00     0.000 HD 
ATOM     11  H2  MET A   1      -9.771   6.830  74.028  1.00  0.00     0.000 HD 
ENDBRANCH   4   5
ENDBRANCH   3   4
ENDBRANCH   2   3
TORSDOF 3
ENDMDL
MODEL       78
REMARK 921   NORMALIZED FREE ENERGY PREDICTED BY IDOCK:   -2.52 KCAL/MOL
REMARK 922        TOTAL FREE ENERGY PREDICTED BY IDOCK:   -3.13 KCAL/MOL
REMARK 923 INTER-LIGAND FREE ENERGY PREDICTED BY IDOCK:   -2.94 KCAL/MOL
REMARK 924 INTRA-LIGAND FREE ENERGY PREDICTED BY IDOCK:   -0.20 KCAL/MOL
REMARK 927      BINDING AFFINITY PREDICTED BY RF-SCORE:    0.00 PKD
ROOT
ATOM      1  CE  MET A   1     -10.451  17.958  67.061  1.00  0.00    -0.340 C  
ATOM      2  SD  MET A   1     -10.470  19.594  66.290  1.00  0.00    -0.510 SA 
ENDROOT
BRANCH   2   3
ATOM      3  CG  MET A   1      -9.062  20.338  67.176  1.00  0.00    -0.378 C  
BRANCH   3   4
ATOM      4  CB  MET A   1      -8.332  19.264  67.979  1.00  0.00    -0.350 C  
BRANCH   4   5
ATOM      5  CA  MET A   1      -6.851  19.130  67.605  1.00  0.00    -0.215 C  
ATOM      6  C   MET A   1      -6.739  18.151  66.424  1.00  0.00    -0.228 C  
ATOM      7  N   MET A   1      -6.034  18.590  68.728  1.00  0.00    -0.204 NA 
ATOM      8  O   MET A   1      -6.440  16.896  66.852  1.00  0.00    -0.178 OA 
ATOM      9  OXT MET A   1      -6.913  18.441  65.252  1.00  0.00    -0.534 OA 
ATOM     10  H1  MET A   1      -5.049  18.501  68.479  1.00  0.00     0.000 HD 
ATOM     11  H2  MET A   1      -6.411  17.704  69.066  1.00  0.00     0.000 HD 
ENDBRANCH   4   5
ENDBRANCH   3   4
ENDBRANCH   2   3
TORSDOF 3
ENDMDL
MODEL       79
REMARK 921   NORMALIZED FREE ENERGY PREDICTED BY IDOCK:   -2.52 KCAL/MOL
REMARK 922        TOTAL FREE ENERGY PREDICTED BY IDOCK:   -3.13 KCAL/MOL
REMARK 923 INTER-LIGAND FREE ENERGY PREDICTED BY IDOCK:   -3.07 KCAL/MOL
REMARK 924 INTRA-LIGAND FREE ENERGY PREDICTED BY IDOCK:   -0.06 KCAL/MOL
REMARK 927      BINDING AFFINITY PREDICTED BY RF-SCORE:    0.00 PKD
ROOT
ATOM      1  CE  MET A   1      -8.973  10.741  68.210  1.00  0.00    -0.143 C  
ATOM      2  SD  MET A   1     -10.684  10.671  68.792  1.00  0.00    -0.234 SA 
ENDROOT
BRANCH   2   3
ATOM      3  CG  MET A   1     -11.425  11.857  67.624  1.00  0.00    -0.317 C  
BRANCH   3   4
ATOM      4  CB  MET A   1     -10.974  11.532  66.201  1.00  0.00    -0.320 C  
BRANCH   4   5
ATOM      5  CA  MET A   1     -11.670  12.387  65.136  1.00  0.00    -0.382 C  
ATOM      6  C   MET A   1     -10.588  13.049  64.266  1.00  0.00    -0.412 C  
ATOM      7  N   MET A   1     -12.501  13.468  65.736  1.00  0.00    -0.468 NA 
ATOM      8  O   MET A   1     -10.325  14.315  64.686  1.00  0.00    -0.417 OA 
ATOM      9  OXT MET A   1     -10.015  12.515  63.330  1.00  0.00    -0.380 OA 
ATOM     10  H1  MET A   1     -12.965  14.036  65.027  1.00  0.00     0.000 HD 
ATOM     11  H2  MET A   1     -11.951  14.046  66.372  1.00  0.00     0.000 HD 
ENDBRANCH   4   5
ENDBRANCH   3   4
ENDBRANCH   2   3
TORSDOF 3
ENDMDL
MODEL       80
REMARK 921   NORMALIZED FREE ENERGY PREDICTED BY IDOCK:   -2.51 KCAL/MOL
REMARK 922        TOTAL FREE ENERGY PREDICTED BY IDOCK:   -3.12 KCAL/MOL
REMARK 923 INTER-LIGAND FREE ENERGY PREDICTED BY IDOCK:   -3.02 KCAL/MOL
REMARK 924 INTRA-LIGAND FREE ENERGY PREDICTED BY IDOCK:   -0.10 KCAL/MOL
REMARK 927      BINDING AFFINITY PREDICTED BY RF-SCORE:    0.00 PKD
ROOT
ATOM      1  CE  MET A   1     -12.157  14.115  69.627  1.00  0.00    -0.349 C  
ATOM      2  SD  MET A   1     -11.329  15.624  70.182  1.00  0.00    -0.380 SA 
ENDROOT
BRANCH   2   3
ATOM      3  CG  MET A   1     -10.914  16.330  68.554  1.00  0.00    -0.345 C  
BRANCH   3   4
ATOM      4  CB  MET A   1     -10.391  17.754  68.727  1.00  0.00    -0.332 C  
BRANCH   4   5
ATOM      5  CA  MET A   1      -8.975  17.949  68.174  1.00  0.00    -0.268 C  
ATOM      6  C   MET A   1      -9.087  18.497  66.741  1.00  0.00    -0.297 C  
ATOM      7  N   MET A   1      -8.211  16.671  68.118  1.00  0.00    -0.186 NA 
ATOM      8  O   MET A   1      -8.990  17.498  65.824  1.00  0.00    -0.512 OA 
ATOM      9  OXT MET A   1      -9.263  19.668  66.448  1.00  0.00    -0.349 OA 
ATOM     10  H1  MET A   1      -7.269  16.801  67.751  1.00  0.00     0.000 HD 
ATOM     11  H2  MET A   1      -8.719  15.960  67.590  1.00  0.00     0.000 HD 
ENDBRANCH   4   5
ENDBRANCH   3   4
ENDBRANCH   2   3
TORSDOF 3
ENDMDL
MODEL       81
REMARK 921   NORMALIZED FREE ENERGY PREDICTED BY IDOCK:   -2.51 KCAL/MOL
REMARK 922        TOTAL FREE ENERGY PREDICTED BY IDOCK:   -3.12 KCAL/MOL
REMARK 923 INTER-LIGAND FREE ENERGY PREDICTED BY IDOCK:   -3.34 KCAL/MOL
REMARK 924 INTRA-LIGAND FREE ENERGY PREDICTED BY IDOCK:    0.22 KCAL/MOL
REMARK 927      BINDING AFFINITY PREDICTED BY RF-SCORE:    0.00 PKD
ROOT
ATOM      1  CE  MET A   1     -11.346  15.895  71.815  1.00  0.00    -0.251 C  
ATOM      2  SD  MET A   1     -12.361  14.549  71.161  1.00  0.00    -0.367 SA 
ENDROOT
BRANCH   2   3
ATOM      3  CG  MET A   1     -11.802  14.593  69.427  1.00  0.00    -0.329 C  
BRANCH   3   4
ATOM      4  CB  MET A   1     -12.004  13.224  68.784  1.00  0.00    -0.335 C  
BRANCH   4   5
ATOM      5  CA  MET A   1     -11.288  13.076  67.436  1.00  0.00    -0.305 C  
ATOM      6  C   MET A   1     -11.692  14.261  66.543  1.00  0.00    -0.394 C  
ATOM      7  N   MET A   1     -11.668  11.820  66.731  1.00  0.00    -0.571 NA 
ATOM      8  O   MET A   1     -12.708  13.922  65.706  1.00  0.00    -0.504 OA 
ATOM      9  OXT MET A   1     -11.191  15.373  66.582  1.00  0.00    -0.284 OA 
ATOM     10  H1  MET A   1     -11.191  11.722  65.835  1.00  0.00     0.000 HD 
ATOM     11  H2  MET A   1     -12.680  11.750  66.621  1.00  0.00     0.000 HD 
ENDBRANCH   4   5
ENDBRANCH   3   4
ENDBRANCH   2   3
TORSDOF 3
ENDMDL
MODEL       82
REMARK 921   NORMALIZED FREE ENERGY PREDICTED BY IDOCK:   -2.50 KCAL/MOL
REMARK 922        TOTAL FREE ENERGY PREDICTED BY IDOCK:   -3.11 KCAL/MOL
REMARK 923 INTER-LIGAND FREE ENERGY PREDICTED BY IDOCK:   -3.14 KCAL/MOL
REMARK 924 INTRA-LIGAND FREE ENERGY PREDICTED BY IDOCK:    0.03 KCAL/MOL
REMARK 927      BINDING AFFINITY PREDICTED BY RF-SCORE:    0.00 PKD
ROOT
ATOM      1  CE  MET A   1     -12.247  11.468  70.254  1.00  0.00    -0.332 C  
ATOM      2  SD  MET A   1     -10.975  10.209  69.996  1.00  0.00    -0.325 SA 
ENDROOT
BRANCH   2   3
ATOM      3  CG  MET A   1     -11.004   9.440  71.648  1.00  0.00    -0.312 C  
BRANCH   3   4
ATOM      4  CB  MET A   1     -10.050   8.248  71.681  1.00  0.00    -0.279 C  
BRANCH   4   5
ATOM      5  CA  MET A   1     -10.749   6.922  72.001  1.00  0.00    -0.216 C  
ATOM      6  C   MET A   1     -11.760   6.626  70.881  1.00  0.00    -0.375 C  
ATOM      7  N   MET A   1     -11.495   6.976  73.290  1.00  0.00    -0.493 NA 
ATOM      8  O   MET A   1     -13.011   7.029  71.228  1.00  0.00    -0.378 OA 
ATOM      9  OXT MET A   1     -11.488   6.116  69.806  1.00  0.00    -0.433 OA 
ATOM     10  H1  MET A   1     -11.959   6.094  73.503  1.00  0.00     0.000 HD 
ATOM     11  H2  MET A   1     -12.156   7.754  73.301  1.00  0.00     0.000 HD 
ENDBRANCH   4   5
ENDBRANCH   3   4
ENDBRANCH   2   3
TORSDOF 3
ENDMDL
MODEL       83
REMARK 921   NORMALIZED FREE ENERGY PREDICTED BY IDOCK:   -2.50 KCAL/MOL
REMARK 922        TOTAL FREE ENERGY PREDICTED BY IDOCK:   -3.11 KCAL/MOL
REMARK 923 INTER-LIGAND FREE ENERGY PREDICTED BY IDOCK:   -3.01 KCAL/MOL
REMARK 924 INTRA-LIGAND FREE ENERGY PREDICTED BY IDOCK:   -0.10 KCAL/MOL
REMARK 927      BINDING AFFINITY PREDICTED BY RF-SCORE:    0.00 PKD
ROOT
ATOM      1  CE  MET A   1      -9.672   5.035  70.256  1.00  0.00    -0.215 C  
ATOM      2  SD  MET A   1     -10.749   5.597  71.596  1.00  0.00    -0.233 SA 
ENDROOT
BRANCH   2   3
ATOM      3  CG  MET A   1     -11.634   6.919  70.708  1.00  0.00    -0.349 C  
BRANCH   3   4
ATOM      4  CB  MET A   1     -12.248   7.893  71.710  1.00  0.00    -0.344 C  
BRANCH   4   5
ATOM      5  CA  MET A   1     -11.489   9.221  71.806  1.00  0.00    -0.378 C  
ATOM      6  C   MET A   1     -12.423  10.347  71.330  1.00  0.00    -0.415 C  
ATOM      7  N   MET A   1     -10.273   9.238  70.944  1.00  0.00    -0.278 NA 
ATOM      8  O   MET A   1     -12.199  10.653  70.024  1.00  0.00    -0.304 OA 
ATOM      9  OXT MET A   1     -13.274  10.890  72.014  1.00  0.00    -0.492 OA 
ATOM     10  H1  MET A   1      -9.768  10.122  71.009  1.00  0.00     0.000 HD 
ATOM     11  H2  MET A   1     -10.504   9.014  69.976  1.00  0.00     0.000 HD 
ENDBRANCH   4   5
ENDBRANCH   3   4
ENDBRANCH   2   3
TORSDOF 3
ENDMDL
MODEL       84
REMARK 921   NORMALIZED FREE ENERGY PREDICTED BY IDOCK:   -2.50 KCAL/MOL
REMARK 922        TOTAL FREE ENERGY PREDICTED BY IDOCK:   -3.11 KCAL/MOL
REMARK 923 INTER-LIGAND FREE ENERGY PREDICTED BY IDOCK:   -3.04 KCAL/MOL
REMARK 924 INTRA-LIGAND FREE ENERGY PREDICTED BY IDOCK:   -0.07 KCAL/MOL
REMARK 927      BINDING AFFINITY PREDICTED BY RF-SCORE:    0.00 PKD
ROOT
ATOM      1  CE  MET A   1     -10.565   9.432  67.425  1.00  0.00    -0.258 C  
ATOM      2  SD  MET A   1      -9.705   9.939  65.916  1.00  0.00    -0.280 SA 
ENDROOT
BRANCH   2   3
ATOM      3  CG  MET A   1     -10.835  11.265  65.382  1.00  0.00    -0.188 C  
BRANCH   3   4
ATOM      4  CB  MET A   1     -10.162  12.623  65.565  1.00  0.00    -0.298 C  
BRANCH   4   5
ATOM      5  CA  MET A   1     -11.074  13.669  66.215  1.00  0.00    -0.301 C  
ATOM      6  C   MET A   1     -11.817  14.422  65.099  1.00  0.00    -0.386 C  
ATOM      7  N   MET A   1     -10.307  14.668  67.011  1.00  0.00    -0.261 NA 
ATOM      8  O   MET A   1     -11.192  15.589  64.792  1.00  0.00    -0.422 OA 
ATOM      9  OXT MET A   1     -12.826  14.028  64.537  1.00  0.00    -0.644 OA 
ATOM     10  H1  MET A   1     -10.914  15.364  67.444  1.00  0.00     0.000 HD 
ATOM     11  H2  MET A   1      -9.581  15.111  66.446  1.00  0.00     0.000 HD 
ENDBRANCH   4   5
ENDBRANCH   3   4
ENDBRANCH   2   3
TORSDOF 3
ENDMDL
MODEL       85
REMARK 921   NORMALIZED FREE ENERGY PREDICTED BY IDOCK:   -2.48 KCAL/MOL
REMARK 922        TOTAL FREE ENERGY PREDICTED BY IDOCK:   -3.09 KCAL/MOL
REMARK 923 INTER-LIGAND FREE ENERGY PREDICTED BY IDOCK:   -2.98 KCAL/MOL
REMARK 924 INTRA-LIGAND FREE ENERGY PREDICTED BY IDOCK:   -0.11 KCAL/MOL
REMARK 927      BINDING AFFINITY PREDICTED BY RF-SCORE:    0.00 PKD
ROOT
ATOM      1  CE  MET A   1     -11.320   4.884  73.574  1.00  0.00    -0.222 C  
ATOM      2  SD  MET A   1     -10.261   4.961  72.110  1.00  0.00    -0.197 SA 
ENDROOT
BRANCH   2   3
ATOM      3  CG  MET A   1     -11.062   6.359  71.258  1.00  0.00    -0.282 C  
BRANCH   3   4
ATOM      4  CB  MET A   1     -12.149   6.954  72.150  1.00  0.00    -0.278 C  
BRANCH   4   5
ATOM      5  CA  MET A   1     -11.941   8.443  72.446  1.00  0.00    -0.384 C  
ATOM      6  C   MET A   1     -13.236   9.192  72.087  1.00  0.00    -0.458 C  
ATOM      7  N   MET A   1     -10.834   9.028  71.637  1.00  0.00    -0.344 NA 
ATOM      8  O   MET A   1     -13.164   9.731  70.842  1.00  0.00    -0.315 OA 
ATOM      9  OXT MET A   1     -14.217   9.281  72.806  1.00  0.00    -0.502 OA 
ATOM     10  H1  MET A   1     -10.696  10.019  71.834  1.00  0.00     0.000 HD 
ATOM     11  H2  MET A   1     -10.980   8.866  70.640  1.00  0.00     0.000 HD 
ENDBRANCH   4   5
ENDBRANCH   3   4
ENDBRANCH   2   3
TORSDOF 3
ENDMDL
MODEL       86
REMARK 921   NORMALIZED FREE ENERGY PREDICTED BY IDOCK:   -2.47 KCAL/MOL
REMARK 922        TOTAL FREE ENERGY PREDICTED BY IDOCK:   -3.08 KCAL/MOL
REMARK 923 INTER-LIGAND FREE ENERGY PREDICTED BY IDOCK:   -2.96 KCAL/MOL
REMARK 924 INTRA-LIGAND FREE ENERGY PREDICTED BY IDOCK:   -0.12 KCAL/MOL
REMARK 927      BINDING AFFINITY PREDICTED BY RF-SCORE:    0.00 PKD
ROOT
ATOM      1  CE  MET A   1      -5.717  19.667  68.207  1.00  0.00    -0.210 C  
ATOM      2  SD  MET A   1      -6.483  20.977  67.222  1.00  0.00    -0.368 SA 
ENDROOT
BRANCH   2   3
ATOM      3  CG  MET A   1      -7.818  20.003  66.453  1.00  0.00    -0.300 C  
BRANCH   3   4
ATOM      4  CB  MET A   1      -8.618  19.279  67.533  1.00  0.00    -0.325 C  
BRANCH   4   5
ATOM      5  CA  MET A   1      -8.739  17.771  67.286  1.00  0.00    -0.237 C  
ATOM      6  C   MET A   1     -10.142  17.484  66.725  1.00  0.00    -0.320 C  
ATOM      7  N   MET A   1      -8.577  16.981  68.540  1.00  0.00    -0.249 NA 
ATOM      8  O   MET A   1     -10.996  17.094  67.708  1.00  0.00    -0.315 OA 
ATOM      9  OXT MET A   1     -10.469  17.607  65.556  1.00  0.00    -0.636 OA 
ATOM     10  H1  MET A   1      -8.658  15.978  68.376  1.00  0.00     0.000 HD 
ATOM     11  H2  MET A   1      -9.231  17.292  69.259  1.00  0.00     0.000 HD 
ENDBRANCH   4   5
ENDBRANCH   3   4
ENDBRANCH   2   3
TORSDOF 3
ENDMDL
MODEL       87
REMARK 921   NORMALIZED FREE ENERGY PREDICTED BY IDOCK:   -2.47 KCAL/MOL
REMARK 922        TOTAL FREE ENERGY PREDICTED BY IDOCK:   -3.07 KCAL/MOL
REMARK 923 INTER-LIGAND FREE ENERGY PREDICTED BY IDOCK:   -3.01 KCAL/MOL
REMARK 924 INTRA-LIGAND FREE ENERGY PREDICTED BY IDOCK:   -0.06 KCAL/MOL
REMARK 927      BINDING AFFINITY PREDICTED BY RF-SCORE:    0.00 PKD
ROOT
ATOM      1  CE  MET A   1      -9.475  14.961  66.891  1.00  0.00    -0.237 C  
ATOM      2  SD  MET A   1      -9.259  13.612  68.077  1.00  0.00    -0.202 SA 
ENDROOT
BRANCH   2   3
ATOM      3  CG  MET A   1     -10.845  12.754  67.816  1.00  0.00    -0.225 C  
BRANCH   3   4
ATOM      4  CB  MET A   1     -11.562  12.575  69.152  1.00  0.00    -0.375 C  
BRANCH   4   5
ATOM      5  CA  MET A   1     -12.264  11.219  69.286  1.00  0.00    -0.222 C  
ATOM      6  C   MET A   1     -12.063  10.710  70.723  1.00  0.00    -0.374 C  
ATOM      7  N   MET A   1     -11.702  10.200  68.355  1.00  0.00    -0.667 NA 
ATOM      8  O   MET A   1     -11.018   9.844  70.796  1.00  0.00    -0.307 OA 
ATOM      9  OXT MET A   1     -12.730  11.047  71.688  1.00  0.00    -0.402 OA 
ATOM     10  H1  MET A   1     -12.170   9.298  68.444  1.00  0.00     0.000 HD 
ATOM     11  H2  MET A   1     -10.693  10.107  68.476  1.00  0.00     0.000 HD 
ENDBRANCH   4   5
ENDBRANCH   3   4
ENDBRANCH   2   3
TORSDOF 3
ENDMDL
MODEL       88
REMARK 921   NORMALIZED FREE ENERGY PREDICTED BY IDOCK:   -2.46 KCAL/MOL
REMARK 922        TOTAL FREE ENERGY PREDICTED BY IDOCK:   -3.06 KCAL/MOL
REMARK 923 INTER-LIGAND FREE ENERGY PREDICTED BY IDOCK:   -2.94 KCAL/MOL
REMARK 924 INTRA-LIGAND FREE ENERGY PREDICTED BY IDOCK:   -0.12 KCAL/MOL
REMARK 927      BINDING AFFINITY PREDICTED BY RF-SCORE:    0.00 PKD
ROOT
ATOM      1  CE  MET A   1      -9.216   4.641  72.341  1.00  0.00    -0.125 C  
ATOM      2  SD  MET A   1     -10.872   5.108  72.898  1.00  0.00    -0.288 SA 
ENDROOT
BRANCH   2   3
ATOM      3  CG  MET A   1     -10.423   6.524  73.953  1.00  0.00    -0.308 C  
BRANCH   3   4
ATOM      4  CB  MET A   1     -10.450   7.810  73.131  1.00  0.00    -0.413 C  
BRANCH   4   5
ATOM      5  CA  MET A   1     -11.650   7.896  72.181  1.00  0.00    -0.328 C  
ATOM      6  C   MET A   1     -11.241   8.743  70.963  1.00  0.00    -0.273 C  
ATOM      7  N   MET A   1     -12.827   8.550  72.819  1.00  0.00    -0.626 NA 
ATOM      8  O   MET A   1     -11.637  10.035  71.107  1.00  0.00    -0.355 OA 
ATOM      9  OXT MET A   1     -10.623   8.329  69.996  1.00  0.00    -0.228 OA 
ATOM     10  H1  MET A   1     -13.625   8.607  72.187  1.00  0.00     0.000 HD 
ATOM     11  H2  MET A   1     -12.583   9.468  73.191  1.00  0.00     0.000 HD 
ENDBRANCH   4   5
ENDBRANCH   3   4
ENDBRANCH   2   3
TORSDOF 3
ENDMDL
MODEL       89
REMARK 921   NORMALIZED FREE ENERGY PREDICTED BY IDOCK:   -2.46 KCAL/MOL
REMARK 922        TOTAL FREE ENERGY PREDICTED BY IDOCK:   -3.06 KCAL/MOL
REMARK 923 INTER-LIGAND FREE ENERGY PREDICTED BY IDOCK:   -2.95 KCAL/MOL
REMARK 924 INTRA-LIGAND FREE ENERGY PREDICTED BY IDOCK:   -0.11 KCAL/MOL
REMARK 927      BINDING AFFINITY PREDICTED BY RF-SCORE:    0.00 PKD
ROOT
ATOM      1  CE  MET A   1      -8.664   5.192  69.797  1.00  0.00    -0.099 C  
ATOM      2  SD  MET A   1      -9.312   6.704  69.045  1.00  0.00    -0.132 SA 
ENDROOT
BRANCH   2   3
ATOM      3  CG  MET A   1     -11.079   6.261  69.004  1.00  0.00    -0.378 C  
BRANCH   3   4
ATOM      4  CB  MET A   1     -11.751   6.697  70.304  1.00  0.00    -0.432 C  
BRANCH   4   5
ATOM      5  CA  MET A   1     -11.205   8.019  70.854  1.00  0.00    -0.266 C  
ATOM      6  C   MET A   1     -11.538   8.092  72.354  1.00  0.00    -0.399 C  
ATOM      7  N   MET A   1     -11.822   9.202  70.190  1.00  0.00    -0.460 NA 
ATOM      8  O   MET A   1     -12.672   8.810  72.573  1.00  0.00    -0.396 OA 
ATOM      9  OXT MET A   1     -10.892   7.563  73.244  1.00  0.00    -0.386 OA 
ATOM     10  H1  MET A   1     -11.458  10.082  70.556  1.00  0.00     0.000 HD 
ATOM     11  H2  MET A   1     -12.840   9.170  70.249  1.00  0.00     0.000 HD 
ENDBRANCH   4   5
ENDBRANCH   3   4
ENDBRANCH   2   3
TORSDOF 3
ENDMDL
MODEL       90
REMARK 921   NORMALIZED FREE ENERGY PREDICTED BY IDOCK:   -2.46 KCAL/MOL
REMARK 922        TOTAL FREE ENERGY PREDICTED BY IDOCK:   -3.06 KCAL/MOL
REMARK 923 INTER-LIGAND FREE ENERGY PREDICTED BY IDOCK:   -2.94 KCAL/MOL
REMARK 924 INTRA-LIGAND FREE ENERGY PREDICTED BY IDOCK:   -0.12 KCAL/MOL
REMARK 927      BINDING AFFINITY PREDICTED BY RF-SCORE:    0.00 PKD
ROOT
ATOM      1  CE  MET A   1     -12.363   9.602  71.464  1.00  0.00    -0.390 C  
ATOM      2  SD  MET A   1     -10.901   8.659  70.971  1.00  0.00    -0.265 SA 
ENDROOT
BRANCH   2   3
ATOM      3  CG  MET A   1     -10.660   9.366  69.309  1.00  0.00    -0.225 C  
BRANCH   3   4
ATOM      4  CB  MET A   1     -11.535  10.606  69.142  1.00  0.00    -0.349 C  
BRANCH   4   5
ATOM      5  CA  MET A   1     -10.773  11.813  68.584  1.00  0.00    -0.220 C  
ATOM      6  C   MET A   1     -10.948  11.831  67.057  1.00  0.00    -0.285 C  
ATOM      7  N   MET A   1      -9.313  11.742  68.878  1.00  0.00    -0.406 NA 
ATOM      8  O   MET A   1      -9.890  11.249  66.433  1.00  0.00    -0.201 OA 
ATOM      9  OXT MET A   1     -11.914  12.285  66.466  1.00  0.00    -0.596 OA 
ATOM     10  H1  MET A   1      -8.807  12.546  68.507  1.00  0.00     0.000 HD 
ATOM     11  H2  MET A   1      -8.912  10.866  68.543  1.00  0.00     0.000 HD 
ENDBRANCH   4   5
ENDBRANCH   3   4
ENDBRANCH   2   3
TORSDOF 3
ENDMDL
MODEL       91
REMARK 921   NORMALIZED FREE ENERGY PREDICTED BY IDOCK:   -2.44 KCAL/MOL
REMARK 922        TOTAL FREE ENERGY PREDICTED BY IDOCK:   -3.04 KCAL/MOL
REMARK 923 INTER-LIGAND FREE ENERGY PREDICTED BY IDOCK:   -2.95 KCAL/MOL
REMARK 924 INTRA-LIGAND FREE ENERGY PREDICTED BY IDOCK:   -0.10 KCAL/MOL
REMARK 927      BINDING AFFINITY PREDICTED BY RF-SCORE:    0.00 PKD
ROOT
ATOM      1  CE  MET A   1      -9.788  16.789  66.506  1.00  0.00    -0.290 C  
ATOM      2  SD  MET A   1      -9.911  15.521  67.789  1.00  0.00    -0.213 SA 
ENDROOT
BRANCH   2   3
ATOM      3  CG  MET A   1     -10.994  14.344  66.917  1.00  0.00    -0.308 C  
BRANCH   3   4
ATOM      4  CB  MET A   1     -11.974  13.713  67.904  1.00  0.00    -0.382 C  
BRANCH   4   5
ATOM      5  CA  MET A   1     -11.315  12.701  68.847  1.00  0.00    -0.297 C  
ATOM      6  C   MET A   1     -11.862  11.303  68.514  1.00  0.00    -0.285 C  
ATOM      7  N   MET A   1     -11.621  12.984  70.278  1.00  0.00    -0.529 NA 
ATOM      8  O   MET A   1     -12.885  10.964  69.343  1.00  0.00    -0.201 OA 
ATOM      9  OXT MET A   1     -11.457  10.586  67.613  1.00  0.00    -0.444 OA 
ATOM     10  H1  MET A   1     -11.181  12.310  70.906  1.00  0.00     0.000 HD 
ATOM     11  H2  MET A   1     -12.627  13.036  70.437  1.00  0.00     0.000 HD 
ENDBRANCH   4   5
ENDBRANCH   3   4
ENDBRANCH   2   3
TORSDOF 3
ENDMDL
MODEL       92
REMARK 921   NORMALIZED FREE ENERGY PREDICTED BY IDOCK:   -2.44 KCAL/MOL
REMARK 922        TOTAL FREE ENERGY PREDICTED BY IDOCK:   -3.04 KCAL/MOL
REMARK 923 INTER-LIGAND FREE ENERGY PREDICTED BY IDOCK:   -2.99 KCAL/MOL
REMARK 924 INTRA-LIGAND FREE ENERGY PREDICTED BY IDOCK:   -0.05 KCAL/MOL
REMARK 927      BINDING AFFINITY PREDICTED BY RF-SCORE:    0.00 PKD
ROOT
ATOM      1  CE  MET A   1     -11.700  15.896  71.802  1.00  0.00    -0.491 C  
ATOM      2  SD  MET A   1     -12.518  14.650  70.778  1.00  0.00    -0.366 SA 
ENDROOT
BRANCH   2   3
ATOM      3  CG  MET A   1     -11.954  15.219  69.141  1.00  0.00    -0.280 C  
BRANCH   3   4
ATOM      4  CB  MET A   1     -11.891  14.037  68.177  1.00  0.00    -0.402 C  
BRANCH   4   5
ATOM      5  CA  MET A   1     -11.362  14.415  66.789  1.00  0.00    -0.352 C  
ATOM      6  C   MET A   1     -10.503  13.251  66.266  1.00  0.00    -0.287 C  
ATOM      7  N   MET A   1     -10.507  15.635  66.827  1.00  0.00    -0.292 NA 
ATOM      8  O   MET A   1      -9.182  13.469  66.505  1.00  0.00    -0.243 OA 
ATOM      9  OXT MET A   1     -10.935  12.247  65.725  1.00  0.00    -0.280 OA 
ATOM     10  H1  MET A   1     -10.155  15.887  65.903  1.00  0.00     0.000 HD 
ATOM     11  H2  MET A   1      -9.745  15.532  67.497  1.00  0.00     0.000 HD 
ENDBRANCH   4   5
ENDBRANCH   3   4
ENDBRANCH   2   3
TORSDOF 3
ENDMDL
MODEL       93
REMARK 921   NORMALIZED FREE ENERGY PREDICTED BY IDOCK:   -2.44 KCAL/MOL
REMARK 922        TOTAL FREE ENERGY PREDICTED BY IDOCK:   -3.04 KCAL/MOL
REMARK 923 INTER-LIGAND FREE ENERGY PREDICTED BY IDOCK:   -2.93 KCAL/MOL
REMARK 924 INTRA-LIGAND FREE ENERGY PREDICTED BY IDOCK:   -0.11 KCAL/MOL
REMARK 927      BINDING AFFINITY PREDICTED BY RF-SCORE:    0.00 PKD
ROOT
ATOM      1  CE  MET A   1     -10.693  15.499  64.833  1.00  0.00    -0.392 C  
ATOM      2  SD  MET A   1     -12.125  14.444  64.504  1.00  0.00    -0.457 SA 
ENDROOT
BRANCH   2   3
ATOM      3  CG  MET A   1     -11.256  12.859  64.268  1.00  0.00    -0.367 C  
BRANCH   3   4
ATOM      4  CB  MET A   1     -11.442  11.979  65.501  1.00  0.00    -0.368 C  
BRANCH   4   5
ATOM      5  CA  MET A   1     -10.125  11.416  66.047  1.00  0.00    -0.234 C  
ATOM      6  C   MET A   1     -10.392  10.833  67.445  1.00  0.00    -0.211 C  
ATOM      7  N   MET A   1      -9.077  12.468  66.182  1.00  0.00    -0.428 NA 
ATOM      8  O   MET A   1     -10.074  11.725  68.420  1.00  0.00    -0.192 OA 
ATOM      9  OXT MET A   1     -10.850   9.724  67.667  1.00  0.00    -0.282 OA 
ATOM     10  H1  MET A   1      -8.201  12.093  66.545  1.00  0.00     0.000 HD 
ATOM     11  H2  MET A   1      -9.409  13.249  66.749  1.00  0.00     0.000 HD 
ENDBRANCH   4   5
ENDBRANCH   3   4
ENDBRANCH   2   3
TORSDOF 3
ENDMDL
MODEL       94
REMARK 921   NORMALIZED FREE ENERGY PREDICTED BY IDOCK:   -2.44 KCAL/MOL
REMARK 922        TOTAL FREE ENERGY PREDICTED BY IDOCK:   -3.03 KCAL/MOL
REMARK 923 INTER-LIGAND FREE ENERGY PREDICTED BY IDOCK:   -3.25 KCAL/MOL
REMARK 924 INTRA-LIGAND FREE ENERGY PREDICTED BY IDOCK:    0.22 KCAL/MOL
REMARK 927      BINDING AFFINITY PREDICTED BY RF-SCORE:    0.00 PKD
ROOT
ATOM      1  CE  MET A   1     -10.495   8.364  67.187  1.00  0.00    -0.310 C  
ATOM      2  SD  MET A   1      -9.144   8.708  66.035  1.00  0.00    -0.205 SA 
ENDROOT
BRANCH   2   3
ATOM      3  CG  MET A   1      -9.792  10.244  65.296  1.00  0.00    -0.306 C  
BRANCH   3   4
ATOM      4  CB  MET A   1      -9.053  11.447  65.876  1.00  0.00    -0.209 C  
BRANCH   4   5
ATOM      5  CA  MET A   1      -9.946  12.681  66.046  1.00  0.00    -0.258 C  
ATOM      6  C   MET A   1     -11.410  12.213  66.109  1.00  0.00    -0.361 C  
ATOM      7  N   MET A   1      -9.818  13.631  64.904  1.00  0.00    -0.606 NA 
ATOM      8  O   MET A   1     -12.011  12.310  64.894  1.00  0.00    -0.381 OA 
ATOM      9  OXT MET A   1     -11.968  11.786  67.107  1.00  0.00    -0.617 OA 
ATOM     10  H1  MET A   1     -10.412  14.452  65.018  1.00  0.00     0.000 HD 
ATOM     11  H2  MET A   1      -9.997  13.165  64.015  1.00  0.00     0.000 HD 
ENDBRANCH   4   5
ENDBRANCH   3   4
ENDBRANCH   2   3
TORSDOF 3
ENDMDL
MODEL       95
REMARK 921   NORMALIZED FREE ENERGY PREDICTED BY IDOCK:   -2.42 KCAL/MOL
REMARK 922        TOTAL FREE ENERGY PREDICTED BY IDOCK:   -3.02 KCAL/MOL
REMARK 923 INTER-LIGAND FREE ENERGY PREDICTED BY IDOCK:   -2.86 KCAL/MOL
REMARK 924 INTRA-LIGAND FREE ENERGY PREDICTED BY IDOCK:   -0.15 KCAL/MOL
REMARK 927      BINDING AFFINITY PREDICTED BY RF-SCORE:    0.00 PKD
ROOT
ATOM      1  CE  MET A   1     -10.862  15.624  65.256  1.00  0.00    -0.406 C  
ATOM      2  SD  MET A   1     -10.068  16.369  66.701  1.00  0.00    -0.294 SA 
ENDROOT
BRANCH   2   3
ATOM      3  CG  MET A   1      -9.842  14.863  67.703  1.00  0.00    -0.217 C  
BRANCH   3   4
ATOM      4  CB  MET A   1      -9.237  13.756  66.843  1.00  0.00    -0.263 C  
BRANCH   4   5
ATOM      5  CA  MET A   1      -9.684  12.351  67.263  1.00  0.00    -0.201 C  
ATOM      6  C   MET A   1     -10.727  11.853  66.248  1.00  0.00    -0.271 C  
ATOM      7  N   MET A   1     -10.317  12.342  68.612  1.00  0.00    -0.324 NA 
ATOM      8  O   MET A   1     -11.992  12.070  66.696  1.00  0.00    -0.614 OA 
ATOM      9  OXT MET A   1     -10.470  11.348  65.168  1.00  0.00    -0.273 OA 
ATOM     10  H1  MET A   1     -10.614  11.407  68.892  1.00  0.00     0.000 HD 
ATOM     11  H2  MET A   1     -11.090  13.006  68.662  1.00  0.00     0.000 HD 
ENDBRANCH   4   5
ENDBRANCH   3   4
ENDBRANCH   2   3
TORSDOF 3
ENDMDL
MODEL       96
REMARK 921   NORMALIZED FREE ENERGY PREDICTED BY IDOCK:   -2.41 KCAL/MOL
REMARK 922        TOTAL FREE ENERGY PREDICTED BY IDOCK:   -3.00 KCAL/MOL
REMARK 923 INTER-LIGAND FREE ENERGY PREDICTED BY IDOCK:   -2.91 KCAL/MOL
REMARK 924 INTRA-LIGAND FREE ENERGY PREDICTED BY IDOCK:   -0.09 KCAL/MOL
REMARK 927      BINDING AFFINITY PREDICTED BY RF-SCORE:    0.00 PKD
ROOT
ATOM      1  CE  MET A   1     -12.493  14.447  71.625  1.00  0.00    -0.352 C  
ATOM      2  SD  MET A   1     -11.472  15.030  70.251  1.00  0.00    -0.283 SA 
ENDROOT
BRANCH   2   3
ATOM      3  CG  MET A   1     -11.798  13.683  69.068  1.00  0.00    -0.352 C  
BRANCH   3   4
ATOM      4  CB  MET A   1     -12.095  14.266  67.689  1.00  0.00    -0.332 C  
BRANCH   4   5
ATOM      5  CA  MET A   1     -11.381  13.525  66.552  1.00  0.00    -0.319 C  
ATOM      6  C   MET A   1     -10.027  14.212  66.304  1.00  0.00    -0.303 C  
ATOM      7  N   MET A   1     -12.156  13.567  65.280  1.00  0.00    -0.386 NA 
ATOM      8  O   MET A   1     -10.107  15.101  65.279  1.00  0.00    -0.348 OA 
ATOM      9  OXT MET A   1      -9.010  14.012  66.948  1.00  0.00    -0.234 OA 
ATOM     10  H1  MET A   1     -11.681  13.074  64.524  1.00  0.00     0.000 HD 
ATOM     11  H2  MET A   1     -12.378  14.527  65.014  1.00  0.00     0.000 HD 
ENDBRANCH   4   5
ENDBRANCH   3   4
ENDBRANCH   2   3
TORSDOF 3
ENDMDL
MODEL       97
REMARK 921   NORMALIZED FREE ENERGY PREDICTED BY IDOCK:   -2.41 KCAL/MOL
REMARK 922        TOTAL FREE ENERGY PREDICTED BY IDOCK:   -3.00 KCAL/MOL
REMARK 923 INTER-LIGAND FREE ENERGY PREDICTED BY IDOCK:   -2.86 KCAL/MOL
REMARK 924 INTRA-LIGAND FREE ENERGY PREDICTED BY IDOCK:   -0.14 KCAL/MOL
REMARK 927      BINDING AFFINITY PREDICTED BY RF-SCORE:    0.00 PKD
ROOT
ATOM      1  CE  MET A   1      -7.889  15.115  68.757  1.00  0.00    -0.147 C  
ATOM      2  SD  MET A   1      -7.792  15.533  67.000  1.00  0.00    -0.199 SA 
ENDROOT
BRANCH   2   3
ATOM      3  CG  MET A   1      -6.845  17.084  67.134  1.00  0.00    -0.179 C  
BRANCH   3   4
ATOM      4  CB  MET A   1      -7.702  18.256  66.659  1.00  0.00    -0.261 C  
BRANCH   4   5
ATOM      5  CA  MET A   1      -9.078  18.311  67.333  1.00  0.00    -0.253 C  
ATOM      6  C   MET A   1     -10.142  18.510  66.240  1.00  0.00    -0.398 C  
ATOM      7  N   MET A   1      -9.189  19.445  68.293  1.00  0.00    -0.334 NA 
ATOM      8  O   MET A   1     -10.478  19.821  66.114  1.00  0.00    -0.471 OA 
ATOM      9  OXT MET A   1     -10.617  17.622  65.552  1.00  0.00    -0.622 OA 
ATOM     10  H1  MET A   1     -10.104  19.481  68.741  1.00  0.00     0.000 HD 
ATOM     11  H2  MET A   1      -8.961  20.333  67.844  1.00  0.00     0.000 HD 
ENDBRANCH   4   5
ENDBRANCH   3   4
ENDBRANCH   2   3
TORSDOF 3
ENDMDL
MODEL       98
REMARK 921   NORMALIZED FREE ENERGY PREDICTED BY IDOCK:   -2.39 KCAL/MOL
REMARK 922        TOTAL FREE ENERGY PREDICTED BY IDOCK:   -2.98 KCAL/MOL
REMARK 923 INTER-LIGAND FREE ENERGY PREDICTED BY IDOCK:   -2.96 KCAL/MOL
REMARK 924 INTRA-LIGAND FREE ENERGY PREDICTED BY IDOCK:   -0.01 KCAL/MOL
REMARK 927      BINDING AFFINITY PREDICTED BY RF-SCORE:    0.00 PKD
ROOT
ATOM      1  CE  MET A   1      -9.114   9.914  65.291  1.00  0.00    -0.211 C  
ATOM      2  SD  MET A   1     -10.091   9.729  66.802  1.00  0.00    -0.234 SA 
ENDROOT
BRANCH   2   3
ATOM      3  CG  MET A   1     -10.944  11.339  66.783  1.00  0.00    -0.281 C  
BRANCH   3   4
ATOM      4  CB  MET A   1      -9.933  12.462  67.000  1.00  0.00    -0.218 C  
BRANCH   4   5
ATOM      5  CA  MET A   1     -10.160  13.667  66.080  1.00  0.00    -0.312 C  
ATOM      6  C   MET A   1     -11.488  14.334  66.476  1.00  0.00    -0.360 C  
ATOM      7  N   MET A   1     -10.255  13.270  64.647  1.00  0.00    -0.566 NA 
ATOM      8  O   MET A   1     -12.507  13.910  65.682  1.00  0.00    -0.453 OA 
ATOM      9  OXT MET A   1     -11.631  15.125  67.393  1.00  0.00    -0.328 OA 
ATOM     10  H1  MET A   1     -10.405  14.072  64.034  1.00  0.00     0.000 HD 
ATOM     11  H2  MET A   1     -10.973  12.559  64.507  1.00  0.00     0.000 HD 
ENDBRANCH   4   5
ENDBRANCH   3   4
ENDBRANCH   2   3
TORSDOF 3
ENDMDL
MODEL       99
REMARK 921   NORMALIZED FREE ENERGY PREDICTED BY IDOCK:   -2.38 KCAL/MOL
REMARK 922        TOTAL FREE ENERGY PREDICTED BY IDOCK:   -2.97 KCAL/MOL
REMARK 923 INTER-LIGAND FREE ENERGY PREDICTED BY IDOCK:   -2.92 KCAL/MOL
REMARK 924 INTRA-LIGAND FREE ENERGY PREDICTED BY IDOCK:   -0.05 KCAL/MOL
REMARK 927      BINDING AFFINITY PREDICTED BY RF-SCORE:    0.00 PKD
ROOT
ATOM      1  CE  MET A   1      -7.360  13.951  67.564  1.00  0.00    -0.166 C  
ATOM      2  SD  MET A   1      -7.739  12.203  67.296  1.00  0.00    -0.158 SA 
ENDROOT
BRANCH   2   3
ATOM      3  CG  MET A   1      -9.327  12.391  66.423  1.00  0.00    -0.219 C  
BRANCH   3   4
ATOM      4  CB  MET A   1     -10.012  13.681  66.868  1.00  0.00    -0.260 C  
BRANCH   4   5
ATOM      5  CA  MET A   1     -11.537  13.559  66.950  1.00  0.00    -0.363 C  
ATOM      6  C   MET A   1     -11.897  12.886  68.286  1.00  0.00    -0.330 C  
ATOM      7  N   MET A   1     -12.095  12.723  65.850  1.00  0.00    -0.510 NA 
ATOM      8  O   MET A   1     -12.094  11.551  68.127  1.00  0.00    -0.604 OA 
ATOM      9  OXT MET A   1     -11.977  13.457  69.361  1.00  0.00    -0.307 OA 
ATOM     10  H1  MET A   1     -13.110  12.642  65.905  1.00  0.00     0.000 HD 
ATOM     11  H2  MET A   1     -11.652  11.804  65.825  1.00  0.00     0.000 HD 
ENDBRANCH   4   5
ENDBRANCH   3   4
ENDBRANCH   2   3
TORSDOF 3
ENDMDL
MODEL      100
REMARK 921   NORMALIZED FREE ENERGY PREDICTED BY IDOCK:   -2.38 KCAL/MOL
REMARK 922        TOTAL FREE ENERGY PREDICTED BY IDOCK:   -2.96 KCAL/MOL
REMARK 923 INTER-LIGAND FREE ENERGY PREDICTED BY IDOCK:   -2.83 KCAL/MOL
REMARK 924 INTRA-LIGAND FREE ENERGY PREDICTED BY IDOCK:   -0.13 KCAL/MOL
REMARK 927      BINDING AFFINITY PREDICTED BY RF-SCORE:    0.00 PKD
ROOT
ATOM      1  CE  MET A   1     -14.107   8.847  72.306  1.00  0.00    -0.442 C  
ATOM      2  SD  MET A   1     -12.483   9.445  71.780  1.00  0.00    -0.403 SA 
ENDROOT
BRANCH   2   3
ATOM      3  CG  MET A   1     -11.463   8.069  72.404  1.00  0.00    -0.389 C  
BRANCH   3   4
ATOM      4  CB  MET A   1     -11.700   6.823  71.554  1.00  0.00    -0.361 C  
BRANCH   4   5
ATOM      5  CA  MET A   1     -10.494   6.445  70.686  1.00  0.00    -0.219 C  
ATOM      6  C   MET A   1     -10.689   7.066  69.293  1.00  0.00    -0.225 C  
ATOM      7  N   MET A   1     -10.364   4.970  70.517  1.00  0.00    -0.245 NA 
ATOM      8  O   MET A   1     -11.223   6.168  68.424  1.00  0.00    -0.330 OA 
ATOM      9  OXT MET A   1     -10.424   8.219  68.995  1.00  0.00    -0.219 OA 
ATOM     10  H1  MET A   1      -9.561   4.718  69.940  1.00  0.00     0.000 HD 
ATOM     11  H2  MET A   1     -11.225   4.563  70.151  1.00  0.00     0.000 HD 
ENDBRANCH   4   5
ENDBRANCH   3   4
ENDBRANCH   2   3
TORSDOF 3
ENDMDL
MODEL      101
REMARK 921   NORMALIZED FREE ENERGY PREDICTED BY IDOCK:   -2.37 KCAL/MOL
REMARK 922        TOTAL FREE ENERGY PREDICTED BY IDOCK:   -2.96 KCAL/MOL
REMARK 923 INTER-LIGAND FREE ENERGY PREDICTED BY IDOCK:   -2.80 KCAL/MOL
REMARK 924 INTRA-LIGAND FREE ENERGY PREDICTED BY IDOCK:   -0.16 KCAL/MOL
REMARK 927      BINDING AFFINITY PREDICTED BY RF-SCORE:    0.00 PKD
ROOT
ATOM      1  CE  MET A   1      -9.384  13.786  66.836  1.00  0.00    -0.261 C  
ATOM      2  SD  MET A   1     -10.356  14.588  68.134  1.00  0.00    -0.237 SA 
ENDROOT
BRANCH   2   3
ATOM      3  CG  MET A   1     -11.930  13.701  67.892  1.00  0.00    -0.347 C  
BRANCH   3   4
ATOM      4  CB  MET A   1     -11.655  12.220  67.642  1.00  0.00    -0.421 C  
BRANCH   4   5
ATOM      5  CA  MET A   1     -11.369  11.431  68.925  1.00  0.00    -0.270 C  
ATOM      6  C   MET A   1     -10.075  10.627  68.719  1.00  0.00    -0.191 C  
ATOM      7  N   MET A   1     -12.460  10.469  69.249  1.00  0.00    -0.717 NA 
ATOM      8  O   MET A   1     -10.344   9.348  68.344  1.00  0.00    -0.191 OA 
ATOM      9  OXT MET A   1      -8.945  11.068  68.849  1.00  0.00    -0.168 OA 
ATOM     10  H1  MET A   1     -12.270   9.945  70.103  1.00  0.00     0.000 HD 
ATOM     11  H2  MET A   1     -12.646   9.844  68.465  1.00  0.00     0.000 HD 
ENDBRANCH   4   5
ENDBRANCH   3   4
ENDBRANCH   2   3
TORSDOF 3
ENDMDL
MODEL      102
REMARK 921   NORMALIZED FREE ENERGY PREDICTED BY IDOCK:   -2.37 KCAL/MOL
REMARK 922        TOTAL FREE ENERGY PREDICTED BY IDOCK:   -2.95 KCAL/MOL
REMARK 923 INTER-LIGAND FREE ENERGY PREDICTED BY IDOCK:   -2.77 KCAL/MOL
REMARK 924 INTRA-LIGAND FREE ENERGY PREDICTED BY IDOCK:   -0.18 KCAL/MOL
REMARK 927      BINDING AFFINITY PREDICTED BY RF-SCORE:    0.00 PKD
ROOT
ATOM      1  CE  MET A   1      -8.145  11.217  67.481  1.00  0.00    -0.119 C  
ATOM      2  SD  MET A   1      -8.659   9.692  68.308  1.00  0.00    -0.119 SA 
ENDROOT
BRANCH   2   3
ATOM      3  CG  MET A   1     -10.305  10.225  68.878  1.00  0.00    -0.204 C  
BRANCH   3   4
ATOM      4  CB  MET A   1     -11.114  10.759  67.698  1.00  0.00    -0.384 C  
BRANCH   4   5
ATOM      5  CA  MET A   1     -11.751  12.126  67.970  1.00  0.00    -0.344 C  
ATOM      6  C   MET A   1     -11.736  12.934  66.661  1.00  0.00    -0.390 C  
ATOM      7  N   MET A   1     -11.000  12.903  68.996  1.00  0.00    -0.371 NA 
ATOM      8  O   MET A   1     -10.666  13.771  66.611  1.00  0.00    -0.276 OA 
ATOM      9  OXT MET A   1     -12.557  12.833  65.764  1.00  0.00    -0.562 OA 
ATOM     10  H1  MET A   1     -11.424  13.812  69.177  1.00  0.00     0.000 HD 
ATOM     11  H2  MET A   1     -10.016  12.997  68.741  1.00  0.00     0.000 HD 
ENDBRANCH   4   5
ENDBRANCH   3   4
ENDBRANCH   2   3
TORSDOF 3
ENDMDL
MODEL      103
REMARK 921   NORMALIZED FREE ENERGY PREDICTED BY IDOCK:   -2.36 KCAL/MOL
REMARK 922        TOTAL FREE ENERGY PREDICTED BY IDOCK:   -2.95 KCAL/MOL
REMARK 923 INTER-LIGAND FREE ENERGY PREDICTED BY IDOCK:   -2.83 KCAL/MOL
REMARK 924 INTRA-LIGAND FREE ENERGY PREDICTED BY IDOCK:   -0.12 KCAL/MOL
REMARK 927      BINDING AFFINITY PREDICTED BY RF-SCORE:    0.00 PKD
ROOT
ATOM      1  CE  MET A   1     -10.167  11.421  68.050  1.00  0.00    -0.185 C  
ATOM      2  SD  MET A   1     -11.413  12.319  69.005  1.00  0.00    -0.317 SA 
ENDROOT
BRANCH   2   3
ATOM      3  CG  MET A   1     -12.398  10.899  69.585  1.00  0.00    -0.221 C  
BRANCH   3   4
ATOM      4  CB  MET A   1     -11.844  10.394  70.915  1.00  0.00    -0.475 C  
BRANCH   4   5
ATOM      5  CA  MET A   1     -11.173   9.020  70.810  1.00  0.00    -0.275 C  
ATOM      6  C   MET A   1     -11.947   8.035  71.701  1.00  0.00    -0.298 C  
ATOM      7  N   MET A   1      -9.758   9.048  71.278  1.00  0.00    -0.289 NA 
ATOM      8  O   MET A   1     -11.355   7.903  72.918  1.00  0.00    -0.406 OA 
ATOM      9  OXT MET A   1     -12.972   7.455  71.383  1.00  0.00    -0.360 OA 
ATOM     10  H1  MET A   1      -9.311   8.134  71.207  1.00  0.00     0.000 HD 
ATOM     11  H2  MET A   1      -9.690   9.421  72.225  1.00  0.00     0.000 HD 
ENDBRANCH   4   5
ENDBRANCH   3   4
ENDBRANCH   2   3
TORSDOF 3
ENDMDL
MODEL      104
REMARK 921   NORMALIZED FREE ENERGY PREDICTED BY IDOCK:   -2.36 KCAL/MOL
REMARK 922        TOTAL FREE ENERGY PREDICTED BY IDOCK:   -2.95 KCAL/MOL
REMARK 923 INTER-LIGAND FREE ENERGY PREDICTED BY IDOCK:   -2.88 KCAL/MOL
REMARK 924 INTRA-LIGAND FREE ENERGY PREDICTED BY IDOCK:   -0.06 KCAL/MOL
REMARK 927      BINDING AFFINITY PREDICTED BY RF-SCORE:    0.00 PKD
ROOT
ATOM      1  CE  MET A   1     -12.192  14.616  71.584  1.00  0.00    -0.344 C  
ATOM      2  SD  MET A   1     -12.258  15.641  70.096  1.00  0.00    -0.303 SA 
ENDROOT
BRANCH   2   3
ATOM      3  CG  MET A   1     -11.488  14.479  68.922  1.00  0.00    -0.300 C  
BRANCH   3   4
ATOM      4  CB  MET A   1     -11.525  15.067  67.513  1.00  0.00    -0.339 C  
BRANCH   4   5
ATOM      5  CA  MET A   1     -10.545  16.229  67.316  1.00  0.00    -0.298 C  
ATOM      6  C   MET A   1     -10.277  16.384  65.810  1.00  0.00    -0.348 C  
ATOM      7  N   MET A   1      -9.239  15.984  67.992  1.00  0.00    -0.193 NA 
ATOM      8  O   MET A   1      -9.133  15.745  65.445  1.00  0.00    -0.153 OA 
ATOM      9  OXT MET A   1     -10.997  16.980  65.026  1.00  0.00    -0.607 OA 
ATOM     10  H1  MET A   1      -8.587  16.758  67.861  1.00  0.00     0.000 HD 
ATOM     11  H2  MET A   1      -8.828  15.100  67.692  1.00  0.00     0.000 HD 
ENDBRANCH   4   5
ENDBRANCH   3   4
ENDBRANCH   2   3
TORSDOF 3
ENDMDL
MODEL      105
REMARK 921   NORMALIZED FREE ENERGY PREDICTED BY IDOCK:   -2.34 KCAL/MOL
REMARK 922        TOTAL FREE ENERGY PREDICTED BY IDOCK:   -2.92 KCAL/MOL
REMARK 923 INTER-LIGAND FREE ENERGY PREDICTED BY IDOCK:   -2.83 KCAL/MOL
REMARK 924 INTRA-LIGAND FREE ENERGY PREDICTED BY IDOCK:   -0.09 KCAL/MOL
REMARK 927      BINDING AFFINITY PREDICTED BY RF-SCORE:    0.00 PKD
ROOT
ATOM      1  CE  MET A   1      -8.412   6.787  68.689  1.00  0.00    -0.123 C  
ATOM      2  SD  MET A   1      -9.608   5.458  68.414  1.00  0.00    -0.135 SA 
ENDROOT
BRANCH   2   3
ATOM      3  CG  MET A   1     -11.109   6.307  69.001  1.00  0.00    -0.378 C  
BRANCH   3   4
ATOM      4  CB  MET A   1     -11.253   6.121  70.510  1.00  0.00    -0.403 C  
BRANCH   4   5
ATOM      5  CA  MET A   1     -12.114   7.201  71.173  1.00  0.00    -0.358 C  
ATOM      6  C   MET A   1     -11.178   8.240  71.814  1.00  0.00    -0.283 C  
ATOM      7  N   MET A   1     -12.985   6.645  72.248  1.00  0.00    -0.538 NA 
ATOM      8  O   MET A   1     -10.995   7.989  73.137  1.00  0.00    -0.337 OA 
ATOM      9  OXT MET A   1     -10.642   9.162  71.221  1.00  0.00    -0.274 OA 
ATOM     10  H1  MET A   1     -13.558   7.364  72.689  1.00  0.00     0.000 HD 
ATOM     11  H2  MET A   1     -12.436   6.133  72.939  1.00  0.00     0.000 HD 
ENDBRANCH   4   5
ENDBRANCH   3   4
ENDBRANCH   2   3
TORSDOF 3
ENDMDL
MODEL      106
REMARK 921   NORMALIZED FREE ENERGY PREDICTED BY IDOCK:   -2.33 KCAL/MOL
REMARK 922        TOTAL FREE ENERGY PREDICTED BY IDOCK:   -2.91 KCAL/MOL
REMARK 923 INTER-LIGAND FREE ENERGY PREDICTED BY IDOCK:   -2.81 KCAL/MOL
REMARK 924 INTRA-LIGAND FREE ENERGY PREDICTED BY IDOCK:   -0.10 KCAL/MOL
REMARK 927      BINDING AFFINITY PREDICTED BY RF-SCORE:    0.00 PKD
ROOT
ATOM      1  CE  MET A   1      -9.035  12.058  66.618  1.00  0.00    -0.204 C  
ATOM      2  SD  MET A   1     -10.480  11.133  66.048  1.00  0.00    -0.240 SA 
ENDROOT
BRANCH   2   3
ATOM      3  CG  MET A   1     -10.839  10.205  67.575  1.00  0.00    -0.290 C  
BRANCH   3   4
ATOM      4  CB  MET A   1     -11.782  11.014  68.462  1.00  0.00    -0.348 C  
BRANCH   4   5
ATOM      5  CA  MET A   1     -11.202  11.313  69.849  1.00  0.00    -0.187 C  
ATOM      6  C   MET A   1     -11.667  10.209  70.814  1.00  0.00    -0.357 C  
ATOM      7  N   MET A   1     -11.674  12.620  70.387  1.00  0.00    -0.542 NA 
ATOM      8  O   MET A   1     -12.765  10.597  71.515  1.00  0.00    -0.391 OA 
ATOM      9  OXT MET A   1     -11.142   9.114  70.933  1.00  0.00    -0.249 OA 
ATOM     10  H1  MET A   1     -11.288  12.819  71.309  1.00  0.00     0.000 HD 
ATOM     11  H2  MET A   1     -12.693  12.670  70.394  1.00  0.00     0.000 HD 
ENDBRANCH   4   5
ENDBRANCH   3   4
ENDBRANCH   2   3
TORSDOF 3
ENDMDL
MODEL      107
REMARK 921   NORMALIZED FREE ENERGY PREDICTED BY IDOCK:   -2.32 KCAL/MOL
REMARK 922        TOTAL FREE ENERGY PREDICTED BY IDOCK:   -2.90 KCAL/MOL
REMARK 923 INTER-LIGAND FREE ENERGY PREDICTED BY IDOCK:   -2.83 KCAL/MOL
REMARK 924 INTRA-LIGAND FREE ENERGY PREDICTED BY IDOCK:   -0.07 KCAL/MOL
REMARK 927      BINDING AFFINITY PREDICTED BY RF-SCORE:    0.00 PKD
ROOT
ATOM      1  CE  MET A   1     -10.387   6.690  69.103  1.00  0.00    -0.194 C  
ATOM      2  SD  MET A   1     -10.955   8.027  70.181  1.00  0.00    -0.187 SA 
ENDROOT
BRANCH   2   3
ATOM      3  CG  MET A   1     -10.089   9.417  69.383  1.00  0.00    -0.198 C  
BRANCH   3   4
ATOM      4  CB  MET A   1     -10.963  10.004  68.277  1.00  0.00    -0.278 C  
BRANCH   4   5
ATOM      5  CA  MET A   1     -11.801  11.201  68.739  1.00  0.00    -0.320 C  
ATOM      6  C   MET A   1     -11.571  12.361  67.756  1.00  0.00    -0.352 C  
ATOM      7  N   MET A   1     -11.412  11.669  70.100  1.00  0.00    -0.499 NA 
ATOM      8  O   MET A   1     -10.625  13.220  68.221  1.00  0.00    -0.237 OA 
ATOM      9  OXT MET A   1     -12.138  12.496  66.684  1.00  0.00    -0.562 OA 
ATOM     10  H1  MET A   1     -11.970  12.466  70.407  1.00  0.00     0.000 HD 
ATOM     11  H2  MET A   1     -10.414  11.877  70.147  1.00  0.00     0.000 HD 
ENDBRANCH   4   5
ENDBRANCH   3   4
ENDBRANCH   2   3
TORSDOF 3
ENDMDL
MODEL      108
REMARK 921   NORMALIZED FREE ENERGY PREDICTED BY IDOCK:   -2.32 KCAL/MOL
REMARK 922        TOTAL FREE ENERGY PREDICTED BY IDOCK:   -2.89 KCAL/MOL
REMARK 923 INTER-LIGAND FREE ENERGY PREDICTED BY IDOCK:   -2.74 KCAL/MOL
REMARK 924 INTRA-LIGAND FREE ENERGY PREDICTED BY IDOCK:   -0.15 KCAL/MOL
REMARK 927      BINDING AFFINITY PREDICTED BY RF-SCORE:    0.00 PKD
ROOT
ATOM      1  CE  MET A   1      -9.912  18.719  68.668  1.00  0.00    -0.394 C  
ATOM      2  SD  MET A   1      -9.084  18.629  67.062  1.00  0.00    -0.300 SA 
ENDROOT
BRANCH   2   3
ATOM      3  CG  MET A   1     -10.291  17.586  66.182  1.00  0.00    -0.329 C  
BRANCH   3   4
ATOM      4  CB  MET A   1     -10.008  16.113  66.469  1.00  0.00    -0.293 C  
BRANCH   4   5
ATOM      5  CA  MET A   1     -11.130  15.423  67.253  1.00  0.00    -0.302 C  
ATOM      6  C   MET A   1     -10.513  14.760  68.497  1.00  0.00    -0.249 C  
ATOM      7  N   MET A   1     -11.803  14.360  66.454  1.00  0.00    -0.395 NA 
ATOM      8  O   MET A   1     -10.257  13.443  68.277  1.00  0.00    -0.238 OA 
ATOM      9  OXT MET A   1     -10.259  15.332  69.544  1.00  0.00    -0.239 OA 
ATOM     10  H1  MET A   1     -12.550  13.902  66.975  1.00  0.00     0.000 HD 
ATOM     11  H2  MET A   1     -11.129  13.682  66.099  1.00  0.00     0.000 HD 
ENDBRANCH   4   5
ENDBRANCH   3   4
ENDBRANCH   2   3
TORSDOF 3
ENDMDL
MODEL      109
REMARK 921   NORMALIZED FREE ENERGY PREDICTED BY IDOCK:   -2.31 KCAL/MOL
REMARK 922        TOTAL FREE ENERGY PREDICTED BY IDOCK:   -2.89 KCAL/MOL
REMARK 923 INTER-LIGAND FREE ENERGY PREDICTED BY IDOCK:   -2.72 KCAL/MOL
REMARK 924 INTRA-LIGAND FREE ENERGY PREDICTED BY IDOCK:   -0.17 KCAL/MOL
REMARK 927      BINDING AFFINITY PREDICTED BY RF-SCORE:    0.00 PKD
ROOT
ATOM      1  CE  MET A   1      -8.426  14.885  67.652  1.00  0.00    -0.167 C  
ATOM      2  SD  MET A   1      -6.750  15.527  67.426  1.00  0.00    -0.107 SA 
ENDROOT
BRANCH   2   3
ATOM      3  CG  MET A   1      -7.151  17.026  66.472  1.00  0.00    -0.271 C  
BRANCH   3   4
ATOM      4  CB  MET A   1      -7.642  18.123  67.413  1.00  0.00    -0.220 C  
BRANCH   4   5
ATOM      5  CA  MET A   1      -9.037  18.648  67.057  1.00  0.00    -0.291 C  
ATOM      6  C   MET A   1      -9.945  18.480  68.287  1.00  0.00    -0.376 C  
ATOM      7  N   MET A   1      -9.650  17.893  65.927  1.00  0.00    -0.530 NA 
ATOM      8  O   MET A   1     -10.677  17.337  68.206  1.00  0.00    -0.373 OA 
ATOM      9  OXT MET A   1      -9.998  19.251  69.231  1.00  0.00    -0.384 OA 
ATOM     10  H1  MET A   1     -10.578  18.243  65.690  1.00  0.00     0.000 HD 
ATOM     11  H2  MET A   1      -9.671  16.892  66.121  1.00  0.00     0.000 HD 
ENDBRANCH   4   5
ENDBRANCH   3   4
ENDBRANCH   2   3
TORSDOF 3
ENDMDL
MODEL      110
REMARK 921   NORMALIZED FREE ENERGY PREDICTED BY IDOCK:   -2.31 KCAL/MOL
REMARK 922        TOTAL FREE ENERGY PREDICTED BY IDOCK:   -2.88 KCAL/MOL
REMARK 923 INTER-LIGAND FREE ENERGY PREDICTED BY IDOCK:   -2.84 KCAL/MOL
REMARK 924 INTRA-LIGAND FREE ENERGY PREDICTED BY IDOCK:   -0.05 KCAL/MOL
REMARK 927      BINDING AFFINITY PREDICTED BY RF-SCORE:    0.00 PKD
ROOT
ATOM      1  CE  MET A   1      -7.440  17.240  66.571  1.00  0.00    -0.280 C  
ATOM      2  SD  MET A   1      -8.121  17.324  68.245  1.00  0.00    -0.254 SA 
ENDROOT
BRANCH   2   3
ATOM      3  CG  MET A   1      -9.573  16.249  68.009  1.00  0.00    -0.224 C  
BRANCH   3   4
ATOM      4  CB  MET A   1      -9.991  16.258  66.541  1.00  0.00    -0.290 C  
BRANCH   4   5
ATOM      5  CA  MET A   1     -10.078  14.855  65.928  1.00  0.00    -0.325 C  
ATOM      6  C   MET A   1     -11.373  14.191  66.425  1.00  0.00    -0.338 C  
ATOM      7  N   MET A   1      -8.934  13.991  66.334  1.00  0.00    -0.476 NA 
ATOM      8  O   MET A   1     -11.134  13.387  67.495  1.00  0.00    -0.262 OA 
ATOM      9  OXT MET A   1     -12.482  14.368  65.947  1.00  0.00    -0.388 OA 
ATOM     10  H1  MET A   1      -8.992  13.059  65.926  1.00  0.00     0.000 HD 
ATOM     11  H2  MET A   1      -8.848  13.946  67.350  1.00  0.00     0.000 HD 
ENDBRANCH   4   5
ENDBRANCH   3   4
ENDBRANCH   2   3
TORSDOF 3
ENDMDL
MODEL      111
REMARK 921   NORMALIZED FREE ENERGY PREDICTED BY IDOCK:   -2.30 KCAL/MOL
REMARK 922        TOTAL FREE ENERGY PREDICTED BY IDOCK:   -2.87 KCAL/MOL
REMARK 923 INTER-LIGAND FREE ENERGY PREDICTED BY IDOCK:   -2.75 KCAL/MOL
REMARK 924 INTRA-LIGAND FREE ENERGY PREDICTED BY IDOCK:   -0.12 KCAL/MOL
REMARK 927      BINDING AFFINITY PREDICTED BY RF-SCORE:    0.00 PKD
ROOT
ATOM      1  CE  MET A   1      -7.985   6.747  70.893  1.00  0.00    -0.106 C  
ATOM      2  SD  MET A   1      -7.794   8.257  71.871  1.00  0.00    -0.130 SA 
ENDROOT
BRANCH   2   3
ATOM      3  CG  MET A   1      -9.553   8.690  72.065  1.00  0.00    -0.314 C  
BRANCH   3   4
ATOM      4  CB  MET A   1     -10.424   7.495  71.684  1.00  0.00    -0.226 C  
BRANCH   4   5
ATOM      5  CA  MET A   1     -11.592   7.866  70.763  1.00  0.00    -0.247 C  
ATOM      6  C   MET A   1     -12.837   8.105  71.633  1.00  0.00    -0.326 C  
ATOM      7  N   MET A   1     -11.912   6.779  69.795  1.00  0.00    -0.647 NA 
ATOM      8  O   MET A   1     -13.619   6.995  71.690  1.00  0.00    -0.358 OA 
ATOM      9  OXT MET A   1     -13.093   9.143  72.222  1.00  0.00    -0.398 OA 
ATOM     10  H1  MET A   1     -12.688   7.026  69.181  1.00  0.00     0.000 HD 
ATOM     11  H2  MET A   1     -12.087   5.896  70.276  1.00  0.00     0.000 HD 
ENDBRANCH   4   5
ENDBRANCH   3   4
ENDBRANCH   2   3
TORSDOF 3
ENDMDL
MODEL      112
REMARK 921   NORMALIZED FREE ENERGY PREDICTED BY IDOCK:   -2.28 KCAL/MOL
REMARK 922        TOTAL FREE ENERGY PREDICTED BY IDOCK:   -2.85 KCAL/MOL
REMARK 923 INTER-LIGAND FREE ENERGY PREDICTED BY IDOCK:   -2.64 KCAL/MOL
REMARK 924 INTRA-LIGAND FREE ENERGY PREDICTED BY IDOCK:   -0.21 KCAL/MOL
REMARK 927      BINDING AFFINITY PREDICTED BY RF-SCORE:    0.00 PKD
ROOT
ATOM      1  CE  MET A   1      -8.416   6.613  70.674  1.00  0.00    -0.138 C  
ATOM      2  SD  MET A   1      -8.586   8.119  69.687  1.00  0.00    -0.131 SA 
ENDROOT
BRANCH   2   3
ATOM      3  CG  MET A   1      -9.349   9.194  70.946  1.00  0.00    -0.269 C  
BRANCH   3   4
ATOM      4  CB  MET A   1     -10.001   8.338  72.029  1.00  0.00    -0.327 C  
BRANCH   4   5
ATOM      5  CA  MET A   1     -11.522   8.222  71.875  1.00  0.00    -0.310 C  
ATOM      6  C   MET A   1     -11.861   6.763  71.527  1.00  0.00    -0.333 C  
ATOM      7  N   MET A   1     -12.044   9.087  70.779  1.00  0.00    -0.466 NA 
ATOM      8  O   MET A   1     -12.008   6.597  70.186  1.00  0.00    -0.367 OA 
ATOM      9  OXT MET A   1     -11.967   5.854  72.335  1.00  0.00    -0.298 OA 
ATOM     10  H1  MET A   1     -13.056   9.010  70.677  1.00  0.00     0.000 HD 
ATOM     11  H2  MET A   1     -11.567   8.895  69.898  1.00  0.00     0.000 HD 
ENDBRANCH   4   5
ENDBRANCH   3   4
ENDBRANCH   2   3
TORSDOF 3
ENDMDL
MODEL      113
REMARK 921   NORMALIZED FREE ENERGY PREDICTED BY IDOCK:   -2.27 KCAL/MOL
REMARK 922        TOTAL FREE ENERGY PREDICTED BY IDOCK:   -2.84 KCAL/MOL
REMARK 923 INTER-LIGAND FREE ENERGY PREDICTED BY IDOCK:   -2.76 KCAL/MOL
REMARK 924 INTRA-LIGAND FREE ENERGY PREDICTED BY IDOCK:   -0.08 KCAL/MOL
REMARK 927      BINDING AFFINITY PREDICTED BY RF-SCORE:    0.00 PKD
ROOT
ATOM      1  CE  MET A   1      -9.923   7.460  66.957  1.00  0.00    -0.231 C  
ATOM      2  SD  MET A   1      -9.923   9.148  66.309  1.00  0.00    -0.243 SA 
ENDROOT
BRANCH   2   3
ATOM      3  CG  MET A   1     -10.857   9.961  67.645  1.00  0.00    -0.257 C  
BRANCH   3   4
ATOM      4  CB  MET A   1     -10.454   9.367  68.993  1.00  0.00    -0.233 C  
BRANCH   4   5
ATOM      5  CA  MET A   1     -10.717  10.310  70.173  1.00  0.00    -0.278 C  
ATOM      6  C   MET A   1     -11.847   9.711  71.027  1.00  0.00    -0.347 C  
ATOM      7  N   MET A   1     -11.149  11.664  69.725  1.00  0.00    -0.478 NA 
ATOM      8  O   MET A   1     -13.050  10.256  70.704  1.00  0.00    -0.365 OA 
ATOM      9  OXT MET A   1     -11.704   8.843  71.872  1.00  0.00    -0.327 OA 
ATOM     10  H1  MET A   1     -11.323  12.291  70.511  1.00  0.00     0.000 HD 
ATOM     11  H2  MET A   1     -11.960  11.608  69.110  1.00  0.00     0.000 HD 
ENDBRANCH   4   5
ENDBRANCH   3   4
ENDBRANCH   2   3
TORSDOF 3
ENDMDL
MODEL      114
REMARK 921   NORMALIZED FREE ENERGY PREDICTED BY IDOCK:   -2.26 KCAL/MOL
REMARK 922        TOTAL FREE ENERGY PREDICTED BY IDOCK:   -2.83 KCAL/MOL
REMARK 923 INTER-LIGAND FREE ENERGY PREDICTED BY IDOCK:   -2.73 KCAL/MOL
REMARK 924 INTRA-LIGAND FREE ENERGY PREDICTED BY IDOCK:   -0.09 KCAL/MOL
REMARK 927      BINDING AFFINITY PREDICTED BY RF-SCORE:    0.00 PKD
ROOT
ATOM      1  CE  MET A   1     -11.853  10.895  70.347  1.00  0.00    -0.357 C  
ATOM      2  SD  MET A   1     -13.030  10.473  71.654  1.00  0.00    -0.470 SA 
ENDROOT
BRANCH   2   3
ATOM      3  CG  MET A   1     -13.013   8.660  71.470  1.00  0.00    -0.312 C  
BRANCH   3   4
ATOM      4  CB  MET A   1     -12.031   8.048  72.466  1.00  0.00    -0.384 C  
BRANCH   4   5
ATOM      5  CA  MET A   1     -10.663   7.731  71.852  1.00  0.00    -0.225 C  
ATOM      6  C   MET A   1     -10.672   6.267  71.382  1.00  0.00    -0.248 C  
ATOM      7  N   MET A   1      -9.554   7.891  72.834  1.00  0.00    -0.236 NA 
ATOM      8  O   MET A   1     -10.114   5.448  72.313  1.00  0.00    -0.176 OA 
ATOM      9  OXT MET A   1     -11.136   5.870  70.325  1.00  0.00    -0.327 OA 
ATOM     10  H1  MET A   1      -8.644   7.681  72.425  1.00  0.00     0.000 HD 
ATOM     11  H2  MET A   1      -9.721   7.334  73.672  1.00  0.00     0.000 HD 
ENDBRANCH   4   5
ENDBRANCH   3   4
ENDBRANCH   2   3
TORSDOF 3
ENDMDL
MODEL      115
REMARK 921   NORMALIZED FREE ENERGY PREDICTED BY IDOCK:   -2.24 KCAL/MOL
REMARK 922        TOTAL FREE ENERGY PREDICTED BY IDOCK:   -2.81 KCAL/MOL
REMARK 923 INTER-LIGAND FREE ENERGY PREDICTED BY IDOCK:   -2.67 KCAL/MOL
REMARK 924 INTRA-LIGAND FREE ENERGY PREDICTED BY IDOCK:   -0.14 KCAL/MOL
REMARK 927      BINDING AFFINITY PREDICTED BY RF-SCORE:    0.00 PKD
ROOT
ATOM      1  CE  MET A   1     -11.111  14.983  64.952  1.00  0.00    -0.415 C  
ATOM      2  SD  MET A   1     -12.491  13.840  65.205  1.00  0.00    -0.478 SA 
ENDROOT
BRANCH   2   3
ATOM      3  CG  MET A   1     -11.820  12.900  66.615  1.00  0.00    -0.395 C  
BRANCH   3   4
ATOM      4  CB  MET A   1     -10.335  13.213  66.786  1.00  0.00    -0.252 C  
BRANCH   4   5
ATOM      5  CA  MET A   1      -9.938  13.485  68.241  1.00  0.00    -0.237 C  
ATOM      6  C   MET A   1      -9.132  14.794  68.285  1.00  0.00    -0.183 C  
ATOM      7  N   MET A   1      -9.083  12.401  68.803  1.00  0.00    -0.391 NA 
ATOM      8  O   MET A   1      -7.795  14.550  68.275  1.00  0.00    -0.116 OA 
ATOM      9  OXT MET A   1      -9.613  15.915  68.304  1.00  0.00    -0.202 OA 
ATOM     10  H1  MET A   1      -8.819  12.582  69.771  1.00  0.00     0.000 HD 
ATOM     11  H2  MET A   1      -8.262  12.240  68.220  1.00  0.00     0.000 HD 
ENDBRANCH   4   5
ENDBRANCH   3   4
ENDBRANCH   2   3
TORSDOF 3
ENDMDL
MODEL      116
REMARK 921   NORMALIZED FREE ENERGY PREDICTED BY IDOCK:   -2.23 KCAL/MOL
REMARK 922        TOTAL FREE ENERGY PREDICTED BY IDOCK:   -2.79 KCAL/MOL
REMARK 923 INTER-LIGAND FREE ENERGY PREDICTED BY IDOCK:   -2.69 KCAL/MOL
REMARK 924 INTRA-LIGAND FREE ENERGY PREDICTED BY IDOCK:   -0.10 KCAL/MOL
REMARK 927      BINDING AFFINITY PREDICTED BY RF-SCORE:    0.00 PKD
ROOT
ATOM      1  CE  MET A   1      -8.376   6.362  70.327  1.00  0.00    -0.126 C  
ATOM      2  SD  MET A   1      -8.721   8.072  69.851  1.00  0.00    -0.140 SA 
ENDROOT
BRANCH   2   3
ATOM      3  CG  MET A   1      -9.769   8.550  71.263  1.00  0.00    -0.208 C  
BRANCH   3   4
ATOM      4  CB  MET A   1     -10.533   9.829  70.930  1.00  0.00    -0.298 C  
BRANCH   4   5
ATOM      5  CA  MET A   1     -12.018   9.588  70.635  1.00  0.00    -0.197 C  
ATOM      6  C   MET A   1     -12.846  10.260  71.743  1.00  0.00    -0.460 C  
ATOM      7  N   MET A   1     -12.360   8.138  70.621  1.00  0.00    -0.481 NA 
ATOM      8  O   MET A   1     -13.195   9.366  72.706  1.00  0.00    -0.303 OA 
ATOM      9  OXT MET A   1     -13.141  11.443  71.780  1.00  0.00    -0.480 OA 
ATOM     10  H1  MET A   1     -13.348   7.977  70.424  1.00  0.00     0.000 HD 
ATOM     11  H2  MET A   1     -12.078   7.684  71.490  1.00  0.00     0.000 HD 
ENDBRANCH   4   5
ENDBRANCH   3   4
ENDBRANCH   2   3
TORSDOF 3
ENDMDL
MODEL      117
REMARK 921   NORMALIZED FREE ENERGY PREDICTED BY IDOCK:   -2.22 KCAL/MOL
REMARK 922        TOTAL FREE ENERGY PREDICTED BY IDOCK:   -2.79 KCAL/MOL
REMARK 923 INTER-LIGAND FREE ENERGY PREDICTED BY IDOCK:   -2.75 KCAL/MOL
REMARK 924 INTRA-LIGAND FREE ENERGY PREDICTED BY IDOCK:   -0.04 KCAL/MOL
REMARK 927      BINDING AFFINITY PREDICTED BY RF-SCORE:    0.00 PKD
ROOT
ATOM      1  CE  MET A   1     -10.794   6.378  68.239  1.00  0.00    -0.309 C  
ATOM      2  SD  MET A   1     -10.066   7.823  69.047  1.00  0.00    -0.199 SA 
ENDROOT
BRANCH   2   3
ATOM      3  CG  MET A   1      -9.741   8.837  67.568  1.00  0.00    -0.167 C  
BRANCH   3   4
ATOM      4  CB  MET A   1     -10.892   9.816  67.349  1.00  0.00    -0.265 C  
BRANCH   4   5
ATOM      5  CA  MET A   1     -10.435  11.178  66.814  1.00  0.00    -0.252 C  
ATOM      6  C   MET A   1     -11.622  12.152  66.898  1.00  0.00    -0.341 C  
ATOM      7  N   MET A   1     -10.000  11.106  65.391  1.00  0.00    -0.245 NA 
ATOM      8  O   MET A   1     -12.275  12.235  65.709  1.00  0.00    -0.622 OA 
ATOM      9  OXT MET A   1     -11.960  12.763  67.898  1.00  0.00    -0.346 OA 
ATOM     10  H1  MET A   1      -9.695  12.012  65.035  1.00  0.00     0.000 HD 
ATOM     11  H2  MET A   1     -10.729  10.703  64.802  1.00  0.00     0.000 HD 
ENDBRANCH   4   5
ENDBRANCH   3   4
ENDBRANCH   2   3
TORSDOF 3
ENDMDL
MODEL      118
REMARK 921   NORMALIZED FREE ENERGY PREDICTED BY IDOCK:   -2.22 KCAL/MOL
REMARK 922        TOTAL FREE ENERGY PREDICTED BY IDOCK:   -2.77 KCAL/MOL
REMARK 923 INTER-LIGAND FREE ENERGY PREDICTED BY IDOCK:   -2.64 KCAL/MOL
REMARK 924 INTRA-LIGAND FREE ENERGY PREDICTED BY IDOCK:   -0.14 KCAL/MOL
REMARK 927      BINDING AFFINITY PREDICTED BY RF-SCORE:    0.00 PKD
ROOT
ATOM      1  CE  MET A   1      -9.288   3.582  73.592  1.00  0.00    -0.096 C  
ATOM      2  SD  MET A   1      -9.685   4.939  72.464  1.00  0.00    -0.154 SA 
ENDROOT
BRANCH   2   3
ATOM      3  CG  MET A   1     -11.361   5.324  73.068  1.00  0.00    -0.309 C  
BRANCH   3   4
ATOM      4  CB  MET A   1     -12.028   6.330  72.134  1.00  0.00    -0.338 C  
BRANCH   4   5
ATOM      5  CA  MET A   1     -11.108   6.812  71.006  1.00  0.00    -0.273 C  
ATOM      6  C   MET A   1     -10.802   8.302  71.237  1.00  0.00    -0.237 C  
ATOM      7  N   MET A   1     -11.744   6.677  69.665  1.00  0.00    -0.657 NA 
ATOM      8  O   MET A   1     -11.627   9.094  70.503  1.00  0.00    -0.263 OA 
ATOM      9  OXT MET A   1      -9.947   8.734  71.993  1.00  0.00    -0.310 OA 
ATOM     10  H1  MET A   1     -11.132   6.998  68.915  1.00  0.00     0.000 HD 
ATOM     11  H2  MET A   1     -12.646   7.153  69.635  1.00  0.00     0.000 HD 
ENDBRANCH   4   5
ENDBRANCH   3   4
ENDBRANCH   2   3
TORSDOF 3
ENDMDL
MODEL      119
REMARK 921   NORMALIZED FREE ENERGY PREDICTED BY IDOCK:   -2.21 KCAL/MOL
REMARK 922        TOTAL FREE ENERGY PREDICTED BY IDOCK:   -2.77 KCAL/MOL
REMARK 923 INTER-LIGAND FREE ENERGY PREDICTED BY IDOCK:   -2.68 KCAL/MOL
REMARK 924 INTRA-LIGAND FREE ENERGY PREDICTED BY IDOCK:   -0.10 KCAL/MOL
REMARK 927      BINDING AFFINITY PREDICTED BY RF-SCORE:    0.00 PKD
ROOT
ATOM      1  CE  MET A   1     -12.184  10.753  70.424  1.00  0.00    -0.349 C  
ATOM      2  SD  MET A   1     -10.862  10.416  69.236  1.00  0.00    -0.258 SA 
ENDROOT
BRANCH   2   3
ATOM      3  CG  MET A   1     -10.686  12.087  68.531  1.00  0.00    -0.234 C  
BRANCH   3   4
ATOM      4  CB  MET A   1     -11.270  12.116  67.120  1.00  0.00    -0.372 C  
BRANCH   4   5
ATOM      5  CA  MET A   1     -10.282  12.629  66.067  1.00  0.00    -0.272 C  
ATOM      6  C   MET A   1     -10.092  11.530  65.008  1.00  0.00    -0.270 C  
ATOM      7  N   MET A   1      -8.946  12.938  66.652  1.00  0.00    -0.374 NA 
ATOM      8  O   MET A   1      -8.981  10.788  65.262  1.00  0.00    -0.187 OA 
ATOM      9  OXT MET A   1     -10.842  11.322  64.068  1.00  0.00    -0.362 OA 
ATOM     10  H1  MET A   1      -8.289  13.280  65.951  1.00  0.00     0.000 HD 
ATOM     11  H2  MET A   1      -8.568  12.134  67.153  1.00  0.00     0.000 HD 
ENDBRANCH   4   5
ENDBRANCH   3   4
ENDBRANCH   2   3
TORSDOF 3
ENDMDL
MODEL      120
REMARK 921   NORMALIZED FREE ENERGY PREDICTED BY IDOCK:   -2.21 KCAL/MOL
REMARK 922        TOTAL FREE ENERGY PREDICTED BY IDOCK:   -2.77 KCAL/MOL
REMARK 923 INTER-LIGAND FREE ENERGY PREDICTED BY IDOCK:   -2.69 KCAL/MOL
REMARK 924 INTRA-LIGAND FREE ENERGY PREDICTED BY IDOCK:   -0.07 KCAL/MOL
REMARK 927      BINDING AFFINITY PREDICTED BY RF-SCORE:    0.00 PKD
ROOT
ATOM      1  CE  MET A   1      -7.382  14.312  68.221  1.00  0.00    -0.124 C  
ATOM      2  SD  MET A   1      -8.599  13.123  67.608  1.00  0.00    -0.207 SA 
ENDROOT
BRANCH   2   3
ATOM      3  CG  MET A   1      -9.887  14.294  67.068  1.00  0.00    -0.254 C  
BRANCH   3   4
ATOM      4  CB  MET A   1     -10.208  15.267  68.200  1.00  0.00    -0.230 C  
BRANCH   4   5
ATOM      5  CA  MET A   1     -11.711  15.495  68.395  1.00  0.00    -0.309 C  
ATOM      6  C   MET A   1     -12.046  15.269  69.879  1.00  0.00    -0.343 C  
ATOM      7  N   MET A   1     -12.533  14.548  67.590  1.00  0.00    -0.514 NA 
ATOM      8  O   MET A   1     -12.509  14.009  70.092  1.00  0.00    -0.344 OA 
ATOM      9  OXT MET A   1     -11.901  16.094  70.766  1.00  0.00    -0.369 OA 
ATOM     10  H1  MET A   1     -13.533  14.700  67.719  1.00  0.00     0.000 HD 
ATOM     11  H2  MET A   1     -12.278  13.579  67.786  1.00  0.00     0.000 HD 
ENDBRANCH   4   5
ENDBRANCH   3   4
ENDBRANCH   2   3
TORSDOF 3
ENDMDL
MODEL      121
REMARK 921   NORMALIZED FREE ENERGY PREDICTED BY IDOCK:   -2.19 KCAL/MOL
REMARK 922        TOTAL FREE ENERGY PREDICTED BY IDOCK:   -2.75 KCAL/MOL
REMARK 923 INTER-LIGAND FREE ENERGY PREDICTED BY IDOCK:   -2.70 KCAL/MOL
REMARK 924 INTRA-LIGAND FREE ENERGY PREDICTED BY IDOCK:   -0.05 KCAL/MOL
REMARK 927      BINDING AFFINITY PREDICTED BY RF-SCORE:    0.00 PKD
ROOT
ATOM      1  CE  MET A   1      -8.351  10.322  69.376  1.00  0.00    -0.161 C  
ATOM      2  SD  MET A   1      -7.102  11.265  68.468  1.00  0.00    -0.090 SA 
ENDROOT
BRANCH   2   3
ATOM      3  CG  MET A   1      -8.097  11.715  67.010  1.00  0.00    -0.164 C  
BRANCH   3   4
ATOM      4  CB  MET A   1      -9.104  12.800  67.386  1.00  0.00    -0.192 C  
BRANCH   4   5
ATOM      5  CA  MET A   1      -9.963  13.264  66.205  1.00  0.00    -0.293 C  
ATOM      6  C   MET A   1     -11.427  13.334  66.670  1.00  0.00    -0.347 C  
ATOM      7  N   MET A   1      -9.892  12.321  65.053  1.00  0.00    -0.422 NA 
ATOM      8  O   MET A   1     -12.104  12.203  66.337  1.00  0.00    -0.630 OA 
ATOM      9  OXT MET A   1     -11.927  14.265  67.280  1.00  0.00    -0.401 OA 
ATOM     10  H1  MET A   1     -10.464  12.631  64.266  1.00  0.00     0.000 HD 
ATOM     11  H2  MET A   1     -10.137  11.373  65.337  1.00  0.00     0.000 HD 
ENDBRANCH   4   5
ENDBRANCH   3   4
ENDBRANCH   2   3
TORSDOF 3
ENDMDL
MODEL      122
REMARK 921   NORMALIZED FREE ENERGY PREDICTED BY IDOCK:   -2.18 KCAL/MOL
REMARK 922        TOTAL FREE ENERGY PREDICTED BY IDOCK:   -2.74 KCAL/MOL
REMARK 923 INTER-LIGAND FREE ENERGY PREDICTED BY IDOCK:   -2.61 KCAL/MOL
REMARK 924 INTRA-LIGAND FREE ENERGY PREDICTED BY IDOCK:   -0.13 KCAL/MOL
REMARK 927      BINDING AFFINITY PREDICTED BY RF-SCORE:    0.00 PKD
ROOT
ATOM      1  CE  MET A   1      -9.040   7.333  70.611  1.00  0.00    -0.157 C  
ATOM      2  SD  MET A   1     -10.653   7.444  71.421  1.00  0.00    -0.214 SA 
ENDROOT
BRANCH   2   3
ATOM      3  CG  MET A   1     -11.369   8.800  70.436  1.00  0.00    -0.192 C  
BRANCH   3   4
ATOM      4  CB  MET A   1     -10.272   9.782  70.035  1.00  0.00    -0.308 C  
BRANCH   4   5
ATOM      5  CA  MET A   1     -10.232  10.064  68.529  1.00  0.00    -0.175 C  
ATOM      6  C   MET A   1     -10.802  11.472  68.286  1.00  0.00    -0.216 C  
ATOM      7  N   MET A   1     -11.058   9.095  67.753  1.00  0.00    -0.474 NA 
ATOM      8  O   MET A   1     -12.116  11.418  67.943  1.00  0.00    -0.646 OA 
ATOM      9  OXT MET A   1     -10.177  12.513  68.403  1.00  0.00    -0.225 OA 
ATOM     10  H1  MET A   1     -11.031   9.283  66.751  1.00  0.00     0.000 HD 
ATOM     11  H2  MET A   1     -12.017   9.068  68.099  1.00  0.00     0.000 HD 
ENDBRANCH   4   5
ENDBRANCH   3   4
ENDBRANCH   2   3
TORSDOF 3
ENDMDL
MODEL      123
REMARK 921   NORMALIZED FREE ENERGY PREDICTED BY IDOCK:   -2.18 KCAL/MOL
REMARK 922        TOTAL FREE ENERGY PREDICTED BY IDOCK:   -2.73 KCAL/MOL
REMARK 923 INTER-LIGAND FREE ENERGY PREDICTED BY IDOCK:   -2.53 KCAL/MOL
REMARK 924 INTRA-LIGAND FREE ENERGY PREDICTED BY IDOCK:   -0.20 KCAL/MOL
REMARK 927      BINDING AFFINITY PREDICTED BY RF-SCORE:    0.00 PKD
ROOT
ATOM      1  CE  MET A   1     -10.234  17.442  66.408  1.00  0.00    -0.338 C  
ATOM      2  SD  MET A   1     -10.076  17.761  68.182  1.00  0.00    -0.384 SA 
ENDROOT
BRANCH   2   3
ATOM      3  CG  MET A   1     -11.251  16.512  68.797  1.00  0.00    -0.277 C  
BRANCH   3   4
ATOM      4  CB  MET A   1     -11.441  15.420  67.747  1.00  0.00    -0.284 C  
BRANCH   4   5
ATOM      5  CA  MET A   1     -10.984  14.036  68.223  1.00  0.00    -0.255 C  
ATOM      6  C   MET A   1      -9.525  13.831  67.781  1.00  0.00    -0.216 C  
ATOM      7  N   MET A   1     -11.801  12.939  67.630  1.00  0.00    -0.362 NA 
ATOM      8  O   MET A   1      -9.457  13.129  66.619  1.00  0.00    -0.251 OA 
ATOM      9  OXT MET A   1      -8.546  14.255  68.373  1.00  0.00    -0.165 OA 
ATOM     10  H1  MET A   1     -11.497  12.019  67.947  1.00  0.00     0.000 HD 
ATOM     11  H2  MET A   1     -11.810  12.995  66.611  1.00  0.00     0.000 HD 
ENDBRANCH   4   5
ENDBRANCH   3   4
ENDBRANCH   2   3
TORSDOF 3
ENDMDL
MODEL      124
REMARK 921   NORMALIZED FREE ENERGY PREDICTED BY IDOCK:   -2.18 KCAL/MOL
REMARK 922        TOTAL FREE ENERGY PREDICTED BY IDOCK:   -2.73 KCAL/MOL
REMARK 923 INTER-LIGAND FREE ENERGY PREDICTED BY IDOCK:   -2.59 KCAL/MOL
REMARK 924 INTRA-LIGAND FREE ENERGY PREDICTED BY IDOCK:   -0.14 KCAL/MOL
REMARK 927      BINDING AFFINITY PREDICTED BY RF-SCORE:    0.00 PKD
ROOT
ATOM      1  CE  MET A   1      -6.679  20.386  67.635  1.00  0.00    -0.275 C  
ATOM      2  SD  MET A   1      -8.266  19.604  68.010  1.00  0.00    -0.307 SA 
ENDROOT
BRANCH   2   3
ATOM      3  CG  MET A   1      -8.493  18.674  66.460  1.00  0.00    -0.291 C  
BRANCH   3   4
ATOM      4  CB  MET A   1      -9.864  18.002  66.456  1.00  0.00    -0.353 C  
BRANCH   4   5
ATOM      5  CA  MET A   1      -9.789  16.472  66.469  1.00  0.00    -0.278 C  
ATOM      6  C   MET A   1     -10.190  15.980  67.870  1.00  0.00    -0.258 C  
ATOM      7  N   MET A   1      -8.413  15.974  66.186  1.00  0.00    -0.298 NA 
ATOM      8  O   MET A   1      -9.096  15.747  68.642  1.00  0.00    -0.185 OA 
ATOM      9  OXT MET A   1     -11.337  15.834  68.262  1.00  0.00    -0.344 OA 
ATOM     10  H1  MET A   1      -8.363  14.955  66.194  1.00  0.00     0.000 HD 
ATOM     11  H2  MET A   1      -7.733  16.383  66.827  1.00  0.00     0.000 HD 
ENDBRANCH   4   5
ENDBRANCH   3   4
ENDBRANCH   2   3
TORSDOF 3
ENDMDL
MODEL      125
REMARK 921   NORMALIZED FREE ENERGY PREDICTED BY IDOCK:   -2.17 KCAL/MOL
REMARK 922        TOTAL FREE ENERGY PREDICTED BY IDOCK:   -2.73 KCAL/MOL
REMARK 923 INTER-LIGAND FREE ENERGY PREDICTED BY IDOCK:   -2.62 KCAL/MOL
REMARK 924 INTRA-LIGAND FREE ENERGY PREDICTED BY IDOCK:   -0.10 KCAL/MOL
REMARK 927      BINDING AFFINITY PREDICTED BY RF-SCORE:    0.00 PKD
ROOT
ATOM      1  CE  MET A   1      -8.979   7.611  70.971  1.00  0.00    -0.146 C  
ATOM      2  SD  MET A   1     -10.519   7.328  70.065  1.00  0.00    -0.229 SA 
ENDROOT
BRANCH   2   3
ATOM      3  CG  MET A   1     -10.633   8.928  69.200  1.00  0.00    -0.195 C  
BRANCH   3   4
ATOM      4  CB  MET A   1     -10.672  10.065  70.219  1.00  0.00    -0.367 C  
BRANCH   4   5
ATOM      5  CA  MET A   1     -11.818  11.054  69.980  1.00  0.00    -0.355 C  
ATOM      6  C   MET A   1     -12.934  10.755  70.995  1.00  0.00    -0.332 C  
ATOM      7  N   MET A   1     -12.396  10.924  68.612  1.00  0.00    -0.777 NA 
ATOM      8  O   MET A   1     -13.896   9.964  70.451  1.00  0.00     0.181 OA 
ATOM      9  OXT MET A   1     -12.958  11.151  72.149  1.00  0.00    -0.399 OA 
ATOM     10  H1  MET A   1     -13.159  11.583  68.453  1.00  0.00     0.000 HD 
ATOM     11  H2  MET A   1     -12.691   9.966  68.425  1.00  0.00     0.000 HD 
ENDBRANCH   4   5
ENDBRANCH   3   4
ENDBRANCH   2   3
TORSDOF 3
ENDMDL
MODEL      126
REMARK 921   NORMALIZED FREE ENERGY PREDICTED BY IDOCK:   -2.17 KCAL/MOL
REMARK 922        TOTAL FREE ENERGY PREDICTED BY IDOCK:   -2.72 KCAL/MOL
REMARK 923 INTER-LIGAND FREE ENERGY PREDICTED BY IDOCK:   -2.99 KCAL/MOL
REMARK 924 INTRA-LIGAND FREE ENERGY PREDICTED BY IDOCK:    0.27 KCAL/MOL
REMARK 927      BINDING AFFINITY PREDICTED BY RF-SCORE:    0.00 PKD
ROOT
ATOM      1  CE  MET A   1     -10.256  14.739  65.173  1.00  0.00    -0.377 C  
ATOM      2  SD  MET A   1     -10.948  13.290  66.003  1.00  0.00    -0.281 SA 
ENDROOT
BRANCH   2   3
ATOM      3  CG  MET A   1     -12.141  14.134  67.091  1.00  0.00    -0.397 C  
BRANCH   3   4
ATOM      4  CB  MET A   1     -11.463  15.311  67.788  1.00  0.00    -0.312 C  
BRANCH   4   5
ATOM      5  CA  MET A   1     -11.023  14.995  69.221  1.00  0.00    -0.264 C  
ATOM      6  C   MET A   1     -11.994  13.955  69.806  1.00  0.00    -0.338 C  
ATOM      7  N   MET A   1     -11.057  16.199  70.099  1.00  0.00    -0.359 NA 
ATOM      8  O   MET A   1     -12.964  14.551  70.550  1.00  0.00    -0.350 OA 
ATOM      9  OXT MET A   1     -11.930  12.751  69.620  1.00  0.00    -0.314 OA 
ATOM     10  H1  MET A   1     -10.763  15.988  71.053  1.00  0.00     0.000 HD 
ATOM     11  H2  MET A   1     -11.976  16.641  70.084  1.00  0.00     0.000 HD 
ENDBRANCH   4   5
ENDBRANCH   3   4
ENDBRANCH   2   3
TORSDOF 3
ENDMDL
MODEL      127
REMARK 921   NORMALIZED FREE ENERGY PREDICTED BY IDOCK:   -2.17 KCAL/MOL
REMARK 922        TOTAL FREE ENERGY PREDICTED BY IDOCK:   -2.72 KCAL/MOL
REMARK 923 INTER-LIGAND FREE ENERGY PREDICTED BY IDOCK:   -2.63 KCAL/MOL
REMARK 924 INTRA-LIGAND FREE ENERGY PREDICTED BY IDOCK:   -0.08 KCAL/MOL
REMARK 927      BINDING AFFINITY PREDICTED BY RF-SCORE:    0.00 PKD
ROOT
ATOM      1  CE  MET A   1     -10.699  16.625  67.422  1.00  0.00    -0.253 C  
ATOM      2  SD  MET A   1      -9.560  15.662  66.399  1.00  0.00    -0.317 SA 
ENDROOT
BRANCH   2   3
ATOM      3  CG  MET A   1      -8.312  16.952  66.081  1.00  0.00    -0.251 C  
BRANCH   3   4
ATOM      4  CB  MET A   1      -8.738  18.259  66.746  1.00  0.00    -0.281 C  
BRANCH   4   5
ATOM      5  CA  MET A   1      -7.577  19.236  66.959  1.00  0.00    -0.235 C  
ATOM      6  C   MET A   1      -6.956  18.954  68.338  1.00  0.00    -0.254 C  
ATOM      7  N   MET A   1      -8.026  20.657  66.940  1.00  0.00    -0.546 NA 
ATOM      8  O   MET A   1      -7.451  19.798  69.282  1.00  0.00    -0.316 OA 
ATOM      9  OXT MET A   1      -6.141  18.078  68.576  1.00  0.00    -0.183 OA 
ATOM     10  H1  MET A   1      -7.253  21.307  67.082  1.00  0.00     0.000 HD 
ATOM     11  H2  MET A   1      -8.773  20.817  67.617  1.00  0.00     0.000 HD 
ENDBRANCH   4   5
ENDBRANCH   3   4
ENDBRANCH   2   3
TORSDOF 3
ENDMDL
MODEL      128
REMARK 921   NORMALIZED FREE ENERGY PREDICTED BY IDOCK:   -2.15 KCAL/MOL
REMARK 922        TOTAL FREE ENERGY PREDICTED BY IDOCK:   -2.70 KCAL/MOL
REMARK 923 INTER-LIGAND FREE ENERGY PREDICTED BY IDOCK:   -2.57 KCAL/MOL
REMARK 924 INTRA-LIGAND FREE ENERGY PREDICTED BY IDOCK:   -0.13 KCAL/MOL
REMARK 927      BINDING AFFINITY PREDICTED BY RF-SCORE:    0.00 PKD
ROOT
ATOM      1  CE  MET A   1      -8.941  12.653  66.820  1.00  0.00    -0.197 C  
ATOM      2  SD  MET A   1      -9.640  11.834  68.273  1.00  0.00    -0.197 SA 
ENDROOT
BRANCH   2   3
ATOM      3  CG  MET A   1     -11.403  12.178  67.967  1.00  0.00    -0.295 C  
BRANCH   3   4
ATOM      4  CB  MET A   1     -11.587  13.651  67.609  1.00  0.00    -0.381 C  
BRANCH   4   5
ATOM      5  CA  MET A   1     -12.093  14.500  68.780  1.00  0.00    -0.221 C  
ATOM      6  C   MET A   1     -11.109  15.663  68.993  1.00  0.00    -0.279 C  
ATOM      7  N   MET A   1     -12.166  13.722  70.049  1.00  0.00    -0.344 NA 
ATOM      8  O   MET A   1     -10.213  15.376  69.974  1.00  0.00    -0.296 OA 
ATOM      9  OXT MET A   1     -11.106  16.706  68.360  1.00  0.00    -0.359 OA 
ATOM     10  H1  MET A   1     -12.503  14.288  70.828  1.00  0.00     0.000 HD 
ATOM     11  H2  MET A   1     -11.269  13.288  70.268  1.00  0.00     0.000 HD 
ENDBRANCH   4   5
ENDBRANCH   3   4
ENDBRANCH   2   3
TORSDOF 3
ENDMDL
MODEL      129
REMARK 921   NORMALIZED FREE ENERGY PREDICTED BY IDOCK:   -2.14 KCAL/MOL
REMARK 922        TOTAL FREE ENERGY PREDICTED BY IDOCK:   -2.69 KCAL/MOL
REMARK 923 INTER-LIGAND FREE ENERGY PREDICTED BY IDOCK:   -2.55 KCAL/MOL
REMARK 924 INTRA-LIGAND FREE ENERGY PREDICTED BY IDOCK:   -0.14 KCAL/MOL
REMARK 927      BINDING AFFINITY PREDICTED BY RF-SCORE:    0.00 PKD
ROOT
ATOM      1  CE  MET A   1     -11.345  15.060  64.840  1.00  0.00    -0.417 C  
ATOM      2  SD  MET A   1     -12.626  13.868  65.296  1.00  0.00    -0.446 SA 
ENDROOT
BRANCH   2   3
ATOM      3  CG  MET A   1     -11.562  12.572  66.009  1.00  0.00    -0.406 C  
BRANCH   3   4
ATOM      4  CB  MET A   1     -10.169  13.137  66.276  1.00  0.00    -0.294 C  
BRANCH   4   5
ATOM      5  CA  MET A   1      -9.849  13.279  67.768  1.00  0.00    -0.224 C  
ATOM      6  C   MET A   1      -9.011  12.065  68.200  1.00  0.00    -0.190 C  
ATOM      7  N   MET A   1     -11.081  13.308  68.607  1.00  0.00    -0.256 NA 
ATOM      8  O   MET A   1      -9.790  11.102  68.761  1.00  0.00    -0.197 OA 
ATOM      9  OXT MET A   1      -7.805  11.953  68.048  1.00  0.00    -0.122 OA 
ATOM     10  H1  MET A   1     -10.868  13.403  69.600  1.00  0.00     0.000 HD 
ATOM     11  H2  MET A   1     -11.667  12.491  68.431  1.00  0.00     0.000 HD 
ENDBRANCH   4   5
ENDBRANCH   3   4
ENDBRANCH   2   3
TORSDOF 3
ENDMDL
MODEL      130
REMARK 921   NORMALIZED FREE ENERGY PREDICTED BY IDOCK:   -2.13 KCAL/MOL
REMARK 922        TOTAL FREE ENERGY PREDICTED BY IDOCK:   -2.68 KCAL/MOL
REMARK 923 INTER-LIGAND FREE ENERGY PREDICTED BY IDOCK:   -2.82 KCAL/MOL
REMARK 924 INTRA-LIGAND FREE ENERGY PREDICTED BY IDOCK:    0.14 KCAL/MOL
REMARK 927      BINDING AFFINITY PREDICTED BY RF-SCORE:    0.00 PKD
ROOT
ATOM      1  CE  MET A   1      -7.487  13.703  68.138  1.00  0.00    -0.125 C  
ATOM      2  SD  MET A   1      -8.033  15.103  67.131  1.00  0.00    -0.191 SA 
ENDROOT
BRANCH   2   3
ATOM      3  CG  MET A   1      -9.829  14.960  67.403  1.00  0.00    -0.221 C  
BRANCH   3   4
ATOM      4  CB  MET A   1     -10.108  13.901  68.466  1.00  0.00    -0.234 C  
BRANCH   4   5
ATOM      5  CA  MET A   1     -11.547  13.374  68.432  1.00  0.00    -0.332 C  
ATOM      6  C   MET A   1     -11.931  13.111  66.966  1.00  0.00    -0.355 C  
ATOM      7  N   MET A   1     -12.519  14.355  68.992  1.00  0.00    -0.552 NA 
ATOM      8  O   MET A   1     -12.616  14.161  66.441  1.00  0.00    -0.427 OA 
ATOM      9  OXT MET A   1     -11.646  12.106  66.335  1.00  0.00    -0.386 OA 
ATOM     10  H1  MET A   1     -13.476  14.004  68.970  1.00  0.00     0.000 HD 
ATOM     11  H2  MET A   1     -12.445  15.257  68.521  1.00  0.00     0.000 HD 
ENDBRANCH   4   5
ENDBRANCH   3   4
ENDBRANCH   2   3
TORSDOF 3
ENDMDL
MODEL      131
REMARK 921   NORMALIZED FREE ENERGY PREDICTED BY IDOCK:   -2.13 KCAL/MOL
REMARK 922        TOTAL FREE ENERGY PREDICTED BY IDOCK:   -2.67 KCAL/MOL
REMARK 923 INTER-LIGAND FREE ENERGY PREDICTED BY IDOCK:   -2.56 KCAL/MOL
REMARK 924 INTRA-LIGAND FREE ENERGY PREDICTED BY IDOCK:   -0.11 KCAL/MOL
REMARK 927      BINDING AFFINITY PREDICTED BY RF-SCORE:    0.00 PKD
ROOT
ATOM      1  CE  MET A   1      -6.657  15.318  67.569  1.00  0.00    -0.151 C  
ATOM      2  SD  MET A   1      -5.857  16.901  67.924  1.00  0.00    -0.132 SA 
ENDROOT
BRANCH   2   3
ATOM      3  CG  MET A   1      -5.734  17.541  66.222  1.00  0.00    -0.208 C  
BRANCH   3   4
ATOM      4  CB  MET A   1      -7.036  18.239  65.836  1.00  0.00    -0.291 C  
BRANCH   4   5
ATOM      5  CA  MET A   1      -7.206  19.611  66.497  1.00  0.00    -0.228 C  
ATOM      6  C   MET A   1      -8.517  19.601  67.301  1.00  0.00    -0.307 C  
ATOM      7  N   MET A   1      -7.291  20.711  65.495  1.00  0.00    -0.527 NA 
ATOM      8  O   MET A   1      -9.536  20.147  66.587  1.00  0.00    -0.391 OA 
ATOM      9  OXT MET A   1      -8.647  19.147  68.426  1.00  0.00    -0.326 OA 
ATOM     10  H1  MET A   1      -7.403  21.625  65.935  1.00  0.00     0.000 HD 
ATOM     11  H2  MET A   1      -8.030  20.535  64.815  1.00  0.00     0.000 HD 
ENDBRANCH   4   5
ENDBRANCH   3   4
ENDBRANCH   2   3
TORSDOF 3
ENDMDL
MODEL      132
REMARK 921   NORMALIZED FREE ENERGY PREDICTED BY IDOCK:   -2.13 KCAL/MOL
REMARK 922        TOTAL FREE ENERGY PREDICTED BY IDOCK:   -2.67 KCAL/MOL
REMARK 923 INTER-LIGAND FREE ENERGY PREDICTED BY IDOCK:   -2.60 KCAL/MOL
REMARK 924 INTRA-LIGAND FREE ENERGY PREDICTED BY IDOCK:   -0.07 KCAL/MOL
REMARK 927      BINDING AFFINITY PREDICTED BY RF-SCORE:    0.00 PKD
ROOT
ATOM      1  CE  MET A   1     -10.906   5.836  71.983  1.00  0.00    -0.251 C  
ATOM      2  SD  MET A   1     -11.266   7.503  72.586  1.00  0.00    -0.351 SA 
ENDROOT
BRANCH   2   3
ATOM      3  CG  MET A   1     -11.504   8.335  70.982  1.00  0.00    -0.275 C  
BRANCH   3   4
ATOM      4  CB  MET A   1     -10.991   9.771  71.064  1.00  0.00    -0.402 C  
BRANCH   4   5
ATOM      5  CA  MET A   1     -11.444  10.643  69.887  1.00  0.00    -0.317 C  
ATOM      6  C   MET A   1     -10.355  10.594  68.803  1.00  0.00    -0.193 C  
ATOM      7  N   MET A   1     -11.633  12.068  70.284  1.00  0.00    -0.527 NA 
ATOM      8  O   MET A   1      -9.522  11.665  68.893  1.00  0.00    -0.110 OA 
ATOM      9  OXT MET A   1     -10.227   9.707  67.975  1.00  0.00    -0.173 OA 
ATOM     10  H1  MET A   1     -11.935  12.648  69.501  1.00  0.00     0.000 HD 
ATOM     11  H2  MET A   1     -10.792  12.444  70.720  1.00  0.00     0.000 HD 
ENDBRANCH   4   5
ENDBRANCH   3   4
ENDBRANCH   2   3
TORSDOF 3
ENDMDL
MODEL      133
REMARK 921   NORMALIZED FREE ENERGY PREDICTED BY IDOCK:   -2.12 KCAL/MOL
REMARK 922        TOTAL FREE ENERGY PREDICTED BY IDOCK:   -2.66 KCAL/MOL
REMARK 923 INTER-LIGAND FREE ENERGY PREDICTED BY IDOCK:   -2.55 KCAL/MOL
REMARK 924 INTRA-LIGAND FREE ENERGY PREDICTED BY IDOCK:   -0.11 KCAL/MOL
REMARK 927      BINDING AFFINITY PREDICTED BY RF-SCORE:    0.00 PKD
ROOT
ATOM      1  CE  MET A   1      -6.006  10.987  68.188  1.00  0.00    -0.049 C  
ATOM      2  SD  MET A   1      -7.787  11.099  68.481  1.00  0.00    -0.143 SA 
ENDROOT
BRANCH   2   3
ATOM      3  CG  MET A   1      -8.311  11.635  66.820  1.00  0.00    -0.171 C  
BRANCH   3   4
ATOM      4  CB  MET A   1      -9.313  12.781  66.939  1.00  0.00    -0.234 C  
BRANCH   4   5
ATOM      5  CA  MET A   1     -10.066  12.790  68.274  1.00  0.00    -0.237 C  
ATOM      6  C   MET A   1     -11.568  12.627  67.981  1.00  0.00    -0.343 C  
ATOM      7  N   MET A   1      -9.880  14.069  69.016  1.00  0.00    -0.424 NA 
ATOM      8  O   MET A   1     -12.198  13.832  67.955  1.00  0.00    -0.327 OA 
ATOM      9  OXT MET A   1     -12.132  11.565  67.776  1.00  0.00    -0.626 OA 
ATOM     10  H1  MET A   1     -10.381  14.075  69.904  1.00  0.00     0.000 HD 
ATOM     11  H2  MET A   1     -10.138  14.871  68.441  1.00  0.00     0.000 HD 
ENDBRANCH   4   5
ENDBRANCH   3   4
ENDBRANCH   2   3
TORSDOF 3
ENDMDL
MODEL      134
REMARK 921   NORMALIZED FREE ENERGY PREDICTED BY IDOCK:   -2.12 KCAL/MOL
REMARK 922        TOTAL FREE ENERGY PREDICTED BY IDOCK:   -2.66 KCAL/MOL
REMARK 923 INTER-LIGAND FREE ENERGY PREDICTED BY IDOCK:   -2.57 KCAL/MOL
REMARK 924 INTRA-LIGAND FREE ENERGY PREDICTED BY IDOCK:   -0.09 KCAL/MOL
REMARK 927      BINDING AFFINITY PREDICTED BY RF-SCORE:    0.00 PKD
ROOT
ATOM      1  CE  MET A   1     -11.930  13.984  70.016  1.00  0.00    -0.339 C  
ATOM      2  SD  MET A   1     -11.707  15.652  69.351  1.00  0.00    -0.379 SA 
ENDROOT
BRANCH   2   3
ATOM      3  CG  MET A   1     -11.475  15.224  67.595  1.00  0.00    -0.280 C  
BRANCH   3   4
ATOM      4  CB  MET A   1     -10.195  14.409  67.426  1.00  0.00    -0.247 C  
BRANCH   4   5
ATOM      5  CA  MET A   1      -9.404  14.779  66.166  1.00  0.00    -0.257 C  
ATOM      6  C   MET A   1      -8.203  15.643  66.587  1.00  0.00    -0.249 C  
ATOM      7  N   MET A   1     -10.221  15.569  65.201  1.00  0.00    -0.377 NA 
ATOM      8  O   MET A   1      -8.476  16.967  66.447  1.00  0.00    -0.247 OA 
ATOM      9  OXT MET A   1      -7.144  15.213  67.013  1.00  0.00    -0.199 OA 
ATOM     10  H1  MET A   1      -9.695  15.815  64.362  1.00  0.00     0.000 HD 
ATOM     11  H2  MET A   1     -10.618  16.397  65.644  1.00  0.00     0.000 HD 
ENDBRANCH   4   5
ENDBRANCH   3   4
ENDBRANCH   2   3
TORSDOF 3
ENDMDL
MODEL      135
REMARK 921   NORMALIZED FREE ENERGY PREDICTED BY IDOCK:   -2.10 KCAL/MOL
REMARK 922        TOTAL FREE ENERGY PREDICTED BY IDOCK:   -2.64 KCAL/MOL
REMARK 923 INTER-LIGAND FREE ENERGY PREDICTED BY IDOCK:   -2.57 KCAL/MOL
REMARK 924 INTRA-LIGAND FREE ENERGY PREDICTED BY IDOCK:   -0.07 KCAL/MOL
REMARK 927      BINDING AFFINITY PREDICTED BY RF-SCORE:    0.00 PKD
ROOT
ATOM      1  CE  MET A   1      -7.450  13.885  67.847  1.00  0.00    -0.152 C  
ATOM      2  SD  MET A   1      -7.770  12.108  67.943  1.00  0.00    -0.147 SA 
ENDROOT
BRANCH   2   3
ATOM      3  CG  MET A   1      -9.553  12.123  67.565  1.00  0.00    -0.179 C  
BRANCH   3   4
ATOM      4  CB  MET A   1      -9.760  12.175  66.054  1.00  0.00    -0.258 C  
BRANCH   4   5
ATOM      5  CA  MET A   1     -11.055  12.885  65.644  1.00  0.00    -0.279 C  
ATOM      6  C   MET A   1     -10.821  14.403  65.730  1.00  0.00    -0.307 C  
ATOM      7  N   MET A   1     -12.192  12.546  66.546  1.00  0.00    -0.531 NA 
ATOM      8  O   MET A   1     -11.267  14.904  66.912  1.00  0.00    -0.335 OA 
ATOM      9  OXT MET A   1     -10.286  15.081  64.868  1.00  0.00    -0.383 OA 
ATOM     10  H1  MET A   1     -13.054  13.018  66.273  1.00  0.00     0.000 HD 
ATOM     11  H2  MET A   1     -11.959  12.735  67.521  1.00  0.00     0.000 HD 
ENDBRANCH   4   5
ENDBRANCH   3   4
ENDBRANCH   2   3
TORSDOF 3
ENDMDL
MODEL      136
REMARK 921   NORMALIZED FREE ENERGY PREDICTED BY IDOCK:   -2.09 KCAL/MOL
REMARK 922        TOTAL FREE ENERGY PREDICTED BY IDOCK:   -2.63 KCAL/MOL
REMARK 923 INTER-LIGAND FREE ENERGY PREDICTED BY IDOCK:   -2.55 KCAL/MOL
REMARK 924 INTRA-LIGAND FREE ENERGY PREDICTED BY IDOCK:   -0.08 KCAL/MOL
REMARK 927      BINDING AFFINITY PREDICTED BY RF-SCORE:    0.00 PKD
ROOT
ATOM      1  CE  MET A   1      -9.255   7.877  70.981  1.00  0.00    -0.151 C  
ATOM      2  SD  MET A   1     -11.062   7.894  70.930  1.00  0.00    -0.257 SA 
ENDROOT
BRANCH   2   3
ATOM      3  CG  MET A   1     -11.330   6.354  69.992  1.00  0.00    -0.430 C  
BRANCH   3   4
ATOM      4  CB  MET A   1     -10.295   6.242  68.875  1.00  0.00    -0.246 C  
BRANCH   4   5
ATOM      5  CA  MET A   1     -10.916   6.228  67.474  1.00  0.00    -0.350 C  
ATOM      6  C   MET A   1     -10.057   5.323  66.575  1.00  0.00    -0.229 C  
ATOM      7  N   MET A   1     -10.949   7.586  66.860  1.00  0.00    -0.537 NA 
ATOM      8  O   MET A   1      -9.165   6.051  65.852  1.00  0.00    -0.146 OA 
ATOM      9  OXT MET A   1     -10.137   4.107  66.521  1.00  0.00    -0.203 OA 
ATOM     10  H1  MET A   1     -11.362   7.577  65.928  1.00  0.00     0.000 HD 
ATOM     11  H2  MET A   1     -10.020   8.009  66.849  1.00  0.00     0.000 HD 
ENDBRANCH   4   5
ENDBRANCH   3   4
ENDBRANCH   2   3
TORSDOF 3
ENDMDL
MODEL      137
REMARK 921   NORMALIZED FREE ENERGY PREDICTED BY IDOCK:   -2.08 KCAL/MOL
REMARK 922        TOTAL FREE ENERGY PREDICTED BY IDOCK:   -2.61 KCAL/MOL
REMARK 923 INTER-LIGAND FREE ENERGY PREDICTED BY IDOCK:   -2.44 KCAL/MOL
REMARK 924 INTRA-LIGAND FREE ENERGY PREDICTED BY IDOCK:   -0.18 KCAL/MOL
REMARK 927      BINDING AFFINITY PREDICTED BY RF-SCORE:    0.00 PKD
ROOT
ATOM      1  CE  MET A   1      -5.508  18.559  65.887  1.00  0.00    -0.164 C  
ATOM      2  SD  MET A   1      -6.166  20.177  65.418  1.00  0.00    -0.253 SA 
ENDROOT
BRANCH   2   3
ATOM      3  CG  MET A   1      -7.884  19.954  65.981  1.00  0.00    -0.323 C  
BRANCH   3   4
ATOM      4  CB  MET A   1      -7.901  19.184  67.300  1.00  0.00    -0.274 C  
BRANCH   4   5
ATOM      5  CA  MET A   1      -9.022  18.142  67.379  1.00  0.00    -0.256 C  
ATOM      6  C   MET A   1      -8.380  16.747  67.463  1.00  0.00    -0.188 C  
ATOM      7  N   MET A   1      -9.902  18.171  66.176  1.00  0.00    -0.504 NA 
ATOM      8  O   MET A   1      -8.321  16.158  66.239  1.00  0.00    -0.310 OA 
ATOM      9  OXT MET A   1      -7.955  16.230  68.483  1.00  0.00    -0.165 OA 
ATOM     10  H1  MET A   1     -10.649  17.478  66.229  1.00  0.00     0.000 HD 
ATOM     11  H2  MET A   1      -9.359  18.064  65.319  1.00  0.00     0.000 HD 
ENDBRANCH   4   5
ENDBRANCH   3   4
ENDBRANCH   2   3
TORSDOF 3
ENDMDL
MODEL      138
REMARK 921   NORMALIZED FREE ENERGY PREDICTED BY IDOCK:   -2.07 KCAL/MOL
REMARK 922        TOTAL FREE ENERGY PREDICTED BY IDOCK:   -2.61 KCAL/MOL
REMARK 923 INTER-LIGAND FREE ENERGY PREDICTED BY IDOCK:   -2.51 KCAL/MOL
REMARK 924 INTRA-LIGAND FREE ENERGY PREDICTED BY IDOCK:   -0.10 KCAL/MOL
REMARK 927      BINDING AFFINITY PREDICTED BY RF-SCORE:    0.00 PKD
ROOT
ATOM      1  CE  MET A   1     -12.222  11.281  70.140  1.00  0.00    -0.330 C  
ATOM      2  SD  MET A   1     -10.848  11.089  68.980  1.00  0.00    -0.245 SA 
ENDROOT
BRANCH   2   3
ATOM      3  CG  MET A   1      -9.972   9.723  69.808  1.00  0.00    -0.236 C  
BRANCH   3   4
ATOM      4  CB  MET A   1     -10.554   8.386  69.356  1.00  0.00    -0.204 C  
BRANCH   4   5
ATOM      5  CA  MET A   1     -11.008   7.499  70.521  1.00  0.00    -0.252 C  
ATOM      6  C   MET A   1     -10.065   6.286  70.600  1.00  0.00    -0.189 C  
ATOM      7  N   MET A   1     -12.395   6.988  70.332  1.00  0.00    -0.618 NA 
ATOM      8  O   MET A   1     -10.592   5.209  69.961  1.00  0.00    -0.285 OA 
ATOM      9  OXT MET A   1      -8.972   6.281  71.143  1.00  0.00    -0.145 OA 
ATOM     10  H1  MET A   1     -12.697   6.398  71.107  1.00  0.00     0.000 HD 
ATOM     11  H2  MET A   1     -12.492   6.504  69.439  1.00  0.00     0.000 HD 
ENDBRANCH   4   5
ENDBRANCH   3   4
ENDBRANCH   2   3
TORSDOF 3
ENDMDL
MODEL      139
REMARK 921   NORMALIZED FREE ENERGY PREDICTED BY IDOCK:   -2.07 KCAL/MOL
REMARK 922        TOTAL FREE ENERGY PREDICTED BY IDOCK:   -2.61 KCAL/MOL
REMARK 923 INTER-LIGAND FREE ENERGY PREDICTED BY IDOCK:   -2.44 KCAL/MOL
REMARK 924 INTRA-LIGAND FREE ENERGY PREDICTED BY IDOCK:   -0.17 KCAL/MOL
REMARK 927      BINDING AFFINITY PREDICTED BY RF-SCORE:    0.00 PKD
ROOT
ATOM      1  CE  MET A   1     -11.933  12.729  69.861  1.00  0.00    -0.298 C  
ATOM      2  SD  MET A   1     -11.996  10.969  70.272  1.00  0.00    -0.391 SA 
ENDROOT
BRANCH   2   3
ATOM      3  CG  MET A   1     -10.389  10.462  69.579  1.00  0.00    -0.237 C  
BRANCH   3   4
ATOM      4  CB  MET A   1     -10.511   9.075  68.953  1.00  0.00    -0.231 C  
BRANCH   4   5
ATOM      5  CA  MET A   1      -9.934   7.961  69.833  1.00  0.00    -0.192 C  
ATOM      6  C   MET A   1     -11.106   7.171  70.442  1.00  0.00    -0.280 C  
ATOM      7  N   MET A   1      -9.112   8.498  70.954  1.00  0.00    -0.158 NA 
ATOM      8  O   MET A   1     -11.395   7.609  71.696  1.00  0.00    -0.244 OA 
ATOM      9  OXT MET A   1     -11.721   6.281  69.879  1.00  0.00    -0.408 OA 
ATOM     10  H1  MET A   1      -8.728   7.756  71.539  1.00  0.00     0.000 HD 
ATOM     11  H2  MET A   1      -9.640   9.172  71.509  1.00  0.00     0.000 HD 
ENDBRANCH   4   5
ENDBRANCH   3   4
ENDBRANCH   2   3
TORSDOF 3
ENDMDL
MODEL      140
REMARK 921   NORMALIZED FREE ENERGY PREDICTED BY IDOCK:   -2.07 KCAL/MOL
REMARK 922        TOTAL FREE ENERGY PREDICTED BY IDOCK:   -2.60 KCAL/MOL
REMARK 923 INTER-LIGAND FREE ENERGY PREDICTED BY IDOCK:   -2.57 KCAL/MOL
REMARK 924 INTRA-LIGAND FREE ENERGY PREDICTED BY IDOCK:   -0.03 KCAL/MOL
REMARK 927      BINDING AFFINITY PREDICTED BY RF-SCORE:    0.00 PKD
ROOT
ATOM      1  CE  MET A   1      -6.304  10.367  65.402  1.00  0.00    -0.122 C  
ATOM      2  SD  MET A   1      -7.381  10.383  66.855  1.00  0.00    -0.111 SA 
ENDROOT
BRANCH   2   3
ATOM      3  CG  MET A   1      -8.711  11.446  66.206  1.00  0.00    -0.173 C  
BRANCH   3   4
ATOM      4  CB  MET A   1      -9.735  11.721  67.304  1.00  0.00    -0.188 C  
BRANCH   4   5
ATOM      5  CA  MET A   1     -11.183  11.710  66.799  1.00  0.00    -0.308 C  
ATOM      6  C   MET A   1     -11.491  13.086  66.186  1.00  0.00    -0.340 C  
ATOM      7  N   MET A   1     -12.160  11.468  67.898  1.00  0.00    -0.605 NA 
ATOM      8  O   MET A   1     -12.120  13.894  67.080  1.00  0.00    -0.420 OA 
ATOM      9  OXT MET A   1     -11.196  13.432  65.053  1.00  0.00    -0.303 OA 
ATOM     10  H1  MET A   1     -13.123  11.460  67.562  1.00  0.00     0.000 HD 
ATOM     11  H2  MET A   1     -12.038  12.142  68.655  1.00  0.00     0.000 HD 
ENDBRANCH   4   5
ENDBRANCH   3   4
ENDBRANCH   2   3
TORSDOF 3
ENDMDL
MODEL      141
REMARK 921   NORMALIZED FREE ENERGY PREDICTED BY IDOCK:   -2.05 KCAL/MOL
REMARK 922        TOTAL FREE ENERGY PREDICTED BY IDOCK:   -2.58 KCAL/MOL
REMARK 923 INTER-LIGAND FREE ENERGY PREDICTED BY IDOCK:   -2.50 KCAL/MOL
REMARK 924 INTRA-LIGAND FREE ENERGY PREDICTED BY IDOCK:   -0.09 KCAL/MOL
REMARK 927      BINDING AFFINITY PREDICTED BY RF-SCORE:    0.00 PKD
ROOT
ATOM      1  CE  MET A   1      -9.853  10.410  65.924  1.00  0.00    -0.235 C  
ATOM      2  SD  MET A   1     -10.873  10.459  67.417  1.00  0.00    -0.261 SA 
ENDROOT
BRANCH   2   3
ATOM      3  CG  MET A   1     -11.219  12.247  67.462  1.00  0.00    -0.297 C  
BRANCH   3   4
ATOM      4  CB  MET A   1     -10.175  12.955  68.322  1.00  0.00    -0.245 C  
BRANCH   4   5
ATOM      5  CA  MET A   1      -9.532  14.159  67.625  1.00  0.00    -0.213 C  
ATOM      6  C   MET A   1     -10.479  15.362  67.769  1.00  0.00    -0.266 C  
ATOM      7  N   MET A   1      -9.314  13.917  66.171  1.00  0.00    -0.493 NA 
ATOM      8  O   MET A   1     -11.256  15.512  66.664  1.00  0.00    -0.252 OA 
ATOM      9  OXT MET A   1     -10.551  16.086  68.748  1.00  0.00    -0.236 OA 
ATOM     10  H1  MET A   1      -8.886  14.718  65.707  1.00  0.00     0.000 HD 
ATOM     11  H2  MET A   1     -10.182  13.643  65.709  1.00  0.00     0.000 HD 
ENDBRANCH   4   5
ENDBRANCH   3   4
ENDBRANCH   2   3
TORSDOF 3
ENDMDL
MODEL      142
REMARK 921   NORMALIZED FREE ENERGY PREDICTED BY IDOCK:   -2.04 KCAL/MOL
REMARK 922        TOTAL FREE ENERGY PREDICTED BY IDOCK:   -2.57 KCAL/MOL
REMARK 923 INTER-LIGAND FREE ENERGY PREDICTED BY IDOCK:   -2.50 KCAL/MOL
REMARK 924 INTRA-LIGAND FREE ENERGY PREDICTED BY IDOCK:   -0.07 KCAL/MOL
REMARK 927      BINDING AFFINITY PREDICTED BY RF-SCORE:    0.00 PKD
ROOT
ATOM      1  CE  MET A   1      -5.698  18.708  67.216  1.00  0.00    -0.144 C  
ATOM      2  SD  MET A   1      -6.926  18.543  68.534  1.00  0.00    -0.277 SA 
ENDROOT
BRANCH   2   3
ATOM      3  CG  MET A   1      -8.145  17.514  67.653  1.00  0.00    -0.207 C  
BRANCH   3   4
ATOM      4  CB  MET A   1      -9.382  17.315  68.526  1.00  0.00    -0.276 C  
BRANCH   4   5
ATOM      5  CA  MET A   1      -9.673  15.843  68.837  1.00  0.00    -0.230 C  
ATOM      6  C   MET A   1     -11.058  15.754  69.500  1.00  0.00    -0.306 C  
ATOM      7  N   MET A   1      -8.675  15.259  69.778  1.00  0.00    -0.398 NA 
ATOM      8  O   MET A   1     -10.953  15.714  70.855  1.00  0.00    -0.328 OA 
ATOM      9  OXT MET A   1     -12.122  15.743  68.904  1.00  0.00    -0.333 OA 
ATOM     10  H1  MET A   1      -8.869  14.279  69.984  1.00  0.00     0.000 HD 
ATOM     11  H2  MET A   1      -8.608  15.810  70.633  1.00  0.00     0.000 HD 
ENDBRANCH   4   5
ENDBRANCH   3   4
ENDBRANCH   2   3
TORSDOF 3
ENDMDL
MODEL      143
REMARK 921   NORMALIZED FREE ENERGY PREDICTED BY IDOCK:   -2.04 KCAL/MOL
REMARK 922        TOTAL FREE ENERGY PREDICTED BY IDOCK:   -2.57 KCAL/MOL
REMARK 923 INTER-LIGAND FREE ENERGY PREDICTED BY IDOCK:   -2.54 KCAL/MOL
REMARK 924 INTRA-LIGAND FREE ENERGY PREDICTED BY IDOCK:   -0.03 KCAL/MOL
REMARK 927      BINDING AFFINITY PREDICTED BY RF-SCORE:    0.00 PKD
ROOT
ATOM      1  CE  MET A   1     -10.984  11.002  67.219  1.00  0.00    -0.297 C  
ATOM      2  SD  MET A   1     -11.646  12.117  65.958  1.00  0.00    -0.300 SA 
ENDROOT
BRANCH   2   3
ATOM      3  CG  MET A   1     -10.450  13.481  66.136  1.00  0.00    -0.296 C  
BRANCH   3   4
ATOM      4  CB  MET A   1     -11.027  14.558  67.052  1.00  0.00    -0.312 C  
BRANCH   4   5
ATOM      5  CA  MET A   1     -10.420  14.546  68.459  1.00  0.00    -0.250 C  
ATOM      6  C   MET A   1      -9.836  15.939  68.745  1.00  0.00    -0.216 C  
ATOM      7  N   MET A   1      -9.316  13.552  68.586  1.00  0.00    -0.382 NA 
ATOM      8  O   MET A   1      -8.501  15.977  68.489  1.00  0.00    -0.172 OA 
ATOM      9  OXT MET A   1     -10.477  16.903  69.131  1.00  0.00    -0.311 OA 
ATOM     10  H1  MET A   1      -8.912  13.543  69.523  1.00  0.00     0.000 HD 
ATOM     11  H2  MET A   1      -8.600  13.702  67.876  1.00  0.00     0.000 HD 
ENDBRANCH   4   5
ENDBRANCH   3   4
ENDBRANCH   2   3
TORSDOF 3
ENDMDL
MODEL      144
REMARK 921   NORMALIZED FREE ENERGY PREDICTED BY IDOCK:   -2.02 KCAL/MOL
REMARK 922        TOTAL FREE ENERGY PREDICTED BY IDOCK:   -2.55 KCAL/MOL
REMARK 923 INTER-LIGAND FREE ENERGY PREDICTED BY IDOCK:   -2.42 KCAL/MOL
REMARK 924 INTRA-LIGAND FREE ENERGY PREDICTED BY IDOCK:   -0.13 KCAL/MOL
REMARK 927      BINDING AFFINITY PREDICTED BY RF-SCORE:    0.00 PKD
ROOT
ATOM      1  CE  MET A   1      -7.720  17.138  66.232  1.00  0.00    -0.315 C  
ATOM      2  SD  MET A   1      -7.357  18.445  67.429  1.00  0.00    -0.218 SA 
ENDROOT
BRANCH   2   3
ATOM      3  CG  MET A   1      -8.638  18.056  68.666  1.00  0.00    -0.264 C  
BRANCH   3   4
ATOM      4  CB  MET A   1      -9.768  17.268  68.008  1.00  0.00    -0.277 C  
BRANCH   4   5
ATOM      5  CA  MET A   1     -10.238  16.072  68.844  1.00  0.00    -0.231 C  
ATOM      6  C   MET A   1     -10.586  14.920  67.886  1.00  0.00    -0.254 C  
ATOM      7  N   MET A   1     -11.456  16.388  69.643  1.00  0.00    -0.322 NA 
ATOM      8  O   MET A   1     -11.919  14.884  67.623  1.00  0.00    -0.317 OA 
ATOM      9  OXT MET A   1      -9.780  14.144  67.399  1.00  0.00    -0.225 OA 
ATOM     10  H1  MET A   1     -11.769  15.592  70.199  1.00  0.00     0.000 HD 
ATOM     11  H2  MET A   1     -12.207  16.740  69.048  1.00  0.00     0.000 HD 
ENDBRANCH   4   5
ENDBRANCH   3   4
ENDBRANCH   2   3
TORSDOF 3
ENDMDL
MODEL      145
REMARK 921   NORMALIZED FREE ENERGY PREDICTED BY IDOCK:   -2.02 KCAL/MOL
REMARK 922        TOTAL FREE ENERGY PREDICTED BY IDOCK:   -2.55 KCAL/MOL
REMARK 923 INTER-LIGAND FREE ENERGY PREDICTED BY IDOCK:   -2.40 KCAL/MOL
REMARK 924 INTRA-LIGAND FREE ENERGY PREDICTED BY IDOCK:   -0.15 KCAL/MOL
REMARK 927      BINDING AFFINITY PREDICTED BY RF-SCORE:    0.00 PKD
ROOT
ATOM      1  CE  MET A   1      -8.213   6.626  70.702  1.00  0.00    -0.124 C  
ATOM      2  SD  MET A   1      -7.917   8.148  71.631  1.00  0.00    -0.132 SA 
ENDROOT
BRANCH   2   3
ATOM      3  CG  MET A   1      -9.625   8.780  71.686  1.00  0.00    -0.293 C  
BRANCH   3   4
ATOM      4  CB  MET A   1     -10.600   7.665  71.316  1.00  0.00    -0.237 C  
BRANCH   4   5
ATOM      5  CA  MET A   1     -11.529   7.266  72.468  1.00  0.00    -0.281 C  
ATOM      6  C   MET A   1     -10.744   6.358  73.429  1.00  0.00    -0.262 C  
ATOM      7  N   MET A   1     -12.722   6.509  71.993  1.00  0.00    -0.505 NA 
ATOM      8  O   MET A   1     -10.983   5.045  73.171  1.00  0.00    -0.257 OA 
ATOM      9  OXT MET A   1      -9.984   6.747  74.300  1.00  0.00    -0.309 OA 
ATOM     10  H1  MET A   1     -13.340   6.243  72.759  1.00  0.00     0.000 HD 
ATOM     11  H2  MET A   1     -12.447   5.695  71.441  1.00  0.00     0.000 HD 
ENDBRANCH   4   5
ENDBRANCH   3   4
ENDBRANCH   2   3
TORSDOF 3
ENDMDL
MODEL      146
REMARK 921   NORMALIZED FREE ENERGY PREDICTED BY IDOCK:   -2.01 KCAL/MOL
REMARK 922        TOTAL FREE ENERGY PREDICTED BY IDOCK:   -2.54 KCAL/MOL
REMARK 923 INTER-LIGAND FREE ENERGY PREDICTED BY IDOCK:   -2.49 KCAL/MOL
REMARK 924 INTRA-LIGAND FREE ENERGY PREDICTED BY IDOCK:   -0.05 KCAL/MOL
REMARK 927      BINDING AFFINITY PREDICTED BY RF-SCORE:    0.00 PKD
ROOT
ATOM      1  CE  MET A   1      -7.194   6.786  66.911  1.00  0.00    -0.081 C  
ATOM      2  SD  MET A   1      -8.644   7.224  65.923  1.00  0.00    -0.130 SA 
ENDROOT
BRANCH   2   3
ATOM      3  CG  MET A   1      -8.858   8.944  66.486  1.00  0.00    -0.136 C  
BRANCH   3   4
ATOM      4  CB  MET A   1     -10.020   9.592  65.739  1.00  0.00    -0.342 C  
BRANCH   4   5
ATOM      5  CA  MET A   1      -9.766  11.060  65.380  1.00  0.00    -0.232 C  
ATOM      6  C   MET A   1     -11.103  11.694  64.961  1.00  0.00    -0.249 C  
ATOM      7  N   MET A   1      -8.814  11.204  64.242  1.00  0.00    -0.379 NA 
ATOM      8  O   MET A   1     -11.246  11.695  63.609  1.00  0.00    -0.402 OA 
ATOM      9  OXT MET A   1     -11.947  12.125  65.729  1.00  0.00    -0.536 OA 
ATOM     10  H1  MET A   1      -8.644  12.181  64.003  1.00  0.00     0.000 HD 
ATOM     11  H2  MET A   1      -9.128  10.674  63.428  1.00  0.00     0.000 HD 
ENDBRANCH   4   5
ENDBRANCH   3   4
ENDBRANCH   2   3
TORSDOF 3
ENDMDL
MODEL      147
REMARK 921   NORMALIZED FREE ENERGY PREDICTED BY IDOCK:   -2.01 KCAL/MOL
REMARK 922        TOTAL FREE ENERGY PREDICTED BY IDOCK:   -2.53 KCAL/MOL
REMARK 923 INTER-LIGAND FREE ENERGY PREDICTED BY IDOCK:   -2.45 KCAL/MOL
REMARK 924 INTRA-LIGAND FREE ENERGY PREDICTED BY IDOCK:   -0.08 KCAL/MOL
REMARK 927      BINDING AFFINITY PREDICTED BY RF-SCORE:    0.00 PKD
ROOT
ATOM      1  CE  MET A   1     -12.101  10.508  70.508  1.00  0.00    -0.345 C  
ATOM      2  SD  MET A   1     -11.127   9.030  70.881  1.00  0.00    -0.304 SA 
ENDROOT
BRANCH   2   3
ATOM      3  CG  MET A   1     -12.484   7.920  71.379  1.00  0.00    -0.309 C  
BRANCH   3   4
ATOM      4  CB  MET A   1     -11.954   6.496  71.538  1.00  0.00    -0.383 C  
BRANCH   4   5
ATOM      5  CA  MET A   1     -10.693   6.413  72.405  1.00  0.00    -0.226 C  
ATOM      6  C   MET A   1     -10.095   5.004  72.252  1.00  0.00    -0.192 C  
ATOM      7  N   MET A   1     -10.988   6.632  73.849  1.00  0.00    -0.405 NA 
ATOM      8  O   MET A   1     -10.489   4.189  73.266  1.00  0.00    -0.152 OA 
ATOM      9  OXT MET A   1      -9.376   4.642  71.335  1.00  0.00    -0.136 OA 
ATOM     10  H1  MET A   1     -10.148   6.577  74.426  1.00  0.00     0.000 HD 
ATOM     11  H2  MET A   1     -11.707   5.989  74.181  1.00  0.00     0.000 HD 
ENDBRANCH   4   5
ENDBRANCH   3   4
ENDBRANCH   2   3
TORSDOF 3
ENDMDL
MODEL      148
REMARK 921   NORMALIZED FREE ENERGY PREDICTED BY IDOCK:   -2.00 KCAL/MOL
REMARK 922        TOTAL FREE ENERGY PREDICTED BY IDOCK:   -2.52 KCAL/MOL
REMARK 923 INTER-LIGAND FREE ENERGY PREDICTED BY IDOCK:   -2.45 KCAL/MOL
REMARK 924 INTRA-LIGAND FREE ENERGY PREDICTED BY IDOCK:   -0.08 KCAL/MOL
REMARK 927      BINDING AFFINITY PREDICTED BY RF-SCORE:    0.00 PKD
ROOT
ATOM      1  CE  MET A   1     -10.487   7.153  68.948  1.00  0.00    -0.207 C  
ATOM      2  SD  MET A   1      -9.287   8.237  68.138  1.00  0.00    -0.133 SA 
ENDROOT
BRANCH   2   3
ATOM      3  CG  MET A   1     -10.447   9.321  67.244  1.00  0.00    -0.264 C  
BRANCH   3   4
ATOM      4  CB  MET A   1      -9.989   9.488  65.797  1.00  0.00    -0.316 C  
BRANCH   4   5
ATOM      5  CA  MET A   1      -9.340  10.850  65.522  1.00  0.00    -0.206 C  
ATOM      6  C   MET A   1     -10.315  11.686  64.675  1.00  0.00    -0.292 C  
ATOM      7  N   MET A   1      -8.065  10.721  64.760  1.00  0.00    -0.364 NA 
ATOM      8  O   MET A   1     -10.013  11.604  63.352  1.00  0.00    -0.359 OA 
ATOM      9  OXT MET A   1     -11.255  12.327  65.115  1.00  0.00    -0.307 OA 
ATOM     10  H1  MET A   1      -7.634  11.627  64.577  1.00  0.00     0.000 HD 
ATOM     11  H2  MET A   1      -8.202  10.196  63.897  1.00  0.00     0.000 HD 
ENDBRANCH   4   5
ENDBRANCH   3   4
ENDBRANCH   2   3
TORSDOF 3
ENDMDL
MODEL      149
REMARK 921   NORMALIZED FREE ENERGY PREDICTED BY IDOCK:   -1.99 KCAL/MOL
REMARK 922        TOTAL FREE ENERGY PREDICTED BY IDOCK:   -2.51 KCAL/MOL
REMARK 923 INTER-LIGAND FREE ENERGY PREDICTED BY IDOCK:   -2.71 KCAL/MOL
REMARK 924 INTRA-LIGAND FREE ENERGY PREDICTED BY IDOCK:    0.20 KCAL/MOL
REMARK 927      BINDING AFFINITY PREDICTED BY RF-SCORE:    0.00 PKD
ROOT
ATOM      1  CE  MET A   1     -10.104  17.398  68.618  1.00  0.00    -0.355 C  
ATOM      2  SD  MET A   1      -8.555  16.469  68.706  1.00  0.00    -0.259 SA 
ENDROOT
BRANCH   2   3
ATOM      3  CG  MET A   1      -7.386  17.856  68.529  1.00  0.00    -0.268 C  
BRANCH   3   4
ATOM      4  CB  MET A   1      -6.649  17.744  67.197  1.00  0.00    -0.191 C  
BRANCH   4   5
ATOM      5  CA  MET A   1      -6.669  19.044  66.383  1.00  0.00    -0.203 C  
ATOM      6  C   MET A   1      -8.012  19.750  66.634  1.00  0.00    -0.310 C  
ATOM      7  N   MET A   1      -6.548  18.793  64.919  1.00  0.00    -0.491 NA 
ATOM      8  O   MET A   1      -8.907  19.467  65.650  1.00  0.00    -0.329 OA 
ATOM      9  OXT MET A   1      -8.265  20.457  67.595  1.00  0.00    -0.304 OA 
ATOM     10  H1  MET A   1      -6.561  19.657  64.378  1.00  0.00     0.000 HD 
ATOM     11  H2  MET A   1      -7.266  18.144  64.596  1.00  0.00     0.000 HD 
ENDBRANCH   4   5
ENDBRANCH   3   4
ENDBRANCH   2   3
TORSDOF 3
ENDMDL
MODEL      150
REMARK 921   NORMALIZED FREE ENERGY PREDICTED BY IDOCK:   -1.99 KCAL/MOL
REMARK 922        TOTAL FREE ENERGY PREDICTED BY IDOCK:   -2.51 KCAL/MOL
REMARK 923 INTER-LIGAND FREE ENERGY PREDICTED BY IDOCK:   -2.45 KCAL/MOL
REMARK 924 INTRA-LIGAND FREE ENERGY PREDICTED BY IDOCK:   -0.06 KCAL/MOL
REMARK 927      BINDING AFFINITY PREDICTED BY RF-SCORE:    0.00 PKD
ROOT
ATOM      1  CE  MET A   1     -12.898  11.016  71.552  1.00  0.00    -0.450 C  
ATOM      2  SD  MET A   1     -11.906   9.640  70.925  1.00  0.00    -0.336 SA 
ENDROOT
BRANCH   2   3
ATOM      3  CG  MET A   1     -11.631  10.244  69.227  1.00  0.00    -0.119 C  
BRANCH   3   4
ATOM      4  CB  MET A   1     -11.494  11.765  69.235  1.00  0.00    -0.369 C  
BRANCH   4   5
ATOM      5  CA  MET A   1     -10.888  12.324  67.943  1.00  0.00    -0.218 C  
ATOM      6  C   MET A   1      -9.562  13.019  68.293  1.00  0.00    -0.213 C  
ATOM      7  N   MET A   1     -11.776  13.331  67.296  1.00  0.00    -0.358 NA 
ATOM      8  O   MET A   1      -9.733  14.359  68.445  1.00  0.00    -0.214 OA 
ATOM      9  OXT MET A   1      -8.490  12.454  68.441  1.00  0.00    -0.169 OA 
ATOM     10  H1  MET A   1     -11.373  13.703  66.436  1.00  0.00     0.000 HD 
ATOM     11  H2  MET A   1     -12.019  14.080  67.945  1.00  0.00     0.000 HD 
ENDBRANCH   4   5
ENDBRANCH   3   4
ENDBRANCH   2   3
TORSDOF 3
ENDMDL
MODEL      151
REMARK 921   NORMALIZED FREE ENERGY PREDICTED BY IDOCK:   -1.98 KCAL/MOL
REMARK 922        TOTAL FREE ENERGY PREDICTED BY IDOCK:   -2.50 KCAL/MOL
REMARK 923 INTER-LIGAND FREE ENERGY PREDICTED BY IDOCK:   -2.41 KCAL/MOL
REMARK 924 INTRA-LIGAND FREE ENERGY PREDICTED BY IDOCK:   -0.09 KCAL/MOL
REMARK 927      BINDING AFFINITY PREDICTED BY RF-SCORE:    0.00 PKD
ROOT
ATOM      1  CE  MET A   1      -9.921   9.030  66.373  1.00  0.00    -0.300 C  
ATOM      2  SD  MET A   1      -9.358   8.709  68.062  1.00  0.00    -0.136 SA 
ENDROOT
BRANCH   2   3
ATOM      3  CG  MET A   1     -10.473   9.846  68.949  1.00  0.00    -0.211 C  
BRANCH   3   4
ATOM      4  CB  MET A   1     -10.526   9.469  70.427  1.00  0.00    -0.336 C  
BRANCH   4   5
ATOM      5  CA  MET A   1     -11.548   8.370  70.736  1.00  0.00    -0.232 C  
ATOM      6  C   MET A   1     -12.661   8.976  71.607  1.00  0.00    -0.358 C  
ATOM      7  N   MET A   1     -10.943   7.235  71.490  1.00  0.00    -0.232 NA 
ATOM      8  O   MET A   1     -12.441   8.733  72.927  1.00  0.00    -0.264 OA 
ATOM      9  OXT MET A   1     -13.613   9.614  71.187  1.00  0.00    -0.340 OA 
ATOM     10  H1  MET A   1     -11.624   6.503  71.695  1.00  0.00     0.000 HD 
ATOM     11  H2  MET A   1     -10.482   7.560  72.340  1.00  0.00     0.000 HD 
ENDBRANCH   4   5
ENDBRANCH   3   4
ENDBRANCH   2   3
TORSDOF 3
ENDMDL
MODEL      152
REMARK 921   NORMALIZED FREE ENERGY PREDICTED BY IDOCK:   -1.98 KCAL/MOL
REMARK 922        TOTAL FREE ENERGY PREDICTED BY IDOCK:   -2.50 KCAL/MOL
REMARK 923 INTER-LIGAND FREE ENERGY PREDICTED BY IDOCK:   -2.39 KCAL/MOL
REMARK 924 INTRA-LIGAND FREE ENERGY PREDICTED BY IDOCK:   -0.11 KCAL/MOL
REMARK 927      BINDING AFFINITY PREDICTED BY RF-SCORE:    0.00 PKD
ROOT
ATOM      1  CE  MET A   1      -9.854  10.203  65.568  1.00  0.00    -0.298 C  
ATOM      2  SD  MET A   1      -8.997   8.680  66.032  1.00  0.00    -0.193 SA 
ENDROOT
BRANCH   2   3
ATOM      3  CG  MET A   1      -8.720   9.040  67.796  1.00  0.00    -0.125 C  
BRANCH   3   4
ATOM      4  CB  MET A   1     -10.060   9.124  68.523  1.00  0.00    -0.212 C  
BRANCH   4   5
ATOM      5  CA  MET A   1     -10.094  10.207  69.607  1.00  0.00    -0.234 C  
ATOM      6  C   MET A   1     -11.531  10.307  70.146  1.00  0.00    -0.309 C  
ATOM      7  N   MET A   1      -9.710  11.546  69.077  1.00  0.00    -0.415 NA 
ATOM      8  O   MET A   1     -12.217  11.310  69.537  1.00  0.00    -0.308 OA 
ATOM      9  OXT MET A   1     -12.016   9.575  70.993  1.00  0.00    -0.296 OA 
ATOM     10  H1  MET A   1      -9.732  12.267  69.798  1.00  0.00     0.000 HD 
ATOM     11  H2  MET A   1     -10.287  11.806  68.277  1.00  0.00     0.000 HD 
ENDBRANCH   4   5
ENDBRANCH   3   4
ENDBRANCH   2   3
TORSDOF 3
ENDMDL
MODEL      153
REMARK 921   NORMALIZED FREE ENERGY PREDICTED BY IDOCK:   -1.98 KCAL/MOL
REMARK 922        TOTAL FREE ENERGY PREDICTED BY IDOCK:   -2.50 KCAL/MOL
REMARK 923 INTER-LIGAND FREE ENERGY PREDICTED BY IDOCK:   -2.55 KCAL/MOL
REMARK 924 INTRA-LIGAND FREE ENERGY PREDICTED BY IDOCK:    0.05 KCAL/MOL
REMARK 927      BINDING AFFINITY PREDICTED BY RF-SCORE:    0.00 PKD
ROOT
ATOM      1  CE  MET A   1     -11.737  15.703  68.686  1.00  0.00    -0.352 C  
ATOM      2  SD  MET A   1      -9.939  15.519  68.740  1.00  0.00    -0.224 SA 
ENDROOT
BRANCH   2   3
ATOM      3  CG  MET A   1      -9.560  15.960  67.013  1.00  0.00    -0.223 C  
BRANCH   3   4
ATOM      4  CB  MET A   1      -8.048  16.030  66.817  1.00  0.00    -0.302 C  
BRANCH   4   5
ATOM      5  CA  MET A   1      -7.455  17.399  67.170  1.00  0.00    -0.192 C  
ATOM      6  C   MET A   1      -7.923  18.415  66.115  1.00  0.00    -0.185 C  
ATOM      7  N   MET A   1      -5.965  17.385  67.164  1.00  0.00    -0.131 NA 
ATOM      8  O   MET A   1      -6.983  18.587  65.147  1.00  0.00    -0.516 OA 
ATOM      9  OXT MET A   1      -9.001  18.985  66.118  1.00  0.00    -0.425 OA 
ATOM     10  H1  MET A   1      -5.570  18.295  67.400  1.00  0.00     0.000 HD 
ATOM     11  H2  MET A   1      -5.602  17.044  66.274  1.00  0.00     0.000 HD 
ENDBRANCH   4   5
ENDBRANCH   3   4
ENDBRANCH   2   3
TORSDOF 3
ENDMDL
MODEL      154
REMARK 921   NORMALIZED FREE ENERGY PREDICTED BY IDOCK:   -1.94 KCAL/MOL
REMARK 922        TOTAL FREE ENERGY PREDICTED BY IDOCK:   -2.45 KCAL/MOL
REMARK 923 INTER-LIGAND FREE ENERGY PREDICTED BY IDOCK:   -2.37 KCAL/MOL
REMARK 924 INTRA-LIGAND FREE ENERGY PREDICTED BY IDOCK:   -0.08 KCAL/MOL
REMARK 927      BINDING AFFINITY PREDICTED BY RF-SCORE:    0.00 PKD
ROOT
ATOM      1  CE  MET A   1     -10.549  16.934  67.480  1.00  0.00    -0.307 C  
ATOM      2  SD  MET A   1      -8.819  17.408  67.248  1.00  0.00    -0.236 SA 
ENDROOT
BRANCH   2   3
ATOM      3  CG  MET A   1      -8.117  15.756  66.932  1.00  0.00    -0.257 C  
BRANCH   3   4
ATOM      4  CB  MET A   1      -8.879  14.707  67.739  1.00  0.00    -0.177 C  
BRANCH   4   5
ATOM      5  CA  MET A   1      -9.449  13.576  66.875  1.00  0.00    -0.258 C  
ATOM      6  C   MET A   1     -10.622  12.934  67.635  1.00  0.00    -0.223 C  
ATOM      7  N   MET A   1      -8.441  12.513  66.604  1.00  0.00    -0.401 NA 
ATOM      8  O   MET A   1     -10.223  11.822  68.307  1.00  0.00    -0.192 OA 
ATOM      9  OXT MET A   1     -11.764  13.365  67.659  1.00  0.00    -0.318 OA 
ATOM     10  H1  MET A   1      -8.820  11.760  66.030  1.00  0.00     0.000 HD 
ATOM     11  H2  MET A   1      -8.044  12.151  67.472  1.00  0.00     0.000 HD 
ENDBRANCH   4   5
ENDBRANCH   3   4
ENDBRANCH   2   3
TORSDOF 3
ENDMDL
MODEL      155
REMARK 921   NORMALIZED FREE ENERGY PREDICTED BY IDOCK:   -1.93 KCAL/MOL
REMARK 922        TOTAL FREE ENERGY PREDICTED BY IDOCK:   -2.44 KCAL/MOL
REMARK 923 INTER-LIGAND FREE ENERGY PREDICTED BY IDOCK:   -2.35 KCAL/MOL
REMARK 924 INTRA-LIGAND FREE ENERGY PREDICTED BY IDOCK:   -0.09 KCAL/MOL
REMARK 927      BINDING AFFINITY PREDICTED BY RF-SCORE:    0.00 PKD
ROOT
ATOM      1  CE  MET A   1     -11.744  14.669  67.046  1.00  0.00    -0.362 C  
ATOM      2  SD  MET A   1     -10.570  13.353  66.642  1.00  0.00    -0.284 SA 
ENDROOT
BRANCH   2   3
ATOM      3  CG  MET A   1      -9.224  13.821  67.777  1.00  0.00    -0.206 C  
BRANCH   3   4
ATOM      4  CB  MET A   1      -9.504  15.199  68.372  1.00  0.00    -0.208 C  
BRANCH   4   5
ATOM      5  CA  MET A   1      -8.436  15.656  69.371  1.00  0.00    -0.244 C  
ATOM      6  C   MET A   1      -7.630  16.797  68.728  1.00  0.00    -0.240 C  
ATOM      7  N   MET A   1      -7.485  14.561  69.718  1.00  0.00    -0.387 NA 
ATOM      8  O   MET A   1      -6.483  16.333  68.164  1.00  0.00    -0.118 OA 
ATOM      9  OXT MET A   1      -7.971  17.968  68.699  1.00  0.00    -0.304 OA 
ATOM     10  H1  MET A   1      -6.774  14.865  70.383  1.00  0.00     0.000 HD 
ATOM     11  H2  MET A   1      -7.061  14.162  68.880  1.00  0.00     0.000 HD 
ENDBRANCH   4   5
ENDBRANCH   3   4
ENDBRANCH   2   3
TORSDOF 3
ENDMDL
MODEL      156
REMARK 921   NORMALIZED FREE ENERGY PREDICTED BY IDOCK:   -1.93 KCAL/MOL
REMARK 922        TOTAL FREE ENERGY PREDICTED BY IDOCK:   -2.44 KCAL/MOL
REMARK 923 INTER-LIGAND FREE ENERGY PREDICTED BY IDOCK:   -2.38 KCAL/MOL
REMARK 924 INTRA-LIGAND FREE ENERGY PREDICTED BY IDOCK:   -0.06 KCAL/MOL
REMARK 927      BINDING AFFINITY PREDICTED BY RF-SCORE:    0.00 PKD
ROOT
ATOM      1  CE  MET A   1      -5.483  16.333  69.966  1.00  0.00    -0.169 C  
ATOM      2  SD  MET A   1      -7.112  15.795  69.392  1.00  0.00    -0.200 SA 
ENDROOT
BRANCH   2   3
ATOM      3  CG  MET A   1      -7.065  16.501  67.713  1.00  0.00    -0.137 C  
BRANCH   3   4
ATOM      4  CB  MET A   1      -7.778  17.851  67.701  1.00  0.00    -0.216 C  
BRANCH   4   5
ATOM      5  CA  MET A   1      -8.725  18.024  66.507  1.00  0.00    -0.260 C  
ATOM      6  C   MET A   1      -9.640  19.228  66.787  1.00  0.00    -0.334 C  
ATOM      7  N   MET A   1      -9.590  16.829  66.298  1.00  0.00    -0.281 NA 
ATOM      8  O   MET A   1     -10.834  18.830  67.300  1.00  0.00    -0.443 OA 
ATOM      9  OXT MET A   1      -9.341  20.396  66.601  1.00  0.00    -0.336 OA 
ATOM     10  H1  MET A   1     -10.220  16.945  65.503  1.00  0.00     0.000 HD 
ATOM     11  H2  MET A   1     -10.105  16.593  67.146  1.00  0.00     0.000 HD 
ENDBRANCH   4   5
ENDBRANCH   3   4
ENDBRANCH   2   3
TORSDOF 3
ENDMDL
MODEL      157
REMARK 921   NORMALIZED FREE ENERGY PREDICTED BY IDOCK:   -1.93 KCAL/MOL
REMARK 922        TOTAL FREE ENERGY PREDICTED BY IDOCK:   -2.43 KCAL/MOL
REMARK 923 INTER-LIGAND FREE ENERGY PREDICTED BY IDOCK:   -2.36 KCAL/MOL
REMARK 924 INTRA-LIGAND FREE ENERGY PREDICTED BY IDOCK:   -0.08 KCAL/MOL
REMARK 927      BINDING AFFINITY PREDICTED BY RF-SCORE:    0.00 PKD
ROOT
ATOM      1  CE  MET A   1      -9.804   5.346  66.533  1.00  0.00    -0.176 C  
ATOM      2  SD  MET A   1     -10.807   6.704  67.183  1.00  0.00    -0.398 SA 
ENDROOT
BRANCH   2   3
ATOM      3  CG  MET A   1     -11.129   6.041  68.849  1.00  0.00    -0.279 C  
BRANCH   3   4
ATOM      4  CB  MET A   1     -11.054   7.168  69.877  1.00  0.00    -0.264 C  
BRANCH   4   5
ATOM      5  CA  MET A   1      -9.914   6.992  70.886  1.00  0.00    -0.193 C  
ATOM      6  C   MET A   1     -10.055   8.076  71.968  1.00  0.00    -0.218 C  
ATOM      7  N   MET A   1      -8.573   7.147  70.253  1.00  0.00    -0.141 NA 
ATOM      8  O   MET A   1      -9.258   9.145  71.700  1.00  0.00    -0.320 OA 
ATOM      9  OXT MET A   1     -10.796   8.012  72.935  1.00  0.00    -0.366 OA 
ATOM     10  H1  MET A   1      -7.815   7.030  70.924  1.00  0.00     0.000 HD 
ATOM     11  H2  MET A   1      -8.498   8.039  69.762  1.00  0.00     0.000 HD 
ENDBRANCH   4   5
ENDBRANCH   3   4
ENDBRANCH   2   3
TORSDOF 3
ENDMDL
MODEL      158
REMARK 921   NORMALIZED FREE ENERGY PREDICTED BY IDOCK:   -1.92 KCAL/MOL
REMARK 922        TOTAL FREE ENERGY PREDICTED BY IDOCK:   -2.43 KCAL/MOL
REMARK 923 INTER-LIGAND FREE ENERGY PREDICTED BY IDOCK:   -2.25 KCAL/MOL
REMARK 924 INTRA-LIGAND FREE ENERGY PREDICTED BY IDOCK:   -0.18 KCAL/MOL
REMARK 927      BINDING AFFINITY PREDICTED BY RF-SCORE:    0.00 PKD
ROOT
ATOM      1  CE  MET A   1      -9.692   7.437  66.990  1.00  0.00    -0.191 C  
ATOM      2  SD  MET A   1      -9.690   9.219  66.683  1.00  0.00    -0.240 SA 
ENDROOT
BRANCH   2   3
ATOM      3  CG  MET A   1     -10.308   9.783  68.301  1.00  0.00    -0.198 C  
BRANCH   3   4
ATOM      4  CB  MET A   1      -9.560   9.063  69.420  1.00  0.00    -0.160 C  
BRANCH   4   5
ATOM      5  CA  MET A   1     -10.472   8.612  70.566  1.00  0.00    -0.206 C  
ATOM      6  C   MET A   1     -10.469   7.075  70.609  1.00  0.00    -0.210 C  
ATOM      7  N   MET A   1     -11.880   9.063  70.376  1.00  0.00    -0.468 NA 
ATOM      8  O   MET A   1     -11.540   6.562  69.947  1.00  0.00    -0.409 OA 
ATOM      9  OXT MET A   1      -9.614   6.388  71.144  1.00  0.00    -0.173 OA 
ATOM     10  H1  MET A   1     -12.486   8.763  71.139  1.00  0.00     0.000 HD 
ATOM     11  H2  MET A   1     -12.245   8.761  69.472  1.00  0.00     0.000 HD 
ENDBRANCH   4   5
ENDBRANCH   3   4
ENDBRANCH   2   3
TORSDOF 3
ENDMDL
MODEL      159
REMARK 921   NORMALIZED FREE ENERGY PREDICTED BY IDOCK:   -1.91 KCAL/MOL
REMARK 922        TOTAL FREE ENERGY PREDICTED BY IDOCK:   -2.42 KCAL/MOL
REMARK 923 INTER-LIGAND FREE ENERGY PREDICTED BY IDOCK:   -2.29 KCAL/MOL
REMARK 924 INTRA-LIGAND FREE ENERGY PREDICTED BY IDOCK:   -0.13 KCAL/MOL
REMARK 927      BINDING AFFINITY PREDICTED BY RF-SCORE:    0.00 PKD
ROOT
ATOM      1  CE  MET A   1     -11.503  14.962  68.402  1.00  0.00    -0.318 C  
ATOM      2  SD  MET A   1     -11.789  13.677  67.161  1.00  0.00    -0.397 SA 
ENDROOT
BRANCH   2   3
ATOM      3  CG  MET A   1     -10.063  13.162  66.888  1.00  0.00    -0.245 C  
BRANCH   3   4
ATOM      4  CB  MET A   1      -9.114  14.198  67.488  1.00  0.00    -0.195 C  
BRANCH   4   5
ATOM      5  CA  MET A   1      -8.020  13.579  68.366  1.00  0.00    -0.142 C  
ATOM      6  C   MET A   1      -6.698  13.606  67.581  1.00  0.00    -0.174 C  
ATOM      7  N   MET A   1      -8.316  12.162  68.718  1.00  0.00    -0.354 NA 
ATOM      8  O   MET A   1      -6.466  12.416  66.967  1.00  0.00    -0.132 OA 
ATOM      9  OXT MET A   1      -5.953  14.568  67.492  1.00  0.00    -0.334 OA 
ATOM     10  H1  MET A   1      -7.588  11.751  69.303  1.00  0.00     0.000 HD 
ATOM     11  H2  MET A   1      -8.480  11.600  67.882  1.00  0.00     0.000 HD 
ENDBRANCH   4   5
ENDBRANCH   3   4
ENDBRANCH   2   3
TORSDOF 3
ENDMDL
MODEL      160
REMARK 921   NORMALIZED FREE ENERGY PREDICTED BY IDOCK:   -1.90 KCAL/MOL
REMARK 922        TOTAL FREE ENERGY PREDICTED BY IDOCK:   -2.40 KCAL/MOL
REMARK 923 INTER-LIGAND FREE ENERGY PREDICTED BY IDOCK:   -2.35 KCAL/MOL
REMARK 924 INTRA-LIGAND FREE ENERGY PREDICTED BY IDOCK:   -0.05 KCAL/MOL
REMARK 927      BINDING AFFINITY PREDICTED BY RF-SCORE:    0.00 PKD
ROOT
ATOM      1  CE  MET A   1     -11.347  14.695  65.986  1.00  0.00    -0.344 C  
ATOM      2  SD  MET A   1     -11.372  13.281  67.114  1.00  0.00    -0.333 SA 
ENDROOT
BRANCH   2   3
ATOM      3  CG  MET A   1     -10.192  12.204  66.237  1.00  0.00    -0.223 C  
BRANCH   3   4
ATOM      4  CB  MET A   1      -9.666  11.131  67.188  1.00  0.00    -0.199 C  
BRANCH   4   5
ATOM      5  CA  MET A   1     -10.540   9.872  67.222  1.00  0.00    -0.252 C  
ATOM      6  C   MET A   1     -10.401   9.225  68.610  1.00  0.00    -0.205 C  
ATOM      7  N   MET A   1     -10.120   8.868  66.204  1.00  0.00    -0.408 NA 
ATOM      8  O   MET A   1      -9.478   8.226  68.597  1.00  0.00    -0.146 OA 
ATOM      9  OXT MET A   1     -11.014   9.565  69.609  1.00  0.00    -0.236 OA 
ATOM     10  H1  MET A   1     -10.702   8.031  66.226  1.00  0.00     0.000 HD 
ATOM     11  H2  MET A   1      -9.132   8.635  66.301  1.00  0.00     0.000 HD 
ENDBRANCH   4   5
ENDBRANCH   3   4
ENDBRANCH   2   3
TORSDOF 3
ENDMDL
MODEL      161
REMARK 921   NORMALIZED FREE ENERGY PREDICTED BY IDOCK:   -1.89 KCAL/MOL
REMARK 922        TOTAL FREE ENERGY PREDICTED BY IDOCK:   -2.40 KCAL/MOL
REMARK 923 INTER-LIGAND FREE ENERGY PREDICTED BY IDOCK:   -2.32 KCAL/MOL
REMARK 924 INTRA-LIGAND FREE ENERGY PREDICTED BY IDOCK:   -0.07 KCAL/MOL
REMARK 927      BINDING AFFINITY PREDICTED BY RF-SCORE:    0.00 PKD
ROOT
ATOM      1  CE  MET A   1      -7.745   7.523  72.496  1.00  0.00    -0.094 C  
ATOM      2  SD  MET A   1      -8.959   7.547  73.836  1.00  0.00    -0.253 SA 
ENDROOT
BRANCH   2   3
ATOM      3  CG  MET A   1     -10.472   7.311  72.848  1.00  0.00    -0.282 C  
BRANCH   3   4
ATOM      4  CB  MET A   1     -10.276   6.154  71.872  1.00  0.00    -0.231 C  
BRANCH   4   5
ATOM      5  CA  MET A   1     -11.299   6.146  70.730  1.00  0.00    -0.295 C  
ATOM      6  C   MET A   1     -10.541   5.962  69.404  1.00  0.00    -0.309 C  
ATOM      7  N   MET A   1     -12.062   7.424  70.649  1.00  0.00    -0.522 NA 
ATOM      8  O   MET A   1     -10.313   7.158  68.798  1.00  0.00    -0.181 OA 
ATOM      9  OXT MET A   1     -10.166   4.893  68.952  1.00  0.00    -0.157 OA 
ATOM     10  H1  MET A   1     -12.742   7.418  69.890  1.00  0.00     0.000 HD 
ATOM     11  H2  MET A   1     -11.434   8.225  70.577  1.00  0.00     0.000 HD 
ENDBRANCH   4   5
ENDBRANCH   3   4
ENDBRANCH   2   3
TORSDOF 3
ENDMDL
MODEL      162
REMARK 921   NORMALIZED FREE ENERGY PREDICTED BY IDOCK:   -1.89 KCAL/MOL
REMARK 922        TOTAL FREE ENERGY PREDICTED BY IDOCK:   -2.39 KCAL/MOL
REMARK 923 INTER-LIGAND FREE ENERGY PREDICTED BY IDOCK:   -2.56 KCAL/MOL
REMARK 924 INTRA-LIGAND FREE ENERGY PREDICTED BY IDOCK:    0.16 KCAL/MOL
REMARK 927      BINDING AFFINITY PREDICTED BY RF-SCORE:    0.00 PKD
ROOT
ATOM      1  CE  MET A   1     -11.457  14.942  64.591  1.00  0.00    -0.379 C  
ATOM      2  SD  MET A   1     -12.625  14.123  65.703  1.00  0.00    -0.398 SA 
ENDROOT
BRANCH   2   3
ATOM      3  CG  MET A   1     -12.015  12.413  65.538  1.00  0.00    -0.391 C  
BRANCH   3   4
ATOM      4  CB  MET A   1     -11.326  11.984  66.832  1.00  0.00    -0.400 C  
BRANCH   4   5
ATOM      5  CA  MET A   1      -9.815  11.783  66.674  1.00  0.00    -0.202 C  
ATOM      6  C   MET A   1      -9.578  10.766  65.545  1.00  0.00    -0.222 C  
ATOM      7  N   MET A   1      -9.187  11.246  67.915  1.00  0.00    -0.153 NA 
ATOM      8  O   MET A   1      -9.395   9.513  66.041  1.00  0.00    -0.180 OA 
ATOM      9  OXT MET A   1      -9.573  11.027  64.354  1.00  0.00    -0.229 OA 
ATOM     10  H1  MET A   1      -8.181  11.112  67.810  1.00  0.00     0.000 HD 
ATOM     11  H2  MET A   1      -9.644  10.385  68.217  1.00  0.00     0.000 HD 
ENDBRANCH   4   5
ENDBRANCH   3   4
ENDBRANCH   2   3
TORSDOF 3
ENDMDL
MODEL      163
REMARK 921   NORMALIZED FREE ENERGY PREDICTED BY IDOCK:   -1.89 KCAL/MOL
REMARK 922        TOTAL FREE ENERGY PREDICTED BY IDOCK:   -2.39 KCAL/MOL
REMARK 923 INTER-LIGAND FREE ENERGY PREDICTED BY IDOCK:   -2.31 KCAL/MOL
REMARK 924 INTRA-LIGAND FREE ENERGY PREDICTED BY IDOCK:   -0.08 KCAL/MOL
REMARK 927      BINDING AFFINITY PREDICTED BY RF-SCORE:    0.00 PKD
ROOT
ATOM      1  CE  MET A   1     -10.902  10.556  67.062  1.00  0.00    -0.225 C  
ATOM      2  SD  MET A   1     -10.662  10.841  68.832  1.00  0.00    -0.240 SA 
ENDROOT
BRANCH   2   3
ATOM      3  CG  MET A   1     -10.038   9.194  69.298  1.00  0.00    -0.194 C  
BRANCH   3   4
ATOM      4  CB  MET A   1      -9.324   9.275  70.645  1.00  0.00    -0.329 C  
BRANCH   4   5
ATOM      5  CA  MET A   1     -10.202   8.838  71.823  1.00  0.00    -0.338 C  
ATOM      6  C   MET A   1      -9.334   8.023  72.796  1.00  0.00    -0.263 C  
ATOM      7  N   MET A   1     -11.338   7.976  71.389  1.00  0.00    -0.251 NA 
ATOM      8  O   MET A   1      -9.473   6.688  72.580  1.00  0.00    -0.144 OA 
ATOM      9  OXT MET A   1      -8.594   8.496  73.643  1.00  0.00    -0.325 OA 
ATOM     10  H1  MET A   1     -11.922   7.686  72.173  1.00  0.00     0.000 HD 
ATOM     11  H2  MET A   1     -11.007   7.171  70.857  1.00  0.00     0.000 HD 
ENDBRANCH   4   5
ENDBRANCH   3   4
ENDBRANCH   2   3
TORSDOF 3
ENDMDL
MODEL      164
REMARK 921   NORMALIZED FREE ENERGY PREDICTED BY IDOCK:   -1.88 KCAL/MOL
REMARK 922        TOTAL FREE ENERGY PREDICTED BY IDOCK:   -2.39 KCAL/MOL
REMARK 923 INTER-LIGAND FREE ENERGY PREDICTED BY IDOCK:   -2.33 KCAL/MOL
REMARK 924 INTRA-LIGAND FREE ENERGY PREDICTED BY IDOCK:   -0.06 KCAL/MOL
REMARK 927      BINDING AFFINITY PREDICTED BY RF-SCORE:    0.00 PKD
ROOT
ATOM      1  CE  MET A   1     -11.047   6.418  72.185  1.00  0.00    -0.263 C  
ATOM      2  SD  MET A   1     -12.623   7.219  71.801  1.00  0.00    -0.323 SA 
ENDROOT
BRANCH   2   3
ATOM      3  CG  MET A   1     -11.982   8.779  71.111  1.00  0.00    -0.285 C  
BRANCH   3   4
ATOM      4  CB  MET A   1     -10.613   8.541  70.478  1.00  0.00    -0.238 C  
BRANCH   4   5
ATOM      5  CA  MET A   1     -10.304   9.502  69.325  1.00  0.00    -0.208 C  
ATOM      6  C   MET A   1      -9.916   8.668  68.093  1.00  0.00    -0.178 C  
ATOM      7  N   MET A   1      -9.166  10.412  69.641  1.00  0.00    -0.401 NA 
ATOM      8  O   MET A   1      -8.565   8.562  67.976  1.00  0.00    -0.132 OA 
ATOM      9  OXT MET A   1     -10.703   8.145  67.322  1.00  0.00    -0.298 OA 
ATOM     10  H1  MET A   1      -8.961  11.052  68.873  1.00  0.00     0.000 HD 
ATOM     11  H2  MET A   1      -8.337   9.884  69.914  1.00  0.00     0.000 HD 
ENDBRANCH   4   5
ENDBRANCH   3   4
ENDBRANCH   2   3
TORSDOF 3
ENDMDL
MODEL      165
REMARK 921   NORMALIZED FREE ENERGY PREDICTED BY IDOCK:   -1.88 KCAL/MOL
REMARK 922        TOTAL FREE ENERGY PREDICTED BY IDOCK:   -2.38 KCAL/MOL
REMARK 923 INTER-LIGAND FREE ENERGY PREDICTED BY IDOCK:   -2.30 KCAL/MOL
REMARK 924 INTRA-LIGAND FREE ENERGY PREDICTED BY IDOCK:   -0.07 KCAL/MOL
REMARK 927      BINDING AFFINITY PREDICTED BY RF-SCORE:    0.00 PKD
ROOT
ATOM      1  CE  MET A   1     -11.705  15.411  68.942  1.00  0.00    -0.359 C  
ATOM      2  SD  MET A   1     -11.579  14.160  70.242  1.00  0.00    -0.146 SA 
ENDROOT
BRANCH   2   3
ATOM      3  CG  MET A   1     -12.279  12.742  69.335  1.00  0.00    -0.077 C  
BRANCH   3   4
ATOM      4  CB  MET A   1     -11.460  11.487  69.627  1.00  0.00    -0.373 C  
BRANCH   4   5
ATOM      5  CA  MET A   1     -11.709  10.913  71.026  1.00  0.00    -0.063 C  
ATOM      6  C   MET A   1     -11.089   9.507  71.088  1.00  0.00    -0.379 C  
ATOM      7  N   MET A   1     -13.162  10.788  71.332  1.00  0.00    -0.341 NA 
ATOM      8  O   MET A   1     -12.022   8.547  70.850  1.00  0.00    -0.271 OA 
ATOM      9  OXT MET A   1      -9.912   9.267  71.300  1.00  0.00    -0.296 OA 
ATOM     10  H1  MET A   1     -13.327  10.406  72.264  1.00  0.00     0.000 HD 
ATOM     11  H2  MET A   1     -13.644  10.241  70.618  1.00  0.00     0.000 HD 
ENDBRANCH   4   5
ENDBRANCH   3   4
ENDBRANCH   2   3
TORSDOF 3
ENDMDL
MODEL      166
REMARK 921   NORMALIZED FREE ENERGY PREDICTED BY IDOCK:   -1.87 KCAL/MOL
REMARK 922        TOTAL FREE ENERGY PREDICTED BY IDOCK:   -2.37 KCAL/MOL
REMARK 923 INTER-LIGAND FREE ENERGY PREDICTED BY IDOCK:   -2.26 KCAL/MOL
REMARK 924 INTRA-LIGAND FREE ENERGY PREDICTED BY IDOCK:   -0.11 KCAL/MOL
REMARK 927      BINDING AFFINITY PREDICTED BY RF-SCORE:    0.00 PKD
ROOT
ATOM      1  CE  MET A   1      -9.292  19.507  69.308  1.00  0.00    -0.093 C  
ATOM      2  SD  MET A   1      -9.175  18.167  68.098  1.00  0.00    -0.298 SA 
ENDROOT
BRANCH   2   3
ATOM      3  CG  MET A   1     -10.847  17.470  68.289  1.00  0.00    -0.220 C  
BRANCH   3   4
ATOM      4  CB  MET A   1     -10.752  16.008  68.720  1.00  0.00    -0.282 C  
BRANCH   4   5
ATOM      5  CA  MET A   1      -9.439  15.338  68.303  1.00  0.00    -0.205 C  
ATOM      6  C   MET A   1      -9.773  14.151  67.385  1.00  0.00    -0.232 C  
ATOM      7  N   MET A   1      -8.679  14.813  69.473  1.00  0.00    -0.421 NA 
ATOM      8  O   MET A   1      -9.804  12.984  68.081  1.00  0.00    -0.218 OA 
ATOM      9  OXT MET A   1     -10.003  14.231  66.189  1.00  0.00    -0.290 OA 
ATOM     10  H1  MET A   1      -7.804  14.368  69.195  1.00  0.00     0.000 HD 
ATOM     11  H2  MET A   1      -9.253  14.183  70.034  1.00  0.00     0.000 HD 
ENDBRANCH   4   5
ENDBRANCH   3   4
ENDBRANCH   2   3
TORSDOF 3
ENDMDL
MODEL      167
REMARK 921   NORMALIZED FREE ENERGY PREDICTED BY IDOCK:   -1.85 KCAL/MOL
REMARK 922        TOTAL FREE ENERGY PREDICTED BY IDOCK:   -2.34 KCAL/MOL
REMARK 923 INTER-LIGAND FREE ENERGY PREDICTED BY IDOCK:   -2.26 KCAL/MOL
REMARK 924 INTRA-LIGAND FREE ENERGY PREDICTED BY IDOCK:   -0.08 KCAL/MOL
REMARK 927      BINDING AFFINITY PREDICTED BY RF-SCORE:    0.00 PKD
ROOT
ATOM      1  CE  MET A   1      -9.727  10.748  67.368  1.00  0.00    -0.171 C  
ATOM      2  SD  MET A   1      -8.753  12.153  66.777  1.00  0.00    -0.152 SA 
ENDROOT
BRANCH   2   3
ATOM      3  CG  MET A   1      -8.780  13.168  68.291  1.00  0.00    -0.165 C  
BRANCH   3   4
ATOM      4  CB  MET A   1     -10.204  13.645  68.568  1.00  0.00    -0.234 C  
BRANCH   4   5
ATOM      5  CA  MET A   1     -10.699  14.690  67.562  1.00  0.00    -0.268 C  
ATOM      6  C   MET A   1     -10.194  16.071  68.013  1.00  0.00    -0.245 C  
ATOM      7  N   MET A   1     -12.187  14.746  67.495  1.00  0.00    -0.514 NA 
ATOM      8  O   MET A   1     -11.144  16.735  68.723  1.00  0.00    -0.306 OA 
ATOM      9  OXT MET A   1      -9.081  16.519  67.789  1.00  0.00    -0.202 OA 
ATOM     10  H1  MET A   1     -12.516  15.441  66.825  1.00  0.00     0.000 HD 
ATOM     11  H2  MET A   1     -12.592  14.900  68.418  1.00  0.00     0.000 HD 
ENDBRANCH   4   5
ENDBRANCH   3   4
ENDBRANCH   2   3
TORSDOF 3
ENDMDL
MODEL      168
REMARK 921   NORMALIZED FREE ENERGY PREDICTED BY IDOCK:   -1.82 KCAL/MOL
REMARK 922        TOTAL FREE ENERGY PREDICTED BY IDOCK:   -2.31 KCAL/MOL
REMARK 923 INTER-LIGAND FREE ENERGY PREDICTED BY IDOCK:   -2.23 KCAL/MOL
REMARK 924 INTRA-LIGAND FREE ENERGY PREDICTED BY IDOCK:   -0.08 KCAL/MOL
REMARK 927      BINDING AFFINITY PREDICTED BY RF-SCORE:    0.00 PKD
ROOT
ATOM      1  CE  MET A   1     -10.446   5.079  72.181  1.00  0.00    -0.210 C  
ATOM      2  SD  MET A   1     -11.608   6.449  71.974  1.00  0.00    -0.330 SA 
ENDROOT
BRANCH   2   3
ATOM      3  CG  MET A   1     -11.650   6.508  70.153  1.00  0.00    -0.402 C  
BRANCH   3   4
ATOM      4  CB  MET A   1     -10.546   5.622  69.582  1.00  0.00    -0.401 C  
BRANCH   4   5
ATOM      5  CA  MET A   1      -9.519   6.396  68.748  1.00  0.00    -0.127 C  
ATOM      6  C   MET A   1     -10.072   6.548  67.321  1.00  0.00    -0.164 C  
ATOM      7  N   MET A   1      -8.214   5.682  68.659  1.00  0.00    -0.103 NA 
ATOM      8  O   MET A   1      -9.579   5.587  66.496  1.00  0.00    -0.143 OA 
ATOM      9  OXT MET A   1     -10.868   7.402  66.963  1.00  0.00    -0.354 OA 
ATOM     10  H1  MET A   1      -7.530   6.198  68.105  1.00  0.00     0.000 HD 
ATOM     11  H2  MET A   1      -8.335   4.733  68.307  1.00  0.00     0.000 HD 
ENDBRANCH   4   5
ENDBRANCH   3   4
ENDBRANCH   2   3
TORSDOF 3
ENDMDL
MODEL      169
REMARK 921   NORMALIZED FREE ENERGY PREDICTED BY IDOCK:   -1.81 KCAL/MOL
REMARK 922        TOTAL FREE ENERGY PREDICTED BY IDOCK:   -2.30 KCAL/MOL
REMARK 923 INTER-LIGAND FREE ENERGY PREDICTED BY IDOCK:   -2.25 KCAL/MOL
REMARK 924 INTRA-LIGAND FREE ENERGY PREDICTED BY IDOCK:   -0.05 KCAL/MOL
REMARK 927      BINDING AFFINITY PREDICTED BY RF-SCORE:    0.00 PKD
ROOT
ATOM      1  CE  MET A   1     -10.318   7.625  67.200  1.00  0.00    -0.315 C  
ATOM      2  SD  MET A   1     -10.536   6.016  67.995  1.00  0.00    -0.270 SA 
ENDROOT
BRANCH   2   3
ATOM      3  CG  MET A   1     -11.411   6.562  69.498  1.00  0.00    -0.357 C  
BRANCH   3   4
ATOM      4  CB  MET A   1     -10.793   5.898  70.726  1.00  0.00    -0.352 C  
BRANCH   4   5
ATOM      5  CA  MET A   1      -9.966   6.862  71.584  1.00  0.00    -0.171 C  
ATOM      6  C   MET A   1      -9.543   6.125  72.866  1.00  0.00    -0.154 C  
ATOM      7  N   MET A   1     -10.745   8.068  71.983  1.00  0.00    -0.240 NA 
ATOM      8  O   MET A   1     -10.388   6.402  73.894  1.00  0.00    -0.272 OA 
ATOM      9  OXT MET A   1      -8.589   5.371  72.960  1.00  0.00    -0.121 OA 
ATOM     10  H1  MET A   1     -10.194   8.710  72.554  1.00  0.00     0.000 HD 
ATOM     11  H2  MET A   1     -11.613   7.808  72.452  1.00  0.00     0.000 HD 
ENDBRANCH   4   5
ENDBRANCH   3   4
ENDBRANCH   2   3
TORSDOF 3
ENDMDL
MODEL      170
REMARK 921   NORMALIZED FREE ENERGY PREDICTED BY IDOCK:   -1.81 KCAL/MOL
REMARK 922        TOTAL FREE ENERGY PREDICTED BY IDOCK:   -2.30 KCAL/MOL
REMARK 923 INTER-LIGAND FREE ENERGY PREDICTED BY IDOCK:   -2.21 KCAL/MOL
REMARK 924 INTRA-LIGAND FREE ENERGY PREDICTED BY IDOCK:   -0.08 KCAL/MOL
REMARK 927      BINDING AFFINITY PREDICTED BY RF-SCORE:    0.00 PKD
ROOT
ATOM      1  CE  MET A   1     -10.139   4.785  69.862  1.00  0.00    -0.229 C  
ATOM      2  SD  MET A   1     -11.094   6.281  69.513  1.00  0.00    -0.421 SA 
ENDROOT
BRANCH   2   3
ATOM      3  CG  MET A   1     -11.227   6.930  71.211  1.00  0.00    -0.268 C  
BRANCH   3   4
ATOM      4  CB  MET A   1     -10.071   7.888  71.490  1.00  0.00    -0.221 C  
BRANCH   4   5
ATOM      5  CA  MET A   1      -8.905   7.228  72.235  1.00  0.00    -0.127 C  
ATOM      6  C   MET A   1      -9.049   7.543  73.733  1.00  0.00    -0.260 C  
ATOM      7  N   MET A   1      -7.583   7.747  71.782  1.00  0.00    -0.080 NA 
ATOM      8  O   MET A   1      -8.286   8.610  74.088  1.00  0.00    -0.341 OA 
ATOM      9  OXT MET A   1      -9.767   6.938  74.512  1.00  0.00    -0.268 OA 
ATOM     10  H1  MET A   1      -6.807   7.308  72.277  1.00  0.00     0.000 HD 
ATOM     11  H2  MET A   1      -7.541   8.764  71.856  1.00  0.00     0.000 HD 
ENDBRANCH   4   5
ENDBRANCH   3   4
ENDBRANCH   2   3
TORSDOF 3
ENDMDL
MODEL      171
REMARK 921   NORMALIZED FREE ENERGY PREDICTED BY IDOCK:   -1.81 KCAL/MOL
REMARK 922        TOTAL FREE ENERGY PREDICTED BY IDOCK:   -2.30 KCAL/MOL
REMARK 923 INTER-LIGAND FREE ENERGY PREDICTED BY IDOCK:   -2.24 KCAL/MOL
REMARK 924 INTRA-LIGAND FREE ENERGY PREDICTED BY IDOCK:   -0.06 KCAL/MOL
REMARK 927      BINDING AFFINITY PREDICTED BY RF-SCORE:    0.00 PKD
ROOT
ATOM      1  CE  MET A   1      -6.681   3.910  73.729  1.00  0.00    -0.048 C  
ATOM      2  SD  MET A   1      -7.709   4.562  72.391  1.00  0.00    -0.086 SA 
ENDROOT
BRANCH   2   3
ATOM      3  CG  MET A   1      -8.764   5.681  73.369  1.00  0.00    -0.117 C  
BRANCH   3   4
ATOM      4  CB  MET A   1      -9.702   6.450  72.441  1.00  0.00    -0.159 C  
BRANCH   4   5
ATOM      5  CA  MET A   1     -10.929   5.637  72.012  1.00  0.00    -0.243 C  
ATOM      6  C   MET A   1     -11.785   6.511  71.081  1.00  0.00    -0.335 C  
ATOM      7  N   MET A   1     -11.774   5.240  73.174  1.00  0.00    -0.535 NA 
ATOM      8  O   MET A   1     -12.792   7.118  71.763  1.00  0.00    -0.345 OA 
ATOM      9  OXT MET A   1     -11.588   6.668  69.887  1.00  0.00    -0.371 OA 
ATOM     10  H1  MET A   1     -12.590   4.698  72.889  1.00  0.00     0.000 HD 
ATOM     11  H2  MET A   1     -12.044   6.052  73.729  1.00  0.00     0.000 HD 
ENDBRANCH   4   5
ENDBRANCH   3   4
ENDBRANCH   2   3
TORSDOF 3
ENDMDL
MODEL      172
REMARK 921   NORMALIZED FREE ENERGY PREDICTED BY IDOCK:   -1.80 KCAL/MOL
REMARK 922        TOTAL FREE ENERGY PREDICTED BY IDOCK:   -2.29 KCAL/MOL
REMARK 923 INTER-LIGAND FREE ENERGY PREDICTED BY IDOCK:   -2.24 KCAL/MOL
REMARK 924 INTRA-LIGAND FREE ENERGY PREDICTED BY IDOCK:   -0.05 KCAL/MOL
REMARK 927      BINDING AFFINITY PREDICTED BY RF-SCORE:    0.00 PKD
ROOT
ATOM      1  CE  MET A   1      -8.583   5.606  66.020  1.00  0.00    -0.137 C  
ATOM      2  SD  MET A   1     -10.207   5.021  66.560  1.00  0.00    -0.280 SA 
ENDROOT
BRANCH   2   3
ATOM      3  CG  MET A   1     -10.956   6.628  66.984  1.00  0.00    -0.393 C  
BRANCH   3   4
ATOM      4  CB  MET A   1      -9.945   7.747  66.751  1.00  0.00    -0.331 C  
BRANCH   4   5
ATOM      5  CA  MET A   1      -9.770   8.668  67.964  1.00  0.00    -0.158 C  
ATOM      6  C   MET A   1      -9.245   7.825  69.139  1.00  0.00    -0.144 C  
ATOM      7  N   MET A   1     -11.056   9.292  68.386  1.00  0.00    -0.474 NA 
ATOM      8  O   MET A   1     -10.260   7.431  69.954  1.00  0.00    -0.202 OA 
ATOM      9  OXT MET A   1      -8.078   7.521  69.319  1.00  0.00    -0.121 OA 
ATOM     10  H1  MET A   1     -10.940   9.905  69.193  1.00  0.00     0.000 HD 
ATOM     11  H2  MET A   1     -11.771   8.584  68.559  1.00  0.00     0.000 HD 
ENDBRANCH   4   5
ENDBRANCH   3   4
ENDBRANCH   2   3
TORSDOF 3
ENDMDL
MODEL      173
REMARK 921   NORMALIZED FREE ENERGY PREDICTED BY IDOCK:   -1.80 KCAL/MOL
REMARK 922        TOTAL FREE ENERGY PREDICTED BY IDOCK:   -2.29 KCAL/MOL
REMARK 923 INTER-LIGAND FREE ENERGY PREDICTED BY IDOCK:   -2.22 KCAL/MOL
REMARK 924 INTRA-LIGAND FREE ENERGY PREDICTED BY IDOCK:   -0.07 KCAL/MOL
REMARK 927      BINDING AFFINITY PREDICTED BY RF-SCORE:    0.00 PKD
ROOT
ATOM      1  CE  MET A   1     -12.518  13.457  64.519  1.00  0.00    -0.301 C  
ATOM      2  SD  MET A   1     -10.713  13.568  64.583  1.00  0.00    -0.422 SA 
ENDROOT
BRANCH   2   3
ATOM      3  CG  MET A   1     -10.560  14.960  65.750  1.00  0.00    -0.331 C  
BRANCH   3   4
ATOM      4  CB  MET A   1     -10.298  14.429  67.157  1.00  0.00    -0.262 C  
BRANCH   4   5
ATOM      5  CA  MET A   1      -9.827  15.512  68.134  1.00  0.00    -0.216 C  
ATOM      6  C   MET A   1      -8.290  15.549  68.110  1.00  0.00    -0.145 C  
ATOM      7  N   MET A   1     -10.256  15.231  69.534  1.00  0.00    -0.253 NA 
ATOM      8  O   MET A   1      -7.763  14.818  69.127  1.00  0.00    -0.143 OA 
ATOM      9  OXT MET A   1      -7.615  16.136  67.280  1.00  0.00    -0.149 OA 
ATOM     10  H1  MET A   1      -9.944  15.952  70.184  1.00  0.00     0.000 HD 
ATOM     11  H2  MET A   1      -9.953  14.305  69.834  1.00  0.00     0.000 HD 
ENDBRANCH   4   5
ENDBRANCH   3   4
ENDBRANCH   2   3
TORSDOF 3
ENDMDL
MODEL      174
REMARK 921   NORMALIZED FREE ENERGY PREDICTED BY IDOCK:   -1.80 KCAL/MOL
REMARK 922        TOTAL FREE ENERGY PREDICTED BY IDOCK:   -2.28 KCAL/MOL
REMARK 923 INTER-LIGAND FREE ENERGY PREDICTED BY IDOCK:   -2.13 KCAL/MOL
REMARK 924 INTRA-LIGAND FREE ENERGY PREDICTED BY IDOCK:   -0.15 KCAL/MOL
REMARK 927      BINDING AFFINITY PREDICTED BY RF-SCORE:    0.00 PKD
ROOT
ATOM      1  CE  MET A   1     -11.189  11.958  68.885  1.00  0.00    -0.254 C  
ATOM      2  SD  MET A   1     -11.567  10.667  70.093  1.00  0.00    -0.353 SA 
ENDROOT
BRANCH   2   3
ATOM      3  CG  MET A   1     -10.142   9.573  69.789  1.00  0.00    -0.216 C  
BRANCH   3   4
ATOM      4  CB  MET A   1      -9.381  10.046  68.553  1.00  0.00    -0.145 C  
BRANCH   4   5
ATOM      5  CA  MET A   1      -9.459   9.062  67.381  1.00  0.00    -0.144 C  
ATOM      6  C   MET A   1      -9.169   9.834  66.082  1.00  0.00    -0.176 C  
ATOM      7  N   MET A   1     -10.809   8.443  67.255  1.00  0.00    -0.461 NA 
ATOM      8  O   MET A   1     -10.321  10.206  65.463  1.00  0.00    -0.248 OA 
ATOM      9  OXT MET A   1      -8.058  10.106  65.660  1.00  0.00    -0.136 OA 
ATOM     10  H1  MET A   1     -10.860   7.788  66.475  1.00  0.00     0.000 HD 
ATOM     11  H2  MET A   1     -11.537   9.155  67.188  1.00  0.00     0.000 HD 
ENDBRANCH   4   5
ENDBRANCH   3   4
ENDBRANCH   2   3
TORSDOF 3
ENDMDL
MODEL      175
REMARK 921   NORMALIZED FREE ENERGY PREDICTED BY IDOCK:   -1.79 KCAL/MOL
REMARK 922        TOTAL FREE ENERGY PREDICTED BY IDOCK:   -2.28 KCAL/MOL
REMARK 923 INTER-LIGAND FREE ENERGY PREDICTED BY IDOCK:   -2.20 KCAL/MOL
REMARK 924 INTRA-LIGAND FREE ENERGY PREDICTED BY IDOCK:   -0.07 KCAL/MOL
REMARK 927      BINDING AFFINITY PREDICTED BY RF-SCORE:    0.00 PKD
ROOT
ATOM      1  CE  MET A   1      -7.513  10.864  69.084  1.00  0.00    -0.130 C  
ATOM      2  SD  MET A   1      -7.361  12.574  68.514  1.00  0.00    -0.110 SA 
ENDROOT
BRANCH   2   3
ATOM      3  CG  MET A   1      -8.973  12.735  67.678  1.00  0.00    -0.191 C  
BRANCH   3   4
ATOM      4  CB  MET A   1      -9.484  11.355  67.271  1.00  0.00    -0.176 C  
BRANCH   4   5
ATOM      5  CA  MET A   1     -10.769  11.407  66.438  1.00  0.00    -0.275 C  
ATOM      6  C   MET A   1     -10.378  11.488  64.953  1.00  0.00    -0.289 C  
ATOM      7  N   MET A   1     -11.600  12.601  66.759  1.00  0.00    -0.354 NA 
ATOM      8  O   MET A   1     -10.389  12.773  64.510  1.00  0.00    -0.336 OA 
ATOM      9  OXT MET A   1     -10.074  10.536  64.253  1.00  0.00    -0.343 OA 
ATOM     10  H1  MET A   1     -12.456  12.636  66.205  1.00  0.00     0.000 HD 
ATOM     11  H2  MET A   1     -11.062  13.462  66.662  1.00  0.00     0.000 HD 
ENDBRANCH   4   5
ENDBRANCH   3   4
ENDBRANCH   2   3
TORSDOF 3
ENDMDL
MODEL      176
REMARK 921   NORMALIZED FREE ENERGY PREDICTED BY IDOCK:   -1.79 KCAL/MOL
REMARK 922        TOTAL FREE ENERGY PREDICTED BY IDOCK:   -2.27 KCAL/MOL
REMARK 923 INTER-LIGAND FREE ENERGY PREDICTED BY IDOCK:   -2.14 KCAL/MOL
REMARK 924 INTRA-LIGAND FREE ENERGY PREDICTED BY IDOCK:   -0.13 KCAL/MOL
REMARK 927      BINDING AFFINITY PREDICTED BY RF-SCORE:    0.00 PKD
ROOT
ATOM      1  CE  MET A   1      -9.969   9.792  70.134  1.00  0.00    -0.263 C  
ATOM      2  SD  MET A   1     -11.320  10.766  69.427  1.00  0.00    -0.310 SA 
ENDROOT
BRANCH   2   3
ATOM      3  CG  MET A   1     -11.008  10.436  67.662  1.00  0.00    -0.312 C  
BRANCH   3   4
ATOM      4  CB  MET A   1      -9.743   9.596  67.509  1.00  0.00    -0.195 C  
BRANCH   4   5
ATOM      5  CA  MET A   1      -9.920   8.403  66.563  1.00  0.00    -0.265 C  
ATOM      6  C   MET A   1      -9.352   7.151  67.255  1.00  0.00    -0.134 C  
ATOM      7  N   MET A   1      -9.187   8.589  65.279  1.00  0.00    -0.430 NA 
ATOM      8  O   MET A   1      -8.077   6.903  66.853  1.00  0.00    -0.107 OA 
ATOM      9  OXT MET A   1      -9.947   6.471  68.075  1.00  0.00    -0.127 OA 
ATOM     10  H1  MET A   1      -9.306   7.795  64.650  1.00  0.00     0.000 HD 
ATOM     11  H2  MET A   1      -8.200   8.787  65.442  1.00  0.00     0.000 HD 
ENDBRANCH   4   5
ENDBRANCH   3   4
ENDBRANCH   2   3
TORSDOF 3
ENDMDL
MODEL      177
REMARK 921   NORMALIZED FREE ENERGY PREDICTED BY IDOCK:   -1.79 KCAL/MOL
REMARK 922        TOTAL FREE ENERGY PREDICTED BY IDOCK:   -2.27 KCAL/MOL
REMARK 923 INTER-LIGAND FREE ENERGY PREDICTED BY IDOCK:   -2.22 KCAL/MOL
REMARK 924 INTRA-LIGAND FREE ENERGY PREDICTED BY IDOCK:   -0.05 KCAL/MOL
REMARK 927      BINDING AFFINITY PREDICTED BY RF-SCORE:    0.00 PKD
ROOT
ATOM      1  CE  MET A   1     -12.011  10.780  70.224  1.00  0.00    -0.351 C  
ATOM      2  SD  MET A   1     -12.812  11.547  71.653  1.00  0.00    -0.292 SA 
ENDROOT
BRANCH   2   3
ATOM      3  CG  MET A   1     -13.252  13.148  70.902  1.00  0.00     0.144 C  
BRANCH   3   4
ATOM      4  CB  MET A   1     -11.983  13.903  70.513  1.00  0.00    -0.384 C  
BRANCH   4   5
ATOM      5  CA  MET A   1     -12.180  14.843  69.318  1.00  0.00    -0.186 C  
ATOM      6  C   MET A   1     -10.798  15.167  68.727  1.00  0.00    -0.247 C  
ATOM      7  N   MET A   1     -12.823  16.128  69.714  1.00  0.00    -0.422 NA 
ATOM      8  O   MET A   1     -10.325  16.350  69.202  1.00  0.00    -0.251 OA 
ATOM      9  OXT MET A   1     -10.183  14.458  67.948  1.00  0.00    -0.228 OA 
ATOM     10  H1  MET A   1     -12.955  16.753  68.918  1.00  0.00     0.000 HD 
ATOM     11  H2  MET A   1     -12.303  16.586  70.462  1.00  0.00     0.000 HD 
ENDBRANCH   4   5
ENDBRANCH   3   4
ENDBRANCH   2   3
TORSDOF 3
ENDMDL
MODEL      178
REMARK 921   NORMALIZED FREE ENERGY PREDICTED BY IDOCK:   -1.79 KCAL/MOL
REMARK 922        TOTAL FREE ENERGY PREDICTED BY IDOCK:   -2.27 KCAL/MOL
REMARK 923 INTER-LIGAND FREE ENERGY PREDICTED BY IDOCK:   -2.20 KCAL/MOL
REMARK 924 INTRA-LIGAND FREE ENERGY PREDICTED BY IDOCK:   -0.07 KCAL/MOL
REMARK 927      BINDING AFFINITY PREDICTED BY RF-SCORE:    0.00 PKD
ROOT
ATOM      1  CE  MET A   1      -7.668   2.546  71.682  1.00  0.00    -0.044 C  
ATOM      2  SD  MET A   1      -9.445   2.767  71.428  1.00  0.00    -0.153 SA 
ENDROOT
BRANCH   2   3
ATOM      3  CG  MET A   1      -9.456   4.551  71.059  1.00  0.00    -0.161 C  
BRANCH   3   4
ATOM      4  CB  MET A   1     -10.233   5.298  72.141  1.00  0.00    -0.252 C  
BRANCH   4   5
ATOM      5  CA  MET A   1     -11.381   6.148  71.584  1.00  0.00    -0.284 C  
ATOM      6  C   MET A   1     -10.849   7.568  71.327  1.00  0.00    -0.235 C  
ATOM      7  N   MET A   1     -12.520   6.251  72.540  1.00  0.00    -0.532 NA 
ATOM      8  O   MET A   1     -11.133   8.396  72.368  1.00  0.00    -0.346 OA 
ATOM      9  OXT MET A   1     -10.232   7.918  70.335  1.00  0.00    -0.194 OA 
ATOM     10  H1  MET A   1     -13.283   6.816  72.169  1.00  0.00     0.000 HD 
ATOM     11  H2  MET A   1     -12.209   6.598  73.448  1.00  0.00     0.000 HD 
ENDBRANCH   4   5
ENDBRANCH   3   4
ENDBRANCH   2   3
TORSDOF 3
ENDMDL
MODEL      179
REMARK 921   NORMALIZED FREE ENERGY PREDICTED BY IDOCK:   -1.77 KCAL/MOL
REMARK 922        TOTAL FREE ENERGY PREDICTED BY IDOCK:   -2.25 KCAL/MOL
REMARK 923 INTER-LIGAND FREE ENERGY PREDICTED BY IDOCK:   -2.13 KCAL/MOL
REMARK 924 INTRA-LIGAND FREE ENERGY PREDICTED BY IDOCK:   -0.13 KCAL/MOL
REMARK 927      BINDING AFFINITY PREDICTED BY RF-SCORE:    0.00 PKD
ROOT
ATOM      1  CE  MET A   1      -8.382   6.586  70.638  1.00  0.00    -0.133 C  
ATOM      2  SD  MET A   1      -8.151   7.971  69.499  1.00  0.00    -0.121 SA 
ENDROOT
BRANCH   2   3
ATOM      3  CG  MET A   1      -8.863   9.299  70.524  1.00  0.00    -0.241 C  
BRANCH   3   4
ATOM      4  CB  MET A   1     -10.192   9.756  69.927  1.00  0.00    -0.291 C  
BRANCH   4   5
ATOM      5  CA  MET A   1     -10.069  11.023  69.074  1.00  0.00    -0.180 C  
ATOM      6  C   MET A   1     -10.497  10.681  67.637  1.00  0.00    -0.227 C  
ATOM      7  N   MET A   1      -8.670  11.535  69.026  1.00  0.00    -0.375 NA 
ATOM      8  O   MET A   1      -9.420  10.405  66.855  1.00  0.00    -0.163 OA 
ATOM      9  OXT MET A   1     -11.649  10.636  67.238  1.00  0.00    -0.392 OA 
ATOM     10  H1  MET A   1      -8.589  12.379  68.459  1.00  0.00     0.000 HD 
ATOM     11  H2  MET A   1      -8.023  10.813  68.710  1.00  0.00     0.000 HD 
ENDBRANCH   4   5
ENDBRANCH   3   4
ENDBRANCH   2   3
TORSDOF 3
ENDMDL
MODEL      180
REMARK 921   NORMALIZED FREE ENERGY PREDICTED BY IDOCK:   -1.76 KCAL/MOL
REMARK 922        TOTAL FREE ENERGY PREDICTED BY IDOCK:   -2.24 KCAL/MOL
REMARK 923 INTER-LIGAND FREE ENERGY PREDICTED BY IDOCK:   -2.12 KCAL/MOL
REMARK 924 INTRA-LIGAND FREE ENERGY PREDICTED BY IDOCK:   -0.12 KCAL/MOL
REMARK 927      BINDING AFFINITY PREDICTED BY RF-SCORE:    0.00 PKD
ROOT
ATOM      1  CE  MET A   1      -6.231   8.754  69.891  1.00  0.00    -0.034 C  
ATOM      2  SD  MET A   1      -7.899   9.412  70.131  1.00  0.00    -0.159 SA 
ENDROOT
BRANCH   2   3
ATOM      3  CG  MET A   1      -7.813  10.819  68.976  1.00  0.00    -0.138 C  
BRANCH   3   4
ATOM      4  CB  MET A   1      -9.052  10.833  68.085  1.00  0.00    -0.151 C  
BRANCH   4   5
ATOM      5  CA  MET A   1     -10.019  11.978  68.409  1.00  0.00    -0.208 C  
ATOM      6  C   MET A   1     -11.296  11.374  69.016  1.00  0.00    -0.280 C  
ATOM      7  N   MET A   1     -10.407  12.748  67.193  1.00  0.00    -0.232 NA 
ATOM      8  O   MET A   1     -12.263  11.219  68.073  1.00  0.00    -0.621 OA 
ATOM      9  OXT MET A   1     -11.434  11.050  70.184  1.00  0.00    -0.293 OA 
ATOM     10  H1  MET A   1     -11.050  13.510  67.410  1.00  0.00     0.000 HD 
ATOM     11  H2  MET A   1     -10.791  12.133  66.475  1.00  0.00     0.000 HD 
ENDBRANCH   4   5
ENDBRANCH   3   4
ENDBRANCH   2   3
TORSDOF 3
ENDMDL
MODEL      181
REMARK 921   NORMALIZED FREE ENERGY PREDICTED BY IDOCK:   -1.74 KCAL/MOL
REMARK 922        TOTAL FREE ENERGY PREDICTED BY IDOCK:   -2.21 KCAL/MOL
REMARK 923 INTER-LIGAND FREE ENERGY PREDICTED BY IDOCK:   -2.07 KCAL/MOL
REMARK 924 INTRA-LIGAND FREE ENERGY PREDICTED BY IDOCK:   -0.14 KCAL/MOL
REMARK 927      BINDING AFFINITY PREDICTED BY RF-SCORE:    0.00 PKD
ROOT
ATOM      1  CE  MET A   1     -12.815   6.883  71.255  1.00  0.00    -0.278 C  
ATOM      2  SD  MET A   1     -12.052   7.945  72.504  1.00  0.00    -0.183 SA 
ENDROOT
BRANCH   2   3
ATOM      3  CG  MET A   1     -11.357   9.219  71.402  1.00  0.00    -0.364 C  
BRANCH   3   4
ATOM      4  CB  MET A   1      -9.837   9.081  71.346  1.00  0.00    -0.381 C  
BRANCH   4   5
ATOM      5  CA  MET A   1      -9.303   8.845  69.929  1.00  0.00    -0.166 C  
ATOM      6  C   MET A   1      -8.874  10.201  69.343  1.00  0.00    -0.185 C  
ATOM      7  N   MET A   1     -10.337   8.263  69.027  1.00  0.00    -0.221 NA 
ATOM      8  O   MET A   1      -9.854  10.734  68.567  1.00  0.00    -0.163 OA 
ATOM      9  OXT MET A   1      -7.805  10.751  69.554  1.00  0.00    -0.127 OA 
ATOM     10  H1  MET A   1      -9.981   8.106  68.084  1.00  0.00     0.000 HD 
ATOM     11  H2  MET A   1     -11.180   8.837  69.013  1.00  0.00     0.000 HD 
ENDBRANCH   4   5
ENDBRANCH   3   4
ENDBRANCH   2   3
TORSDOF 3
ENDMDL
MODEL      182
REMARK 921   NORMALIZED FREE ENERGY PREDICTED BY IDOCK:   -1.73 KCAL/MOL
REMARK 922        TOTAL FREE ENERGY PREDICTED BY IDOCK:   -2.20 KCAL/MOL
REMARK 923 INTER-LIGAND FREE ENERGY PREDICTED BY IDOCK:   -2.11 KCAL/MOL
REMARK 924 INTRA-LIGAND FREE ENERGY PREDICTED BY IDOCK:   -0.10 KCAL/MOL
REMARK 927      BINDING AFFINITY PREDICTED BY RF-SCORE:    0.00 PKD
ROOT
ATOM      1  CE  MET A   1     -11.173  10.493  69.857  1.00  0.00    -0.307 C  
ATOM      2  SD  MET A   1      -9.920   9.265  70.299  1.00  0.00    -0.236 SA 
ENDROOT
BRANCH   2   3
ATOM      3  CG  MET A   1     -10.941   7.762  70.164  1.00  0.00    -0.241 C  
BRANCH   3   4
ATOM      4  CB  MET A   1     -10.117   6.540  70.561  1.00  0.00    -0.213 C  
BRANCH   4   5
ATOM      5  CA  MET A   1     -10.723   5.754  71.729  1.00  0.00    -0.249 C  
ATOM      6  C   MET A   1     -10.286   6.426  73.041  1.00  0.00    -0.199 C  
ATOM      7  N   MET A   1     -10.253   4.340  71.759  1.00  0.00    -0.154 NA 
ATOM      8  O   MET A   1      -9.199   5.807  73.574  1.00  0.00    -0.132 OA 
ATOM      9  OXT MET A   1     -10.820   7.402  73.542  1.00  0.00    -0.379 OA 
ATOM     10  H1  MET A   1     -10.656   3.817  72.536  1.00  0.00     0.000 HD 
ATOM     11  H2  MET A   1      -9.234   4.290  71.770  1.00  0.00     0.000 HD 
ENDBRANCH   4   5
ENDBRANCH   3   4
ENDBRANCH   2   3
TORSDOF 3
ENDMDL
MODEL      183
REMARK 921   NORMALIZED FREE ENERGY PREDICTED BY IDOCK:   -1.72 KCAL/MOL
REMARK 922        TOTAL FREE ENERGY PREDICTED BY IDOCK:   -2.20 KCAL/MOL
REMARK 923 INTER-LIGAND FREE ENERGY PREDICTED BY IDOCK:   -2.36 KCAL/MOL
REMARK 924 INTRA-LIGAND FREE ENERGY PREDICTED BY IDOCK:    0.16 KCAL/MOL
REMARK 927      BINDING AFFINITY PREDICTED BY RF-SCORE:    0.00 PKD
ROOT
ATOM      1  CE  MET A   1     -10.543  10.049  70.082  1.00  0.00    -0.296 C  
ATOM      2  SD  MET A   1     -11.771  10.802  68.988  1.00  0.00    -0.244 SA 
ENDROOT
BRANCH   2   3
ATOM      3  CG  MET A   1     -10.887  10.615  67.405  1.00  0.00    -0.296 C  
BRANCH   3   4
ATOM      4  CB  MET A   1     -11.122  11.846  66.533  1.00  0.00    -0.357 C  
BRANCH   4   5
ATOM      5  CA  MET A   1      -9.827  12.569  66.146  1.00  0.00    -0.258 C  
ATOM      6  C   MET A   1      -8.973  12.742  67.414  1.00  0.00    -0.195 C  
ATOM      7  N   MET A   1     -10.086  13.923  65.580  1.00  0.00    -0.403 NA 
ATOM      8  O   MET A   1      -9.149  13.973  67.962  1.00  0.00    -0.175 OA 
ATOM      9  OXT MET A   1      -8.244  11.888  67.891  1.00  0.00    -0.133 OA 
ATOM     10  H1  MET A   1      -9.224  14.404  65.322  1.00  0.00     0.000 HD 
ATOM     11  H2  MET A   1     -10.649  14.488  66.217  1.00  0.00     0.000 HD 
ENDBRANCH   4   5
ENDBRANCH   3   4
ENDBRANCH   2   3
TORSDOF 3
ENDMDL
MODEL      184
REMARK 921   NORMALIZED FREE ENERGY PREDICTED BY IDOCK:   -1.71 KCAL/MOL
REMARK 922        TOTAL FREE ENERGY PREDICTED BY IDOCK:   -2.19 KCAL/MOL
REMARK 923 INTER-LIGAND FREE ENERGY PREDICTED BY IDOCK:   -2.09 KCAL/MOL
REMARK 924 INTRA-LIGAND FREE ENERGY PREDICTED BY IDOCK:   -0.10 KCAL/MOL
REMARK 927      BINDING AFFINITY PREDICTED BY RF-SCORE:    0.00 PKD
ROOT
ATOM      1  CE  MET A   1     -11.112  15.490  65.014  1.00  0.00    -0.401 C  
ATOM      2  SD  MET A   1     -10.484  16.782  66.113  1.00  0.00    -0.231 SA 
ENDROOT
BRANCH   2   3
ATOM      3  CG  MET A   1      -9.720  15.722  67.384  1.00  0.00    -0.223 C  
BRANCH   3   4
ATOM      4  CB  MET A   1      -8.434  15.107  66.839  1.00  0.00    -0.278 C  
BRANCH   4   5
ATOM      5  CA  MET A   1      -7.165  15.749  67.411  1.00  0.00    -0.202 C  
ATOM      6  C   MET A   1      -6.365  14.663  68.150  1.00  0.00    -0.140 C  
ATOM      7  N   MET A   1      -7.475  16.834  68.386  1.00  0.00    -0.192 NA 
ATOM      8  O   MET A   1      -6.623  14.684  69.485  1.00  0.00    -0.126 OA 
ATOM      9  OXT MET A   1      -5.610  13.865  67.621  1.00  0.00    -0.298 OA 
ATOM     10  H1  MET A   1      -6.631  17.261  68.767  1.00  0.00     0.000 HD 
ATOM     11  H2  MET A   1      -8.087  16.497  69.130  1.00  0.00     0.000 HD 
ENDBRANCH   4   5
ENDBRANCH   3   4
ENDBRANCH   2   3
TORSDOF 3
ENDMDL
MODEL      185
REMARK 921   NORMALIZED FREE ENERGY PREDICTED BY IDOCK:   -1.71 KCAL/MOL
REMARK 922        TOTAL FREE ENERGY PREDICTED BY IDOCK:   -2.18 KCAL/MOL
REMARK 923 INTER-LIGAND FREE ENERGY PREDICTED BY IDOCK:   -2.11 KCAL/MOL
REMARK 924 INTRA-LIGAND FREE ENERGY PREDICTED BY IDOCK:   -0.07 KCAL/MOL
REMARK 927      BINDING AFFINITY PREDICTED BY RF-SCORE:    0.00 PKD
ROOT
ATOM      1  CE  MET A   1      -9.221   9.532  65.894  1.00  0.00    -0.206 C  
ATOM      2  SD  MET A   1      -8.760   8.788  67.477  1.00  0.00    -0.135 SA 
ENDROOT
BRANCH   2   3
ATOM      3  CG  MET A   1     -10.289   9.135  68.405  1.00  0.00    -0.206 C  
BRANCH   3   4
ATOM      4  CB  MET A   1     -10.535   8.029  69.429  1.00  0.00    -0.223 C  
BRANCH   4   5
ATOM      5  CA  MET A   1     -10.252   8.465  70.871  1.00  0.00    -0.194 C  
ATOM      6  C   MET A   1     -11.230   7.726  71.799  1.00  0.00    -0.256 C  
ATOM      7  N   MET A   1     -10.452   9.929  71.066  1.00  0.00    -0.313 NA 
ATOM      8  O   MET A   1     -12.311   8.497  72.090  1.00  0.00    -0.338 OA 
ATOM      9  OXT MET A   1     -11.082   6.588  72.213  1.00  0.00    -0.241 OA 
ATOM     10  H1  MET A   1     -10.264  10.219  72.025  1.00  0.00     0.000 HD 
ATOM     11  H2  MET A   1     -11.385  10.216  70.769  1.00  0.00     0.000 HD 
ENDBRANCH   4   5
ENDBRANCH   3   4
ENDBRANCH   2   3
TORSDOF 3
ENDMDL
MODEL      186
REMARK 921   NORMALIZED FREE ENERGY PREDICTED BY IDOCK:   -1.69 KCAL/MOL
REMARK 922        TOTAL FREE ENERGY PREDICTED BY IDOCK:   -2.16 KCAL/MOL
REMARK 923 INTER-LIGAND FREE ENERGY PREDICTED BY IDOCK:   -2.01 KCAL/MOL
REMARK 924 INTRA-LIGAND FREE ENERGY PREDICTED BY IDOCK:   -0.15 KCAL/MOL
REMARK 927      BINDING AFFINITY PREDICTED BY RF-SCORE:    0.00 PKD
ROOT
ATOM      1  CE  MET A   1      -7.847   8.006  64.530  1.00  0.00    -0.138 C  
ATOM      2  SD  MET A   1      -7.795   6.946  65.995  1.00  0.00    -0.109 SA 
ENDROOT
BRANCH   2   3
ATOM      3  CG  MET A   1      -9.413   7.380  66.712  1.00  0.00    -0.176 C  
BRANCH   3   4
ATOM      4  CB  MET A   1      -9.450   8.870  67.041  1.00  0.00    -0.215 C  
BRANCH   4   5
ATOM      5  CA  MET A   1     -10.777   9.540  66.665  1.00  0.00    -0.016 C  
ATOM      6  C   MET A   1     -10.476  10.699  65.700  1.00  0.00    -0.165 C  
ATOM      7  N   MET A   1     -11.479  10.103  67.853  1.00  0.00    -0.636 NA 
ATOM      8  O   MET A   1     -10.404  11.885  66.362  1.00  0.00    -0.211 OA 
ATOM      9  OXT MET A   1     -10.300  10.585  64.498  1.00  0.00    -0.348 OA 
ATOM     10  H1  MET A   1     -12.362  10.549  67.603  1.00  0.00     0.000 HD 
ATOM     11  H2  MET A   1     -10.875  10.743  68.370  1.00  0.00     0.000 HD 
ENDBRANCH   4   5
ENDBRANCH   3   4
ENDBRANCH   2   3
TORSDOF 3
ENDMDL
MODEL      187
REMARK 921   NORMALIZED FREE ENERGY PREDICTED BY IDOCK:   -1.69 KCAL/MOL
REMARK 922        TOTAL FREE ENERGY PREDICTED BY IDOCK:   -2.16 KCAL/MOL
REMARK 923 INTER-LIGAND FREE ENERGY PREDICTED BY IDOCK:   -2.04 KCAL/MOL
REMARK 924 INTRA-LIGAND FREE ENERGY PREDICTED BY IDOCK:   -0.12 KCAL/MOL
REMARK 927      BINDING AFFINITY PREDICTED BY RF-SCORE:    0.00 PKD
ROOT
ATOM      1  CE  MET A   1      -8.717   6.164  70.535  1.00  0.00    -0.142 C  
ATOM      2  SD  MET A   1      -7.543   6.903  69.374  1.00  0.00    -0.101 SA 
ENDROOT
BRANCH   2   3
ATOM      3  CG  MET A   1      -8.571   8.285  68.779  1.00  0.00    -0.133 C  
BRANCH   3   4
ATOM      4  CB  MET A   1      -8.534   8.337  67.253  1.00  0.00    -0.124 C  
BRANCH   4   5
ATOM      5  CA  MET A   1      -9.927   8.304  66.613  1.00  0.00    -0.278 C  
ATOM      6  C   MET A   1     -10.267   9.722  66.126  1.00  0.00    -0.208 C  
ATOM      7  N   MET A   1     -10.981   7.886  67.581  1.00  0.00    -0.512 NA 
ATOM      8  O   MET A   1     -11.026  10.388  67.037  1.00  0.00    -0.244 OA 
ATOM      9  OXT MET A   1      -9.896  10.211  65.071  1.00  0.00    -0.296 OA 
ATOM     10  H1  MET A   1     -11.907   7.864  67.154  1.00  0.00     0.000 HD 
ATOM     11  H2  MET A   1     -10.971   8.475  68.414  1.00  0.00     0.000 HD 
ENDBRANCH   4   5
ENDBRANCH   3   4
ENDBRANCH   2   3
TORSDOF 3
ENDMDL
MODEL      188
REMARK 921   NORMALIZED FREE ENERGY PREDICTED BY IDOCK:   -1.68 KCAL/MOL
REMARK 922        TOTAL FREE ENERGY PREDICTED BY IDOCK:   -2.15 KCAL/MOL
REMARK 923 INTER-LIGAND FREE ENERGY PREDICTED BY IDOCK:   -2.02 KCAL/MOL
REMARK 924 INTRA-LIGAND FREE ENERGY PREDICTED BY IDOCK:   -0.13 KCAL/MOL
REMARK 927      BINDING AFFINITY PREDICTED BY RF-SCORE:    0.00 PKD
ROOT
ATOM      1  CE  MET A   1      -9.737   3.790  70.866  1.00  0.00    -0.178 C  
ATOM      2  SD  MET A   1      -8.202   4.744  70.819  1.00  0.00    -0.087 SA 
ENDROOT
BRANCH   2   3
ATOM      3  CG  MET A   1      -8.831   6.246  70.001  1.00  0.00    -0.142 C  
BRANCH   3   4
ATOM      4  CB  MET A   1      -9.526   5.870  68.694  1.00  0.00    -0.137 C  
BRANCH   4   5
ATOM      5  CA  MET A   1     -10.828   6.644  68.457  1.00  0.00    -0.258 C  
ATOM      6  C   MET A   1     -10.481   7.969  67.758  1.00  0.00    -0.214 C  
ATOM      7  N   MET A   1     -11.530   6.968  69.731  1.00  0.00    -0.529 NA 
ATOM      8  O   MET A   1     -10.384   8.988  68.653  1.00  0.00    -0.201 OA 
ATOM      9  OXT MET A   1     -10.292   8.103  66.560  1.00  0.00    -0.273 OA 
ATOM     10  H1  MET A   1     -12.396   7.483  69.573  1.00  0.00     0.000 HD 
ATOM     11  H2  MET A   1     -10.915   7.467  70.375  1.00  0.00     0.000 HD 
ENDBRANCH   4   5
ENDBRANCH   3   4
ENDBRANCH   2   3
TORSDOF 3
ENDMDL
MODEL      189
REMARK 921   NORMALIZED FREE ENERGY PREDICTED BY IDOCK:   -1.67 KCAL/MOL
REMARK 922        TOTAL FREE ENERGY PREDICTED BY IDOCK:   -2.13 KCAL/MOL
REMARK 923 INTER-LIGAND FREE ENERGY PREDICTED BY IDOCK:   -2.03 KCAL/MOL
REMARK 924 INTRA-LIGAND FREE ENERGY PREDICTED BY IDOCK:   -0.10 KCAL/MOL
REMARK 927      BINDING AFFINITY PREDICTED BY RF-SCORE:    0.00 PKD
ROOT
ATOM      1  CE  MET A   1      -7.447   7.373  67.238  1.00  0.00    -0.103 C  
ATOM      2  SD  MET A   1      -7.772   9.148  67.357  1.00  0.00    -0.092 SA 
ENDROOT
BRANCH   2   3
ATOM      3  CG  MET A   1      -9.438   9.178  66.619  1.00  0.00    -0.185 C  
BRANCH   3   4
ATOM      4  CB  MET A   1     -10.309  10.197  67.349  1.00  0.00    -0.289 C  
BRANCH   4   5
ATOM      5  CA  MET A   1     -10.352  11.564  66.657  1.00  0.00    -0.226 C  
ATOM      6  C   MET A   1      -9.977  12.640  67.690  1.00  0.00    -0.216 C  
ATOM      7  N   MET A   1     -11.708  11.886  66.131  1.00  0.00    -0.496 NA 
ATOM      8  O   MET A   1     -11.086  13.209  68.232  1.00  0.00    -0.242 OA 
ATOM      9  OXT MET A   1      -8.839  12.941  68.009  1.00  0.00    -0.180 OA 
ATOM     10  H1  MET A   1     -11.737  12.795  65.669  1.00  0.00     0.000 HD 
ATOM     11  H2  MET A   1     -12.414  11.821  66.865  1.00  0.00     0.000 HD 
ENDBRANCH   4   5
ENDBRANCH   3   4
ENDBRANCH   2   3
TORSDOF 3
ENDMDL
MODEL      190
REMARK 921   NORMALIZED FREE ENERGY PREDICTED BY IDOCK:   -1.67 KCAL/MOL
REMARK 922        TOTAL FREE ENERGY PREDICTED BY IDOCK:   -2.13 KCAL/MOL
REMARK 923 INTER-LIGAND FREE ENERGY PREDICTED BY IDOCK:   -2.08 KCAL/MOL
REMARK 924 INTRA-LIGAND FREE ENERGY PREDICTED BY IDOCK:   -0.05 KCAL/MOL
REMARK 927      BINDING AFFINITY PREDICTED BY RF-SCORE:    0.00 PKD
ROOT
ATOM      1  CE  MET A   1      -9.125   3.573  72.633  1.00  0.00    -0.099 C  
ATOM      2  SD  MET A   1     -10.449   4.758  72.971  1.00  0.00    -0.217 SA 
ENDROOT
BRANCH   2   3
ATOM      3  CG  MET A   1      -9.430   6.239  73.269  1.00  0.00    -0.138 C  
BRANCH   3   4
ATOM      4  CB  MET A   1      -9.362   7.083  71.999  1.00  0.00    -0.149 C  
BRANCH   4   5
ATOM      5  CA  MET A   1      -9.351   8.591  72.275  1.00  0.00    -0.293 C  
ATOM      6  C   MET A   1     -10.403   9.255  71.370  1.00  0.00    -0.321 C  
ATOM      7  N   MET A   1      -8.029   9.209  71.970  1.00  0.00    -0.263 NA 
ATOM      8  O   MET A   1      -9.836   9.756  70.241  1.00  0.00    -0.250 OA 
ATOM      9  OXT MET A   1     -11.598   9.315  71.609  1.00  0.00    -0.348 OA 
ATOM     10  H1  MET A   1      -8.021  10.212  72.154  1.00  0.00     0.000 HD 
ATOM     11  H2  MET A   1      -7.738   9.006  71.014  1.00  0.00     0.000 HD 
ENDBRANCH   4   5
ENDBRANCH   3   4
ENDBRANCH   2   3
TORSDOF 3
ENDMDL
MODEL      191
REMARK 921   NORMALIZED FREE ENERGY PREDICTED BY IDOCK:   -1.66 KCAL/MOL
REMARK 922        TOTAL FREE ENERGY PREDICTED BY IDOCK:   -2.12 KCAL/MOL
REMARK 923 INTER-LIGAND FREE ENERGY PREDICTED BY IDOCK:   -2.05 KCAL/MOL
REMARK 924 INTRA-LIGAND FREE ENERGY PREDICTED BY IDOCK:   -0.07 KCAL/MOL
REMARK 927      BINDING AFFINITY PREDICTED BY RF-SCORE:    0.00 PKD
ROOT
ATOM      1  CE  MET A   1      -5.886   8.390  70.706  1.00  0.00    -0.032 C  
ATOM      2  SD  MET A   1      -7.170   7.233  71.238  1.00  0.00    -0.073 SA 
ENDROOT
BRANCH   2   3
ATOM      3  CG  MET A   1      -8.635   8.249  70.863  1.00  0.00    -0.137 C  
BRANCH   3   4
ATOM      4  CB  MET A   1      -8.982   8.128  69.381  1.00  0.00    -0.147 C  
BRANCH   4   5
ATOM      5  CA  MET A   1     -10.491   8.133  69.110  1.00  0.00    -0.206 C  
ATOM      6  C   MET A   1     -11.001   6.684  69.193  1.00  0.00    -0.287 C  
ATOM      7  N   MET A   1     -10.817   8.656  67.753  1.00  0.00    -0.495 NA 
ATOM      8  O   MET A   1     -11.079   6.118  67.960  1.00  0.00    -0.329 OA 
ATOM      9  OXT MET A   1     -11.282   6.097  70.225  1.00  0.00    -0.343 OA 
ATOM     10  H1  MET A   1     -11.821   8.660  67.573  1.00  0.00     0.000 HD 
ATOM     11  H2  MET A   1     -10.313   8.144  67.029  1.00  0.00     0.000 HD 
ENDBRANCH   4   5
ENDBRANCH   3   4
ENDBRANCH   2   3
TORSDOF 3
ENDMDL
MODEL      192
REMARK 921   NORMALIZED FREE ENERGY PREDICTED BY IDOCK:   -1.65 KCAL/MOL
REMARK 922        TOTAL FREE ENERGY PREDICTED BY IDOCK:   -2.11 KCAL/MOL
REMARK 923 INTER-LIGAND FREE ENERGY PREDICTED BY IDOCK:   -2.03 KCAL/MOL
REMARK 924 INTRA-LIGAND FREE ENERGY PREDICTED BY IDOCK:   -0.07 KCAL/MOL
REMARK 927      BINDING AFFINITY PREDICTED BY RF-SCORE:    0.00 PKD
ROOT
ATOM      1  CE  MET A   1      -9.143  11.304  67.069  1.00  0.00    -0.163 C  
ATOM      2  SD  MET A   1      -9.206   9.915  65.913  1.00  0.00    -0.191 SA 
ENDROOT
BRANCH   2   3
ATOM      3  CG  MET A   1      -9.778   8.621  67.061  1.00  0.00    -0.201 C  
BRANCH   3   4
ATOM      4  CB  MET A   1      -9.572   9.081  68.502  1.00  0.00    -0.161 C  
BRANCH   4   5
ATOM      5  CA  MET A   1     -10.637   8.546  69.466  1.00  0.00    -0.211 C  
ATOM      6  C   MET A   1      -9.974   8.307  70.833  1.00  0.00    -0.190 C  
ATOM      7  N   MET A   1     -11.215   7.253  69.004  1.00  0.00    -0.455 NA 
ATOM      8  O   MET A   1      -9.609   7.006  70.982  1.00  0.00    -0.170 OA 
ATOM      9  OXT MET A   1      -9.774   9.165  71.677  1.00  0.00    -0.292 OA 
ATOM     10  H1  MET A   1     -11.924   6.897  69.646  1.00  0.00     0.000 HD 
ATOM     11  H2  MET A   1     -10.485   6.560  68.839  1.00  0.00     0.000 HD 
ENDBRANCH   4   5
ENDBRANCH   3   4
ENDBRANCH   2   3
TORSDOF 3
ENDMDL
MODEL      193
REMARK 921   NORMALIZED FREE ENERGY PREDICTED BY IDOCK:   -1.64 KCAL/MOL
REMARK 922        TOTAL FREE ENERGY PREDICTED BY IDOCK:   -2.10 KCAL/MOL
REMARK 923 INTER-LIGAND FREE ENERGY PREDICTED BY IDOCK:   -2.03 KCAL/MOL
REMARK 924 INTRA-LIGAND FREE ENERGY PREDICTED BY IDOCK:   -0.07 KCAL/MOL
REMARK 927      BINDING AFFINITY PREDICTED BY RF-SCORE:    0.00 PKD
ROOT
ATOM      1  CE  MET A   1      -9.798  10.117  69.508  1.00  0.00    -0.232 C  
ATOM      2  SD  MET A   1     -11.011  10.219  68.171  1.00  0.00    -0.260 SA 
ENDROOT
BRANCH   2   3
ATOM      3  CG  MET A   1     -10.295   8.976  67.048  1.00  0.00    -0.269 C  
BRANCH   3   4
ATOM      4  CB  MET A   1      -9.789   9.657  65.778  1.00  0.00    -0.373 C  
BRANCH   4   5
ATOM      5  CA  MET A   1      -8.707   8.852  65.050  1.00  0.00    -0.166 C  
ATOM      6  C   MET A   1      -7.342   9.494  65.353  1.00  0.00    -0.099 C  
ATOM      7  N   MET A   1      -8.899   8.860  63.572  1.00  0.00    -0.433 NA 
ATOM      8  O   MET A   1      -6.964  10.341  64.359  1.00  0.00    -0.126 OA 
ATOM      9  OXT MET A   1      -6.681   9.296  66.359  1.00  0.00    -0.070 OA 
ATOM     10  H1  MET A   1      -8.179   8.324  63.087  1.00  0.00     0.000 HD 
ATOM     11  H2  MET A   1      -8.955   9.813  63.212  1.00  0.00     0.000 HD 
ENDBRANCH   4   5
ENDBRANCH   3   4
ENDBRANCH   2   3
TORSDOF 3
ENDMDL
MODEL      194
REMARK 921   NORMALIZED FREE ENERGY PREDICTED BY IDOCK:   -1.64 KCAL/MOL
REMARK 922        TOTAL FREE ENERGY PREDICTED BY IDOCK:   -2.10 KCAL/MOL
REMARK 923 INTER-LIGAND FREE ENERGY PREDICTED BY IDOCK:   -1.96 KCAL/MOL
REMARK 924 INTRA-LIGAND FREE ENERGY PREDICTED BY IDOCK:   -0.14 KCAL/MOL
REMARK 927      BINDING AFFINITY PREDICTED BY RF-SCORE:    0.00 PKD
ROOT
ATOM      1  CE  MET A   1     -10.439   9.393  71.365  1.00  0.00    -0.288 C  
ATOM      2  SD  MET A   1     -11.820   8.431  72.028  1.00  0.00    -0.380 SA 
ENDROOT
BRANCH   2   3
ATOM      3  CG  MET A   1     -10.884   7.010  72.680  1.00  0.00    -0.270 C  
BRANCH   3   4
ATOM      4  CB  MET A   1     -11.280   5.742  71.929  1.00  0.00    -0.289 C  
BRANCH   4   5
ATOM      5  CA  MET A   1     -10.096   5.050  71.243  1.00  0.00    -0.206 C  
ATOM      6  C   MET A   1      -9.513   4.013  72.217  1.00  0.00    -0.130 C  
ATOM      7  N   MET A   1      -9.011   6.010  70.891  1.00  0.00    -0.142 NA 
ATOM      8  O   MET A   1      -8.446   4.518  72.893  1.00  0.00    -0.105 OA 
ATOM      9  OXT MET A   1      -9.950   2.887  72.390  1.00  0.00    -0.147 OA 
ATOM     10  H1  MET A   1      -8.224   5.550  70.434  1.00  0.00     0.000 HD 
ATOM     11  H2  MET A   1      -8.707   6.539  71.708  1.00  0.00     0.000 HD 
ENDBRANCH   4   5
ENDBRANCH   3   4
ENDBRANCH   2   3
TORSDOF 3
ENDMDL
MODEL      195
REMARK 921   NORMALIZED FREE ENERGY PREDICTED BY IDOCK:   -1.63 KCAL/MOL
REMARK 922        TOTAL FREE ENERGY PREDICTED BY IDOCK:   -2.09 KCAL/MOL
REMARK 923 INTER-LIGAND FREE ENERGY PREDICTED BY IDOCK:   -2.04 KCAL/MOL
REMARK 924 INTRA-LIGAND FREE ENERGY PREDICTED BY IDOCK:   -0.05 KCAL/MOL
REMARK 927      BINDING AFFINITY PREDICTED BY RF-SCORE:    0.00 PKD
ROOT
ATOM      1  CE  MET A   1      -8.735  12.083  67.580  1.00  0.00    -0.166 C  
ATOM      2  SD  MET A   1      -7.255  12.749  68.380  1.00  0.00    -0.123 SA 
ENDROOT
BRANCH   2   3
ATOM      3  CG  MET A   1      -7.735  14.506  68.436  1.00  0.00    -0.128 C  
BRANCH   3   4
ATOM      4  CB  MET A   1      -9.257  14.627  68.422  1.00  0.00    -0.197 C  
BRANCH   4   5
ATOM      5  CA  MET A   1      -9.786  15.716  69.362  1.00  0.00    -0.292 C  
ATOM      6  C   MET A   1     -11.198  15.314  69.820  1.00  0.00    -0.286 C  
ATOM      7  N   MET A   1      -9.882  17.042  68.690  1.00  0.00    -0.277 NA 
ATOM      8  O   MET A   1     -12.152  15.918  69.063  1.00  0.00    -0.328 OA 
ATOM      9  OXT MET A   1     -11.448  14.538  70.728  1.00  0.00    -0.242 OA 
ATOM     10  H1  MET A   1     -10.234  17.767  69.316  1.00  0.00     0.000 HD 
ATOM     11  H2  MET A   1     -10.443  16.985  67.839  1.00  0.00     0.000 HD 
ENDBRANCH   4   5
ENDBRANCH   3   4
ENDBRANCH   2   3
TORSDOF 3
ENDMDL
MODEL      196
REMARK 921   NORMALIZED FREE ENERGY PREDICTED BY IDOCK:   -1.63 KCAL/MOL
REMARK 922        TOTAL FREE ENERGY PREDICTED BY IDOCK:   -2.09 KCAL/MOL
REMARK 923 INTER-LIGAND FREE ENERGY PREDICTED BY IDOCK:   -2.01 KCAL/MOL
REMARK 924 INTRA-LIGAND FREE ENERGY PREDICTED BY IDOCK:   -0.07 KCAL/MOL
REMARK 927      BINDING AFFINITY PREDICTED BY RF-SCORE:    0.00 PKD
ROOT
ATOM      1  CE  MET A   1      -8.842  10.230  65.194  1.00  0.00    -0.184 C  
ATOM      2  SD  MET A   1      -8.317   9.261  66.628  1.00  0.00    -0.123 SA 
ENDROOT
BRANCH   2   3
ATOM      3  CG  MET A   1      -9.911   8.474  67.032  1.00  0.00    -0.224 C  
BRANCH   3   4
ATOM      4  CB  MET A   1      -9.678   7.278  67.952  1.00  0.00    -0.161 C  
BRANCH   4   5
ATOM      5  CA  MET A   1     -10.080   7.546  69.407  1.00  0.00    -0.190 C  
ATOM      6  C   MET A   1     -10.763   6.284  69.959  1.00  0.00    -0.285 C  
ATOM      7  N   MET A   1     -11.043   8.678  69.525  1.00  0.00    -0.438 NA 
ATOM      8  O   MET A   1     -12.117   6.380  69.877  1.00  0.00    -0.176 OA 
ATOM      9  OXT MET A   1     -10.181   5.306  70.398  1.00  0.00    -0.231 OA 
ATOM     10  H1  MET A   1     -11.310   8.856  70.493  1.00  0.00     0.000 HD 
ATOM     11  H2  MET A   1     -11.863   8.527  68.936  1.00  0.00     0.000 HD 
ENDBRANCH   4   5
ENDBRANCH   3   4
ENDBRANCH   2   3
TORSDOF 3
ENDMDL
MODEL      197
REMARK 921   NORMALIZED FREE ENERGY PREDICTED BY IDOCK:   -1.62 KCAL/MOL
REMARK 922        TOTAL FREE ENERGY PREDICTED BY IDOCK:   -2.08 KCAL/MOL
REMARK 923 INTER-LIGAND FREE ENERGY PREDICTED BY IDOCK:   -2.08 KCAL/MOL
REMARK 924 INTRA-LIGAND FREE ENERGY PREDICTED BY IDOCK:    0.01 KCAL/MOL
REMARK 927      BINDING AFFINITY PREDICTED BY RF-SCORE:    0.00 PKD
ROOT
ATOM      1  CE  MET A   1      -6.851  17.653  65.925  1.00  0.00    -0.218 C  
ATOM      2  SD  MET A   1      -6.860  16.558  67.365  1.00  0.00    -0.178 SA 
ENDROOT
BRANCH   2   3
ATOM      3  CG  MET A   1      -8.623  16.099  67.356  1.00  0.00    -0.180 C  
BRANCH   3   4
ATOM      4  CB  MET A   1      -8.806  14.762  66.641  1.00  0.00    -0.262 C  
BRANCH   4   5
ATOM      5  CA  MET A   1      -8.809  13.562  67.595  1.00  0.00    -0.202 C  
ATOM      6  C   MET A   1     -10.225  12.961  67.609  1.00  0.00    -0.220 C  
ATOM      7  N   MET A   1      -8.462  13.951  68.991  1.00  0.00    -0.357 NA 
ATOM      8  O   MET A   1     -10.946  13.426  68.664  1.00  0.00    -0.244 OA 
ATOM      9  OXT MET A   1     -10.667  12.184  66.779  1.00  0.00    -0.222 OA 
ATOM     10  H1  MET A   1      -8.464  13.152  69.625  1.00  0.00     0.000 HD 
ATOM     11  H2  MET A   1      -9.074  14.694  69.330  1.00  0.00     0.000 HD 
ENDBRANCH   4   5
ENDBRANCH   3   4
ENDBRANCH   2   3
TORSDOF 3
ENDMDL
MODEL      198
REMARK 921   NORMALIZED FREE ENERGY PREDICTED BY IDOCK:   -1.62 KCAL/MOL
REMARK 922        TOTAL FREE ENERGY PREDICTED BY IDOCK:   -2.07 KCAL/MOL
REMARK 923 INTER-LIGAND FREE ENERGY PREDICTED BY IDOCK:   -2.21 KCAL/MOL
REMARK 924 INTRA-LIGAND FREE ENERGY PREDICTED BY IDOCK:    0.14 KCAL/MOL
REMARK 927      BINDING AFFINITY PREDICTED BY RF-SCORE:    0.00 PKD
ROOT
ATOM      1  CE  MET A   1      -8.353   6.757  70.926  1.00  0.00    -0.128 C  
ATOM      2  SD  MET A   1      -8.163   7.791  69.454  1.00  0.00    -0.133 SA 
ENDROOT
BRANCH   2   3
ATOM      3  CG  MET A   1      -9.756   8.674  69.525  1.00  0.00    -0.179 C  
BRANCH   3   4
ATOM      4  CB  MET A   1     -10.494   8.515  68.198  1.00  0.00    -0.236 C  
BRANCH   4   5
ATOM      5  CA  MET A   1     -10.773   9.849  67.497  1.00  0.00    -0.272 C  
ATOM      6  C   MET A   1      -9.507  10.717  67.590  1.00  0.00    -0.154 C  
ATOM      7  N   MET A   1     -11.891  10.598  68.138  1.00  0.00    -0.788 NA 
ATOM      8  O   MET A   1      -9.581  11.587  68.632  1.00  0.00    -0.193 OA 
ATOM      9  OXT MET A   1      -8.542  10.634  66.847  1.00  0.00    -0.125 OA 
ATOM     10  H1  MET A   1     -12.076  11.486  67.671  1.00  0.00     0.000 HD 
ATOM     11  H2  MET A   1     -11.721  10.734  69.135  1.00  0.00     0.000 HD 
ENDBRANCH   4   5
ENDBRANCH   3   4
ENDBRANCH   2   3
TORSDOF 3
ENDMDL
MODEL      199
REMARK 921   NORMALIZED FREE ENERGY PREDICTED BY IDOCK:   -1.61 KCAL/MOL
REMARK 922        TOTAL FREE ENERGY PREDICTED BY IDOCK:   -2.07 KCAL/MOL
REMARK 923 INTER-LIGAND FREE ENERGY PREDICTED BY IDOCK:   -1.89 KCAL/MOL
REMARK 924 INTRA-LIGAND FREE ENERGY PREDICTED BY IDOCK:   -0.18 KCAL/MOL
REMARK 927      BINDING AFFINITY PREDICTED BY RF-SCORE:    0.00 PKD
ROOT
ATOM      1  CE  MET A   1      -8.444   7.942  65.817  1.00  0.00    -0.140 C  
ATOM      2  SD  MET A   1      -8.099   7.615  67.562  1.00  0.00    -0.121 SA 
ENDROOT
BRANCH   2   3
ATOM      3  CG  MET A   1      -9.716   8.081  68.260  1.00  0.00    -0.164 C  
BRANCH   3   4
ATOM      4  CB  MET A   1     -10.550   8.795  67.199  1.00  0.00    -0.303 C  
BRANCH   4   5
ATOM      5  CA  MET A   1     -10.958  10.216  67.605  1.00  0.00    -0.268 C  
ATOM      6  C   MET A   1     -10.461  11.188  66.522  1.00  0.00    -0.255 C  
ATOM      7  N   MET A   1     -10.351  10.626  68.903  1.00  0.00    -0.196 NA 
ATOM      8  O   MET A   1      -9.271  11.747  66.870  1.00  0.00    -0.178 OA 
ATOM      9  OXT MET A   1     -11.036  11.423  65.472  1.00  0.00    -0.261 OA 
ATOM     10  H1  MET A   1     -10.622  11.571  69.173  1.00  0.00     0.000 HD 
ATOM     11  H2  MET A   1      -9.336  10.524  68.884  1.00  0.00     0.000 HD 
ENDBRANCH   4   5
ENDBRANCH   3   4
ENDBRANCH   2   3
TORSDOF 3
ENDMDL
MODEL      200
REMARK 921   NORMALIZED FREE ENERGY PREDICTED BY IDOCK:   -1.60 KCAL/MOL
REMARK 922        TOTAL FREE ENERGY PREDICTED BY IDOCK:   -2.05 KCAL/MOL
REMARK 923 INTER-LIGAND FREE ENERGY PREDICTED BY IDOCK:   -1.96 KCAL/MOL
REMARK 924 INTRA-LIGAND FREE ENERGY PREDICTED BY IDOCK:   -0.09 KCAL/MOL
REMARK 927      BINDING AFFINITY PREDICTED BY RF-SCORE:    0.00 PKD
ROOT
ATOM      1  CE  MET A   1      -6.800   7.415  68.511  1.00  0.00    -0.073 C  
ATOM      2  SD  MET A   1      -7.317   7.529  70.241  1.00  0.00    -0.078 SA 
ENDROOT
BRANCH   2   3
ATOM      3  CG  MET A   1      -9.047   6.990  70.052  1.00  0.00    -0.145 C  
BRANCH   3   4
ATOM      4  CB  MET A   1      -9.531   6.341  71.346  1.00  0.00    -0.167 C  
BRANCH   4   5
ATOM      5  CA  MET A   1     -10.363   7.285  72.222  1.00  0.00    -0.210 C  
ATOM      6  C   MET A   1      -9.790   7.251  73.649  1.00  0.00    -0.307 C  
ATOM      7  N   MET A   1     -11.793   6.872  72.292  1.00  0.00    -0.410 NA 
ATOM      8  O   MET A   1     -10.482   6.386  74.437  1.00  0.00    -0.304 OA 
ATOM      9  OXT MET A   1      -8.827   7.893  74.034  1.00  0.00    -0.265 OA 
ATOM     10  H1  MET A   1     -12.347   7.500  72.874  1.00  0.00     0.000 HD 
ATOM     11  H2  MET A   1     -11.883   5.904  72.603  1.00  0.00     0.000 HD 
ENDBRANCH   4   5
ENDBRANCH   3   4
ENDBRANCH   2   3
TORSDOF 3
ENDMDL
MODEL      201
REMARK 921   NORMALIZED FREE ENERGY PREDICTED BY IDOCK:   -1.59 KCAL/MOL
REMARK 922        TOTAL FREE ENERGY PREDICTED BY IDOCK:   -2.04 KCAL/MOL
REMARK 923 INTER-LIGAND FREE ENERGY PREDICTED BY IDOCK:   -1.87 KCAL/MOL
REMARK 924 INTRA-LIGAND FREE ENERGY PREDICTED BY IDOCK:   -0.17 KCAL/MOL
REMARK 927      BINDING AFFINITY PREDICTED BY RF-SCORE:    0.00 PKD
ROOT
ATOM      1  CE  MET A   1      -9.823   9.517  66.061  1.00  0.00    -0.283 C  
ATOM      2  SD  MET A   1      -8.759   8.072  65.831  1.00  0.00    -0.143 SA 
ENDROOT
BRANCH   2   3
ATOM      3  CG  MET A   1      -9.048   7.254  67.434  1.00  0.00    -0.121 C  
BRANCH   3   4
ATOM      4  CB  MET A   1     -10.377   7.722  68.021  1.00  0.00    -0.263 C  
BRANCH   4   5
ATOM      5  CA  MET A   1     -10.329   7.930  69.539  1.00  0.00    -0.217 C  
ATOM      6  C   MET A   1     -10.362   9.442  69.820  1.00  0.00    -0.223 C  
ATOM      7  N   MET A   1      -9.083   7.379  70.143  1.00  0.00    -0.148 NA 
ATOM      8  O   MET A   1      -9.110   9.935  70.009  1.00  0.00    -0.225 OA 
ATOM      9  OXT MET A   1     -11.371  10.128  69.852  1.00  0.00    -0.251 OA 
ATOM     10  H1  MET A   1      -9.051   7.517  71.153  1.00  0.00     0.000 HD 
ATOM     11  H2  MET A   1      -8.253   7.762  69.691  1.00  0.00     0.000 HD 
ENDBRANCH   4   5
ENDBRANCH   3   4
ENDBRANCH   2   3
TORSDOF 3
ENDMDL
MODEL      202
REMARK 921   NORMALIZED FREE ENERGY PREDICTED BY IDOCK:   -1.57 KCAL/MOL
REMARK 922        TOTAL FREE ENERGY PREDICTED BY IDOCK:   -2.01 KCAL/MOL
REMARK 923 INTER-LIGAND FREE ENERGY PREDICTED BY IDOCK:   -1.80 KCAL/MOL
REMARK 924 INTRA-LIGAND FREE ENERGY PREDICTED BY IDOCK:   -0.21 KCAL/MOL
REMARK 927      BINDING AFFINITY PREDICTED BY RF-SCORE:    0.00 PKD
ROOT
ATOM      1  CE  MET A   1     -11.161   7.592  70.420  1.00  0.00    -0.258 C  
ATOM      2  SD  MET A   1     -10.909   9.383  70.438  1.00  0.00    -0.290 SA 
ENDROOT
BRANCH   2   3
ATOM      3  CG  MET A   1      -9.092   9.411  70.297  1.00  0.00    -0.245 C  
BRANCH   3   4
ATOM      4  CB  MET A   1      -8.670  10.453  69.264  1.00  0.00    -0.160 C  
BRANCH   4   5
ATOM      5  CA  MET A   1      -8.368   9.852  67.887  1.00  0.00    -0.114 C  
ATOM      6  C   MET A   1      -9.480  10.287  66.917  1.00  0.00    -0.169 C  
ATOM      7  N   MET A   1      -8.342   8.362  67.916  1.00  0.00    -0.130 NA 
ATOM      8  O   MET A   1     -10.435   9.326  66.800  1.00  0.00    -0.244 OA 
ATOM      9  OXT MET A   1      -9.526  11.359  66.336  1.00  0.00    -0.193 OA 
ATOM     10  H1  MET A   1      -8.141   7.963  67.000  1.00  0.00     0.000 HD 
ATOM     11  H2  MET A   1      -9.208   7.986  68.302  1.00  0.00     0.000 HD 
ENDBRANCH   4   5
ENDBRANCH   3   4
ENDBRANCH   2   3
TORSDOF 3
ENDMDL
MODEL      203
REMARK 921   NORMALIZED FREE ENERGY PREDICTED BY IDOCK:   -1.56 KCAL/MOL
REMARK 922        TOTAL FREE ENERGY PREDICTED BY IDOCK:   -2.01 KCAL/MOL
REMARK 923 INTER-LIGAND FREE ENERGY PREDICTED BY IDOCK:   -1.90 KCAL/MOL
REMARK 924 INTRA-LIGAND FREE ENERGY PREDICTED BY IDOCK:   -0.11 KCAL/MOL
REMARK 927      BINDING AFFINITY PREDICTED BY RF-SCORE:    0.00 PKD
ROOT
ATOM      1  CE  MET A   1      -9.797   3.324  72.126  1.00  0.00    -0.167 C  
ATOM      2  SD  MET A   1     -10.801   4.082  73.425  1.00  0.00    -0.248 SA 
ENDROOT
BRANCH   2   3
ATOM      3  CG  MET A   1     -10.112   5.768  73.364  1.00  0.00    -0.195 C  
BRANCH   3   4
ATOM      4  CB  MET A   1      -9.471   6.015  72.001  1.00  0.00    -0.161 C  
BRANCH   4   5
ATOM      5  CA  MET A   1     -10.045   7.237  71.275  1.00  0.00    -0.189 C  
ATOM      6  C   MET A   1     -10.568   6.781  69.902  1.00  0.00    -0.222 C  
ATOM      7  N   MET A   1      -9.017   8.291  71.047  1.00  0.00    -0.146 NA 
ATOM      8  O   MET A   1      -9.648   7.003  68.927  1.00  0.00    -0.141 OA 
ATOM      9  OXT MET A   1     -11.656   6.266  69.700  1.00  0.00    -0.430 OA 
ATOM     10  H1  MET A   1      -9.399   9.104  70.564  1.00  0.00     0.000 HD 
ATOM     11  H2  MET A   1      -8.206   7.915  70.554  1.00  0.00     0.000 HD 
ENDBRANCH   4   5
ENDBRANCH   3   4
ENDBRANCH   2   3
TORSDOF 3
ENDMDL
MODEL      204
REMARK 921   NORMALIZED FREE ENERGY PREDICTED BY IDOCK:   -1.56 KCAL/MOL
REMARK 922        TOTAL FREE ENERGY PREDICTED BY IDOCK:   -2.01 KCAL/MOL
REMARK 923 INTER-LIGAND FREE ENERGY PREDICTED BY IDOCK:   -1.91 KCAL/MOL
REMARK 924 INTRA-LIGAND FREE ENERGY PREDICTED BY IDOCK:   -0.10 KCAL/MOL
REMARK 927      BINDING AFFINITY PREDICTED BY RF-SCORE:    0.00 PKD
ROOT
ATOM      1  CE  MET A   1      -7.685   5.106  69.909  1.00  0.00    -0.068 C  
ATOM      2  SD  MET A   1      -7.505   6.822  69.365  1.00  0.00    -0.096 SA 
ENDROOT
BRANCH   2   3
ATOM      3  CG  MET A   1      -9.057   7.494  70.042  1.00  0.00    -0.148 C  
BRANCH   3   4
ATOM      4  CB  MET A   1     -10.089   6.377  70.178  1.00  0.00    -0.209 C  
BRANCH   4   5
ATOM      5  CA  MET A   1     -10.618   6.212  71.607  1.00  0.00    -0.230 C  
ATOM      6  C   MET A   1     -11.840   7.130  71.779  1.00  0.00    -0.303 C  
ATOM      7  N   MET A   1      -9.605   6.600  72.630  1.00  0.00    -0.147 NA 
ATOM      8  O   MET A   1     -11.491   8.310  72.359  1.00  0.00    -0.355 OA 
ATOM      9  OXT MET A   1     -12.976   6.861  71.427  1.00  0.00    -0.355 OA 
ATOM     10  H1  MET A   1      -9.957   6.490  73.581  1.00  0.00     0.000 HD 
ATOM     11  H2  MET A   1      -9.263   7.548  72.470  1.00  0.00     0.000 HD 
ENDBRANCH   4   5
ENDBRANCH   3   4
ENDBRANCH   2   3
TORSDOF 3
ENDMDL
MODEL      205
REMARK 921   NORMALIZED FREE ENERGY PREDICTED BY IDOCK:   -1.55 KCAL/MOL
REMARK 922        TOTAL FREE ENERGY PREDICTED BY IDOCK:   -2.00 KCAL/MOL
REMARK 923 INTER-LIGAND FREE ENERGY PREDICTED BY IDOCK:   -1.89 KCAL/MOL
REMARK 924 INTRA-LIGAND FREE ENERGY PREDICTED BY IDOCK:   -0.11 KCAL/MOL
REMARK 927      BINDING AFFINITY PREDICTED BY RF-SCORE:    0.00 PKD
ROOT
ATOM      1  CE  MET A   1     -11.474  13.028  66.564  1.00  0.00    -0.340 C  
ATOM      2  SD  MET A   1     -11.202  13.817  68.169  1.00  0.00    -0.288 SA 
ENDROOT
BRANCH   2   3
ATOM      3  CG  MET A   1     -10.457  12.408  69.051  1.00  0.00     0.001 C  
BRANCH   3   4
ATOM      4  CB  MET A   1     -10.234  11.250  68.082  1.00  0.00    -0.196 C  
BRANCH   4   5
ATOM      5  CA  MET A   1      -9.017  10.389  68.436  1.00  0.00    -0.137 C  
ATOM      6  C   MET A   1      -9.510   9.143  69.192  1.00  0.00    -0.156 C  
ATOM      7  N   MET A   1      -8.056  11.109  69.318  1.00  0.00    -0.371 NA 
ATOM      8  O   MET A   1      -9.412   9.313  70.537  1.00  0.00    -0.224 OA 
ATOM      9  OXT MET A   1      -9.954   8.134  68.669  1.00  0.00    -0.179 OA 
ATOM     10  H1  MET A   1      -7.245  10.537  69.554  1.00  0.00     0.000 HD 
ATOM     11  H2  MET A   1      -8.517  11.460  70.158  1.00  0.00     0.000 HD 
ENDBRANCH   4   5
ENDBRANCH   3   4
ENDBRANCH   2   3
TORSDOF 3
ENDMDL
MODEL      206
REMARK 921   NORMALIZED FREE ENERGY PREDICTED BY IDOCK:   -1.55 KCAL/MOL
REMARK 922        TOTAL FREE ENERGY PREDICTED BY IDOCK:   -1.99 KCAL/MOL
REMARK 923 INTER-LIGAND FREE ENERGY PREDICTED BY IDOCK:   -1.95 KCAL/MOL
REMARK 924 INTRA-LIGAND FREE ENERGY PREDICTED BY IDOCK:   -0.05 KCAL/MOL
REMARK 927      BINDING AFFINITY PREDICTED BY RF-SCORE:    0.00 PKD
ROOT
ATOM      1  CE  MET A   1      -6.176  11.507  68.233  1.00  0.00    -0.045 C  
ATOM      2  SD  MET A   1      -6.352  11.168  66.466  1.00  0.00    -0.115 SA 
ENDROOT
BRANCH   2   3
ATOM      3  CG  MET A   1      -7.856  10.141  66.526  1.00  0.00    -0.112 C  
BRANCH   3   4
ATOM      4  CB  MET A   1      -9.001  10.938  67.146  1.00  0.00    -0.141 C  
BRANCH   4   5
ATOM      5  CA  MET A   1     -10.213  10.073  67.510  1.00  0.00    -0.212 C  
ATOM      6  C   MET A   1     -11.294  10.985  68.114  1.00  0.00    -0.307 C  
ATOM      7  N   MET A   1      -9.877   9.030  68.521  1.00  0.00    -0.164 NA 
ATOM      8  O   MET A   1     -11.248  10.971  69.473  1.00  0.00    -0.239 OA 
ATOM      9  OXT MET A   1     -12.084  11.658  67.472  1.00  0.00    -0.611 OA 
ATOM     10  H1  MET A   1     -10.683   8.454  68.762  1.00  0.00     0.000 HD 
ATOM     11  H2  MET A   1      -9.456   9.444  69.352  1.00  0.00     0.000 HD 
ENDBRANCH   4   5
ENDBRANCH   3   4
ENDBRANCH   2   3
TORSDOF 3
ENDMDL
MODEL      207
REMARK 921   NORMALIZED FREE ENERGY PREDICTED BY IDOCK:   -1.54 KCAL/MOL
REMARK 922        TOTAL FREE ENERGY PREDICTED BY IDOCK:   -1.98 KCAL/MOL
REMARK 923 INTER-LIGAND FREE ENERGY PREDICTED BY IDOCK:   -1.87 KCAL/MOL
REMARK 924 INTRA-LIGAND FREE ENERGY PREDICTED BY IDOCK:   -0.12 KCAL/MOL
REMARK 927      BINDING AFFINITY PREDICTED BY RF-SCORE:    0.00 PKD
ROOT
ATOM      1  CE  MET A   1      -8.788   7.284  66.717  1.00  0.00    -0.134 C  
ATOM      2  SD  MET A   1      -8.923   7.251  68.521  1.00  0.00    -0.129 SA 
ENDROOT
BRANCH   2   3
ATOM      3  CG  MET A   1     -10.576   7.999  68.691  1.00  0.00    -0.109 C  
BRANCH   3   4
ATOM      4  CB  MET A   1     -10.598   9.365  68.011  1.00  0.00    -0.278 C  
BRANCH   4   5
ATOM      5  CA  MET A   1     -10.012  10.484  68.881  1.00  0.00    -0.204 C  
ATOM      6  C   MET A   1     -11.177  11.279  69.494  1.00  0.00    -0.272 C  
ATOM      7  N   MET A   1      -9.176  11.431  68.090  1.00  0.00    -0.171 NA 
ATOM      8  O   MET A   1     -11.451  12.392  68.764  1.00  0.00    -0.256 OA 
ATOM      9  OXT MET A   1     -11.799  10.955  70.492  1.00  0.00    -0.313 OA 
ATOM     10  H1  MET A   1      -8.786  12.175  68.669  1.00  0.00     0.000 HD 
ATOM     11  H2  MET A   1      -9.697  11.812  67.300  1.00  0.00     0.000 HD 
ENDBRANCH   4   5
ENDBRANCH   3   4
ENDBRANCH   2   3
TORSDOF 3
ENDMDL
MODEL      208
REMARK 921   NORMALIZED FREE ENERGY PREDICTED BY IDOCK:   -1.53 KCAL/MOL
REMARK 922        TOTAL FREE ENERGY PREDICTED BY IDOCK:   -1.97 KCAL/MOL
REMARK 923 INTER-LIGAND FREE ENERGY PREDICTED BY IDOCK:   -1.92 KCAL/MOL
REMARK 924 INTRA-LIGAND FREE ENERGY PREDICTED BY IDOCK:   -0.05 KCAL/MOL
REMARK 927      BINDING AFFINITY PREDICTED BY RF-SCORE:    0.00 PKD
ROOT
ATOM      1  CE  MET A   1      -9.205   9.779  65.332  1.00  0.00    -0.227 C  
ATOM      2  SD  MET A   1      -8.818  10.166  67.055  1.00  0.00    -0.135 SA 
ENDROOT
BRANCH   2   3
ATOM      3  CG  MET A   1      -8.427  11.936  66.863  1.00  0.00    -0.174 C  
BRANCH   3   4
ATOM      4  CB  MET A   1      -9.190  12.750  67.905  1.00  0.00    -0.205 C  
BRANCH   4   5
ATOM      5  CA  MET A   1      -8.590  14.140  68.145  1.00  0.00    -0.175 C  
ATOM      6  C   MET A   1      -9.744  15.147  68.281  1.00  0.00    -0.219 C  
ATOM      7  N   MET A   1      -7.726  14.583  67.014  1.00  0.00    -0.328 NA 
ATOM      8  O   MET A   1      -9.988  15.779  67.102  1.00  0.00    -0.236 OA 
ATOM      9  OXT MET A   1     -10.384  15.350  69.300  1.00  0.00    -0.225 OA 
ATOM     10  H1  MET A   1      -7.327  15.508  67.173  1.00  0.00     0.000 HD 
ATOM     11  H2  MET A   1      -8.231  14.546  66.128  1.00  0.00     0.000 HD 
ENDBRANCH   4   5
ENDBRANCH   3   4
ENDBRANCH   2   3
TORSDOF 3
ENDMDL
MODEL      209
REMARK 921   NORMALIZED FREE ENERGY PREDICTED BY IDOCK:   -1.53 KCAL/MOL
REMARK 922        TOTAL FREE ENERGY PREDICTED BY IDOCK:   -1.97 KCAL/MOL
REMARK 923 INTER-LIGAND FREE ENERGY PREDICTED BY IDOCK:   -1.82 KCAL/MOL
REMARK 924 INTRA-LIGAND FREE ENERGY PREDICTED BY IDOCK:   -0.15 KCAL/MOL
REMARK 927      BINDING AFFINITY PREDICTED BY RF-SCORE:    0.00 PKD
ROOT
ATOM      1  CE  MET A   1     -10.443   5.825  71.511  1.00  0.00    -0.235 C  
ATOM      2  SD  MET A   1     -10.420   6.199  69.742  1.00  0.00    -0.269 SA 
ENDROOT
BRANCH   2   3
ATOM      3  CG  MET A   1     -10.387   8.018  69.841  1.00  0.00    -0.221 C  
BRANCH   3   4
ATOM      4  CB  MET A   1     -10.347   8.612  68.435  1.00  0.00    -0.239 C  
BRANCH   4   5
ATOM      5  CA  MET A   1      -9.515   7.782  67.451  1.00  0.00    -0.144 C  
ATOM      6  C   MET A   1      -8.068   8.303  67.484  1.00  0.00    -0.122 C  
ATOM      7  N   MET A   1     -10.014   7.903  66.052  1.00  0.00    -0.405 NA 
ATOM      8  O   MET A   1      -7.839   9.186  66.475  1.00  0.00    -0.099 OA 
ATOM      9  OXT MET A   1      -7.228   7.992  68.312  1.00  0.00    -0.088 OA 
ATOM     10  H1  MET A   1      -9.460   7.350  65.397  1.00  0.00     0.000 HD 
ATOM     11  H2  MET A   1     -10.065   8.879  65.761  1.00  0.00     0.000 HD 
ENDBRANCH   4   5
ENDBRANCH   3   4
ENDBRANCH   2   3
TORSDOF 3
ENDMDL
MODEL      210
REMARK 921   NORMALIZED FREE ENERGY PREDICTED BY IDOCK:   -1.53 KCAL/MOL
REMARK 922        TOTAL FREE ENERGY PREDICTED BY IDOCK:   -1.97 KCAL/MOL
REMARK 923 INTER-LIGAND FREE ENERGY PREDICTED BY IDOCK:   -1.89 KCAL/MOL
REMARK 924 INTRA-LIGAND FREE ENERGY PREDICTED BY IDOCK:   -0.08 KCAL/MOL
REMARK 927      BINDING AFFINITY PREDICTED BY RF-SCORE:    0.00 PKD
ROOT
ATOM      1  CE  MET A   1     -12.072  11.254  69.896  1.00  0.00    -0.341 C  
ATOM      2  SD  MET A   1     -10.740  10.056  70.140  1.00  0.00    -0.316 SA 
ENDROOT
BRANCH   2   3
ATOM      3  CG  MET A   1      -9.643  10.576  68.781  1.00  0.00    -0.179 C  
BRANCH   3   4
ATOM      4  CB  MET A   1     -10.176  10.041  67.454  1.00  0.00    -0.269 C  
BRANCH   4   5
ATOM      5  CA  MET A   1      -9.497  10.669  66.231  1.00  0.00    -0.177 C  
ATOM      6  C   MET A   1      -8.501   9.649  65.654  1.00  0.00    -0.132 C  
ATOM      7  N   MET A   1      -8.738  11.903  66.582  1.00  0.00    -0.210 NA 
ATOM      8  O   MET A   1      -7.240   9.882  66.106  1.00  0.00    -0.096 OA 
ATOM      9  OXT MET A   1      -8.791   8.731  64.905  1.00  0.00    -0.167 OA 
ATOM     10  H1  MET A   1      -8.287  12.321  65.768  1.00  0.00     0.000 HD 
ATOM     11  H2  MET A   1      -8.065  11.723  67.327  1.00  0.00     0.000 HD 
ENDBRANCH   4   5
ENDBRANCH   3   4
ENDBRANCH   2   3
TORSDOF 3
ENDMDL
MODEL      211
REMARK 921   NORMALIZED FREE ENERGY PREDICTED BY IDOCK:   -1.52 KCAL/MOL
REMARK 922        TOTAL FREE ENERGY PREDICTED BY IDOCK:   -1.96 KCAL/MOL
REMARK 923 INTER-LIGAND FREE ENERGY PREDICTED BY IDOCK:   -1.84 KCAL/MOL
REMARK 924 INTRA-LIGAND FREE ENERGY PREDICTED BY IDOCK:   -0.12 KCAL/MOL
REMARK 927      BINDING AFFINITY PREDICTED BY RF-SCORE:    0.00 PKD
ROOT
ATOM      1  CE  MET A   1      -9.523   5.944  69.147  1.00  0.00    -0.128 C  
ATOM      2  SD  MET A   1     -11.215   6.556  68.964  1.00  0.00    -0.224 SA 
ENDROOT
BRANCH   2   3
ATOM      3  CG  MET A   1     -11.568   6.932  70.712  1.00  0.00    -0.349 C  
BRANCH   3   4
ATOM      4  CB  MET A   1     -10.417   6.443  71.588  1.00  0.00    -0.251 C  
BRANCH   4   5
ATOM      5  CA  MET A   1     -10.885   5.666  72.824  1.00  0.00    -0.261 C  
ATOM      6  C   MET A   1     -10.029   4.395  72.948  1.00  0.00    -0.153 C  
ATOM      7  N   MET A   1     -12.312   5.249  72.719  1.00  0.00    -0.285 NA 
ATOM      8  O   MET A   1     -10.658   3.322  72.400  1.00  0.00    -0.074 OA 
ATOM      9  OXT MET A   1      -8.918   4.342  73.451  1.00  0.00    -0.110 OA 
ATOM     10  H1  MET A   1     -12.624   4.733  73.542  1.00  0.00     0.000 HD 
ATOM     11  H2  MET A   1     -12.480   4.719  71.864  1.00  0.00     0.000 HD 
ENDBRANCH   4   5
ENDBRANCH   3   4
ENDBRANCH   2   3
TORSDOF 3
ENDMDL
MODEL      212
REMARK 921   NORMALIZED FREE ENERGY PREDICTED BY IDOCK:   -1.52 KCAL/MOL
REMARK 922        TOTAL FREE ENERGY PREDICTED BY IDOCK:   -1.95 KCAL/MOL
REMARK 923 INTER-LIGAND FREE ENERGY PREDICTED BY IDOCK:   -2.29 KCAL/MOL
REMARK 924 INTRA-LIGAND FREE ENERGY PREDICTED BY IDOCK:    0.33 KCAL/MOL
REMARK 927      BINDING AFFINITY PREDICTED BY RF-SCORE:    0.00 PKD
ROOT
ATOM      1  CE  MET A   1      -9.079   9.050  66.883  1.00  0.00    -0.132 C  
ATOM      2  SD  MET A   1      -9.631  10.528  65.998  1.00  0.00    -0.205 SA 
ENDROOT
BRANCH   2   3
ATOM      3  CG  MET A   1      -9.767  11.668  67.413  1.00  0.00    -0.176 C  
BRANCH   3   4
ATOM      4  CB  MET A   1     -11.234  11.838  67.800  1.00  0.00    -0.331 C  
BRANCH   4   5
ATOM      5  CA  MET A   1     -11.754  13.265  67.593  1.00  0.00    -0.366 C  
ATOM      6  C   MET A   1     -10.546  14.190  67.364  1.00  0.00    -0.279 C  
ATOM      7  N   MET A   1     -12.499  13.770  68.781  1.00  0.00    -0.296 NA 
ATOM      8  O   MET A   1     -10.174  14.808  68.516  1.00  0.00    -0.220 OA 
ATOM      9  OXT MET A   1      -9.971  14.343  66.299  1.00  0.00    -0.282 OA 
ATOM     10  H1  MET A   1     -12.845  14.720  68.642  1.00  0.00     0.000 HD 
ATOM     11  H2  MET A   1     -11.934  13.702  69.628  1.00  0.00     0.000 HD 
ENDBRANCH   4   5
ENDBRANCH   3   4
ENDBRANCH   2   3
TORSDOF 3
ENDMDL
MODEL      213
REMARK 921   NORMALIZED FREE ENERGY PREDICTED BY IDOCK:   -1.51 KCAL/MOL
REMARK 922        TOTAL FREE ENERGY PREDICTED BY IDOCK:   -1.95 KCAL/MOL
REMARK 923 INTER-LIGAND FREE ENERGY PREDICTED BY IDOCK:   -1.87 KCAL/MOL
REMARK 924 INTRA-LIGAND FREE ENERGY PREDICTED BY IDOCK:   -0.08 KCAL/MOL
REMARK 927      BINDING AFFINITY PREDICTED BY RF-SCORE:    0.00 PKD
ROOT
ATOM      1  CE  MET A   1      -9.645   3.758  72.403  1.00  0.00    -0.139 C  
ATOM      2  SD  MET A   1      -8.284   4.931  72.207  1.00  0.00    -0.120 SA 
ENDROOT
BRANCH   2   3
ATOM      3  CG  MET A   1      -8.811   5.713  70.647  1.00  0.00    -0.138 C  
BRANCH   3   4
ATOM      4  CB  MET A   1      -9.233   7.157  70.909  1.00  0.00    -0.152 C  
BRANCH   4   5
ATOM      5  CA  MET A   1      -9.716   7.395  72.344  1.00  0.00    -0.155 C  
ATOM      6  C   MET A   1     -11.244   7.221  72.374  1.00  0.00    -0.281 C  
ATOM      7  N   MET A   1      -9.402   8.772  72.822  1.00  0.00    -0.232 NA 
ATOM      8  O   MET A   1     -11.878   8.420  72.275  1.00  0.00    -0.348 OA 
ATOM      9  OXT MET A   1     -11.828   6.153  72.454  1.00  0.00    -0.303 OA 
ATOM     10  H1  MET A   1      -9.723   8.930  73.777  1.00  0.00     0.000 HD 
ATOM     11  H2  MET A   1      -9.773   9.477  72.185  1.00  0.00     0.000 HD 
ENDBRANCH   4   5
ENDBRANCH   3   4
ENDBRANCH   2   3
TORSDOF 3
ENDMDL
MODEL      214
REMARK 921   NORMALIZED FREE ENERGY PREDICTED BY IDOCK:   -1.49 KCAL/MOL
REMARK 922        TOTAL FREE ENERGY PREDICTED BY IDOCK:   -1.92 KCAL/MOL
REMARK 923 INTER-LIGAND FREE ENERGY PREDICTED BY IDOCK:   -1.87 KCAL/MOL
REMARK 924 INTRA-LIGAND FREE ENERGY PREDICTED BY IDOCK:   -0.06 KCAL/MOL
REMARK 927      BINDING AFFINITY PREDICTED BY RF-SCORE:    0.00 PKD
ROOT
ATOM      1  CE  MET A   1     -11.588  13.010  66.485  1.00  0.00    -0.356 C  
ATOM      2  SD  MET A   1     -11.237  13.677  68.129  1.00  0.00    -0.292 SA 
ENDROOT
BRANCH   2   3
ATOM      3  CG  MET A   1     -10.682  12.143  68.941  1.00  0.00    -0.175 C  
BRANCH   3   4
ATOM      4  CB  MET A   1     -10.618  11.011  67.918  1.00  0.00    -0.244 C  
BRANCH   4   5
ATOM      5  CA  MET A   1      -9.187  10.653  67.501  1.00  0.00    -0.143 C  
ATOM      6  C   MET A   1      -9.237  10.024  66.098  1.00  0.00    -0.165 C  
ATOM      7  N   MET A   1      -8.561   9.666  68.425  1.00  0.00    -0.119 NA 
ATOM      8  O   MET A   1      -9.241   8.666  66.168  1.00  0.00    -0.184 OA 
ATOM      9  OXT MET A   1      -9.288  10.646  65.050  1.00  0.00    -0.189 OA 
ATOM     10  H1  MET A   1      -7.609   9.428  68.147  1.00  0.00     0.000 HD 
ATOM     11  H2  MET A   1      -9.139   8.830  68.518  1.00  0.00     0.000 HD 
ENDBRANCH   4   5
ENDBRANCH   3   4
ENDBRANCH   2   3
TORSDOF 3
ENDMDL
MODEL      215
REMARK 921   NORMALIZED FREE ENERGY PREDICTED BY IDOCK:   -1.49 KCAL/MOL
REMARK 922        TOTAL FREE ENERGY PREDICTED BY IDOCK:   -1.92 KCAL/MOL
REMARK 923 INTER-LIGAND FREE ENERGY PREDICTED BY IDOCK:   -1.81 KCAL/MOL
REMARK 924 INTRA-LIGAND FREE ENERGY PREDICTED BY IDOCK:   -0.11 KCAL/MOL
REMARK 927      BINDING AFFINITY PREDICTED BY RF-SCORE:    0.00 PKD
ROOT
ATOM      1  CE  MET A   1      -8.405   5.378  66.822  1.00  0.00    -0.108 C  
ATOM      2  SD  MET A   1     -10.124   4.929  66.479  1.00  0.00    -0.271 SA 
ENDROOT
BRANCH   2   3
ATOM      3  CG  MET A   1     -10.930   6.468  67.026  1.00  0.00    -0.396 C  
BRANCH   3   4
ATOM      4  CB  MET A   1     -10.058   7.667  66.659  1.00  0.00    -0.278 C  
BRANCH   4   5
ATOM      5  CA  MET A   1     -10.076   8.775  67.718  1.00  0.00    -0.207 C  
ATOM      6  C   MET A   1      -9.047   9.845  67.315  1.00  0.00    -0.135 C  
ATOM      7  N   MET A   1      -9.706   8.268  69.070  1.00  0.00    -0.164 NA 
ATOM      8  O   MET A   1      -7.864   9.656  67.958  1.00  0.00    -0.087 OA 
ATOM      9  OXT MET A   1      -9.242  10.740  66.509  1.00  0.00    -0.163 OA 
ATOM     10  H1  MET A   1      -9.718   9.005  69.774  1.00  0.00     0.000 HD 
ATOM     11  H2  MET A   1      -8.804   7.790  69.050  1.00  0.00     0.000 HD 
ENDBRANCH   4   5
ENDBRANCH   3   4
ENDBRANCH   2   3
TORSDOF 3
ENDMDL
MODEL      216
REMARK 921   NORMALIZED FREE ENERGY PREDICTED BY IDOCK:   -1.46 KCAL/MOL
REMARK 922        TOTAL FREE ENERGY PREDICTED BY IDOCK:   -1.89 KCAL/MOL
REMARK 923 INTER-LIGAND FREE ENERGY PREDICTED BY IDOCK:   -2.05 KCAL/MOL
REMARK 924 INTRA-LIGAND FREE ENERGY PREDICTED BY IDOCK:    0.17 KCAL/MOL
REMARK 927      BINDING AFFINITY PREDICTED BY RF-SCORE:    0.00 PKD
ROOT
ATOM      1  CE  MET A   1     -11.130   9.240  70.383  1.00  0.00    -0.255 C  
ATOM      2  SD  MET A   1     -12.263   8.132  71.255  1.00  0.00    -0.245 SA 
ENDROOT
BRANCH   2   3
ATOM      3  CG  MET A   1     -11.335   7.954  72.813  1.00  0.00    -0.393 C  
BRANCH   3   4
ATOM      4  CB  MET A   1     -10.749   6.547  72.907  1.00  0.00    -0.280 C  
BRANCH   4   5
ATOM      5  CA  MET A   1      -9.263   6.534  73.283  1.00  0.00    -0.128 C  
ATOM      6  C   MET A   1      -8.555   7.645  72.491  1.00  0.00    -0.124 C  
ATOM      7  N   MET A   1      -8.608   5.239  72.943  1.00  0.00    -0.116 NA 
ATOM      8  O   MET A   1      -7.971   7.153  71.366  1.00  0.00    -0.100 OA 
ATOM      9  OXT MET A   1      -8.528   8.824  72.805  1.00  0.00    -0.414 OA 
ATOM     10  H1  MET A   1      -7.619   5.231  73.193  1.00  0.00     0.000 HD 
ATOM     11  H2  MET A   1      -8.742   5.005  71.959  1.00  0.00     0.000 HD 
ENDBRANCH   4   5
ENDBRANCH   3   4
ENDBRANCH   2   3
TORSDOF 3
ENDMDL
MODEL      217
REMARK 921   NORMALIZED FREE ENERGY PREDICTED BY IDOCK:   -1.44 KCAL/MOL
REMARK 922        TOTAL FREE ENERGY PREDICTED BY IDOCK:   -1.86 KCAL/MOL
REMARK 923 INTER-LIGAND FREE ENERGY PREDICTED BY IDOCK:   -1.75 KCAL/MOL
REMARK 924 INTRA-LIGAND FREE ENERGY PREDICTED BY IDOCK:   -0.11 KCAL/MOL
REMARK 927      BINDING AFFINITY PREDICTED BY RF-SCORE:    0.00 PKD
ROOT
ATOM      1  CE  MET A   1      -7.861   9.190  63.905  1.00  0.00    -0.129 C  
ATOM      2  SD  MET A   1      -8.580   8.371  65.348  1.00  0.00    -0.140 SA 
ENDROOT
BRANCH   2   3
ATOM      3  CG  MET A   1      -9.818   9.631  65.798  1.00  0.00    -0.302 C  
BRANCH   3   4
ATOM      4  CB  MET A   1     -10.544   9.210  67.073  1.00  0.00    -0.266 C  
BRANCH   4   5
ATOM      5  CA  MET A   1      -9.635   9.186  68.307  1.00  0.00    -0.148 C  
ATOM      6  C   MET A   1      -9.843   7.846  69.034  1.00  0.00    -0.171 C  
ATOM      7  N   MET A   1      -9.956  10.282  69.265  1.00  0.00    -0.217 NA 
ATOM      8  O   MET A   1     -10.731   7.973  70.055  1.00  0.00    -0.240 OA 
ATOM      9  OXT MET A   1      -9.307   6.793  68.732  1.00  0.00    -0.134 OA 
ATOM     10  H1  MET A   1      -9.351  10.265  70.085  1.00  0.00     0.000 HD 
ATOM     11  H2  MET A   1     -10.941  10.262  69.531  1.00  0.00     0.000 HD 
ENDBRANCH   4   5
ENDBRANCH   3   4
ENDBRANCH   2   3
TORSDOF 3
ENDMDL
MODEL      218
REMARK 921   NORMALIZED FREE ENERGY PREDICTED BY IDOCK:   -1.41 KCAL/MOL
REMARK 922        TOTAL FREE ENERGY PREDICTED BY IDOCK:   -1.83 KCAL/MOL
REMARK 923 INTER-LIGAND FREE ENERGY PREDICTED BY IDOCK:   -1.80 KCAL/MOL
REMARK 924 INTRA-LIGAND FREE ENERGY PREDICTED BY IDOCK:   -0.04 KCAL/MOL
REMARK 927      BINDING AFFINITY PREDICTED BY RF-SCORE:    0.00 PKD
ROOT
ATOM      1  CE  MET A   1     -10.713  17.241  67.239  1.00  0.00    -0.215 C  
ATOM      2  SD  MET A   1      -9.500  18.242  68.133  1.00  0.00    -0.315 SA 
ENDROOT
BRANCH   2   3
ATOM      3  CG  MET A   1      -7.978  17.541  67.417  1.00  0.00    -0.204 C  
BRANCH   3   4
ATOM      4  CB  MET A   1      -7.999  16.020  67.545  1.00  0.00    -0.165 C  
BRANCH   4   5
ATOM      5  CA  MET A   1      -6.609  15.410  67.755  1.00  0.00    -0.157 C  
ATOM      6  C   MET A   1      -6.237  15.554  69.240  1.00  0.00    -0.123 C  
ATOM      7  N   MET A   1      -5.563  16.105  66.951  1.00  0.00    -0.312 NA 
ATOM      8  O   MET A   1      -5.464  16.652  69.450  1.00  0.00    -0.134 OA 
ATOM      9  OXT MET A   1      -6.599  14.803  70.131  1.00  0.00    -0.172 OA 
ATOM     10  H1  MET A   1      -4.638  15.699  67.090  1.00  0.00     0.000 HD 
ATOM     11  H2  MET A   1      -5.559  17.108  67.139  1.00  0.00     0.000 HD 
ENDBRANCH   4   5
ENDBRANCH   3   4
ENDBRANCH   2   3
TORSDOF 3
ENDMDL
MODEL      219
REMARK 921   NORMALIZED FREE ENERGY PREDICTED BY IDOCK:   -1.41 KCAL/MOL
REMARK 922        TOTAL FREE ENERGY PREDICTED BY IDOCK:   -1.83 KCAL/MOL
REMARK 923 INTER-LIGAND FREE ENERGY PREDICTED BY IDOCK:   -1.75 KCAL/MOL
REMARK 924 INTRA-LIGAND FREE ENERGY PREDICTED BY IDOCK:   -0.07 KCAL/MOL
REMARK 927      BINDING AFFINITY PREDICTED BY RF-SCORE:    0.00 PKD
ROOT
ATOM      1  CE  MET A   1      -8.983  10.565  65.135  1.00  0.00    -0.191 C  
ATOM      2  SD  MET A   1      -8.048   9.107  64.614  1.00  0.00    -0.145 SA 
ENDROOT
BRANCH   2   3
ATOM      3  CG  MET A   1      -8.302   8.069  66.090  1.00  0.00    -0.125 C  
BRANCH   3   4
ATOM      4  CB  MET A   1      -8.377   6.600  65.682  1.00  0.00    -0.144 C  
BRANCH   4   5
ATOM      5  CA  MET A   1      -8.936   5.693  66.784  1.00  0.00    -0.116 C  
ATOM      6  C   MET A   1     -10.427   5.448  66.497  1.00  0.00    -0.294 C  
ATOM      7  N   MET A   1      -8.825   6.315  68.134  1.00  0.00    -0.114 NA 
ATOM      8  O   MET A   1     -11.212   6.300  67.208  1.00  0.00    -0.332 OA 
ATOM      9  OXT MET A   1     -10.865   4.616  65.720  1.00  0.00    -0.293 OA 
ATOM     10  H1  MET A   1      -9.197   5.712  68.868  1.00  0.00     0.000 HD 
ATOM     11  H2  MET A   1      -9.266   7.236  68.154  1.00  0.00     0.000 HD 
ENDBRANCH   4   5
ENDBRANCH   3   4
ENDBRANCH   2   3
TORSDOF 3
ENDMDL
MODEL      220
REMARK 921   NORMALIZED FREE ENERGY PREDICTED BY IDOCK:   -1.40 KCAL/MOL
REMARK 922        TOTAL FREE ENERGY PREDICTED BY IDOCK:   -1.82 KCAL/MOL
REMARK 923 INTER-LIGAND FREE ENERGY PREDICTED BY IDOCK:   -1.99 KCAL/MOL
REMARK 924 INTRA-LIGAND FREE ENERGY PREDICTED BY IDOCK:    0.17 KCAL/MOL
REMARK 927      BINDING AFFINITY PREDICTED BY RF-SCORE:    0.00 PKD
ROOT
ATOM      1  CE  MET A   1     -12.171   6.807  70.997  1.00  0.00    -0.352 C  
ATOM      2  SD  MET A   1     -11.429   5.867  72.352  1.00  0.00    -0.274 SA 
ENDROOT
BRANCH   2   3
ATOM      3  CG  MET A   1      -9.823   6.723  72.440  1.00  0.00    -0.158 C  
BRANCH   3   4
ATOM      4  CB  MET A   1      -8.913   6.232  71.317  1.00  0.00    -0.139 C  
BRANCH   4   5
ATOM      5  CA  MET A   1      -8.427   7.357  70.396  1.00  0.00    -0.142 C  
ATOM      6  C   MET A   1      -8.483   8.680  71.178  1.00  0.00    -0.171 C  
ATOM      7  N   MET A   1      -9.285   7.503  69.186  1.00  0.00    -0.145 NA 
ATOM      8  O   MET A   1      -9.631   9.360  70.914  1.00  0.00    -0.267 OA 
ATOM      9  OXT MET A   1      -7.629   9.073  71.956  1.00  0.00    -0.343 OA 
ATOM     10  H1  MET A   1      -8.961   8.252  68.573  1.00  0.00     0.000 HD 
ATOM     11  H2  MET A   1     -10.264   7.632  69.441  1.00  0.00     0.000 HD 
ENDBRANCH   4   5
ENDBRANCH   3   4
ENDBRANCH   2   3
TORSDOF 3
ENDMDL
MODEL      221
REMARK 921   NORMALIZED FREE ENERGY PREDICTED BY IDOCK:   -1.40 KCAL/MOL
REMARK 922        TOTAL FREE ENERGY PREDICTED BY IDOCK:   -1.81 KCAL/MOL
REMARK 923 INTER-LIGAND FREE ENERGY PREDICTED BY IDOCK:   -1.74 KCAL/MOL
REMARK 924 INTRA-LIGAND FREE ENERGY PREDICTED BY IDOCK:   -0.08 KCAL/MOL
REMARK 927      BINDING AFFINITY PREDICTED BY RF-SCORE:    0.00 PKD
ROOT
ATOM      1  CE  MET A   1      -8.932   7.727  71.895  1.00  0.00    -0.128 C  
ATOM      2  SD  MET A   1     -10.701   7.779  71.520  1.00  0.00    -0.225 SA 
ENDROOT
BRANCH   2   3
ATOM      3  CG  MET A   1     -10.768   6.425  70.302  1.00  0.00    -0.266 C  
BRANCH   3   4
ATOM      4  CB  MET A   1      -9.595   6.545  69.331  1.00  0.00    -0.149 C  
BRANCH   4   5
ATOM      5  CA  MET A   1     -10.032   6.754  67.877  1.00  0.00    -0.141 C  
ATOM      6  C   MET A   1      -8.837   7.317  67.090  1.00  0.00    -0.125 C  
ATOM      7  N   MET A   1     -11.156   7.725  67.761  1.00  0.00    -0.471 NA 
ATOM      8  O   MET A   1      -8.904   8.672  66.995  1.00  0.00    -0.128 OA 
ATOM      9  OXT MET A   1      -7.926   6.652  66.624  1.00  0.00    -0.102 OA 
ATOM     10  H1  MET A   1     -11.447   7.863  66.793  1.00  0.00     0.000 HD 
ATOM     11  H2  MET A   1     -10.925   8.612  68.208  1.00  0.00     0.000 HD 
ENDBRANCH   4   5
ENDBRANCH   3   4
ENDBRANCH   2   3
TORSDOF 3
ENDMDL
MODEL      222
REMARK 921   NORMALIZED FREE ENERGY PREDICTED BY IDOCK:   -1.38 KCAL/MOL
REMARK 922        TOTAL FREE ENERGY PREDICTED BY IDOCK:   -1.79 KCAL/MOL
REMARK 923 INTER-LIGAND FREE ENERGY PREDICTED BY IDOCK:   -1.72 KCAL/MOL
REMARK 924 INTRA-LIGAND FREE ENERGY PREDICTED BY IDOCK:   -0.07 KCAL/MOL
REMARK 927      BINDING AFFINITY PREDICTED BY RF-SCORE:    0.00 PKD
ROOT
ATOM      1  CE  MET A   1     -12.494  11.688  70.540  1.00  0.00    -0.257 C  
ATOM      2  SD  MET A   1     -11.445  10.969  69.253  1.00  0.00    -0.330 SA 
ENDROOT
BRANCH   2   3
ATOM      3  CG  MET A   1     -11.005   9.411  70.089  1.00  0.00    -0.246 C  
BRANCH   3   4
ATOM      4  CB  MET A   1      -9.486   9.275  70.162  1.00  0.00    -0.258 C  
BRANCH   4   5
ATOM      5  CA  MET A   1      -8.987   7.867  69.818  1.00  0.00    -0.146 C  
ATOM      6  C   MET A   1      -8.845   7.072  71.126  1.00  0.00    -0.141 C  
ATOM      7  N   MET A   1      -7.655   7.890  69.149  1.00  0.00    -0.096 NA 
ATOM      8  O   MET A   1      -7.564   7.095  71.580  1.00  0.00    -0.086 OA 
ATOM      9  OXT MET A   1      -9.757   6.506  71.706  1.00  0.00    -0.160 OA 
ATOM     10  H1  MET A   1      -7.324   6.954  68.919  1.00  0.00     0.000 HD 
ATOM     11  H2  MET A   1      -6.970   8.399  69.708  1.00  0.00     0.000 HD 
ENDBRANCH   4   5
ENDBRANCH   3   4
ENDBRANCH   2   3
TORSDOF 3
ENDMDL
MODEL      223
REMARK 921   NORMALIZED FREE ENERGY PREDICTED BY IDOCK:   -1.34 KCAL/MOL
REMARK 922        TOTAL FREE ENERGY PREDICTED BY IDOCK:   -1.75 KCAL/MOL
REMARK 923 INTER-LIGAND FREE ENERGY PREDICTED BY IDOCK:   -1.66 KCAL/MOL
REMARK 924 INTRA-LIGAND FREE ENERGY PREDICTED BY IDOCK:   -0.09 KCAL/MOL
REMARK 927      BINDING AFFINITY PREDICTED BY RF-SCORE:    0.00 PKD
ROOT
ATOM      1  CE  MET A   1     -11.755  10.905  70.035  1.00  0.00    -0.345 C  
ATOM      2  SD  MET A   1     -11.683   9.286  70.839  1.00  0.00    -0.291 SA 
ENDROOT
BRANCH   2   3
ATOM      3  CG  MET A   1      -9.879   9.033  70.799  1.00  0.00    -0.243 C  
BRANCH   3   4
ATOM      4  CB  MET A   1      -9.492   8.270  69.534  1.00  0.00    -0.162 C  
BRANCH   4   5
ATOM      5  CA  MET A   1      -9.571   6.748  69.698  1.00  0.00    -0.148 C  
ATOM      6  C   MET A   1      -8.140   6.186  69.679  1.00  0.00    -0.112 C  
ATOM      7  N   MET A   1     -10.333   6.102  68.592  1.00  0.00    -0.184 NA 
ATOM      8  O   MET A   1      -7.803   5.739  68.439  1.00  0.00    -0.098 OA 
ATOM      9  OXT MET A   1      -7.383   6.157  70.635  1.00  0.00    -0.081 OA 
ATOM     10  H1  MET A   1     -10.385   5.089  68.702  1.00  0.00     0.000 HD 
ATOM     11  H2  MET A   1      -9.949   6.356  67.682  1.00  0.00     0.000 HD 
ENDBRANCH   4   5
ENDBRANCH   3   4
ENDBRANCH   2   3
TORSDOF 3
ENDMDL
MODEL      224
REMARK 921   NORMALIZED FREE ENERGY PREDICTED BY IDOCK:   -1.34 KCAL/MOL
REMARK 922        TOTAL FREE ENERGY PREDICTED BY IDOCK:   -1.75 KCAL/MOL
REMARK 923 INTER-LIGAND FREE ENERGY PREDICTED BY IDOCK:   -1.65 KCAL/MOL
REMARK 924 INTRA-LIGAND FREE ENERGY PREDICTED BY IDOCK:   -0.11 KCAL/MOL
REMARK 927      BINDING AFFINITY PREDICTED BY RF-SCORE:    0.00 PKD
ROOT
ATOM      1  CE  MET A   1      -8.724   7.891  73.672  1.00  0.00    -0.269 C  
ATOM      2  SD  MET A   1     -10.310   7.036  73.510  1.00  0.00    -0.375 SA 
ENDROOT
BRANCH   2   3
ATOM      3  CG  MET A   1      -9.710   5.317  73.587  1.00  0.00    -0.144 C  
BRANCH   3   4
ATOM      4  CB  MET A   1     -10.569   4.429  72.690  1.00  0.00    -0.233 C  
BRANCH   4   5
ATOM      5  CA  MET A   1      -9.864   4.017  71.393  1.00  0.00    -0.179 C  
ATOM      6  C   MET A   1      -9.414   2.553  71.532  1.00  0.00    -0.141 C  
ATOM      7  N   MET A   1      -8.655   4.844  71.122  1.00  0.00    -0.120 NA 
ATOM      8  O   MET A   1      -8.113   2.472  71.918  1.00  0.00    -0.052 OA 
ATOM      9  OXT MET A   1     -10.125   1.579  71.346  1.00  0.00    -0.133 OA 
ATOM     10  H1  MET A   1      -8.186   4.570  70.259  1.00  0.00     0.000 HD 
ATOM     11  H2  MET A   1      -8.011   4.828  71.913  1.00  0.00     0.000 HD 
ENDBRANCH   4   5
ENDBRANCH   3   4
ENDBRANCH   2   3
TORSDOF 3
ENDMDL
MODEL      225
REMARK 921   NORMALIZED FREE ENERGY PREDICTED BY IDOCK:   -1.33 KCAL/MOL
REMARK 922        TOTAL FREE ENERGY PREDICTED BY IDOCK:   -1.74 KCAL/MOL
REMARK 923 INTER-LIGAND FREE ENERGY PREDICTED BY IDOCK:   -1.58 KCAL/MOL
REMARK 924 INTRA-LIGAND FREE ENERGY PREDICTED BY IDOCK:   -0.15 KCAL/MOL
REMARK 927      BINDING AFFINITY PREDICTED BY RF-SCORE:    0.00 PKD
ROOT
ATOM      1  CE  MET A   1     -10.721   8.742  71.185  1.00  0.00    -0.248 C  
ATOM      2  SD  MET A   1     -11.188   7.505  72.419  1.00  0.00    -0.332 SA 
ENDROOT
BRANCH   2   3
ATOM      3  CG  MET A   1      -9.700   7.581  73.468  1.00  0.00    -0.303 C  
BRANCH   3   4
ATOM      4  CB  MET A   1      -8.528   6.912  72.752  1.00  0.00    -0.126 C  
BRANCH   4   5
ATOM      5  CA  MET A   1      -7.196   7.640  72.963  1.00  0.00    -0.078 C  
ATOM      6  C   MET A   1      -6.850   8.399  71.670  1.00  0.00    -0.076 C  
ATOM      7  N   MET A   1      -6.079   6.697  73.253  1.00  0.00    -0.058 NA 
ATOM      8  O   MET A   1      -5.998   7.681  70.891  1.00  0.00    -0.034 OA 
ATOM      9  OXT MET A   1      -7.292   9.492  71.358  1.00  0.00    -0.330 OA 
ATOM     10  H1  MET A   1      -5.193   7.181  73.394  1.00  0.00     0.000 HD 
ATOM     11  H2  MET A   1      -6.000   5.984  72.528  1.00  0.00     0.000 HD 
ENDBRANCH   4   5
ENDBRANCH   3   4
ENDBRANCH   2   3
TORSDOF 3
ENDMDL
MODEL      226
REMARK 921   NORMALIZED FREE ENERGY PREDICTED BY IDOCK:   -1.33 KCAL/MOL
REMARK 922        TOTAL FREE ENERGY PREDICTED BY IDOCK:   -1.73 KCAL/MOL
REMARK 923 INTER-LIGAND FREE ENERGY PREDICTED BY IDOCK:   -1.67 KCAL/MOL
REMARK 924 INTRA-LIGAND FREE ENERGY PREDICTED BY IDOCK:   -0.06 KCAL/MOL
REMARK 927      BINDING AFFINITY PREDICTED BY RF-SCORE:    0.00 PKD
ROOT
ATOM      1  CE  MET A   1      -7.951  15.117  68.801  1.00  0.00    -0.162 C  
ATOM      2  SD  MET A   1      -7.560  15.393  67.057  1.00  0.00    -0.082 SA 
ENDROOT
BRANCH   2   3
ATOM      3  CG  MET A   1      -6.397  16.783  67.248  1.00  0.00    -0.180 C  
BRANCH   3   4
ATOM      4  CB  MET A   1      -6.882  17.978  66.430  1.00  0.00    -0.270 C  
BRANCH   4   5
ATOM      5  CA  MET A   1      -5.759  18.676  65.654  1.00  0.00    -0.187 C  
ATOM      6  C   MET A   1      -5.743  20.160  66.057  1.00  0.00    -0.169 C  
ATOM      7  N   MET A   1      -5.965  18.603  64.180  1.00  0.00    -0.217 NA 
ATOM      8  O   MET A   1      -6.431  20.920  65.164  1.00  0.00    -0.241 OA 
ATOM      9  OXT MET A   1      -5.207  20.611  67.055  1.00  0.00    -0.166 OA 
ATOM     10  H1  MET A   1      -5.217  19.067  63.663  1.00  0.00     0.000 HD 
ATOM     11  H2  MET A   1      -6.880  18.970  63.916  1.00  0.00     0.000 HD 
ENDBRANCH   4   5
ENDBRANCH   3   4
ENDBRANCH   2   3
TORSDOF 3
ENDMDL
MODEL      227
REMARK 921   NORMALIZED FREE ENERGY PREDICTED BY IDOCK:   -1.30 KCAL/MOL
REMARK 922        TOTAL FREE ENERGY PREDICTED BY IDOCK:   -1.70 KCAL/MOL
REMARK 923 INTER-LIGAND FREE ENERGY PREDICTED BY IDOCK:   -1.64 KCAL/MOL
REMARK 924 INTRA-LIGAND FREE ENERGY PREDICTED BY IDOCK:   -0.05 KCAL/MOL
REMARK 927      BINDING AFFINITY PREDICTED BY RF-SCORE:    0.00 PKD
ROOT
ATOM      1  CE  MET A   1      -8.938   7.664  70.660  1.00  0.00    -0.153 C  
ATOM      2  SD  MET A   1     -10.703   7.383  70.380  1.00  0.00    -0.242 SA 
ENDROOT
BRANCH   2   3
ATOM      3  CG  MET A   1     -10.587   5.882  69.353  1.00  0.00    -0.309 C  
BRANCH   3   4
ATOM      4  CB  MET A   1     -10.107   6.250  67.951  1.00  0.00    -0.169 C  
BRANCH   4   5
ATOM      5  CA  MET A   1      -9.297   5.137  67.277  1.00  0.00    -0.122 C  
ATOM      6  C   MET A   1      -8.272   5.789  66.334  1.00  0.00    -0.107 C  
ATOM      7  N   MET A   1     -10.155   4.229  66.464  1.00  0.00    -0.346 NA 
ATOM      8  O   MET A   1      -8.733   5.824  65.055  1.00  0.00    -0.127 OA 
ATOM      9  OXT MET A   1      -7.192   6.242  66.675  1.00  0.00    -0.071 OA 
ATOM     10  H1  MET A   1      -9.616   3.489  66.016  1.00  0.00     0.000 HD 
ATOM     11  H2  MET A   1     -10.703   4.753  65.781  1.00  0.00     0.000 HD 
ENDBRANCH   4   5
ENDBRANCH   3   4
ENDBRANCH   2   3
TORSDOF 3
ENDMDL
MODEL      228
REMARK 921   NORMALIZED FREE ENERGY PREDICTED BY IDOCK:   -1.28 KCAL/MOL
REMARK 922        TOTAL FREE ENERGY PREDICTED BY IDOCK:   -1.68 KCAL/MOL
REMARK 923 INTER-LIGAND FREE ENERGY PREDICTED BY IDOCK:   -1.50 KCAL/MOL
REMARK 924 INTRA-LIGAND FREE ENERGY PREDICTED BY IDOCK:   -0.18 KCAL/MOL
REMARK 927      BINDING AFFINITY PREDICTED BY RF-SCORE:    0.00 PKD
ROOT
ATOM      1  CE  MET A   1      -9.314   6.624  69.173  1.00  0.00    -0.134 C  
ATOM      2  SD  MET A   1     -10.455   6.952  67.808  1.00  0.00    -0.250 SA 
ENDROOT
BRANCH   2   3
ATOM      3  CG  MET A   1     -10.486   8.772  67.902  1.00  0.00    -0.216 C  
BRANCH   3   4
ATOM      4  CB  MET A   1     -10.516   9.361  66.494  1.00  0.00    -0.199 C  
BRANCH   4   5
ATOM      5  CA  MET A   1      -9.171   9.950  66.055  1.00  0.00    -0.170 C  
ATOM      6  C   MET A   1      -8.578   9.041  64.966  1.00  0.00    -0.181 C  
ATOM      7  N   MET A   1      -8.194  10.018  67.178  1.00  0.00    -0.117 NA 
ATOM      8  O   MET A   1      -7.686   8.160  65.492  1.00  0.00    -0.086 OA 
ATOM      9  OXT MET A   1      -8.874   9.077  63.783  1.00  0.00    -0.143 OA 
ATOM     10  H1  MET A   1      -7.299  10.411  66.886  1.00  0.00     0.000 HD 
ATOM     11  H2  MET A   1      -8.071   9.106  67.617  1.00  0.00     0.000 HD 
ENDBRANCH   4   5
ENDBRANCH   3   4
ENDBRANCH   2   3
TORSDOF 3
ENDMDL
MODEL      229
REMARK 921   NORMALIZED FREE ENERGY PREDICTED BY IDOCK:   -1.28 KCAL/MOL
REMARK 922        TOTAL FREE ENERGY PREDICTED BY IDOCK:   -1.68 KCAL/MOL
REMARK 923 INTER-LIGAND FREE ENERGY PREDICTED BY IDOCK:   -1.66 KCAL/MOL
REMARK 924 INTRA-LIGAND FREE ENERGY PREDICTED BY IDOCK:   -0.02 KCAL/MOL
REMARK 927      BINDING AFFINITY PREDICTED BY RF-SCORE:    0.00 PKD
ROOT
ATOM      1  CE  MET A   1      -6.661   4.973  68.656  1.00  0.00    -0.050 C  
ATOM      2  SD  MET A   1      -8.206   5.891  68.449  1.00  0.00    -0.109 SA 
ENDROOT
BRANCH   2   3
ATOM      3  CG  MET A   1      -7.887   7.245  69.625  1.00  0.00    -0.118 C  
BRANCH   3   4
ATOM      4  CB  MET A   1      -8.823   8.415  69.332  1.00  0.00    -0.142 C  
BRANCH   4   5
ATOM      5  CA  MET A   1      -9.474   9.000  70.591  1.00  0.00    -0.236 C  
ATOM      6  C   MET A   1     -10.562   8.024  71.069  1.00  0.00    -0.213 C  
ATOM      7  N   MET A   1     -10.122  10.316  70.330  1.00  0.00    -0.371 NA 
ATOM      8  O   MET A   1     -11.790   8.396  70.620  1.00  0.00    -0.224 OA 
ATOM      9  OXT MET A   1     -10.364   7.028  71.747  1.00  0.00    -0.198 OA 
ATOM     10  H1  MET A   1     -10.554  10.705  71.168  1.00  0.00     0.000 HD 
ATOM     11  H2  MET A   1     -10.792  10.253  69.563  1.00  0.00     0.000 HD 
ENDBRANCH   4   5
ENDBRANCH   3   4
ENDBRANCH   2   3
TORSDOF 3
ENDMDL
MODEL      230
REMARK 921   NORMALIZED FREE ENERGY PREDICTED BY IDOCK:   -1.28 KCAL/MOL
REMARK 922        TOTAL FREE ENERGY PREDICTED BY IDOCK:   -1.67 KCAL/MOL
REMARK 923 INTER-LIGAND FREE ENERGY PREDICTED BY IDOCK:   -1.56 KCAL/MOL
REMARK 924 INTRA-LIGAND FREE ENERGY PREDICTED BY IDOCK:   -0.12 KCAL/MOL
REMARK 927      BINDING AFFINITY PREDICTED BY RF-SCORE:    0.00 PKD
ROOT
ATOM      1  CE  MET A   1      -9.547   4.021  68.914  1.00  0.00    -0.143 C  
ATOM      2  SD  MET A   1      -9.612   5.781  68.502  1.00  0.00    -0.131 SA 
ENDROOT
BRANCH   2   3
ATOM      3  CG  MET A   1     -10.616   6.361  69.908  1.00  0.00    -0.243 C  
BRANCH   3   4
ATOM      4  CB  MET A   1     -11.069   7.798  69.662  1.00  0.00    -0.052 C  
BRANCH   4   5
ATOM      5  CA  MET A   1     -10.536   8.788  70.704  1.00  0.00    -0.210 C  
ATOM      6  C   MET A   1      -9.661   9.826  69.980  1.00  0.00    -0.250 C  
ATOM      7  N   MET A   1      -9.694   8.119  71.736  1.00  0.00    -0.175 NA 
ATOM      8  O   MET A   1      -8.344   9.495  70.052  1.00  0.00    -0.142 OA 
ATOM      9  OXT MET A   1     -10.080  10.811  69.395  1.00  0.00    -0.212 OA 
ATOM     10  H1  MET A   1      -9.340   8.777  72.430  1.00  0.00     0.000 HD 
ATOM     11  H2  MET A   1      -8.935   7.589  71.307  1.00  0.00     0.000 HD 
ENDBRANCH   4   5
ENDBRANCH   3   4
ENDBRANCH   2   3
TORSDOF 3
ENDMDL
MODEL      231
REMARK 921   NORMALIZED FREE ENERGY PREDICTED BY IDOCK:   -1.27 KCAL/MOL
REMARK 922        TOTAL FREE ENERGY PREDICTED BY IDOCK:   -1.67 KCAL/MOL
REMARK 923 INTER-LIGAND FREE ENERGY PREDICTED BY IDOCK:   -1.67 KCAL/MOL
REMARK 924 INTRA-LIGAND FREE ENERGY PREDICTED BY IDOCK:   -0.00 KCAL/MOL
REMARK 927      BINDING AFFINITY PREDICTED BY RF-SCORE:    0.00 PKD
ROOT
ATOM      1  CE  MET A   1     -11.280  12.703  69.236  1.00  0.00    -0.193 C  
ATOM      2  SD  MET A   1     -11.344  10.943  69.647  1.00  0.00    -0.315 SA 
ENDROOT
BRANCH   2   3
ATOM      3  CG  MET A   1      -9.737  10.436  68.954  1.00  0.00    -0.198 C  
BRANCH   3   4
ATOM      4  CB  MET A   1      -9.858   9.049  68.327  1.00  0.00    -0.186 C  
BRANCH   4   5
ATOM      5  CA  MET A   1      -9.282   7.934  69.208  1.00  0.00    -0.148 C  
ATOM      6  C   MET A   1      -9.368   6.611  68.429  1.00  0.00    -0.123 C  
ATOM      7  N   MET A   1     -10.044   7.769  70.478  1.00  0.00    -0.192 NA 
ATOM      8  O   MET A   1     -10.477   5.906  68.776  1.00  0.00    -0.198 OA 
ATOM      9  OXT MET A   1      -8.565   6.236  67.590  1.00  0.00    -0.115 OA 
ATOM     10  H1  MET A   1      -9.659   7.028  71.064  1.00  0.00     0.000 HD 
ATOM     11  H2  MET A   1     -11.036   7.620  70.296  1.00  0.00     0.000 HD 
ENDBRANCH   4   5
ENDBRANCH   3   4
ENDBRANCH   2   3
TORSDOF 3
ENDMDL
MODEL      232
REMARK 921   NORMALIZED FREE ENERGY PREDICTED BY IDOCK:   -1.26 KCAL/MOL
REMARK 922        TOTAL FREE ENERGY PREDICTED BY IDOCK:   -1.65 KCAL/MOL
REMARK 923 INTER-LIGAND FREE ENERGY PREDICTED BY IDOCK:   -1.58 KCAL/MOL
REMARK 924 INTRA-LIGAND FREE ENERGY PREDICTED BY IDOCK:   -0.07 KCAL/MOL
REMARK 927      BINDING AFFINITY PREDICTED BY RF-SCORE:    0.00 PKD
ROOT
ATOM      1  CE  MET A   1      -6.785   4.441  66.171  1.00  0.00    -0.050 C  
ATOM      2  SD  MET A   1      -8.013   3.113  66.160  1.00  0.00    -0.085 SA 
ENDROOT
BRANCH   2   3
ATOM      3  CG  MET A   1      -9.514   4.121  65.934  1.00  0.00    -0.178 C  
BRANCH   3   4
ATOM      4  CB  MET A   1      -9.266   5.539  66.444  1.00  0.00    -0.155 C  
BRANCH   4   5
ATOM      5  CA  MET A   1     -10.411   6.080  67.307  1.00  0.00    -0.257 C  
ATOM      6  C   MET A   1     -10.241   7.603  67.435  1.00  0.00    -0.251 C  
ATOM      7  N   MET A   1     -10.404   5.501  68.680  1.00  0.00    -0.192 NA 
ATOM      8  O   MET A   1      -9.607   7.932  68.592  1.00  0.00    -0.152 OA 
ATOM      9  OXT MET A   1     -10.601   8.423  66.606  1.00  0.00    -0.262 OA 
ATOM     10  H1  MET A   1     -11.166   5.861  69.254  1.00  0.00     0.000 HD 
ATOM     11  H2  MET A   1      -9.501   5.640  69.135  1.00  0.00     0.000 HD 
ENDBRANCH   4   5
ENDBRANCH   3   4
ENDBRANCH   2   3
TORSDOF 3
ENDMDL
MODEL      233
REMARK 921   NORMALIZED FREE ENERGY PREDICTED BY IDOCK:   -1.26 KCAL/MOL
REMARK 922        TOTAL FREE ENERGY PREDICTED BY IDOCK:   -1.65 KCAL/MOL
REMARK 923 INTER-LIGAND FREE ENERGY PREDICTED BY IDOCK:   -1.55 KCAL/MOL
REMARK 924 INTRA-LIGAND FREE ENERGY PREDICTED BY IDOCK:   -0.10 KCAL/MOL
REMARK 927      BINDING AFFINITY PREDICTED BY RF-SCORE:    0.00 PKD
ROOT
ATOM      1  CE  MET A   1      -8.324   3.048  70.321  1.00  0.00    -0.048 C  
ATOM      2  SD  MET A   1      -9.652   4.269  70.190  1.00  0.00    -0.209 SA 
ENDROOT
BRANCH   2   3
ATOM      3  CG  MET A   1      -8.635   5.769  70.003  1.00  0.00    -0.128 C  
BRANCH   3   4
ATOM      4  CB  MET A   1      -8.621   6.552  71.315  1.00  0.00    -0.127 C  
BRANCH   4   5
ATOM      5  CA  MET A   1      -8.894   8.049  71.129  1.00  0.00    -0.140 C  
ATOM      6  C   MET A   1     -10.362   8.321  71.501  1.00  0.00    -0.214 C  
ATOM      7  N   MET A   1      -8.689   8.487  69.720  1.00  0.00    -0.131 NA 
ATOM      8  O   MET A   1     -11.154   8.341  70.396  1.00  0.00    -0.249 OA 
ATOM      9  OXT MET A   1     -10.781   8.480  72.635  1.00  0.00    -0.302 OA 
ATOM     10  H1  MET A   1      -8.870   9.484  69.597  1.00  0.00     0.000 HD 
ATOM     11  H2  MET A   1      -9.246   7.928  69.074  1.00  0.00     0.000 HD 
ENDBRANCH   4   5
ENDBRANCH   3   4
ENDBRANCH   2   3
TORSDOF 3
ENDMDL
MODEL      234
REMARK 921   NORMALIZED FREE ENERGY PREDICTED BY IDOCK:   -1.25 KCAL/MOL
REMARK 922        TOTAL FREE ENERGY PREDICTED BY IDOCK:   -1.65 KCAL/MOL
REMARK 923 INTER-LIGAND FREE ENERGY PREDICTED BY IDOCK:   -1.62 KCAL/MOL
REMARK 924 INTRA-LIGAND FREE ENERGY PREDICTED BY IDOCK:   -0.02 KCAL/MOL
REMARK 927      BINDING AFFINITY PREDICTED BY RF-SCORE:    0.00 PKD
ROOT
ATOM      1  CE  MET A   1      -9.799  10.175  65.931  1.00  0.00    -0.245 C  
ATOM      2  SD  MET A   1      -8.374   9.498  66.814  1.00  0.00    -0.116 SA 
ENDROOT
BRANCH   2   3
ATOM      3  CG  MET A   1      -7.965  10.948  67.839  1.00  0.00    -0.111 C  
BRANCH   3   4
ATOM      4  CB  MET A   1      -8.636  10.822  69.205  1.00  0.00    -0.097 C  
BRANCH   4   5
ATOM      5  CA  MET A   1      -9.115   9.399  69.515  1.00  0.00    -0.165 C  
ATOM      6  C   MET A   1     -10.295   9.490  70.497  1.00  0.00    -0.288 C  
ATOM      7  N   MET A   1      -8.050   8.574  70.153  1.00  0.00    -0.107 NA 
ATOM      8  O   MET A   1      -9.882   9.314  71.781  1.00  0.00    -0.252 OA 
ATOM      9  OXT MET A   1     -11.453   9.711  70.185  1.00  0.00    -0.242 OA 
ATOM     10  H1  MET A   1      -8.368   7.627  70.358  1.00  0.00     0.000 HD 
ATOM     11  H2  MET A   1      -7.680   9.029  70.987  1.00  0.00     0.000 HD 
ENDBRANCH   4   5
ENDBRANCH   3   4
ENDBRANCH   2   3
TORSDOF 3
ENDMDL
MODEL      235
REMARK 921   NORMALIZED FREE ENERGY PREDICTED BY IDOCK:   -1.25 KCAL/MOL
REMARK 922        TOTAL FREE ENERGY PREDICTED BY IDOCK:   -1.64 KCAL/MOL
REMARK 923 INTER-LIGAND FREE ENERGY PREDICTED BY IDOCK:   -1.57 KCAL/MOL
REMARK 924 INTRA-LIGAND FREE ENERGY PREDICTED BY IDOCK:   -0.07 KCAL/MOL
REMARK 927      BINDING AFFINITY PREDICTED BY RF-SCORE:    0.00 PKD
ROOT
ATOM      1  CE  MET A   1      -6.973   9.989  64.413  1.00  0.00    -0.129 C  
ATOM      2  SD  MET A   1      -8.509   9.633  63.526  1.00  0.00    -0.205 SA 
ENDROOT
BRANCH   2   3
ATOM      3  CG  MET A   1      -9.685  10.417  64.677  1.00  0.00    -0.329 C  
BRANCH   3   4
ATOM      4  CB  MET A   1      -9.847   9.548  65.921  1.00  0.00    -0.360 C  
BRANCH   4   5
ATOM      5  CA  MET A   1      -9.928  10.359  67.219  1.00  0.00    -0.188 C  
ATOM      6  C   MET A   1     -10.845   9.610  68.201  1.00  0.00    -0.190 C  
ATOM      7  N   MET A   1     -10.503  11.716  66.999  1.00  0.00    -0.216 NA 
ATOM      8  O   MET A   1     -12.113  10.100  68.162  1.00  0.00     0.259 OA 
ATOM      9  OXT MET A   1     -10.502   8.680  68.913  1.00  0.00    -0.215 OA 
ATOM     10  H1  MET A   1     -10.557  12.256  67.863  1.00  0.00     0.000 HD 
ATOM     11  H2  MET A   1     -11.413  11.662  66.541  1.00  0.00     0.000 HD 
ENDBRANCH   4   5
ENDBRANCH   3   4
ENDBRANCH   2   3
TORSDOF 3
ENDMDL
MODEL      236
REMARK 921   NORMALIZED FREE ENERGY PREDICTED BY IDOCK:   -1.25 KCAL/MOL
REMARK 922        TOTAL FREE ENERGY PREDICTED BY IDOCK:   -1.64 KCAL/MOL
REMARK 923 INTER-LIGAND FREE ENERGY PREDICTED BY IDOCK:   -1.56 KCAL/MOL
REMARK 924 INTRA-LIGAND FREE ENERGY PREDICTED BY IDOCK:   -0.07 KCAL/MOL
REMARK 927      BINDING AFFINITY PREDICTED BY RF-SCORE:    0.00 PKD
ROOT
ATOM      1  CE  MET A   1      -5.508   3.447  72.615  1.00  0.00     0.000 C  
ATOM      2  SD  MET A   1      -7.269   3.368  72.212  1.00  0.00    -0.052 SA 
ENDROOT
BRANCH   2   3
ATOM      3  CG  MET A   1      -7.515   5.097  71.691  1.00  0.00    -0.096 C  
BRANCH   3   4
ATOM      4  CB  MET A   1      -8.596   5.748  72.551  1.00  0.00    -0.120 C  
BRANCH   4   5
ATOM      5  CA  MET A   1      -9.814   6.212  71.744  1.00  0.00    -0.164 C  
ATOM      6  C   MET A   1     -10.924   6.609  72.731  1.00  0.00    -0.258 C  
ATOM      7  N   MET A   1     -10.347   5.135  70.862  1.00  0.00    -0.228 NA 
ATOM      8  O   MET A   1     -11.805   5.590  72.917  1.00  0.00    -0.247 OA 
ATOM      9  OXT MET A   1     -11.007   7.685  73.299  1.00  0.00    -0.400 OA 
ATOM     10  H1  MET A   1     -11.157   5.444  70.325  1.00  0.00     0.000 HD 
ATOM     11  H2  MET A   1     -10.557   4.291  71.396  1.00  0.00     0.000 HD 
ENDBRANCH   4   5
ENDBRANCH   3   4
ENDBRANCH   2   3
TORSDOF 3
ENDMDL
MODEL      237
REMARK 921   NORMALIZED FREE ENERGY PREDICTED BY IDOCK:   -1.24 KCAL/MOL
REMARK 922        TOTAL FREE ENERGY PREDICTED BY IDOCK:   -1.63 KCAL/MOL
REMARK 923 INTER-LIGAND FREE ENERGY PREDICTED BY IDOCK:   -1.49 KCAL/MOL
REMARK 924 INTRA-LIGAND FREE ENERGY PREDICTED BY IDOCK:   -0.14 KCAL/MOL
REMARK 927      BINDING AFFINITY PREDICTED BY RF-SCORE:    0.00 PKD
ROOT
ATOM      1  CE  MET A   1      -7.063   6.072  68.312  1.00  0.00    -0.082 C  
ATOM      2  SD  MET A   1      -8.689   6.543  68.949  1.00  0.00    -0.127 SA 
ENDROOT
BRANCH   2   3
ATOM      3  CG  MET A   1      -9.578   6.690  67.366  1.00  0.00    -0.126 C  
BRANCH   3   4
ATOM      4  CB  MET A   1     -10.171   8.091  67.234  1.00  0.00    -0.345 C  
BRANCH   4   5
ATOM      5  CA  MET A   1      -9.220   9.197  67.704  1.00  0.00    -0.128 C  
ATOM      6  C   MET A   1     -10.060  10.432  68.071  1.00  0.00    -0.163 C  
ATOM      7  N   MET A   1      -8.255   9.599  66.641  1.00  0.00    -0.119 NA 
ATOM      8  O   MET A   1     -10.109  11.318  67.041  1.00  0.00    -0.197 OA 
ATOM      9  OXT MET A   1     -10.633  10.601  69.135  1.00  0.00    -0.200 OA 
ATOM     10  H1  MET A   1      -7.622  10.334  66.955  1.00  0.00     0.000 HD 
ATOM     11  H2  MET A   1      -8.740   9.867  65.785  1.00  0.00     0.000 HD 
ENDBRANCH   4   5
ENDBRANCH   3   4
ENDBRANCH   2   3
TORSDOF 3
ENDMDL
MODEL      238
REMARK 921   NORMALIZED FREE ENERGY PREDICTED BY IDOCK:   -1.23 KCAL/MOL
REMARK 922        TOTAL FREE ENERGY PREDICTED BY IDOCK:   -1.62 KCAL/MOL
REMARK 923 INTER-LIGAND FREE ENERGY PREDICTED BY IDOCK:   -1.56 KCAL/MOL
REMARK 924 INTRA-LIGAND FREE ENERGY PREDICTED BY IDOCK:   -0.05 KCAL/MOL
REMARK 927      BINDING AFFINITY PREDICTED BY RF-SCORE:    0.00 PKD
ROOT
ATOM      1  CE  MET A   1      -5.411   8.224  70.519  1.00  0.00    -0.022 C  
ATOM      2  SD  MET A   1      -6.605   6.868  70.433  1.00  0.00    -0.053 SA 
ENDROOT
BRANCH   2   3
ATOM      3  CG  MET A   1      -8.142   7.843  70.530  1.00  0.00    -0.109 C  
BRANCH   3   4
ATOM      4  CB  MET A   1      -8.542   8.316  69.135  1.00  0.00    -0.138 C  
BRANCH   4   5
ATOM      5  CA  MET A   1     -10.051   8.542  68.981  1.00  0.00    -0.199 C  
ATOM      6  C   MET A   1     -10.376   9.970  69.450  1.00  0.00    -0.227 C  
ATOM      7  N   MET A   1     -10.848   7.594  69.811  1.00  0.00    -0.316 NA 
ATOM      8  O   MET A   1     -10.804   9.979  70.741  1.00  0.00    -0.312 OA 
ATOM      9  OXT MET A   1     -10.250  10.977  68.773  1.00  0.00    -0.185 OA 
ATOM     10  H1  MET A   1     -11.852   7.744  69.708  1.00  0.00     0.000 HD 
ATOM     11  H2  MET A   1     -10.566   7.634  70.791  1.00  0.00     0.000 HD 
ENDBRANCH   4   5
ENDBRANCH   3   4
ENDBRANCH   2   3
TORSDOF 3
ENDMDL
MODEL      239
REMARK 921   NORMALIZED FREE ENERGY PREDICTED BY IDOCK:   -1.21 KCAL/MOL
REMARK 922        TOTAL FREE ENERGY PREDICTED BY IDOCK:   -1.59 KCAL/MOL
REMARK 923 INTER-LIGAND FREE ENERGY PREDICTED BY IDOCK:   -1.78 KCAL/MOL
REMARK 924 INTRA-LIGAND FREE ENERGY PREDICTED BY IDOCK:    0.19 KCAL/MOL
REMARK 927      BINDING AFFINITY PREDICTED BY RF-SCORE:    0.00 PKD
ROOT
ATOM      1  CE  MET A   1      -8.201   7.889  72.547  1.00  0.00    -0.139 C  
ATOM      2  SD  MET A   1      -9.787   7.473  73.310  1.00  0.00    -0.311 SA 
ENDROOT
BRANCH   2   3
ATOM      3  CG  MET A   1     -10.387   6.276  72.073  1.00  0.00    -0.202 C  
BRANCH   3   4
ATOM      4  CB  MET A   1     -11.266   5.228  72.751  1.00  0.00    -0.347 C  
BRANCH   4   5
ATOM      5  CA  MET A   1     -10.475   4.031  73.290  1.00  0.00    -0.177 C  
ATOM      6  C   MET A   1      -9.459   3.602  72.218  1.00  0.00    -0.129 C  
ATOM      7  N   MET A   1     -11.353   2.863  73.584  1.00  0.00    -0.217 NA 
ATOM      8  O   MET A   1      -9.938   2.573  71.470  1.00  0.00    -0.155 OA 
ATOM      9  OXT MET A   1      -8.370   4.121  72.034  1.00  0.00    -0.100 OA 
ATOM     10  H1  MET A   1     -10.826   2.067  73.943  1.00  0.00     0.000 HD 
ATOM     11  H2  MET A   1     -11.906   2.603  72.767  1.00  0.00     0.000 HD 
ENDBRANCH   4   5
ENDBRANCH   3   4
ENDBRANCH   2   3
TORSDOF 3
ENDMDL
MODEL      240
REMARK 921   NORMALIZED FREE ENERGY PREDICTED BY IDOCK:   -1.18 KCAL/MOL
REMARK 922        TOTAL FREE ENERGY PREDICTED BY IDOCK:   -1.56 KCAL/MOL
REMARK 923 INTER-LIGAND FREE ENERGY PREDICTED BY IDOCK:   -1.52 KCAL/MOL
REMARK 924 INTRA-LIGAND FREE ENERGY PREDICTED BY IDOCK:   -0.04 KCAL/MOL
REMARK 927      BINDING AFFINITY PREDICTED BY RF-SCORE:    0.00 PKD
ROOT
ATOM      1  CE  MET A   1      -9.051  10.947  66.065  1.00  0.00    -0.191 C  
ATOM      2  SD  MET A   1      -7.959  10.157  64.858  1.00  0.00    -0.146 SA 
ENDROOT
BRANCH   2   3
ATOM      3  CG  MET A   1      -6.845   9.293  66.012  1.00  0.00    -0.088 C  
BRANCH   3   4
ATOM      4  CB  MET A   1      -7.430   7.930  66.373  1.00  0.00    -0.087 C  
BRANCH   4   5
ATOM      5  CA  MET A   1      -8.730   7.613  65.627  1.00  0.00    -0.092 C  
ATOM      6  C   MET A   1      -9.781   7.163  66.656  1.00  0.00    -0.170 C  
ATOM      7  N   MET A   1      -8.557   6.512  64.638  1.00  0.00    -0.347 NA 
ATOM      8  O   MET A   1      -9.842   5.807  66.737  1.00  0.00    -0.142 OA 
ATOM      9  OXT MET A   1     -10.463   7.911  67.336  1.00  0.00    -0.255 OA 
ATOM     10  H1  MET A   1      -9.422   6.301  64.141  1.00  0.00     0.000 HD 
ATOM     11  H2  MET A   1      -8.171   5.677  65.079  1.00  0.00     0.000 HD 
ENDBRANCH   4   5
ENDBRANCH   3   4
ENDBRANCH   2   3
TORSDOF 3
ENDMDL
MODEL      241
REMARK 921   NORMALIZED FREE ENERGY PREDICTED BY IDOCK:   -1.17 KCAL/MOL
REMARK 922        TOTAL FREE ENERGY PREDICTED BY IDOCK:   -1.55 KCAL/MOL
REMARK 923 INTER-LIGAND FREE ENERGY PREDICTED BY IDOCK:   -1.44 KCAL/MOL
REMARK 924 INTRA-LIGAND FREE ENERGY PREDICTED BY IDOCK:   -0.10 KCAL/MOL
REMARK 927      BINDING AFFINITY PREDICTED BY RF-SCORE:    0.00 PKD
ROOT
ATOM      1  CE  MET A   1      -9.937   9.624  66.035  1.00  0.00    -0.274 C  
ATOM      2  SD  MET A   1      -8.792   8.248  66.298  1.00  0.00    -0.170 SA 
ENDROOT
BRANCH   2   3
ATOM      3  CG  MET A   1      -9.400   7.685  67.921  1.00  0.00    -0.139 C  
BRANCH   3   4
ATOM      4  CB  MET A   1      -8.444   6.644  68.499  1.00  0.00    -0.122 C  
BRANCH   4   5
ATOM      5  CA  MET A   1      -9.149   5.365  68.962  1.00  0.00    -0.115 C  
ATOM      6  C   MET A   1      -8.843   4.250  67.947  1.00  0.00    -0.111 C  
ATOM      7  N   MET A   1     -10.629   5.530  69.028  1.00  0.00    -0.228 NA 
ATOM      8  O   MET A   1      -9.846   4.122  67.039  1.00  0.00    -0.212 OA 
ATOM      9  OXT MET A   1      -7.827   3.574  67.932  1.00  0.00    -0.071 OA 
ATOM     10  H1  MET A   1     -11.098   4.679  69.337  1.00  0.00     0.000 HD 
ATOM     11  H2  MET A   1     -11.004   5.857  68.138  1.00  0.00     0.000 HD 
ENDBRANCH   4   5
ENDBRANCH   3   4
ENDBRANCH   2   3
TORSDOF 3
ENDMDL
MODEL      242
REMARK 921   NORMALIZED FREE ENERGY PREDICTED BY IDOCK:   -1.17 KCAL/MOL
REMARK 922        TOTAL FREE ENERGY PREDICTED BY IDOCK:   -1.54 KCAL/MOL
REMARK 923 INTER-LIGAND FREE ENERGY PREDICTED BY IDOCK:   -1.87 KCAL/MOL
REMARK 924 INTRA-LIGAND FREE ENERGY PREDICTED BY IDOCK:    0.32 KCAL/MOL
REMARK 927      BINDING AFFINITY PREDICTED BY RF-SCORE:    0.00 PKD
ROOT
ATOM      1  CE  MET A   1      -9.974   9.522  65.834  1.00  0.00    -0.272 C  
ATOM      2  SD  MET A   1      -8.844   8.147  66.153  1.00  0.00    -0.167 SA 
ENDROOT
BRANCH   2   3
ATOM      3  CG  MET A   1      -8.713   8.306  67.964  1.00  0.00    -0.135 C  
BRANCH   3   4
ATOM      4  CB  MET A   1      -9.994   8.920  68.523  1.00  0.00    -0.195 C  
BRANCH   4   5
ATOM      5  CA  MET A   1      -9.738   9.981  69.598  1.00  0.00    -0.229 C  
ATOM      6  C   MET A   1      -8.377   9.688  70.252  1.00  0.00    -0.186 C  
ATOM      7  N   MET A   1     -10.775   9.960  70.669  1.00  0.00    -0.310 NA 
ATOM      8  O   MET A   1      -8.526   8.981  71.404  1.00  0.00    -0.267 OA 
ATOM      9  OXT MET A   1      -7.294  10.020  69.799  1.00  0.00    -0.105 OA 
ATOM     10  H1  MET A   1     -10.605  10.666  71.384  1.00  0.00     0.000 HD 
ATOM     11  H2  MET A   1     -10.861   9.030  71.080  1.00  0.00     0.000 HD 
ENDBRANCH   4   5
ENDBRANCH   3   4
ENDBRANCH   2   3
TORSDOF 3
ENDMDL
MODEL      243
REMARK 921   NORMALIZED FREE ENERGY PREDICTED BY IDOCK:   -1.17 KCAL/MOL
REMARK 922        TOTAL FREE ENERGY PREDICTED BY IDOCK:   -1.54 KCAL/MOL
REMARK 923 INTER-LIGAND FREE ENERGY PREDICTED BY IDOCK:   -1.37 KCAL/MOL
REMARK 924 INTRA-LIGAND FREE ENERGY PREDICTED BY IDOCK:   -0.17 KCAL/MOL
REMARK 927      BINDING AFFINITY PREDICTED BY RF-SCORE:    0.00 PKD
ROOT
ATOM      1  CE  MET A   1      -9.305   6.989  66.494  1.00  0.00    -0.159 C  
ATOM      2  SD  MET A   1     -10.399   5.610  66.911  1.00  0.00    -0.288 SA 
ENDROOT
BRANCH   2   3
ATOM      3  CG  MET A   1      -9.139   4.405  67.441  1.00  0.00    -0.132 C  
BRANCH   3   4
ATOM      4  CB  MET A   1      -9.592   3.713  68.724  1.00  0.00    -0.159 C  
BRANCH   4   5
ATOM      5  CA  MET A   1      -8.738   4.081  69.943  1.00  0.00    -0.071 C  
ATOM      6  C   MET A   1      -9.592   4.943  70.888  1.00  0.00    -0.176 C  
ATOM      7  N   MET A   1      -7.531   4.870  69.568  1.00  0.00    -0.056 NA 
ATOM      8  O   MET A   1      -9.357   6.268  70.694  1.00  0.00    -0.160 OA 
ATOM      9  OXT MET A   1     -10.397   4.512  71.698  1.00  0.00    -0.175 OA 
ATOM     10  H1  MET A   1      -6.963   5.114  70.379  1.00  0.00     0.000 HD 
ATOM     11  H2  MET A   1      -7.785   5.700  69.031  1.00  0.00     0.000 HD 
ENDBRANCH   4   5
ENDBRANCH   3   4
ENDBRANCH   2   3
TORSDOF 3
ENDMDL
MODEL      244
REMARK 921   NORMALIZED FREE ENERGY PREDICTED BY IDOCK:   -1.16 KCAL/MOL
REMARK 922        TOTAL FREE ENERGY PREDICTED BY IDOCK:   -1.54 KCAL/MOL
REMARK 923 INTER-LIGAND FREE ENERGY PREDICTED BY IDOCK:   -1.35 KCAL/MOL
REMARK 924 INTRA-LIGAND FREE ENERGY PREDICTED BY IDOCK:   -0.19 KCAL/MOL
REMARK 927      BINDING AFFINITY PREDICTED BY RF-SCORE:    0.00 PKD
ROOT
ATOM      1  CE  MET A   1      -6.118   9.017  65.386  1.00  0.00    -0.062 C  
ATOM      2  SD  MET A   1      -6.114   7.556  66.453  1.00  0.00    -0.041 SA 
ENDROOT
BRANCH   2   3
ATOM      3  CG  MET A   1      -6.780   8.316  67.970  1.00  0.00    -0.065 C  
BRANCH   3   4
ATOM      4  CB  MET A   1      -8.014   7.547  68.434  1.00  0.00    -0.123 C  
BRANCH   4   5
ATOM      5  CA  MET A   1      -9.290   8.397  68.441  1.00  0.00    -0.135 C  
ATOM      6  C   MET A   1     -10.022   8.180  67.105  1.00  0.00    -0.236 C  
ATOM      7  N   MET A   1      -8.995   9.852  68.571  1.00  0.00    -0.120 NA 
ATOM      8  O   MET A   1      -9.724   9.163  66.215  1.00  0.00    -0.231 OA 
ATOM      9  OXT MET A   1     -10.760   7.242  66.853  1.00  0.00    -0.338 OA 
ATOM     10  H1  MET A   1      -9.844  10.417  68.576  1.00  0.00     0.000 HD 
ATOM     11  H2  MET A   1      -8.348  10.164  67.847  1.00  0.00     0.000 HD 
ENDBRANCH   4   5
ENDBRANCH   3   4
ENDBRANCH   2   3
TORSDOF 3
ENDMDL
MODEL      245
REMARK 921   NORMALIZED FREE ENERGY PREDICTED BY IDOCK:   -1.16 KCAL/MOL
REMARK 922        TOTAL FREE ENERGY PREDICTED BY IDOCK:   -1.54 KCAL/MOL
REMARK 923 INTER-LIGAND FREE ENERGY PREDICTED BY IDOCK:   -1.46 KCAL/MOL
REMARK 924 INTRA-LIGAND FREE ENERGY PREDICTED BY IDOCK:   -0.08 KCAL/MOL
REMARK 927      BINDING AFFINITY PREDICTED BY RF-SCORE:    0.00 PKD
ROOT
ATOM      1  CE  MET A   1      -9.044   9.710  65.429  1.00  0.00    -0.215 C  
ATOM      2  SD  MET A   1      -8.636   9.489  67.177  1.00  0.00    -0.132 SA 
ENDROOT
BRANCH   2   3
ATOM      3  CG  MET A   1      -7.991  11.157  67.527  1.00  0.00    -0.118 C  
BRANCH   3   4
ATOM      4  CB  MET A   1      -6.784  11.061  68.455  1.00  0.00    -0.061 C  
BRANCH   4   5
ATOM      5  CA  MET A   1      -5.881  12.299  68.406  1.00  0.00    -0.054 C  
ATOM      6  C   MET A   1      -6.208  13.184  69.620  1.00  0.00    -0.112 C  
ATOM      7  N   MET A   1      -6.105  13.109  67.175  1.00  0.00    -0.460 NA 
ATOM      8  O   MET A   1      -7.082  14.171  69.289  1.00  0.00    -0.119 OA 
ATOM      9  OXT MET A   1      -5.767  13.022  70.746  1.00  0.00    -0.185 OA 
ATOM     10  H1  MET A   1      -5.504  13.932  67.142  1.00  0.00     0.000 HD 
ATOM     11  H2  MET A   1      -7.087  13.364  67.074  1.00  0.00     0.000 HD 
ENDBRANCH   4   5
ENDBRANCH   3   4
ENDBRANCH   2   3
TORSDOF 3
ENDMDL
MODEL      246
REMARK 921   NORMALIZED FREE ENERGY PREDICTED BY IDOCK:   -1.16 KCAL/MOL
REMARK 922        TOTAL FREE ENERGY PREDICTED BY IDOCK:   -1.54 KCAL/MOL
REMARK 923 INTER-LIGAND FREE ENERGY PREDICTED BY IDOCK:   -1.63 KCAL/MOL
REMARK 924 INTRA-LIGAND FREE ENERGY PREDICTED BY IDOCK:    0.09 KCAL/MOL
REMARK 927      BINDING AFFINITY PREDICTED BY RF-SCORE:    0.00 PKD
ROOT
ATOM      1  CE  MET A   1      -7.998  10.169  65.241  1.00  0.00    -0.145 C  
ATOM      2  SD  MET A   1      -6.988   9.798  66.694  1.00  0.00    -0.086 SA 
ENDROOT
BRANCH   2   3
ATOM      3  CG  MET A   1      -7.793  10.916  67.887  1.00  0.00    -0.109 C  
BRANCH   3   4
ATOM      4  CB  MET A   1      -8.700  11.895  67.147  1.00  0.00    -0.176 C  
BRANCH   4   5
ATOM      5  CA  MET A   1     -10.043  12.127  67.850  1.00  0.00    -0.197 C  
ATOM      6  C   MET A   1     -10.706  10.760  68.086  1.00  0.00    -0.214 C  
ATOM      7  N   MET A   1     -10.973  12.952  67.028  1.00  0.00    -0.257 NA 
ATOM      8  O   MET A   1     -11.604  10.472  67.107  1.00  0.00    -0.251 OA 
ATOM      9  OXT MET A   1     -10.456  10.008  69.014  1.00  0.00    -0.192 OA 
ATOM     10  H1  MET A   1     -11.866  13.107  67.497  1.00  0.00     0.000 HD 
ATOM     11  H2  MET A   1     -11.106  12.546  66.102  1.00  0.00     0.000 HD 
ENDBRANCH   4   5
ENDBRANCH   3   4
ENDBRANCH   2   3
TORSDOF 3
ENDMDL
MODEL      247
REMARK 921   NORMALIZED FREE ENERGY PREDICTED BY IDOCK:   -1.15 KCAL/MOL
REMARK 922        TOTAL FREE ENERGY PREDICTED BY IDOCK:   -1.52 KCAL/MOL
REMARK 923 INTER-LIGAND FREE ENERGY PREDICTED BY IDOCK:   -1.43 KCAL/MOL
REMARK 924 INTRA-LIGAND FREE ENERGY PREDICTED BY IDOCK:   -0.09 KCAL/MOL
REMARK 927      BINDING AFFINITY PREDICTED BY RF-SCORE:    0.00 PKD
ROOT
ATOM      1  CE  MET A   1      -8.082   6.279  62.739  1.00  0.00    -0.078 C  
ATOM      2  SD  MET A   1      -8.119   4.491  63.010  1.00  0.00    -0.088 SA 
ENDROOT
BRANCH   2   3
ATOM      3  CG  MET A   1      -8.060   4.482  64.831  1.00  0.00    -0.100 C  
BRANCH   3   4
ATOM      4  CB  MET A   1      -9.278   5.214  65.391  1.00  0.00    -0.122 C  
BRANCH   4   5
ATOM      5  CA  MET A   1      -8.935   6.162  66.547  1.00  0.00    -0.139 C  
ATOM      6  C   MET A   1     -10.242   6.537  67.266  1.00  0.00    -0.188 C  
ATOM      7  N   MET A   1      -8.296   7.421  66.071  1.00  0.00    -0.136 NA 
ATOM      8  O   MET A   1     -10.724   7.728  66.822  1.00  0.00    -0.311 OA 
ATOM      9  OXT MET A   1     -10.799   5.857  68.112  1.00  0.00    -0.271 OA 
ATOM     10  H1  MET A   1      -8.068   8.051  66.840  1.00  0.00     0.000 HD 
ATOM     11  H2  MET A   1      -8.873   7.886  65.370  1.00  0.00     0.000 HD 
ENDBRANCH   4   5
ENDBRANCH   3   4
ENDBRANCH   2   3
TORSDOF 3
ENDMDL
MODEL      248
REMARK 921   NORMALIZED FREE ENERGY PREDICTED BY IDOCK:   -1.14 KCAL/MOL
REMARK 922        TOTAL FREE ENERGY PREDICTED BY IDOCK:   -1.51 KCAL/MOL
REMARK 923 INTER-LIGAND FREE ENERGY PREDICTED BY IDOCK:   -1.69 KCAL/MOL
REMARK 924 INTRA-LIGAND FREE ENERGY PREDICTED BY IDOCK:    0.18 KCAL/MOL
REMARK 927      BINDING AFFINITY PREDICTED BY RF-SCORE:    0.00 PKD
ROOT
ATOM      1  CE  MET A   1     -11.029  11.596  69.110  1.00  0.00    -0.219 C  
ATOM      2  SD  MET A   1     -11.331  10.370  70.405  1.00  0.00    -0.339 SA 
ENDROOT
BRANCH   2   3
ATOM      3  CG  MET A   1     -10.030   9.172  69.965  1.00  0.00    -0.199 C  
BRANCH   3   4
ATOM      4  CB  MET A   1      -9.053   9.808  68.979  1.00  0.00    -0.157 C  
BRANCH   4   5
ATOM      5  CA  MET A   1      -8.716   8.901  67.791  1.00  0.00    -0.125 C  
ATOM      6  C   MET A   1      -9.865   7.895  67.610  1.00  0.00    -0.165 C  
ATOM      7  N   MET A   1      -7.461   8.128  68.012  1.00  0.00    -0.096 NA 
ATOM      8  O   MET A   1      -9.583   6.711  68.215  1.00  0.00    -0.127 OA 
ATOM      9  OXT MET A   1     -10.910   8.121  67.021  1.00  0.00    -0.265 OA 
ATOM     10  H1  MET A   1      -7.236   7.525  67.220  1.00  0.00     0.000 HD 
ATOM     11  H2  MET A   1      -7.503   7.597  68.882  1.00  0.00     0.000 HD 
ENDBRANCH   4   5
ENDBRANCH   3   4
ENDBRANCH   2   3
TORSDOF 3
ENDMDL
MODEL      249
REMARK 921   NORMALIZED FREE ENERGY PREDICTED BY IDOCK:   -1.14 KCAL/MOL
REMARK 922        TOTAL FREE ENERGY PREDICTED BY IDOCK:   -1.51 KCAL/MOL
REMARK 923 INTER-LIGAND FREE ENERGY PREDICTED BY IDOCK:   -1.42 KCAL/MOL
REMARK 924 INTRA-LIGAND FREE ENERGY PREDICTED BY IDOCK:   -0.09 KCAL/MOL
REMARK 927      BINDING AFFINITY PREDICTED BY RF-SCORE:    0.00 PKD
ROOT
ATOM      1  CE  MET A   1      -7.827   9.756  64.296  1.00  0.00    -0.134 C  
ATOM      2  SD  MET A   1      -6.504   8.693  64.922  1.00  0.00    -0.065 SA 
ENDROOT
BRANCH   2   3
ATOM      3  CG  MET A   1      -6.056   9.648  66.407  1.00  0.00    -0.060 C  
BRANCH   3   4
ATOM      4  CB  MET A   1      -6.150  11.142  66.109  1.00  0.00    -0.084 C  
BRANCH   4   5
ATOM      5  CA  MET A   1      -6.772  11.950  67.253  1.00  0.00    -0.138 C  
ATOM      6  C   MET A   1      -8.296  11.748  67.214  1.00  0.00    -0.162 C  
ATOM      7  N   MET A   1      -6.500  13.410  67.124  1.00  0.00    -0.451 NA 
ATOM      8  O   MET A   1      -8.911  12.766  66.555  1.00  0.00    -0.189 OA 
ATOM      9  OXT MET A   1      -8.891  10.794  67.688  1.00  0.00    -0.131 OA 
ATOM     10  H1  MET A   1      -6.913  13.947  67.886  1.00  0.00     0.000 HD 
ATOM     11  H2  MET A   1      -6.802  13.763  66.216  1.00  0.00     0.000 HD 
ENDBRANCH   4   5
ENDBRANCH   3   4
ENDBRANCH   2   3
TORSDOF 3
ENDMDL
MODEL      250
REMARK 921   NORMALIZED FREE ENERGY PREDICTED BY IDOCK:   -1.12 KCAL/MOL
REMARK 922        TOTAL FREE ENERGY PREDICTED BY IDOCK:   -1.49 KCAL/MOL
REMARK 923 INTER-LIGAND FREE ENERGY PREDICTED BY IDOCK:   -1.42 KCAL/MOL
REMARK 924 INTRA-LIGAND FREE ENERGY PREDICTED BY IDOCK:   -0.07 KCAL/MOL
REMARK 927      BINDING AFFINITY PREDICTED BY RF-SCORE:    0.00 PKD
ROOT
ATOM      1  CE  MET A   1      -9.018   4.335  73.581  1.00  0.00    -0.092 C  
ATOM      2  SD  MET A   1      -8.187   4.519  71.986  1.00  0.00    -0.102 SA 
ENDROOT
BRANCH   2   3
ATOM      3  CG  MET A   1      -9.421   5.564  71.146  1.00  0.00    -0.159 C  
BRANCH   3   4
ATOM      4  CB  MET A   1      -8.778   6.267  69.953  1.00  0.00    -0.141 C  
BRANCH   4   5
ATOM      5  CA  MET A   1      -9.607   7.442  69.423  1.00  0.00    -0.155 C  
ATOM      6  C   MET A   1     -10.175   7.051  68.048  1.00  0.00    -0.182 C  
ATOM      7  N   MET A   1      -8.788   8.675  69.248  1.00  0.00    -0.136 NA 
ATOM      8  O   MET A   1      -9.397   7.528  67.041  1.00  0.00    -0.136 OA 
ATOM      9  OXT MET A   1     -11.178   6.381  67.867  1.00  0.00    -0.319 OA 
ATOM     10  H1  MET A   1      -9.341   9.456  68.895  1.00  0.00     0.000 HD 
ATOM     11  H2  MET A   1      -7.977   8.498  68.654  1.00  0.00     0.000 HD 
ENDBRANCH   4   5
ENDBRANCH   3   4
ENDBRANCH   2   3
TORSDOF 3
ENDMDL
MODEL      251
REMARK 921   NORMALIZED FREE ENERGY PREDICTED BY IDOCK:   -1.11 KCAL/MOL
REMARK 922        TOTAL FREE ENERGY PREDICTED BY IDOCK:   -1.48 KCAL/MOL
REMARK 923 INTER-LIGAND FREE ENERGY PREDICTED BY IDOCK:   -1.41 KCAL/MOL
REMARK 924 INTRA-LIGAND FREE ENERGY PREDICTED BY IDOCK:   -0.07 KCAL/MOL
REMARK 927      BINDING AFFINITY PREDICTED BY RF-SCORE:    0.00 PKD
ROOT
ATOM      1  CE  MET A   1      -8.324   3.048  70.321  1.00  0.00    -0.048 C  
ATOM      2  SD  MET A   1      -9.652   4.269  70.190  1.00  0.00    -0.209 SA 
ENDROOT
BRANCH   2   3
ATOM      3  CG  MET A   1      -8.635   5.769  70.003  1.00  0.00    -0.128 C  
BRANCH   3   4
ATOM      4  CB  MET A   1      -8.621   6.552  71.315  1.00  0.00    -0.127 C  
BRANCH   4   5
ATOM      5  CA  MET A   1      -8.894   8.049  71.129  1.00  0.00    -0.140 C  
ATOM      6  C   MET A   1      -7.547   8.765  70.942  1.00  0.00    -0.102 C  
ATOM      7  N   MET A   1      -9.572   8.648  72.314  1.00  0.00    -0.300 NA 
ATOM      8  O   MET A   1      -7.102   9.292  72.113  1.00  0.00    -0.309 OA 
ATOM      9  OXT MET A   1      -6.932   8.842  69.891  1.00  0.00    -0.047 OA 
ATOM     10  H1  MET A   1      -9.754   9.644  72.190  1.00  0.00     0.000 HD 
ATOM     11  H2  MET A   1      -9.044   8.472  73.169  1.00  0.00     0.000 HD 
ENDBRANCH   4   5
ENDBRANCH   3   4
ENDBRANCH   2   3
TORSDOF 3
ENDMDL
MODEL      252
REMARK 921   NORMALIZED FREE ENERGY PREDICTED BY IDOCK:   -1.08 KCAL/MOL
REMARK 922        TOTAL FREE ENERGY PREDICTED BY IDOCK:   -1.44 KCAL/MOL
REMARK 923 INTER-LIGAND FREE ENERGY PREDICTED BY IDOCK:   -1.37 KCAL/MOL
REMARK 924 INTRA-LIGAND FREE ENERGY PREDICTED BY IDOCK:   -0.07 KCAL/MOL
REMARK 927      BINDING AFFINITY PREDICTED BY RF-SCORE:    0.00 PKD
ROOT
ATOM      1  CE  MET A   1      -9.018   6.092  69.387  1.00  0.00    -0.128 C  
ATOM      2  SD  MET A   1      -9.579   5.941  67.674  1.00  0.00    -0.115 SA 
ENDROOT
BRANCH   2   3
ATOM      3  CG  MET A   1      -9.738   7.712  67.275  1.00  0.00    -0.169 C  
BRANCH   3   4
ATOM      4  CB  MET A   1      -8.575   8.148  66.387  1.00  0.00    -0.150 C  
BRANCH   4   5
ATOM      5  CA  MET A   1      -8.833   9.472  65.659  1.00  0.00    -0.161 C  
ATOM      6  C   MET A   1      -7.849  10.522  66.203  1.00  0.00    -0.145 C  
ATOM      7  N   MET A   1     -10.216   9.979  65.886  1.00  0.00    -0.241 NA 
ATOM      8  O   MET A   1      -8.426  11.282  67.171  1.00  0.00    -0.139 OA 
ATOM      9  OXT MET A   1      -6.692  10.655  65.841  1.00  0.00    -0.125 OA 
ATOM     10  H1  MET A   1     -10.387  10.860  65.401  1.00  0.00     0.000 HD 
ATOM     11  H2  MET A   1     -10.421  10.059  66.882  1.00  0.00     0.000 HD 
ENDBRANCH   4   5
ENDBRANCH   3   4
ENDBRANCH   2   3
TORSDOF 3
ENDMDL
MODEL      253
REMARK 921   NORMALIZED FREE ENERGY PREDICTED BY IDOCK:   -1.08 KCAL/MOL
REMARK 922        TOTAL FREE ENERGY PREDICTED BY IDOCK:   -1.44 KCAL/MOL
REMARK 923 INTER-LIGAND FREE ENERGY PREDICTED BY IDOCK:   -1.30 KCAL/MOL
REMARK 924 INTRA-LIGAND FREE ENERGY PREDICTED BY IDOCK:   -0.14 KCAL/MOL
REMARK 927      BINDING AFFINITY PREDICTED BY RF-SCORE:    0.00 PKD
ROOT
ATOM      1  CE  MET A   1      -8.445   8.394  68.049  1.00  0.00    -0.132 C  
ATOM      2  SD  MET A   1     -10.017   7.919  67.291  1.00  0.00    -0.242 SA 
ENDROOT
BRANCH   2   3
ATOM      3  CG  MET A   1     -10.159   6.235  67.972  1.00  0.00    -0.152 C  
BRANCH   3   4
ATOM      4  CB  MET A   1     -10.099   5.213  66.840  1.00  0.00    -0.258 C  
BRANCH   4   5
ATOM      5  CA  MET A   1      -8.668   4.837  66.439  1.00  0.00    -0.112 C  
ATOM      6  C   MET A   1      -8.693   3.426  65.827  1.00  0.00    -0.123 C  
ATOM      7  N   MET A   1      -7.744   4.814  67.608  1.00  0.00    -0.085 NA 
ATOM      8  O   MET A   1      -8.367   2.483  66.750  1.00  0.00    -0.082 OA 
ATOM      9  OXT MET A   1      -8.986   3.167  64.671  1.00  0.00    -0.114 OA 
ATOM     10  H1  MET A   1      -6.792   4.564  67.341  1.00  0.00     0.000 HD 
ATOM     11  H2  MET A   1      -8.095   4.200  68.343  1.00  0.00     0.000 HD 
ENDBRANCH   4   5
ENDBRANCH   3   4
ENDBRANCH   2   3
TORSDOF 3
ENDMDL
MODEL      254
REMARK 921   NORMALIZED FREE ENERGY PREDICTED BY IDOCK:   -1.07 KCAL/MOL
REMARK 922        TOTAL FREE ENERGY PREDICTED BY IDOCK:   -1.43 KCAL/MOL
REMARK 923 INTER-LIGAND FREE ENERGY PREDICTED BY IDOCK:   -1.37 KCAL/MOL
REMARK 924 INTRA-LIGAND FREE ENERGY PREDICTED BY IDOCK:   -0.06 KCAL/MOL
REMARK 927      BINDING AFFINITY PREDICTED BY RF-SCORE:    0.00 PKD
ROOT
ATOM      1  CE  MET A   1     -10.086   9.575  66.178  1.00  0.00    -0.256 C  
ATOM      2  SD  MET A   1      -8.967   8.296  66.797  1.00  0.00    -0.155 SA 
ENDROOT
BRANCH   2   3
ATOM      3  CG  MET A   1      -9.844   7.880  68.339  1.00  0.00    -0.173 C  
BRANCH   3   4
ATOM      4  CB  MET A   1      -9.213   6.645  68.976  1.00  0.00    -0.131 C  
BRANCH   4   5
ATOM      5  CA  MET A   1      -8.273   6.977  70.140  1.00  0.00    -0.133 C  
ATOM      6  C   MET A   1      -8.938   6.511  71.446  1.00  0.00    -0.140 C  
ATOM      7  N   MET A   1      -8.013   8.440  70.254  1.00  0.00    -0.098 NA 
ATOM      8  O   MET A   1      -9.584   7.537  72.062  1.00  0.00    -0.151 OA 
ATOM      9  OXT MET A   1      -8.917   5.370  71.877  1.00  0.00    -0.134 OA 
ATOM     10  H1  MET A   1      -7.387   8.661  71.028  1.00  0.00     0.000 HD 
ATOM     11  H2  MET A   1      -8.886   8.965  70.322  1.00  0.00     0.000 HD 
ENDBRANCH   4   5
ENDBRANCH   3   4
ENDBRANCH   2   3
TORSDOF 3
ENDMDL
MODEL      255
REMARK 921   NORMALIZED FREE ENERGY PREDICTED BY IDOCK:   -1.06 KCAL/MOL
REMARK 922        TOTAL FREE ENERGY PREDICTED BY IDOCK:   -1.41 KCAL/MOL
REMARK 923 INTER-LIGAND FREE ENERGY PREDICTED BY IDOCK:   -1.31 KCAL/MOL
REMARK 924 INTRA-LIGAND FREE ENERGY PREDICTED BY IDOCK:   -0.10 KCAL/MOL
REMARK 927      BINDING AFFINITY PREDICTED BY RF-SCORE:    0.00 PKD
ROOT
ATOM      1  CE  MET A   1      -5.590   3.016  71.908  1.00  0.00    -0.008 C  
ATOM      2  SD  MET A   1      -7.234   3.185  71.173  1.00  0.00    -0.033 SA 
ENDROOT
BRANCH   2   3
ATOM      3  CG  MET A   1      -7.031   4.826  70.407  1.00  0.00    -0.045 C  
BRANCH   3   4
ATOM      4  CB  MET A   1      -8.051   5.799  70.993  1.00  0.00    -0.120 C  
BRANCH   4   5
ATOM      5  CA  MET A   1      -9.387   5.135  71.347  1.00  0.00    -0.148 C  
ATOM      6  C   MET A   1     -10.490   5.786  70.495  1.00  0.00    -0.263 C  
ATOM      7  N   MET A   1      -9.746   5.322  72.781  1.00  0.00    -0.149 NA 
ATOM      8  O   MET A   1     -11.131   6.766  71.184  1.00  0.00    -0.250 OA 
ATOM      9  OXT MET A   1     -10.754   5.489  69.341  1.00  0.00    -0.295 OA 
ATOM     10  H1  MET A   1     -10.634   4.880  73.016  1.00  0.00     0.000 HD 
ATOM     11  H2  MET A   1      -9.745   6.310  73.036  1.00  0.00     0.000 HD 
ENDBRANCH   4   5
ENDBRANCH   3   4
ENDBRANCH   2   3
TORSDOF 3
ENDMDL
MODEL      256
REMARK 921   NORMALIZED FREE ENERGY PREDICTED BY IDOCK:   -1.05 KCAL/MOL
REMARK 922        TOTAL FREE ENERGY PREDICTED BY IDOCK:   -1.40 KCAL/MOL
REMARK 923 INTER-LIGAND FREE ENERGY PREDICTED BY IDOCK:   -1.65 KCAL/MOL
REMARK 924 INTRA-LIGAND FREE ENERGY PREDICTED BY IDOCK:    0.24 KCAL/MOL
REMARK 927      BINDING AFFINITY PREDICTED BY RF-SCORE:    0.00 PKD
ROOT
ATOM      1  CE  MET A   1      -6.858   6.920  68.303  1.00  0.00    -0.074 C  
ATOM      2  SD  MET A   1      -6.773   6.897  70.109  1.00  0.00    -0.057 SA 
ENDROOT
BRANCH   2   3
ATOM      3  CG  MET A   1      -8.558   6.952  70.473  1.00  0.00    -0.142 C  
BRANCH   3   4
ATOM      4  CB  MET A   1      -8.883   5.991  71.615  1.00  0.00    -0.139 C  
BRANCH   4   5
ATOM      5  CA  MET A   1      -9.187   6.704  72.938  1.00  0.00    -0.135 C  
ATOM      6  C   MET A   1      -9.461   8.187  72.635  1.00  0.00    -0.276 C  
ATOM      7  N   MET A   1      -8.042   6.634  73.890  1.00  0.00    -0.109 NA 
ATOM      8  O   MET A   1      -8.347   8.942  72.825  1.00  0.00    -0.385 OA 
ATOM      9  OXT MET A   1     -10.527   8.640  72.253  1.00  0.00    -0.330 OA 
ATOM     10  H1  MET A   1      -8.245   7.108  74.770  1.00  0.00     0.000 HD 
ATOM     11  H2  MET A   1      -7.186   6.993  73.465  1.00  0.00     0.000 HD 
ENDBRANCH   4   5
ENDBRANCH   3   4
ENDBRANCH   2   3
TORSDOF 3
ENDMDL
MODEL      257
REMARK 921   NORMALIZED FREE ENERGY PREDICTED BY IDOCK:   -1.05 KCAL/MOL
REMARK 922        TOTAL FREE ENERGY PREDICTED BY IDOCK:   -1.40 KCAL/MOL
REMARK 923 INTER-LIGAND FREE ENERGY PREDICTED BY IDOCK:   -1.71 KCAL/MOL
REMARK 924 INTRA-LIGAND FREE ENERGY PREDICTED BY IDOCK:    0.30 KCAL/MOL
REMARK 927      BINDING AFFINITY PREDICTED BY RF-SCORE:    0.00 PKD
ROOT
ATOM      1  CE  MET A   1      -5.652   8.673  64.915  1.00  0.00    -0.047 C  
ATOM      2  SD  MET A   1      -6.614   7.733  66.124  1.00  0.00    -0.050 SA 
ENDROOT
BRANCH   2   3
ATOM      3  CG  MET A   1      -7.872   8.991  66.520  1.00  0.00    -0.100 C  
BRANCH   3   4
ATOM      4  CB  MET A   1      -9.234   8.542  65.996  1.00  0.00    -0.262 C  
BRANCH   4   5
ATOM      5  CA  MET A   1     -10.409   9.131  66.784  1.00  0.00    -0.238 C  
ATOM      6  C   MET A   1      -9.911  10.375  67.538  1.00  0.00    -0.172 C  
ATOM      7  N   MET A   1     -10.949   8.172  67.789  1.00  0.00    -0.492 NA 
ATOM      8  O   MET A   1      -9.583  10.074  68.822  1.00  0.00    -0.156 OA 
ATOM      9  OXT MET A   1      -9.797  11.490  67.055  1.00  0.00    -0.189 OA 
ATOM     10  H1  MET A   1     -11.732   8.564  68.313  1.00  0.00     0.000 HD 
ATOM     11  H2  MET A   1     -10.215   7.840  68.415  1.00  0.00     0.000 HD 
ENDBRANCH   4   5
ENDBRANCH   3   4
ENDBRANCH   2   3
TORSDOF 3
ENDMDL
MODEL      258
REMARK 921   NORMALIZED FREE ENERGY PREDICTED BY IDOCK:   -1.03 KCAL/MOL
REMARK 922        TOTAL FREE ENERGY PREDICTED BY IDOCK:   -1.38 KCAL/MOL
REMARK 923 INTER-LIGAND FREE ENERGY PREDICTED BY IDOCK:   -1.28 KCAL/MOL
REMARK 924 INTRA-LIGAND FREE ENERGY PREDICTED BY IDOCK:   -0.10 KCAL/MOL
REMARK 927      BINDING AFFINITY PREDICTED BY RF-SCORE:    0.00 PKD
ROOT
ATOM      1  CE  MET A   1      -7.871   6.431  63.781  1.00  0.00    -0.111 C  
ATOM      2  SD  MET A   1      -7.358   4.875  63.014  1.00  0.00    -0.049 SA 
ENDROOT
BRANCH   2   3
ATOM      3  CG  MET A   1      -8.201   3.717  64.139  1.00  0.00    -0.090 C  
BRANCH   3   4
ATOM      4  CB  MET A   1      -9.555   4.290  64.553  1.00  0.00    -0.149 C  
BRANCH   4   5
ATOM      5  CA  MET A   1      -9.910   4.009  66.017  1.00  0.00    -0.166 C  
ATOM      6  C   MET A   1      -9.096   4.967  66.904  1.00  0.00    -0.118 C  
ATOM      7  N   MET A   1      -9.573   2.614  66.419  1.00  0.00    -0.382 NA 
ATOM      8  O   MET A   1      -7.968   4.368  67.369  1.00  0.00    -0.098 OA 
ATOM      9  OXT MET A   1      -9.397   6.123  67.150  1.00  0.00    -0.116 OA 
ATOM     10  H1  MET A   1      -9.810   2.427  67.393  1.00  0.00     0.000 HD 
ATOM     11  H2  MET A   1      -8.593   2.401  66.229  1.00  0.00     0.000 HD 
ENDBRANCH   4   5
ENDBRANCH   3   4
ENDBRANCH   2   3
TORSDOF 3
ENDMDL
MODEL      259
REMARK 921   NORMALIZED FREE ENERGY PREDICTED BY IDOCK:   -1.03 KCAL/MOL
REMARK 922        TOTAL FREE ENERGY PREDICTED BY IDOCK:   -1.38 KCAL/MOL
REMARK 923 INTER-LIGAND FREE ENERGY PREDICTED BY IDOCK:   -1.50 KCAL/MOL
REMARK 924 INTRA-LIGAND FREE ENERGY PREDICTED BY IDOCK:    0.12 KCAL/MOL
REMARK 927      BINDING AFFINITY PREDICTED BY RF-SCORE:    0.00 PKD
ROOT
ATOM      1  CE  MET A   1      -7.777   9.901  70.168  1.00  0.00    -0.175 C  
ATOM      2  SD  MET A   1      -6.625  10.297  68.832  1.00  0.00    -0.054 SA 
ENDROOT
BRANCH   2   3
ATOM      3  CG  MET A   1      -7.821  10.448  67.466  1.00  0.00    -0.106 C  
BRANCH   3   4
ATOM      4  CB  MET A   1      -8.721  11.660  67.698  1.00  0.00    -0.156 C  
BRANCH   4   5
ATOM      5  CA  MET A   1     -10.038  11.594  66.917  1.00  0.00    -0.211 C  
ATOM      6  C   MET A   1     -10.640  10.191  67.102  1.00  0.00    -0.246 C  
ATOM      7  N   MET A   1      -9.838  11.819  65.457  1.00  0.00    -0.231 NA 
ATOM      8  O   MET A   1     -10.323   9.378  66.059  1.00  0.00    -0.218 OA 
ATOM      9  OXT MET A   1     -11.300   9.830  68.063  1.00  0.00    -0.099 OA 
ATOM     10  H1  MET A   1     -10.715  11.776  64.938  1.00  0.00     0.000 HD 
ATOM     11  H2  MET A   1      -9.150  11.171  65.075  1.00  0.00     0.000 HD 
ENDBRANCH   4   5
ENDBRANCH   3   4
ENDBRANCH   2   3
TORSDOF 3
ENDMDL
MODEL      260
REMARK 921   NORMALIZED FREE ENERGY PREDICTED BY IDOCK:   -1.02 KCAL/MOL
REMARK 922        TOTAL FREE ENERGY PREDICTED BY IDOCK:   -1.37 KCAL/MOL
REMARK 923 INTER-LIGAND FREE ENERGY PREDICTED BY IDOCK:   -1.28 KCAL/MOL
REMARK 924 INTRA-LIGAND FREE ENERGY PREDICTED BY IDOCK:   -0.10 KCAL/MOL
REMARK 927      BINDING AFFINITY PREDICTED BY RF-SCORE:    0.00 PKD
ROOT
ATOM      1  CE  MET A   1      -7.590   5.659  63.129  1.00  0.00    -0.077 C  
ATOM      2  SD  MET A   1      -7.092   3.987  62.654  1.00  0.00    -0.040 SA 
ENDROOT
BRANCH   2   3
ATOM      3  CG  MET A   1      -7.551   3.113  64.186  1.00  0.00    -0.075 C  
BRANCH   3   4
ATOM      4  CB  MET A   1      -8.161   1.756  63.843  1.00  0.00    -0.076 C  
BRANCH   4   5
ATOM      5  CA  MET A   1      -9.536   1.531  64.483  1.00  0.00    -0.113 C  
ATOM      6  C   MET A   1     -10.601   2.174  63.578  1.00  0.00    -0.151 C  
ATOM      7  N   MET A   1      -9.639   2.160  65.830  1.00  0.00    -0.340 NA 
ATOM      8  O   MET A   1     -10.929   3.419  64.013  1.00  0.00    -0.253 OA 
ATOM      9  OXT MET A   1     -11.082   1.657  62.584  1.00  0.00    -0.152 OA 
ATOM     10  H1  MET A   1     -10.553   2.010  66.256  1.00  0.00     0.000 HD 
ATOM     11  H2  MET A   1      -9.406   3.153  65.793  1.00  0.00     0.000 HD 
ENDBRANCH   4   5
ENDBRANCH   3   4
ENDBRANCH   2   3
TORSDOF 3
ENDMDL
MODEL      261
REMARK 921   NORMALIZED FREE ENERGY PREDICTED BY IDOCK:   -0.99 KCAL/MOL
REMARK 922        TOTAL FREE ENERGY PREDICTED BY IDOCK:   -1.33 KCAL/MOL
REMARK 923 INTER-LIGAND FREE ENERGY PREDICTED BY IDOCK:   -1.29 KCAL/MOL
REMARK 924 INTRA-LIGAND FREE ENERGY PREDICTED BY IDOCK:   -0.04 KCAL/MOL
REMARK 927      BINDING AFFINITY PREDICTED BY RF-SCORE:    0.00 PKD
ROOT
ATOM      1  CE  MET A   1      -5.878   8.916  65.304  1.00  0.00    -0.051 C  
ATOM      2  SD  MET A   1      -6.271   7.966  66.792  1.00  0.00    -0.055 SA 
ENDROOT
BRANCH   2   3
ATOM      3  CG  MET A   1      -6.538   9.350  67.946  1.00  0.00    -0.063 C  
BRANCH   3   4
ATOM      4  CB  MET A   1      -7.867   9.166  68.675  1.00  0.00    -0.097 C  
BRANCH   4   5
ATOM      5  CA  MET A   1      -8.569  10.490  68.998  1.00  0.00    -0.157 C  
ATOM      6  C   MET A   1      -9.307  10.966  67.736  1.00  0.00    -0.157 C  
ATOM      7  N   MET A   1      -7.605  11.555  69.395  1.00  0.00    -0.352 NA 
ATOM      8  O   MET A   1      -8.564  11.869  67.042  1.00  0.00    -0.164 OA 
ATOM      9  OXT MET A   1     -10.407  10.578  67.377  1.00  0.00    -0.199 OA 
ATOM     10  H1  MET A   1      -8.072  12.436  69.611  1.00  0.00     0.000 HD 
ATOM     11  H2  MET A   1      -6.884  11.683  68.685  1.00  0.00     0.000 HD 
ENDBRANCH   4   5
ENDBRANCH   3   4
ENDBRANCH   2   3
TORSDOF 3
ENDMDL
MODEL      262
REMARK 921   NORMALIZED FREE ENERGY PREDICTED BY IDOCK:   -0.98 KCAL/MOL
REMARK 922        TOTAL FREE ENERGY PREDICTED BY IDOCK:   -1.32 KCAL/MOL
REMARK 923 INTER-LIGAND FREE ENERGY PREDICTED BY IDOCK:   -1.15 KCAL/MOL
REMARK 924 INTRA-LIGAND FREE ENERGY PREDICTED BY IDOCK:   -0.18 KCAL/MOL
REMARK 927      BINDING AFFINITY PREDICTED BY RF-SCORE:    0.00 PKD
ROOT
ATOM      1  CE  MET A   1      -7.118   6.924  67.760  1.00  0.00    -0.085 C  
ATOM      2  SD  MET A   1      -8.584   7.394  68.708  1.00  0.00    -0.128 SA 
ENDROOT
BRANCH   2   3
ATOM      3  CG  MET A   1      -8.659   5.965  69.836  1.00  0.00    -0.129 C  
BRANCH   3   4
ATOM      4  CB  MET A   1      -8.939   6.443  71.259  1.00  0.00    -0.142 C  
BRANCH   4   5
ATOM      5  CA  MET A   1      -8.289   7.792  71.583  1.00  0.00    -0.110 C  
ATOM      6  C   MET A   1      -6.969   7.525  72.328  1.00  0.00    -0.064 C  
ATOM      7  N   MET A   1      -9.149   8.634  72.462  1.00  0.00    -0.367 NA 
ATOM      8  O   MET A   1      -7.137   7.616  73.674  1.00  0.00    -0.084 OA 
ATOM      9  OXT MET A   1      -5.907   7.246  71.796  1.00  0.00    -0.037 OA 
ATOM     10  H1  MET A   1      -8.716   9.532  72.677  1.00  0.00     0.000 HD 
ATOM     11  H2  MET A   1      -9.408   8.135  73.313  1.00  0.00     0.000 HD 
ENDBRANCH   4   5
ENDBRANCH   3   4
ENDBRANCH   2   3
TORSDOF 3
ENDMDL
MODEL      263
REMARK 921   NORMALIZED FREE ENERGY PREDICTED BY IDOCK:   -0.97 KCAL/MOL
REMARK 922        TOTAL FREE ENERGY PREDICTED BY IDOCK:   -1.31 KCAL/MOL
REMARK 923 INTER-LIGAND FREE ENERGY PREDICTED BY IDOCK:   -1.62 KCAL/MOL
REMARK 924 INTRA-LIGAND FREE ENERGY PREDICTED BY IDOCK:    0.31 KCAL/MOL
REMARK 927      BINDING AFFINITY PREDICTED BY RF-SCORE:    0.00 PKD
ROOT
ATOM      1  CE  MET A   1      -6.411   6.843  72.326  1.00  0.00    -0.057 C  
ATOM      2  SD  MET A   1      -7.909   7.662  71.727  1.00  0.00    -0.091 SA 
ENDROOT
BRANCH   2   3
ATOM      3  CG  MET A   1      -8.379   6.472  70.430  1.00  0.00    -0.127 C  
BRANCH   3   4
ATOM      4  CB  MET A   1      -9.602   6.987  69.674  1.00  0.00    -0.150 C  
BRANCH   4   5
ATOM      5  CA  MET A   1     -10.522   5.867  69.176  1.00  0.00    -0.270 C  
ATOM      6  C   MET A   1      -9.644   4.713  68.665  1.00  0.00    -0.162 C  
ATOM      7  N   MET A   1     -11.394   6.313  68.052  1.00  0.00    -0.532 NA 
ATOM      8  O   MET A   1      -9.483   4.777  67.316  1.00  0.00    -0.129 OA 
ATOM      9  OXT MET A   1      -9.134   3.854  69.366  1.00  0.00    -0.104 OA 
ATOM     10  H1  MET A   1     -12.006   5.568  67.721  1.00  0.00     0.000 HD 
ATOM     11  H2  MET A   1     -10.841   6.704  67.289  1.00  0.00     0.000 HD 
ENDBRANCH   4   5
ENDBRANCH   3   4
ENDBRANCH   2   3
TORSDOF 3
ENDMDL
MODEL      264
REMARK 921   NORMALIZED FREE ENERGY PREDICTED BY IDOCK:   -0.96 KCAL/MOL
REMARK 922        TOTAL FREE ENERGY PREDICTED BY IDOCK:   -1.29 KCAL/MOL
REMARK 923 INTER-LIGAND FREE ENERGY PREDICTED BY IDOCK:   -1.18 KCAL/MOL
REMARK 924 INTRA-LIGAND FREE ENERGY PREDICTED BY IDOCK:   -0.11 KCAL/MOL
REMARK 927      BINDING AFFINITY PREDICTED BY RF-SCORE:    0.00 PKD
ROOT
ATOM      1  CE  MET A   1      -6.222  11.284  66.672  1.00  0.00    -0.141 C  
ATOM      2  SD  MET A   1      -6.169   9.479  66.573  1.00  0.00    -0.066 SA 
ENDROOT
BRANCH   2   3
ATOM      3  CG  MET A   1      -7.800   9.111  67.297  1.00  0.00    -0.099 C  
BRANCH   3   4
ATOM      4  CB  MET A   1      -8.105   7.622  67.155  1.00  0.00    -0.118 C  
BRANCH   4   5
ATOM      5  CA  MET A   1      -9.101   7.313  66.032  1.00  0.00    -0.075 C  
ATOM      6  C   MET A   1      -8.465   6.271  65.096  1.00  0.00    -0.084 C  
ATOM      7  N   MET A   1      -9.427   8.520  65.220  1.00  0.00    -0.364 NA 
ATOM      8  O   MET A   1      -7.887   6.865  64.019  1.00  0.00    -0.109 OA 
ATOM      9  OXT MET A   1      -8.453   5.066  65.290  1.00  0.00    -0.128 OA 
ATOM     10  H1  MET A   1     -10.090   8.314  64.473  1.00  0.00     0.000 HD 
ATOM     11  H2  MET A   1      -8.581   8.957  64.854  1.00  0.00     0.000 HD 
ENDBRANCH   4   5
ENDBRANCH   3   4
ENDBRANCH   2   3
TORSDOF 3
ENDMDL
MODEL      265
REMARK 921   NORMALIZED FREE ENERGY PREDICTED BY IDOCK:   -0.95 KCAL/MOL
REMARK 922        TOTAL FREE ENERGY PREDICTED BY IDOCK:   -1.29 KCAL/MOL
REMARK 923 INTER-LIGAND FREE ENERGY PREDICTED BY IDOCK:   -1.25 KCAL/MOL
REMARK 924 INTRA-LIGAND FREE ENERGY PREDICTED BY IDOCK:   -0.04 KCAL/MOL
REMARK 927      BINDING AFFINITY PREDICTED BY RF-SCORE:    0.00 PKD
ROOT
ATOM      1  CE  MET A   1      -8.869   6.633  66.896  1.00  0.00    -0.118 C  
ATOM      2  SD  MET A   1     -10.544   6.083  67.299  1.00  0.00    -0.326 SA 
ENDROOT
BRANCH   2   3
ATOM      3  CG  MET A   1     -10.372   5.967  69.110  1.00  0.00    -0.229 C  
BRANCH   3   4
ATOM      4  CB  MET A   1      -9.025   5.342  69.462  1.00  0.00    -0.128 C  
BRANCH   4   5
ATOM      5  CA  MET A   1      -8.914   4.932  70.935  1.00  0.00    -0.132 C  
ATOM      6  C   MET A   1      -7.458   4.527  71.215  1.00  0.00    -0.067 C  
ATOM      7  N   MET A   1      -9.785   3.768  71.262  1.00  0.00    -0.176 NA 
ATOM      8  O   MET A   1      -7.297   3.179  71.134  1.00  0.00    -0.033 OA 
ATOM      9  OXT MET A   1      -6.547   5.302  71.459  1.00  0.00    -0.037 OA 
ATOM     10  H1  MET A   1      -9.712   3.495  72.242  1.00  0.00     0.000 HD 
ATOM     11  H2  MET A   1      -9.594   2.979  70.643  1.00  0.00     0.000 HD 
ENDBRANCH   4   5
ENDBRANCH   3   4
ENDBRANCH   2   3
TORSDOF 3
ENDMDL
MODEL      266
REMARK 921   NORMALIZED FREE ENERGY PREDICTED BY IDOCK:   -0.94 KCAL/MOL
REMARK 922        TOTAL FREE ENERGY PREDICTED BY IDOCK:   -1.27 KCAL/MOL
REMARK 923 INTER-LIGAND FREE ENERGY PREDICTED BY IDOCK:   -1.20 KCAL/MOL
REMARK 924 INTRA-LIGAND FREE ENERGY PREDICTED BY IDOCK:   -0.07 KCAL/MOL
REMARK 927      BINDING AFFINITY PREDICTED BY RF-SCORE:    0.00 PKD
ROOT
ATOM      1  CE  MET A   1      -8.739   6.171  70.530  1.00  0.00    -0.142 C  
ATOM      2  SD  MET A   1      -7.655   6.989  69.335  1.00  0.00    -0.100 SA 
ENDROOT
BRANCH   2   3
ATOM      3  CG  MET A   1      -8.775   8.329  68.813  1.00  0.00    -0.137 C  
BRANCH   3   4
ATOM      4  CB  MET A   1      -8.807   8.411  67.288  1.00  0.00    -0.137 C  
BRANCH   4   5
ATOM      5  CA  MET A   1      -7.873   9.485  66.720  1.00  0.00    -0.101 C  
ATOM      6  C   MET A   1      -8.671  10.791  66.574  1.00  0.00    -0.151 C  
ATOM      7  N   MET A   1      -7.345   9.117  65.376  1.00  0.00    -0.088 NA 
ATOM      8  O   MET A   1      -9.137  10.944  65.306  1.00  0.00    -0.192 OA 
ATOM      9  OXT MET A   1      -8.887  11.587  67.473  1.00  0.00    -0.149 OA 
ATOM     10  H1  MET A   1      -6.723   9.832  64.998  1.00  0.00     0.000 HD 
ATOM     11  H2  MET A   1      -8.103   8.906  64.727  1.00  0.00     0.000 HD 
ENDBRANCH   4   5
ENDBRANCH   3   4
ENDBRANCH   2   3
TORSDOF 3
ENDMDL
MODEL      267
REMARK 921   NORMALIZED FREE ENERGY PREDICTED BY IDOCK:   -0.90 KCAL/MOL
REMARK 922        TOTAL FREE ENERGY PREDICTED BY IDOCK:   -1.23 KCAL/MOL
REMARK 923 INTER-LIGAND FREE ENERGY PREDICTED BY IDOCK:   -1.08 KCAL/MOL
REMARK 924 INTRA-LIGAND FREE ENERGY PREDICTED BY IDOCK:   -0.14 KCAL/MOL
REMARK 927      BINDING AFFINITY PREDICTED BY RF-SCORE:    0.00 PKD
ROOT
ATOM      1  CE  MET A   1     -11.454  10.715  68.655  1.00  0.00    -0.263 C  
ATOM      2  SD  MET A   1     -10.299   9.523  67.938  1.00  0.00    -0.240 SA 
ENDROOT
BRANCH   2   3
ATOM      3  CG  MET A   1      -8.881  10.635  67.669  1.00  0.00    -0.131 C  
BRANCH   3   4
ATOM      4  CB  MET A   1      -7.697   9.840  67.123  1.00  0.00    -0.095 C  
BRANCH   4   5
ATOM      5  CA  MET A   1      -7.862   8.324  67.279  1.00  0.00    -0.105 C  
ATOM      6  C   MET A   1      -6.974   7.859  68.445  1.00  0.00    -0.075 C  
ATOM      7  N   MET A   1      -7.439   7.584  66.056  1.00  0.00    -0.081 NA 
ATOM      8  O   MET A   1      -5.781   7.386  67.997  1.00  0.00    -0.025 OA 
ATOM      9  OXT MET A   1      -7.277   7.920  69.626  1.00  0.00    -0.067 OA 
ATOM     10  H1  MET A   1      -7.549   6.575  66.160  1.00  0.00     0.000 HD 
ATOM     11  H2  MET A   1      -6.484   7.826  65.790  1.00  0.00     0.000 HD 
ENDBRANCH   4   5
ENDBRANCH   3   4
ENDBRANCH   2   3
TORSDOF 3
ENDMDL
MODEL      268
REMARK 921   NORMALIZED FREE ENERGY PREDICTED BY IDOCK:   -0.88 KCAL/MOL
REMARK 922        TOTAL FREE ENERGY PREDICTED BY IDOCK:   -1.21 KCAL/MOL
REMARK 923 INTER-LIGAND FREE ENERGY PREDICTED BY IDOCK:   -1.10 KCAL/MOL
REMARK 924 INTRA-LIGAND FREE ENERGY PREDICTED BY IDOCK:   -0.11 KCAL/MOL
REMARK 927      BINDING AFFINITY PREDICTED BY RF-SCORE:    0.00 PKD
ROOT
ATOM      1  CE  MET A   1      -9.021   4.338  73.584  1.00  0.00    -0.092 C  
ATOM      2  SD  MET A   1      -8.205   4.561  71.985  1.00  0.00    -0.102 SA 
ENDROOT
BRANCH   2   3
ATOM      3  CG  MET A   1      -9.455   5.613  71.177  1.00  0.00    -0.158 C  
BRANCH   3   4
ATOM      4  CB  MET A   1      -8.824   6.355  70.001  1.00  0.00    -0.143 C  
BRANCH   4   5
ATOM      5  CA  MET A   1      -7.586   7.168  70.392  1.00  0.00    -0.089 C  
ATOM      6  C   MET A   1      -7.941   8.662  70.303  1.00  0.00    -0.106 C  
ATOM      7  N   MET A   1      -6.435   6.915  69.480  1.00  0.00    -0.042 NA 
ATOM      8  O   MET A   1      -7.549   9.191  69.113  1.00  0.00    -0.071 OA 
ATOM      9  OXT MET A   1      -8.519   9.300  71.168  1.00  0.00    -0.294 OA 
ATOM     10  H1  MET A   1      -5.611   7.456  69.741  1.00  0.00     0.000 HD 
ATOM     11  H2  MET A   1      -6.693   7.080  68.506  1.00  0.00     0.000 HD 
ENDBRANCH   4   5
ENDBRANCH   3   4
ENDBRANCH   2   3
TORSDOF 3
ENDMDL
MODEL      269
REMARK 921   NORMALIZED FREE ENERGY PREDICTED BY IDOCK:   -0.86 KCAL/MOL
REMARK 922        TOTAL FREE ENERGY PREDICTED BY IDOCK:   -1.18 KCAL/MOL
REMARK 923 INTER-LIGAND FREE ENERGY PREDICTED BY IDOCK:   -1.02 KCAL/MOL
REMARK 924 INTRA-LIGAND FREE ENERGY PREDICTED BY IDOCK:   -0.16 KCAL/MOL
REMARK 927      BINDING AFFINITY PREDICTED BY RF-SCORE:    0.00 PKD
ROOT
ATOM      1  CE  MET A   1      -8.164   6.609  71.078  1.00  0.00    -0.120 C  
ATOM      2  SD  MET A   1      -7.485   7.525  69.674  1.00  0.00    -0.094 SA 
ENDROOT
BRANCH   2   3
ATOM      3  CG  MET A   1      -8.929   8.570  69.297  1.00  0.00    -0.146 C  
BRANCH   3   4
ATOM      4  CB  MET A   1      -9.258   8.480  67.808  1.00  0.00    -0.146 C  
BRANCH   4   5
ATOM      5  CA  MET A   1      -8.856   9.734  67.023  1.00  0.00    -0.135 C  
ATOM      6  C   MET A   1      -7.509   9.459  66.333  1.00  0.00    -0.093 C  
ATOM      7  N   MET A   1      -8.683  10.921  67.908  1.00  0.00    -0.128 NA 
ATOM      8  O   MET A   1      -6.472   9.945  67.065  1.00  0.00    -0.067 OA 
ATOM      9  OXT MET A   1      -7.370   8.866  65.276  1.00  0.00    -0.086 OA 
ATOM     10  H1  MET A   1      -8.416  11.755  67.385  1.00  0.00     0.000 HD 
ATOM     11  H2  MET A   1      -8.022  10.728  68.660  1.00  0.00     0.000 HD 
ENDBRANCH   4   5
ENDBRANCH   3   4
ENDBRANCH   2   3
TORSDOF 3
ENDMDL
MODEL      270
REMARK 921   NORMALIZED FREE ENERGY PREDICTED BY IDOCK:   -0.83 KCAL/MOL
REMARK 922        TOTAL FREE ENERGY PREDICTED BY IDOCK:   -1.15 KCAL/MOL
REMARK 923 INTER-LIGAND FREE ENERGY PREDICTED BY IDOCK:   -1.03 KCAL/MOL
REMARK 924 INTRA-LIGAND FREE ENERGY PREDICTED BY IDOCK:   -0.12 KCAL/MOL
REMARK 927      BINDING AFFINITY PREDICTED BY RF-SCORE:    0.00 PKD
ROOT
ATOM      1  CE  MET A   1      -8.753   9.738  64.081  1.00  0.00    -0.213 C  
ATOM      2  SD  MET A   1      -8.125   8.067  64.372  1.00  0.00    -0.084 SA 
ENDROOT
BRANCH   2   3
ATOM      3  CG  MET A   1      -8.091   8.095  66.194  1.00  0.00    -0.109 C  
BRANCH   3   4
ATOM      4  CB  MET A   1      -8.401   6.703  66.739  1.00  0.00    -0.115 C  
BRANCH   4   5
ATOM      5  CA  MET A   1      -7.720   5.579  65.951  1.00  0.00    -0.091 C  
ATOM      6  C   MET A   1      -8.705   4.403  65.837  1.00  0.00    -0.118 C  
ATOM      7  N   MET A   1      -6.490   5.082  66.629  1.00  0.00    -0.040 NA 
ATOM      8  O   MET A   1      -8.472   3.471  66.798  1.00  0.00    -0.102 OA 
ATOM      9  OXT MET A   1      -9.600   4.314  65.012  1.00  0.00    -0.161 OA 
ATOM     10  H1  MET A   1      -6.036   4.334  66.104  1.00  0.00     0.000 HD 
ATOM     11  H2  MET A   1      -6.687   4.793  67.588  1.00  0.00     0.000 HD 
ENDBRANCH   4   5
ENDBRANCH   3   4
ENDBRANCH   2   3
TORSDOF 3
ENDMDL
MODEL      271
REMARK 921   NORMALIZED FREE ENERGY PREDICTED BY IDOCK:   -0.83 KCAL/MOL
REMARK 922        TOTAL FREE ENERGY PREDICTED BY IDOCK:   -1.14 KCAL/MOL
REMARK 923 INTER-LIGAND FREE ENERGY PREDICTED BY IDOCK:   -1.03 KCAL/MOL
REMARK 924 INTRA-LIGAND FREE ENERGY PREDICTED BY IDOCK:   -0.11 KCAL/MOL
REMARK 927      BINDING AFFINITY PREDICTED BY RF-SCORE:    0.00 PKD
ROOT
ATOM      1  CE  MET A   1      -9.096  10.934  66.054  1.00  0.00    -0.191 C  
ATOM      2  SD  MET A   1      -8.088   9.990  64.886  1.00  0.00    -0.158 SA 
ENDROOT
BRANCH   2   3
ATOM      3  CG  MET A   1      -7.113   9.018  66.080  1.00  0.00    -0.086 C  
BRANCH   3   4
ATOM      4  CB  MET A   1      -7.886   7.763  66.478  1.00  0.00    -0.101 C  
BRANCH   4   5
ATOM      5  CA  MET A   1      -8.019   7.589  67.995  1.00  0.00    -0.123 C  
ATOM      6  C   MET A   1      -7.608   6.151  68.354  1.00  0.00    -0.092 C  
ATOM      7  N   MET A   1      -9.418   7.797  68.464  1.00  0.00    -0.147 NA 
ATOM      8  O   MET A   1      -8.694   5.341  68.463  1.00  0.00    -0.098 OA 
ATOM      9  OXT MET A   1      -6.460   5.765  68.504  1.00  0.00    -0.039 OA 
ATOM     10  H1  MET A   1      -9.506   7.682  69.474  1.00  0.00     0.000 HD 
ATOM     11  H2  MET A   1     -10.069   7.191  67.965  1.00  0.00     0.000 HD 
ENDBRANCH   4   5
ENDBRANCH   3   4
ENDBRANCH   2   3
TORSDOF 3
ENDMDL
MODEL      272
REMARK 921   NORMALIZED FREE ENERGY PREDICTED BY IDOCK:   -0.83 KCAL/MOL
REMARK 922        TOTAL FREE ENERGY PREDICTED BY IDOCK:   -1.14 KCAL/MOL
REMARK 923 INTER-LIGAND FREE ENERGY PREDICTED BY IDOCK:   -0.95 KCAL/MOL
REMARK 924 INTRA-LIGAND FREE ENERGY PREDICTED BY IDOCK:   -0.19 KCAL/MOL
REMARK 927      BINDING AFFINITY PREDICTED BY RF-SCORE:    0.00 PKD
ROOT
ATOM      1  CE  MET A   1      -9.127   5.969  66.451  1.00  0.00    -0.150 C  
ATOM      2  SD  MET A   1     -10.403   4.784  65.963  1.00  0.00    -0.260 SA 
ENDROOT
BRANCH   2   3
ATOM      3  CG  MET A   1      -9.336   3.345  65.628  1.00  0.00    -0.147 C  
BRANCH   3   4
ATOM      4  CB  MET A   1      -8.913   2.697  66.944  1.00  0.00    -0.164 C  
BRANCH   4   5
ATOM      5  CA  MET A   1      -7.393   2.574  67.097  1.00  0.00    -0.057 C  
ATOM      6  C   MET A   1      -7.003   3.107  68.486  1.00  0.00    -0.049 C  
ATOM      7  N   MET A   1      -6.659   3.373  66.076  1.00  0.00    -0.039 NA 
ATOM      8  O   MET A   1      -6.596   4.402  68.419  1.00  0.00    -0.043 OA 
ATOM      9  OXT MET A   1      -7.066   2.472  69.526  1.00  0.00    -0.042 OA 
ATOM     10  H1  MET A   1      -5.647   3.291  66.178  1.00  0.00     0.000 HD 
ATOM     11  H2  MET A   1      -6.953   4.350  66.090  1.00  0.00     0.000 HD 
ENDBRANCH   4   5
ENDBRANCH   3   4
ENDBRANCH   2   3
TORSDOF 3
ENDMDL
MODEL      273
REMARK 921   NORMALIZED FREE ENERGY PREDICTED BY IDOCK:   -0.82 KCAL/MOL
REMARK 922        TOTAL FREE ENERGY PREDICTED BY IDOCK:   -1.14 KCAL/MOL
REMARK 923 INTER-LIGAND FREE ENERGY PREDICTED BY IDOCK:   -1.67 KCAL/MOL
REMARK 924 INTRA-LIGAND FREE ENERGY PREDICTED BY IDOCK:    0.53 KCAL/MOL
REMARK 927      BINDING AFFINITY PREDICTED BY RF-SCORE:    0.00 PKD
ROOT
ATOM      1  CE  MET A   1      -7.725  11.205  66.753  1.00  0.00    -0.153 C  
ATOM      2  SD  MET A   1      -9.225  10.398  67.362  1.00  0.00    -0.141 SA 
ENDROOT
BRANCH   2   3
ATOM      3  CG  MET A   1      -9.297  11.154  69.018  1.00  0.00    -0.049 C  
BRANCH   3   4
ATOM      4  CB  MET A   1     -10.327  12.281  69.027  1.00  0.00     0.008 C  
BRANCH   4   5
ATOM      5  CA  MET A   1     -11.773  11.779  69.119  1.00  0.00    -0.325 C  
ATOM      6  C   MET A   1     -11.891  10.872  70.355  1.00  0.00    -0.357 C  
ATOM      7  N   MET A   1     -12.168  10.981  67.924  1.00  0.00    -0.433 NA 
ATOM      8  O   MET A   1     -11.769   9.561  70.016  1.00  0.00    -0.137 OA 
ATOM      9  OXT MET A   1     -12.052  11.261  71.500  1.00  0.00    -0.086 OA 
ATOM     10  H1  MET A   1     -13.130  10.647  67.985  1.00  0.00     0.000 HD 
ATOM     11  H2  MET A   1     -11.519  10.210  67.764  1.00  0.00     0.000 HD 
ENDBRANCH   4   5
ENDBRANCH   3   4
ENDBRANCH   2   3
TORSDOF 3
ENDMDL
MODEL      274
REMARK 921   NORMALIZED FREE ENERGY PREDICTED BY IDOCK:   -0.79 KCAL/MOL
REMARK 922        TOTAL FREE ENERGY PREDICTED BY IDOCK:   -1.10 KCAL/MOL
REMARK 923 INTER-LIGAND FREE ENERGY PREDICTED BY IDOCK:   -1.03 KCAL/MOL
REMARK 924 INTRA-LIGAND FREE ENERGY PREDICTED BY IDOCK:   -0.07 KCAL/MOL
REMARK 927      BINDING AFFINITY PREDICTED BY RF-SCORE:    0.00 PKD
ROOT
ATOM      1  CE  MET A   1      -5.514   3.446  72.614  1.00  0.00     0.000 C  
ATOM      2  SD  MET A   1      -7.282   3.344  72.246  1.00  0.00    -0.052 SA 
ENDROOT
BRANCH   2   3
ATOM      3  CG  MET A   1      -7.561   5.069  71.728  1.00  0.00    -0.104 C  
BRANCH   3   4
ATOM      4  CB  MET A   1      -8.809   5.150  70.852  1.00  0.00    -0.154 C  
BRANCH   4   5
ATOM      5  CA  MET A   1      -8.521   5.652  69.433  1.00  0.00    -0.106 C  
ATOM      6  C   MET A   1      -9.787   5.452  68.584  1.00  0.00    -0.148 C  
ATOM      7  N   MET A   1      -7.410   4.899  68.784  1.00  0.00    -0.061 NA 
ATOM      8  O   MET A   1      -9.725   4.297  67.870  1.00  0.00    -0.161 OA 
ATOM      9  OXT MET A   1     -10.743   6.211  68.558  1.00  0.00    -0.239 OA 
ATOM     10  H1  MET A   1      -7.218   5.234  67.840  1.00  0.00     0.000 HD 
ATOM     11  H2  MET A   1      -7.592   3.895  68.791  1.00  0.00     0.000 HD 
ENDBRANCH   4   5
ENDBRANCH   3   4
ENDBRANCH   2   3
TORSDOF 3
ENDMDL
MODEL      275
REMARK 921   NORMALIZED FREE ENERGY PREDICTED BY IDOCK:   -0.60 KCAL/MOL
REMARK 922        TOTAL FREE ENERGY PREDICTED BY IDOCK:   -0.87 KCAL/MOL
REMARK 923 INTER-LIGAND FREE ENERGY PREDICTED BY IDOCK:   -0.84 KCAL/MOL
REMARK 924 INTRA-LIGAND FREE ENERGY PREDICTED BY IDOCK:   -0.04 KCAL/MOL
REMARK 927      BINDING AFFINITY PREDICTED BY RF-SCORE:    0.00 PKD
ROOT
ATOM      1  CE  MET A   1      -6.514   6.423  68.081  1.00  0.00    -0.053 C  
ATOM      2  SD  MET A   1      -7.393   7.759  68.926  1.00  0.00    -0.088 SA 
ENDROOT
BRANCH   2   3
ATOM      3  CG  MET A   1      -6.934   7.354  70.643  1.00  0.00    -0.052 C  
BRANCH   3   4
ATOM      4  CB  MET A   1      -7.924   6.344  71.218  1.00  0.00    -0.112 C  
BRANCH   4   5
ATOM      5  CA  MET A   1      -7.710   6.070  72.711  1.00  0.00    -0.102 C  
ATOM      6  C   MET A   1      -8.507   4.810  73.090  1.00  0.00    -0.103 C  
ATOM      7  N   MET A   1      -8.195   7.192  73.564  1.00  0.00    -0.110 NA 
ATOM      8  O   MET A   1      -9.715   5.134  73.624  1.00  0.00    -0.138 OA 
ATOM      9  OXT MET A   1      -8.129   3.663  72.920  1.00  0.00    -0.076 OA 
ATOM     10  H1  MET A   1      -8.052   7.010  74.557  1.00  0.00     0.000 HD 
ATOM     11  H2  MET A   1      -9.171   7.413  73.365  1.00  0.00     0.000 HD 
ENDBRANCH   4   5
ENDBRANCH   3   4
ENDBRANCH   2   3
TORSDOF 3
ENDMDL
