MODEL        1
REMARK 921   NORMALIZED FREE ENERGY PREDICTED BY IDOCK:   -4.67 KCAL/MOL
REMARK 922        TOTAL FREE ENERGY PREDICTED BY IDOCK:   -4.95 KCAL/MOL
REMARK 923 INTER-LIGAND FREE ENERGY PREDICTED BY IDOCK:   -4.95 KCAL/MOL
REMARK 924 INTRA-LIGAND FREE ENERGY PREDICTED BY IDOCK:   -0.01 KCAL/MOL
REMARK 927      BINDING AFFINITY PREDICTED BY RF-SCORE:    0.00 PKD
ROOT
HETATM    1  N   UNL     1     -12.213  13.786  63.209  1.00  0.00    -1.096 NA 
HETATM    2  H1  UNL     1     -12.939  13.081  63.081  1.00  0.00     0.000 HD 
HETATM    3  CA  UNL     1     -12.377  14.512  64.512  1.00  0.00    -0.414 C  
HETATM    4  H2  UNL     1     -11.281  13.383  63.121  1.00  0.00     0.000 HD 
HETATM    5  C   UNL     1     -12.375  13.460  65.638  1.00  0.00    -0.470 C  
HETATM    6  O   UNL     1     -12.641  12.221  65.137  1.00  0.00    -0.585 OA 
HETATM    7  O   UNL     1     -12.213  13.674  66.828  1.00  0.00    -0.406 OA 
ENDROOT
BRANCH   3   8
HETATM    8  C   UNL     1     -11.285  15.573  64.705  1.00  0.00    -0.371 C  
HETATM    9  O   UNL     1     -11.419  16.694  63.838  1.00  0.00    -1.604 OA 
HETATM   10  H   UNL     1     -10.743  17.350  63.957  1.00  0.00     0.000 HD 
ENDBRANCH   3   8
TORSDOF 1
ENDMDL
MODEL        2
REMARK 921   NORMALIZED FREE ENERGY PREDICTED BY IDOCK:   -4.56 KCAL/MOL
REMARK 922        TOTAL FREE ENERGY PREDICTED BY IDOCK:   -4.83 KCAL/MOL
REMARK 923 INTER-LIGAND FREE ENERGY PREDICTED BY IDOCK:   -4.67 KCAL/MOL
REMARK 924 INTRA-LIGAND FREE ENERGY PREDICTED BY IDOCK:   -0.16 KCAL/MOL
REMARK 927      BINDING AFFINITY PREDICTED BY RF-SCORE:    0.00 PKD
ROOT
HETATM    1  N   UNL     1      -9.745  13.488  65.428  1.00  0.00    -0.530 NA 
HETATM    2  H1  UNL     1      -9.771  12.473  65.325  1.00  0.00     0.000 HD 
HETATM    3  CA  UNL     1     -10.929  14.136  64.772  1.00  0.00    -0.400 C  
HETATM    4  H2  UNL     1      -9.665  13.761  66.407  1.00  0.00     0.000 HD 
HETATM    5  C   UNL     1     -12.201  13.517  65.383  1.00  0.00    -0.447 C  
HETATM    6  O   UNL     1     -11.913  12.332  65.993  1.00  0.00    -0.570 OA 
HETATM    7  O   UNL     1     -13.332  13.967  65.309  1.00  0.00    -0.741 OA 
ENDROOT
BRANCH   3   8
HETATM    8  C   UNL     1     -10.891  15.662  64.927  1.00  0.00    -0.418 C  
HETATM    9  O   UNL     1     -11.655  16.355  63.947  1.00  0.00    -1.564 OA 
HETATM   10  H   UNL     1     -11.631  17.300  64.043  1.00  0.00     0.000 HD 
ENDBRANCH   3   8
TORSDOF 1
ENDMDL
MODEL        3
REMARK 921   NORMALIZED FREE ENERGY PREDICTED BY IDOCK:   -4.49 KCAL/MOL
REMARK 922        TOTAL FREE ENERGY PREDICTED BY IDOCK:   -4.75 KCAL/MOL
REMARK 923 INTER-LIGAND FREE ENERGY PREDICTED BY IDOCK:   -4.55 KCAL/MOL
REMARK 924 INTRA-LIGAND FREE ENERGY PREDICTED BY IDOCK:   -0.21 KCAL/MOL
REMARK 927      BINDING AFFINITY PREDICTED BY RF-SCORE:    0.00 PKD
ROOT
HETATM    1  N   UNL     1     -12.329  14.455  63.340  1.00  0.00    -1.088 NA 
HETATM    2  H1  UNL     1     -12.655  15.249  63.891  1.00  0.00     0.000 HD 
HETATM    3  CA  UNL     1     -11.513  13.508  64.171  1.00  0.00    -0.360 C  
HETATM    4  H2  UNL     1     -13.103  13.976  62.880  1.00  0.00     0.000 HD 
HETATM    5  C   UNL     1     -12.379  13.072  65.370  1.00  0.00    -0.486 C  
HETATM    6  O   UNL     1     -13.410  13.942  65.558  1.00  0.00    -0.662 OA 
HETATM    7  O   UNL     1     -12.173  12.119  66.102  1.00  0.00    -0.611 OA 
ENDROOT
BRANCH   3   8
HETATM    8  C   UNL     1     -11.023  12.313  63.342  1.00  0.00    -0.405 C  
HETATM    9  O   UNL     1     -12.038  11.356  63.065  1.00  0.00    -0.934 OA 
HETATM   10  H   UNL     1     -11.734  10.616  62.552  1.00  0.00     0.000 HD 
ENDBRANCH   3   8
TORSDOF 1
ENDMDL
MODEL        4
REMARK 921   NORMALIZED FREE ENERGY PREDICTED BY IDOCK:   -4.39 KCAL/MOL
REMARK 922        TOTAL FREE ENERGY PREDICTED BY IDOCK:   -4.66 KCAL/MOL
REMARK 923 INTER-LIGAND FREE ENERGY PREDICTED BY IDOCK:   -4.45 KCAL/MOL
REMARK 924 INTRA-LIGAND FREE ENERGY PREDICTED BY IDOCK:   -0.21 KCAL/MOL
REMARK 927      BINDING AFFINITY PREDICTED BY RF-SCORE:    0.00 PKD
ROOT
HETATM    1  N   UNL     1     -12.377  14.459  63.341  1.00  0.00    -1.088 NA 
HETATM    2  H1  UNL     1     -13.323  14.173  63.087  1.00  0.00     0.000 HD 
HETATM    3  CA  UNL     1     -12.137  14.312  64.815  1.00  0.00    -0.446 C  
HETATM    4  H2  UNL     1     -11.677  13.957  62.796  1.00  0.00     0.000 HD 
HETATM    5  C   UNL     1     -12.427  12.846  65.193  1.00  0.00    -0.501 C  
HETATM    6  O   UNL     1     -13.183  12.243  64.233  1.00  0.00    -0.785 OA 
HETATM    7  O   UNL     1     -12.088  12.284  66.221  1.00  0.00    -0.626 OA 
ENDROOT
BRANCH   3   8
HETATM    8  C   UNL     1     -10.714  14.742  65.197  1.00  0.00    -0.415 C  
HETATM    9  O   UNL     1      -9.716  13.795  64.836  1.00  0.00    -0.589 OA 
HETATM   10  H   UNL     1      -8.835  14.062  65.073  1.00  0.00     0.000 HD 
ENDBRANCH   3   8
TORSDOF 1
ENDMDL
MODEL        5
REMARK 921   NORMALIZED FREE ENERGY PREDICTED BY IDOCK:   -4.31 KCAL/MOL
REMARK 922        TOTAL FREE ENERGY PREDICTED BY IDOCK:   -4.56 KCAL/MOL
REMARK 923 INTER-LIGAND FREE ENERGY PREDICTED BY IDOCK:   -4.54 KCAL/MOL
REMARK 924 INTRA-LIGAND FREE ENERGY PREDICTED BY IDOCK:   -0.02 KCAL/MOL
REMARK 927      BINDING AFFINITY PREDICTED BY RF-SCORE:    0.00 PKD
ROOT
HETATM    1  N   UNL     1     -11.502  13.945  66.563  1.00  0.00    -0.334 NA 
HETATM    2  H1  UNL     1     -11.633  12.947  66.726  1.00  0.00     0.000 HD 
HETATM    3  CA  UNL     1     -11.177  14.229  65.125  1.00  0.00    -0.345 C  
HETATM    4  H2  UNL     1     -12.310  14.483  66.877  1.00  0.00     0.000 HD 
HETATM    5  C   UNL     1     -12.311  13.639  64.264  1.00  0.00    -0.335 C  
HETATM    6  O   UNL     1     -13.019  12.714  64.971  1.00  0.00    -0.812 OA 
HETATM    7  O   UNL     1     -12.542  13.899  63.096  1.00  0.00    -0.775 OA 
ENDROOT
BRANCH   3   8
HETATM    8  C   UNL     1     -10.981  15.731  64.880  1.00  0.00    -0.427 C  
HETATM    9  O   UNL     1     -11.773  16.244  63.815  1.00  0.00    -1.511 OA 
HETATM   10  H   UNL     1     -11.651  17.173  63.663  1.00  0.00     0.000 HD 
ENDBRANCH   3   8
TORSDOF 1
ENDMDL
MODEL        6
REMARK 921   NORMALIZED FREE ENERGY PREDICTED BY IDOCK:   -4.29 KCAL/MOL
REMARK 922        TOTAL FREE ENERGY PREDICTED BY IDOCK:   -4.55 KCAL/MOL
REMARK 923 INTER-LIGAND FREE ENERGY PREDICTED BY IDOCK:   -4.38 KCAL/MOL
REMARK 924 INTRA-LIGAND FREE ENERGY PREDICTED BY IDOCK:   -0.17 KCAL/MOL
REMARK 927      BINDING AFFINITY PREDICTED BY RF-SCORE:    0.00 PKD
ROOT
HETATM    1  N   UNL     1     -12.388  14.204  63.398  1.00  0.00    -1.144 NA 
HETATM    2  H1  UNL     1     -12.009  14.734  62.613  1.00  0.00     0.000 HD 
HETATM    3  CA  UNL     1     -11.468  14.247  64.584  1.00  0.00    -0.385 C  
HETATM    4  H2  UNL     1     -13.327  14.519  63.643  1.00  0.00     0.000 HD 
HETATM    5  C   UNL     1     -11.228  15.728  64.937  1.00  0.00    -0.350 C  
HETATM    6  O   UNL     1     -11.549  16.531  63.884  1.00  0.00    -1.175 OA 
HETATM    7  O   UNL     1     -10.770  16.156  65.983  1.00  0.00    -0.308 OA 
ENDROOT
BRANCH   3   8
HETATM    8  C   UNL     1     -12.037  13.450  65.765  1.00  0.00    -0.436 C  
HETATM    9  O   UNL     1     -12.452  14.265  66.855  1.00  0.00    -0.581 OA 
HETATM   10  H   UNL     1     -12.804  13.771  67.587  1.00  0.00     0.000 HD 
ENDBRANCH   3   8
TORSDOF 1
ENDMDL
MODEL        7
REMARK 921   NORMALIZED FREE ENERGY PREDICTED BY IDOCK:   -4.16 KCAL/MOL
REMARK 922        TOTAL FREE ENERGY PREDICTED BY IDOCK:   -4.41 KCAL/MOL
REMARK 923 INTER-LIGAND FREE ENERGY PREDICTED BY IDOCK:   -4.18 KCAL/MOL
REMARK 924 INTRA-LIGAND FREE ENERGY PREDICTED BY IDOCK:   -0.23 KCAL/MOL
REMARK 927      BINDING AFFINITY PREDICTED BY RF-SCORE:    0.00 PKD
ROOT
HETATM    1  N   UNL     1     -10.024  13.460  64.202  1.00  0.00    -0.757 NA 
HETATM    2  H1  UNL     1     -10.438  14.361  64.441  1.00  0.00     0.000 HD 
HETATM    3  CA  UNL     1     -10.997  12.336  64.415  1.00  0.00    -0.329 C  
HETATM    4  H2  UNL     1      -9.654  13.459  63.252  1.00  0.00     0.000 HD 
HETATM    5  C   UNL     1     -12.256  12.642  63.580  1.00  0.00    -0.547 C  
HETATM    6  O   UNL     1     -12.302  13.963  63.249  1.00  0.00    -0.749 OA 
HETATM    7  O   UNL     1     -13.134  11.851  63.280  1.00  0.00    -0.674 OA 
ENDROOT
BRANCH   3   8
HETATM    8  C   UNL     1     -10.375  10.980  64.056  1.00  0.00    -0.371 C  
HETATM    9  O   UNL     1     -10.365  10.708  62.660  1.00  0.00    -0.752 OA 
HETATM   10  H   UNL     1      -9.980   9.869  62.438  1.00  0.00     0.000 HD 
ENDBRANCH   3   8
TORSDOF 1
ENDMDL
MODEL        8
REMARK 921   NORMALIZED FREE ENERGY PREDICTED BY IDOCK:   -4.15 KCAL/MOL
REMARK 922        TOTAL FREE ENERGY PREDICTED BY IDOCK:   -4.40 KCAL/MOL
REMARK 923 INTER-LIGAND FREE ENERGY PREDICTED BY IDOCK:   -4.18 KCAL/MOL
REMARK 924 INTRA-LIGAND FREE ENERGY PREDICTED BY IDOCK:   -0.21 KCAL/MOL
REMARK 927      BINDING AFFINITY PREDICTED BY RF-SCORE:    0.00 PKD
ROOT
HETATM    1  N   UNL     1      -9.594  14.101  65.632  1.00  0.00    -0.533 NA 
HETATM    2  H1  UNL     1      -9.377  14.714  66.418  1.00  0.00     0.000 HD 
HETATM    3  CA  UNL     1     -10.969  14.368  65.092  1.00  0.00    -0.373 C  
HETATM    4  H2  UNL     1      -8.886  14.166  64.901  1.00  0.00     0.000 HD 
HETATM    5  C   UNL     1     -11.040  15.859  64.709  1.00  0.00    -0.384 C  
HETATM    6  O   UNL     1     -10.049  16.561  65.326  1.00  0.00    -0.564 OA 
HETATM    7  O   UNL     1     -11.880  16.383  63.997  1.00  0.00    -1.003 OA 
ENDROOT
BRANCH   3   8
HETATM    8  C   UNL     1     -11.296  13.446  63.909  1.00  0.00    -0.260 C  
HETATM    9  O   UNL     1     -12.528  13.755  63.269  1.00  0.00    -1.065 OA 
HETATM   10  H   UNL     1     -12.730  13.184  62.537  1.00  0.00     0.000 HD 
ENDBRANCH   3   8
TORSDOF 1
ENDMDL
MODEL        9
REMARK 921   NORMALIZED FREE ENERGY PREDICTED BY IDOCK:   -4.10 KCAL/MOL
REMARK 922        TOTAL FREE ENERGY PREDICTED BY IDOCK:   -4.35 KCAL/MOL
REMARK 923 INTER-LIGAND FREE ENERGY PREDICTED BY IDOCK:   -4.34 KCAL/MOL
REMARK 924 INTRA-LIGAND FREE ENERGY PREDICTED BY IDOCK:   -0.01 KCAL/MOL
REMARK 927      BINDING AFFINITY PREDICTED BY RF-SCORE:    0.00 PKD
ROOT
HETATM    1  N   UNL     1     -11.525  16.444  63.936  1.00  0.00    -1.618 NA 
HETATM    2  H1  UNL     1     -10.861  17.209  64.058  1.00  0.00     0.000 HD 
HETATM    3  CA  UNL     1     -11.037  15.184  64.591  1.00  0.00    -0.324 C  
HETATM    4  H2  UNL     1     -12.455  16.701  64.266  1.00  0.00     0.000 HD 
HETATM    5  C   UNL     1     -10.774  15.501  66.076  1.00  0.00    -0.326 C  
HETATM    6  O   UNL     1     -10.653  16.844  66.267  1.00  0.00    -0.284 OA 
HETATM    7  O   UNL     1     -10.636  14.688  66.975  1.00  0.00    -0.274 OA 
ENDROOT
BRANCH   3   8
HETATM    8  C   UNL     1     -12.035  14.034  64.408  1.00  0.00    -0.454 C  
HETATM    9  O   UNL     1     -12.628  13.993  63.115  1.00  0.00    -1.062 OA 
HETATM   10  H   UNL     1     -13.247  13.281  63.002  1.00  0.00     0.000 HD 
ENDBRANCH   3   8
TORSDOF 1
ENDMDL
MODEL       10
REMARK 921   NORMALIZED FREE ENERGY PREDICTED BY IDOCK:   -3.96 KCAL/MOL
REMARK 922        TOTAL FREE ENERGY PREDICTED BY IDOCK:   -4.20 KCAL/MOL
REMARK 923 INTER-LIGAND FREE ENERGY PREDICTED BY IDOCK:   -3.96 KCAL/MOL
REMARK 924 INTRA-LIGAND FREE ENERGY PREDICTED BY IDOCK:   -0.24 KCAL/MOL
REMARK 927      BINDING AFFINITY PREDICTED BY RF-SCORE:    0.00 PKD
ROOT
HETATM    1  N   UNL     1     -10.344  16.442  65.210  1.00  0.00    -0.618 NA 
HETATM    2  H1  UNL     1     -11.014  17.210  65.199  1.00  0.00     0.000 HD 
HETATM    3  CA  UNL     1     -11.023  15.124  65.450  1.00  0.00    -0.374 C  
HETATM    4  H2  UNL     1      -9.784  16.423  64.358  1.00  0.00     0.000 HD 
HETATM    5  C   UNL     1     -12.100  14.947  64.362  1.00  0.00    -0.401 C  
HETATM    6  O   UNL     1     -12.404  16.145  63.789  1.00  0.00    -0.864 OA 
HETATM    7  O   UNL     1     -12.661  13.907  64.063  1.00  0.00    -0.689 OA 
ENDROOT
BRANCH   3   8
HETATM    8  C   UNL     1     -10.014  13.968  65.466  1.00  0.00    -0.276 C  
HETATM    9  O   UNL     1      -9.842  13.344  64.199  1.00  0.00    -0.735 OA 
HETATM   10  H   UNL     1      -9.218  12.627  64.209  1.00  0.00     0.000 HD 
ENDBRANCH   3   8
TORSDOF 1
ENDMDL
MODEL       11
REMARK 921   NORMALIZED FREE ENERGY PREDICTED BY IDOCK:   -3.93 KCAL/MOL
REMARK 922        TOTAL FREE ENERGY PREDICTED BY IDOCK:   -4.16 KCAL/MOL
REMARK 923 INTER-LIGAND FREE ENERGY PREDICTED BY IDOCK:   -3.94 KCAL/MOL
REMARK 924 INTRA-LIGAND FREE ENERGY PREDICTED BY IDOCK:   -0.23 KCAL/MOL
REMARK 927      BINDING AFFINITY PREDICTED BY RF-SCORE:    0.00 PKD
ROOT
HETATM    1  N   UNL     1     -10.002  13.255  65.032  1.00  0.00    -0.546 NA 
HETATM    2  H1  UNL     1      -9.755  13.314  66.020  1.00  0.00     0.000 HD 
HETATM    3  CA  UNL     1     -11.429  12.827  64.848  1.00  0.00    -0.320 C  
HETATM    4  H2  UNL     1      -9.809  14.131  64.547  1.00  0.00     0.000 HD 
HETATM    5  C   UNL     1     -12.320  13.823  65.616  1.00  0.00    -0.482 C  
HETATM    6  O   UNL     1     -11.588  14.510  66.537  1.00  0.00    -0.360 OA 
HETATM    7  O   UNL     1     -13.523  13.968  65.483  1.00  0.00    -0.677 OA 
ENDROOT
BRANCH   3   8
HETATM    8  C   UNL     1     -11.801  12.738  63.362  1.00  0.00    -0.518 C  
HETATM    9  O   UNL     1     -12.512  13.874  62.883  1.00  0.00    -1.034 OA 
HETATM   10  H   UNL     1     -12.742  13.819  61.963  1.00  0.00     0.000 HD 
ENDBRANCH   3   8
TORSDOF 1
ENDMDL
MODEL       12
REMARK 921   NORMALIZED FREE ENERGY PREDICTED BY IDOCK:   -3.89 KCAL/MOL
REMARK 922        TOTAL FREE ENERGY PREDICTED BY IDOCK:   -4.12 KCAL/MOL
REMARK 923 INTER-LIGAND FREE ENERGY PREDICTED BY IDOCK:   -3.90 KCAL/MOL
REMARK 924 INTRA-LIGAND FREE ENERGY PREDICTED BY IDOCK:   -0.22 KCAL/MOL
REMARK 927      BINDING AFFINITY PREDICTED BY RF-SCORE:    0.00 PKD
ROOT
HETATM    1  N   UNL     1     -11.164  14.989  71.191  1.00  0.00    -0.529 NA 
HETATM    2  H1  UNL     1     -11.287  14.555  70.277  1.00  0.00     0.000 HD 
HETATM    3  CA  UNL     1     -12.480  15.194  71.883  1.00  0.00    -0.348 C  
HETATM    4  H2  UNL     1     -10.515  14.459  71.772  1.00  0.00     0.000 HD 
HETATM    5  C   UNL     1     -13.178  13.823  71.975  1.00  0.00    -0.432 C  
HETATM    6  O   UNL     1     -12.638  12.948  71.082  1.00  0.00    -0.370 OA 
HETATM    7  O   UNL     1     -14.119  13.538  72.697  1.00  0.00    -0.762 OA 
ENDROOT
BRANCH   3   8
HETATM    8  C   UNL     1     -12.295  15.847  73.259  1.00  0.00    -0.523 C  
HETATM    9  O   UNL     1     -13.518  16.228  73.879  1.00  0.00    -0.934 OA 
HETATM   10  H   UNL     1     -13.403  16.633  74.731  1.00  0.00     0.000 HD 
ENDBRANCH   3   8
TORSDOF 1
ENDMDL
MODEL       13
REMARK 921   NORMALIZED FREE ENERGY PREDICTED BY IDOCK:   -3.87 KCAL/MOL
REMARK 922        TOTAL FREE ENERGY PREDICTED BY IDOCK:   -4.11 KCAL/MOL
REMARK 923 INTER-LIGAND FREE ENERGY PREDICTED BY IDOCK:   -4.10 KCAL/MOL
REMARK 924 INTRA-LIGAND FREE ENERGY PREDICTED BY IDOCK:   -0.01 KCAL/MOL
REMARK 927      BINDING AFFINITY PREDICTED BY RF-SCORE:    0.00 PKD
ROOT
HETATM    1  N   UNL     1     -13.011  12.873  64.796  1.00  0.00    -0.788 NA 
HETATM    2  H1  UNL     1     -13.628  12.310  65.382  1.00  0.00     0.000 HD 
HETATM    3  CA  UNL     1     -12.503  14.077  65.534  1.00  0.00    -0.509 C  
HETATM    4  H2  UNL     1     -12.245  12.317  64.417  1.00  0.00     0.000 HD 
HETATM    5  C   UNL     1     -11.802  13.581  66.814  1.00  0.00    -0.406 C  
HETATM    6  O   UNL     1     -12.192  12.310  67.112  1.00  0.00    -0.506 OA 
HETATM    7  O   UNL     1     -11.040  14.223  67.516  1.00  0.00    -0.282 OA 
ENDROOT
BRANCH   3   8
HETATM    8  C   UNL     1     -11.575  14.925  64.654  1.00  0.00    -0.395 C  
HETATM    9  O   UNL     1     -12.266  15.844  63.816  1.00  0.00    -1.213 OA 
HETATM   10  H   UNL     1     -11.691  16.368  63.270  1.00  0.00     0.000 HD 
ENDBRANCH   3   8
TORSDOF 1
ENDMDL
MODEL       14
REMARK 921   NORMALIZED FREE ENERGY PREDICTED BY IDOCK:   -3.85 KCAL/MOL
REMARK 922        TOTAL FREE ENERGY PREDICTED BY IDOCK:   -4.08 KCAL/MOL
REMARK 923 INTER-LIGAND FREE ENERGY PREDICTED BY IDOCK:   -4.07 KCAL/MOL
REMARK 924 INTRA-LIGAND FREE ENERGY PREDICTED BY IDOCK:   -0.01 KCAL/MOL
REMARK 927      BINDING AFFINITY PREDICTED BY RF-SCORE:    0.00 PKD
ROOT
HETATM    1  N   UNL     1     -10.111  13.541  65.025  1.00  0.00    -0.551 NA 
HETATM    2  H1  UNL     1      -9.506  12.778  64.722  1.00  0.00     0.000 HD 
HETATM    3  CA  UNL     1     -11.286  13.706  64.105  1.00  0.00    -0.304 C  
HETATM    4  H2  UNL     1     -10.409  13.421  65.993  1.00  0.00     0.000 HD 
HETATM    5  C   UNL     1     -12.029  12.357  64.048  1.00  0.00    -0.460 C  
HETATM    6  O   UNL     1     -11.221  11.346  64.476  1.00  0.00    -0.283 OA 
HETATM    7  O   UNL     1     -13.161  12.171  63.635  1.00  0.00    -0.770 OA 
ENDROOT
BRANCH   3   8
HETATM    8  C   UNL     1     -12.198  14.854  64.559  1.00  0.00    -0.382 C  
HETATM    9  O   UNL     1     -12.143  15.995  63.712  1.00  0.00    -1.318 OA 
HETATM   10  H   UNL     1     -12.707  16.706  63.994  1.00  0.00     0.000 HD 
ENDBRANCH   3   8
TORSDOF 1
ENDMDL
MODEL       15
REMARK 921   NORMALIZED FREE ENERGY PREDICTED BY IDOCK:   -3.75 KCAL/MOL
REMARK 922        TOTAL FREE ENERGY PREDICTED BY IDOCK:   -3.97 KCAL/MOL
REMARK 923 INTER-LIGAND FREE ENERGY PREDICTED BY IDOCK:   -3.75 KCAL/MOL
REMARK 924 INTRA-LIGAND FREE ENERGY PREDICTED BY IDOCK:   -0.22 KCAL/MOL
REMARK 927      BINDING AFFINITY PREDICTED BY RF-SCORE:    0.00 PKD
ROOT
HETATM    1  N   UNL     1     -11.851   9.235  70.108  1.00  0.00    -0.462 NA 
HETATM    2  H1  UNL     1     -11.045   9.797  69.836  1.00  0.00     0.000 HD 
HETATM    3  CA  UNL     1     -12.368   9.637  71.459  1.00  0.00    -0.390 C  
HETATM    4  H2  UNL     1     -12.586   9.269  69.402  1.00  0.00     0.000 HD 
HETATM    5  C   UNL     1     -12.694  11.142  71.406  1.00  0.00    -0.418 C  
HETATM    6  O   UNL     1     -12.060  11.734  70.356  1.00  0.00    -0.350 OA 
HETATM    7  O   UNL     1     -13.378  11.762  72.204  1.00  0.00    -0.497 OA 
ENDROOT
BRANCH   3   8
HETATM    8  C   UNL     1     -13.582   8.792  71.870  1.00  0.00    -0.424 C  
HETATM    9  O   UNL     1     -13.994   9.002  73.215  1.00  0.00    -1.205 OA 
HETATM   10  H   UNL     1     -14.745   8.478  73.469  1.00  0.00     0.000 HD 
ENDBRANCH   3   8
TORSDOF 1
ENDMDL
MODEL       16
REMARK 921   NORMALIZED FREE ENERGY PREDICTED BY IDOCK:   -3.74 KCAL/MOL
REMARK 922        TOTAL FREE ENERGY PREDICTED BY IDOCK:   -3.97 KCAL/MOL
REMARK 923 INTER-LIGAND FREE ENERGY PREDICTED BY IDOCK:   -3.74 KCAL/MOL
REMARK 924 INTRA-LIGAND FREE ENERGY PREDICTED BY IDOCK:   -0.23 KCAL/MOL
REMARK 927      BINDING AFFINITY PREDICTED BY RF-SCORE:    0.00 PKD
ROOT
HETATM    1  N   UNL     1     -14.270   8.994  73.083  1.00  0.00    -1.190 NA 
HETATM    2  H1  UNL     1     -14.781   9.877  73.110  1.00  0.00     0.000 HD 
HETATM    3  CA  UNL     1     -13.725   8.719  71.712  1.00  0.00    -0.419 C  
HETATM    4  H2  UNL     1     -13.536   8.966  73.790  1.00  0.00     0.000 HD 
HETATM    5  C   UNL     1     -12.844   9.918  71.309  1.00  0.00    -0.390 C  
HETATM    6  O   UNL     1     -13.136  11.006  72.074  1.00  0.00    -0.496 OA 
HETATM    7  O   UNL     1     -12.027   9.943  70.404  1.00  0.00    -0.256 OA 
ENDROOT
BRANCH   3   8
HETATM    8  C   UNL     1     -12.956   7.391  71.670  1.00  0.00    -0.366 C  
HETATM    9  O   UNL     1     -12.518   7.026  70.367  1.00  0.00    -0.622 OA 
HETATM   10  H   UNL     1     -12.043   6.204  70.341  1.00  0.00     0.000 HD 
ENDBRANCH   3   8
TORSDOF 1
ENDMDL
MODEL       17
REMARK 921   NORMALIZED FREE ENERGY PREDICTED BY IDOCK:   -3.74 KCAL/MOL
REMARK 922        TOTAL FREE ENERGY PREDICTED BY IDOCK:   -3.96 KCAL/MOL
REMARK 923 INTER-LIGAND FREE ENERGY PREDICTED BY IDOCK:   -3.75 KCAL/MOL
REMARK 924 INTRA-LIGAND FREE ENERGY PREDICTED BY IDOCK:   -0.22 KCAL/MOL
REMARK 927      BINDING AFFINITY PREDICTED BY RF-SCORE:    0.00 PKD
ROOT
HETATM    1  N   UNL     1     -11.685  11.968  66.034  1.00  0.00    -0.500 NA 
HETATM    2  H1  UNL     1     -12.453  12.111  66.689  1.00  0.00     0.000 HD 
HETATM    3  CA  UNL     1     -12.017  12.509  64.673  1.00  0.00    -0.404 C  
HETATM    4  H2  UNL     1     -10.813  12.360  66.389  1.00  0.00     0.000 HD 
HETATM    5  C   UNL     1     -12.378  13.999  64.837  1.00  0.00    -0.427 C  
HETATM    6  O   UNL     1     -12.692  14.276  66.134  1.00  0.00    -0.401 OA 
HETATM    7  O   UNL     1     -12.435  14.831  63.948  1.00  0.00    -0.811 OA 
ENDROOT
BRANCH   3   8
HETATM    8  C   UNL     1     -10.860  12.295  63.687  1.00  0.00    -0.469 C  
HETATM    9  O   UNL     1      -9.788  13.215  63.857  1.00  0.00    -0.735 OA 
HETATM   10  H   UNL     1      -9.073  13.082  63.246  1.00  0.00     0.000 HD 
ENDBRANCH   3   8
TORSDOF 1
ENDMDL
MODEL       18
REMARK 921   NORMALIZED FREE ENERGY PREDICTED BY IDOCK:   -3.74 KCAL/MOL
REMARK 922        TOTAL FREE ENERGY PREDICTED BY IDOCK:   -3.96 KCAL/MOL
REMARK 923 INTER-LIGAND FREE ENERGY PREDICTED BY IDOCK:   -3.83 KCAL/MOL
REMARK 924 INTRA-LIGAND FREE ENERGY PREDICTED BY IDOCK:   -0.13 KCAL/MOL
REMARK 927      BINDING AFFINITY PREDICTED BY RF-SCORE:    0.00 PKD
ROOT
HETATM    1  N   UNL     1     -10.159  12.649  63.550  1.00  0.00    -0.663 NA 
HETATM    2  H1  UNL     1     -10.262  13.234  62.721  1.00  0.00     0.000 HD 
HETATM    3  CA  UNL     1     -10.746  13.311  64.763  1.00  0.00    -0.378 C  
HETATM    4  H2  UNL     1     -10.553  11.720  63.403  1.00  0.00     0.000 HD 
HETATM    5  C   UNL     1     -12.221  13.633  64.453  1.00  0.00    -0.390 C  
HETATM    6  O   UNL     1     -12.442  13.621  63.109  1.00  0.00    -0.786 OA 
HETATM    7  O   UNL     1     -13.085  13.915  65.266  1.00  0.00    -0.777 OA 
ENDROOT
BRANCH   3   8
HETATM    8  C   UNL     1     -10.591  12.432  66.012  1.00  0.00    -0.256 C  
HETATM    9  O   UNL     1     -11.828  11.971  66.542  1.00  0.00    -0.585 OA 
HETATM   10  H   UNL     1     -11.733  11.427  67.315  1.00  0.00     0.000 HD 
ENDBRANCH   3   8
TORSDOF 1
ENDMDL
MODEL       19
REMARK 921   NORMALIZED FREE ENERGY PREDICTED BY IDOCK:   -3.72 KCAL/MOL
REMARK 922        TOTAL FREE ENERGY PREDICTED BY IDOCK:   -3.94 KCAL/MOL
REMARK 923 INTER-LIGAND FREE ENERGY PREDICTED BY IDOCK:   -3.71 KCAL/MOL
REMARK 924 INTRA-LIGAND FREE ENERGY PREDICTED BY IDOCK:   -0.23 KCAL/MOL
REMARK 927      BINDING AFFINITY PREDICTED BY RF-SCORE:    0.00 PKD
ROOT
HETATM    1  N   UNL     1     -13.155  13.844  65.344  1.00  0.00    -0.740 NA 
HETATM    2  H1  UNL     1     -13.035  14.121  66.319  1.00  0.00     0.000 HD 
HETATM    3  CA  UNL     1     -11.886  13.279  64.774  1.00  0.00    -0.371 C  
HETATM    4  H2  UNL     1     -13.935  13.197  65.234  1.00  0.00     0.000 HD 
HETATM    5  C   UNL     1     -11.455  12.100  65.669  1.00  0.00    -0.355 C  
HETATM    6  O   UNL     1     -12.066  12.172  66.885  1.00  0.00    -0.600 OA 
HETATM    7  O   UNL     1     -10.645  11.235  65.384  1.00  0.00    -0.267 OA 
ENDROOT
BRANCH   3   8
HETATM    8  C   UNL     1     -12.067  12.862  63.308  1.00  0.00    -0.440 C  
HETATM    9  O   UNL     1     -12.328  11.474  63.138  1.00  0.00    -0.938 OA 
HETATM   10  H   UNL     1     -12.439  11.216  62.230  1.00  0.00     0.000 HD 
ENDBRANCH   3   8
TORSDOF 1
ENDMDL
MODEL       20
REMARK 921   NORMALIZED FREE ENERGY PREDICTED BY IDOCK:   -3.71 KCAL/MOL
REMARK 922        TOTAL FREE ENERGY PREDICTED BY IDOCK:   -3.93 KCAL/MOL
REMARK 923 INTER-LIGAND FREE ENERGY PREDICTED BY IDOCK:   -3.91 KCAL/MOL
REMARK 924 INTRA-LIGAND FREE ENERGY PREDICTED BY IDOCK:   -0.02 KCAL/MOL
REMARK 927      BINDING AFFINITY PREDICTED BY RF-SCORE:    0.00 PKD
ROOT
HETATM    1  N   UNL     1      -9.915  13.005  63.756  1.00  0.00    -0.734 NA 
HETATM    2  H1  UNL     1      -9.020  12.819  64.208  1.00  0.00     0.000 HD 
HETATM    3  CA  UNL     1     -11.000  12.125  64.305  1.00  0.00    -0.339 C  
HETATM    4  H2  UNL     1     -10.166  13.991  63.817  1.00  0.00     0.000 HD 
HETATM    5  C   UNL     1     -11.057  12.347  65.829  1.00  0.00    -0.315 C  
HETATM    6  O   UNL     1      -9.900  12.914  66.274  1.00  0.00    -0.264 OA 
HETATM    7  O   UNL     1     -11.968  12.028  66.573  1.00  0.00    -0.616 OA 
ENDROOT
BRANCH   3   8
HETATM    8  C   UNL     1     -12.347  12.405  63.625  1.00  0.00    -0.548 C  
HETATM    9  O   UNL     1     -12.488  13.744  63.167  1.00  0.00    -1.089 OA 
HETATM   10  H   UNL     1     -13.322  13.917  62.747  1.00  0.00     0.000 HD 
ENDBRANCH   3   8
TORSDOF 1
ENDMDL
MODEL       21
REMARK 921   NORMALIZED FREE ENERGY PREDICTED BY IDOCK:   -3.64 KCAL/MOL
REMARK 922        TOTAL FREE ENERGY PREDICTED BY IDOCK:   -3.86 KCAL/MOL
REMARK 923 INTER-LIGAND FREE ENERGY PREDICTED BY IDOCK:   -3.64 KCAL/MOL
REMARK 924 INTRA-LIGAND FREE ENERGY PREDICTED BY IDOCK:   -0.22 KCAL/MOL
REMARK 927      BINDING AFFINITY PREDICTED BY RF-SCORE:    0.00 PKD
ROOT
HETATM    1  N   UNL     1     -11.431  13.525  65.850  1.00  0.00    -0.313 NA 
HETATM    2  H1  UNL     1     -11.794  12.895  65.134  1.00  0.00     0.000 HD 
HETATM    3  CA  UNL     1     -10.730  14.703  65.238  1.00  0.00    -0.381 C  
HETATM    4  H2  UNL     1     -12.163  13.819  66.495  1.00  0.00     0.000 HD 
HETATM    5  C   UNL     1     -11.727  15.402  64.294  1.00  0.00    -0.206 C  
HETATM    6  O   UNL     1     -12.752  14.564  63.972  1.00  0.00    -0.759 OA 
HETATM    7  O   UNL     1     -11.623  16.528  63.837  1.00  0.00    -1.175 OA 
ENDROOT
BRANCH   3   8
HETATM    8  C   UNL     1     -10.183  15.651  66.314  1.00  0.00    -0.299 C  
HETATM    9  O   UNL     1      -9.525  16.795  65.785  1.00  0.00    -0.507 OA 
HETATM   10  H   UNL     1      -9.186  17.382  66.451  1.00  0.00     0.000 HD 
ENDBRANCH   3   8
TORSDOF 1
ENDMDL
MODEL       22
REMARK 921   NORMALIZED FREE ENERGY PREDICTED BY IDOCK:   -3.63 KCAL/MOL
REMARK 922        TOTAL FREE ENERGY PREDICTED BY IDOCK:   -3.85 KCAL/MOL
REMARK 923 INTER-LIGAND FREE ENERGY PREDICTED BY IDOCK:   -3.64 KCAL/MOL
REMARK 924 INTRA-LIGAND FREE ENERGY PREDICTED BY IDOCK:   -0.20 KCAL/MOL
REMARK 927      BINDING AFFINITY PREDICTED BY RF-SCORE:    0.00 PKD
ROOT
HETATM    1  N   UNL     1     -11.176  15.181  66.045  1.00  0.00    -0.316 NA 
HETATM    2  H1  UNL     1     -11.682  15.931  65.574  1.00  0.00     0.000 HD 
HETATM    3  CA  UNL     1     -12.060  13.993  66.291  1.00  0.00    -0.456 C  
HETATM    4  H2  UNL     1     -10.333  14.920  65.533  1.00  0.00     0.000 HD 
HETATM    5  C   UNL     1     -12.635  13.548  64.932  1.00  0.00    -0.342 C  
HETATM    6  O   UNL     1     -12.530  14.551  64.015  1.00  0.00    -0.778 OA 
HETATM    7  O   UNL     1     -13.164  12.477  64.686  1.00  0.00    -0.848 OA 
ENDROOT
BRANCH   3   8
HETATM    8  C   UNL     1     -11.300  12.864  66.999  1.00  0.00    -0.309 C  
HETATM    9  O   UNL     1     -12.021  11.639  67.058  1.00  0.00    -0.593 OA 
HETATM   10  H   UNL     1     -11.550  10.941  67.497  1.00  0.00     0.000 HD 
ENDBRANCH   3   8
TORSDOF 1
ENDMDL
MODEL       23
REMARK 921   NORMALIZED FREE ENERGY PREDICTED BY IDOCK:   -3.57 KCAL/MOL
REMARK 922        TOTAL FREE ENERGY PREDICTED BY IDOCK:   -3.78 KCAL/MOL
REMARK 923 INTER-LIGAND FREE ENERGY PREDICTED BY IDOCK:   -3.58 KCAL/MOL
REMARK 924 INTRA-LIGAND FREE ENERGY PREDICTED BY IDOCK:   -0.20 KCAL/MOL
REMARK 927      BINDING AFFINITY PREDICTED BY RF-SCORE:    0.00 PKD
ROOT
HETATM    1  N   UNL     1     -13.731  15.728  73.132  1.00  0.00    -0.670 NA 
HETATM    2  H1  UNL     1     -14.090  15.156  73.895  1.00  0.00     0.000 HD 
HETATM    3  CA  UNL     1     -12.610  15.039  72.409  1.00  0.00    -0.342 C  
HETATM    4  H2  UNL     1     -14.475  16.005  72.491  1.00  0.00     0.000 HD 
HETATM    5  C   UNL     1     -13.137  13.675  71.921  1.00  0.00    -0.387 C  
HETATM    6  O   UNL     1     -14.259  13.320  72.608  1.00  0.00    -0.724 OA 
HETATM    7  O   UNL     1     -12.622  12.961  71.077  1.00  0.00    -0.366 OA 
ENDROOT
BRANCH   3   8
HETATM    8  C   UNL     1     -12.070  15.900  71.260  1.00  0.00    -0.438 C  
HETATM    9  O   UNL     1     -12.933  15.952  70.130  1.00  0.00    -0.652 OA 
HETATM   10  H   UNL     1     -12.599  16.485  69.419  1.00  0.00     0.000 HD 
ENDBRANCH   3   8
TORSDOF 1
ENDMDL
MODEL       24
REMARK 921   NORMALIZED FREE ENERGY PREDICTED BY IDOCK:   -3.56 KCAL/MOL
REMARK 922        TOTAL FREE ENERGY PREDICTED BY IDOCK:   -3.78 KCAL/MOL
REMARK 923 INTER-LIGAND FREE ENERGY PREDICTED BY IDOCK:   -3.55 KCAL/MOL
REMARK 924 INTRA-LIGAND FREE ENERGY PREDICTED BY IDOCK:   -0.23 KCAL/MOL
REMARK 927      BINDING AFFINITY PREDICTED BY RF-SCORE:    0.00 PKD
ROOT
HETATM    1  N   UNL     1     -12.080  16.177  71.385  1.00  0.00    -0.609 NA 
HETATM    2  H1  UNL     1     -12.154  16.785  72.200  1.00  0.00     0.000 HD 
HETATM    3  CA  UNL     1     -12.238  14.733  71.762  1.00  0.00    -0.347 C  
HETATM    4  H2  UNL     1     -12.740  16.447  70.656  1.00  0.00     0.000 HD 
HETATM    5  C   UNL     1     -13.592  14.583  72.484  1.00  0.00    -0.487 C  
HETATM    6  O   UNL     1     -14.036  15.792  72.928  1.00  0.00    -0.568 OA 
HETATM    7  O   UNL     1     -14.188  13.540  72.692  1.00  0.00    -0.751 OA 
ENDROOT
BRANCH   3   8
HETATM    8  C   UNL     1     -12.127  13.817  70.536  1.00  0.00    -0.345 C  
HETATM    9  O   UNL     1     -12.129  12.431  70.857  1.00  0.00    -0.443 OA 
HETATM   10  H   UNL     1     -12.059  11.864  70.097  1.00  0.00     0.000 HD 
ENDBRANCH   3   8
TORSDOF 1
ENDMDL
MODEL       25
REMARK 921   NORMALIZED FREE ENERGY PREDICTED BY IDOCK:   -3.55 KCAL/MOL
REMARK 922        TOTAL FREE ENERGY PREDICTED BY IDOCK:   -3.76 KCAL/MOL
REMARK 923 INTER-LIGAND FREE ENERGY PREDICTED BY IDOCK:   -3.75 KCAL/MOL
REMARK 924 INTRA-LIGAND FREE ENERGY PREDICTED BY IDOCK:   -0.01 KCAL/MOL
REMARK 927      BINDING AFFINITY PREDICTED BY RF-SCORE:    0.00 PKD
ROOT
HETATM    1  N   UNL     1     -12.096  12.387  66.840  1.00  0.00    -0.547 NA 
HETATM    2  H1  UNL     1     -12.136  11.486  66.362  1.00  0.00     0.000 HD 
HETATM    3  CA  UNL     1     -11.546  13.459  65.944  1.00  0.00    -0.342 C  
HETATM    4  H2  UNL     1     -13.006  12.648  67.220  1.00  0.00     0.000 HD 
HETATM    5  C   UNL     1     -12.423  13.506  64.678  1.00  0.00    -0.323 C  
HETATM    6  O   UNL     1     -13.135  12.353  64.544  1.00  0.00    -0.823 OA 
HETATM    7  O   UNL     1     -12.462  14.409  63.859  1.00  0.00    -0.798 OA 
ENDROOT
BRANCH   3   8
HETATM    8  C   UNL     1     -11.487  14.814  66.663  1.00  0.00    -0.335 C  
HETATM    9  O   UNL     1     -12.197  14.838  67.895  1.00  0.00    -0.583 OA 
HETATM   10  H   UNL     1     -12.160  15.677  68.340  1.00  0.00     0.000 HD 
ENDBRANCH   3   8
TORSDOF 1
ENDMDL
MODEL       26
REMARK 921   NORMALIZED FREE ENERGY PREDICTED BY IDOCK:   -3.53 KCAL/MOL
REMARK 922        TOTAL FREE ENERGY PREDICTED BY IDOCK:   -3.75 KCAL/MOL
REMARK 923 INTER-LIGAND FREE ENERGY PREDICTED BY IDOCK:   -3.53 KCAL/MOL
REMARK 924 INTRA-LIGAND FREE ENERGY PREDICTED BY IDOCK:   -0.22 KCAL/MOL
REMARK 927      BINDING AFFINITY PREDICTED BY RF-SCORE:    0.00 PKD
ROOT
HETATM    1  N   UNL     1     -13.925  13.486  72.604  1.00  0.00    -0.754 NA 
HETATM    2  H1  UNL     1     -14.301  13.554  73.550  1.00  0.00     0.000 HD 
HETATM    3  CA  UNL     1     -13.598  14.841  72.045  1.00  0.00    -0.403 C  
HETATM    4  H2  UNL     1     -13.120  12.862  72.567  1.00  0.00     0.000 HD 
HETATM    5  C   UNL     1     -12.616  15.524  73.018  1.00  0.00    -0.448 C  
HETATM    6  O   UNL     1     -12.657  14.924  74.241  1.00  0.00    -0.450 OA 
HETATM    7  O   UNL     1     -11.922  16.498  72.779  1.00  0.00    -0.533 OA 
ENDROOT
BRANCH   3   8
HETATM    8  C   UNL     1     -13.032  14.739  70.623  1.00  0.00    -0.324 C  
HETATM    9  O   UNL     1     -12.923  15.993  69.960  1.00  0.00    -0.615 OA 
HETATM   10  H   UNL     1     -12.574  15.930  69.079  1.00  0.00     0.000 HD 
ENDBRANCH   3   8
TORSDOF 1
ENDMDL
MODEL       27
REMARK 921   NORMALIZED FREE ENERGY PREDICTED BY IDOCK:   -3.52 KCAL/MOL
REMARK 922        TOTAL FREE ENERGY PREDICTED BY IDOCK:   -3.74 KCAL/MOL
REMARK 923 INTER-LIGAND FREE ENERGY PREDICTED BY IDOCK:   -3.51 KCAL/MOL
REMARK 924 INTRA-LIGAND FREE ENERGY PREDICTED BY IDOCK:   -0.22 KCAL/MOL
REMARK 927      BINDING AFFINITY PREDICTED BY RF-SCORE:    0.00 PKD
ROOT
HETATM    1  N   UNL     1     -12.471  13.555  64.480  1.00  0.00    -0.610 NA 
HETATM    2  H1  UNL     1     -12.816  13.777  63.545  1.00  0.00     0.000 HD 
HETATM    3  CA  UNL     1     -11.121  14.163  64.725  1.00  0.00    -0.387 C  
HETATM    4  H2  UNL     1     -13.140  13.830  65.199  1.00  0.00     0.000 HD 
HETATM    5  C   UNL     1     -11.240  15.681  64.489  1.00  0.00    -0.325 C  
HETATM    6  O   UNL     1     -12.353  15.967  63.757  1.00  0.00    -0.858 OA 
HETATM    7  O   UNL     1     -10.445  16.533  64.848  1.00  0.00    -0.653 OA 
ENDROOT
BRANCH   3   8
HETATM    8  C   UNL     1     -10.602  13.830  66.130  1.00  0.00    -0.291 C  
HETATM    9  O   UNL     1      -9.260  14.244  66.356  1.00  0.00    -0.387 OA 
HETATM   10  H   UNL     1      -8.939  14.037  67.226  1.00  0.00     0.000 HD 
ENDBRANCH   3   8
TORSDOF 1
ENDMDL
MODEL       28
REMARK 921   NORMALIZED FREE ENERGY PREDICTED BY IDOCK:   -3.50 KCAL/MOL
REMARK 922        TOTAL FREE ENERGY PREDICTED BY IDOCK:   -3.71 KCAL/MOL
REMARK 923 INTER-LIGAND FREE ENERGY PREDICTED BY IDOCK:   -3.69 KCAL/MOL
REMARK 924 INTRA-LIGAND FREE ENERGY PREDICTED BY IDOCK:   -0.02 KCAL/MOL
REMARK 927      BINDING AFFINITY PREDICTED BY RF-SCORE:    0.00 PKD
ROOT
HETATM    1  N   UNL     1     -12.972  12.143  63.459  1.00  0.00    -0.784 NA 
HETATM    2  H1  UNL     1     -12.951  11.125  63.408  1.00  0.00     0.000 HD 
HETATM    3  CA  UNL     1     -12.372  12.640  64.742  1.00  0.00    -0.489 C  
HETATM    4  H2  UNL     1     -12.523  12.567  62.648  1.00  0.00     0.000 HD 
HETATM    5  C   UNL     1     -10.940  12.078  64.838  1.00  0.00    -0.306 C  
HETATM    6  O   UNL     1     -10.786  11.013  64.002  1.00  0.00    -0.379 OA 
HETATM    7  O   UNL     1     -10.057  12.471  65.581  1.00  0.00    -0.265 OA 
ENDROOT
BRANCH   3   8
HETATM    8  C   UNL     1     -12.403  14.172  64.820  1.00  0.00    -0.417 C  
HETATM    9  O   UNL     1     -12.478  14.807  63.549  1.00  0.00    -1.053 OA 
HETATM   10  H   UNL     1     -12.497  15.755  63.597  1.00  0.00     0.000 HD 
ENDBRANCH   3   8
TORSDOF 1
ENDMDL
MODEL       29
REMARK 921   NORMALIZED FREE ENERGY PREDICTED BY IDOCK:   -3.49 KCAL/MOL
REMARK 922        TOTAL FREE ENERGY PREDICTED BY IDOCK:   -3.70 KCAL/MOL
REMARK 923 INTER-LIGAND FREE ENERGY PREDICTED BY IDOCK:   -3.69 KCAL/MOL
REMARK 924 INTRA-LIGAND FREE ENERGY PREDICTED BY IDOCK:   -0.01 KCAL/MOL
REMARK 927      BINDING AFFINITY PREDICTED BY RF-SCORE:    0.00 PKD
ROOT
HETATM    1  N   UNL     1     -10.575  18.224  65.490  1.00  0.00    -0.576 NA 
HETATM    2  H1  UNL     1     -11.545  18.424  65.248  1.00  0.00     0.000 HD 
HETATM    3  CA  UNL     1     -10.401  16.795  65.919  1.00  0.00    -0.328 C  
HETATM    4  H2  UNL     1      -9.942  18.465  64.728  1.00  0.00     0.000 HD 
HETATM    5  C   UNL     1     -10.917  15.898  64.778  1.00  0.00    -0.375 C  
HETATM    6  O   UNL     1     -11.727  16.604  63.940  1.00  0.00    -1.153 OA 
HETATM    7  O   UNL     1     -10.695  14.707  64.638  1.00  0.00    -0.393 OA 
ENDROOT
BRANCH   3   8
HETATM    8  C   UNL     1      -8.941  16.493  66.284  1.00  0.00    -0.324 C  
HETATM    9  O   UNL     1      -8.013  17.424  65.740  1.00  0.00    -0.538 OA 
HETATM   10  H   UNL     1      -7.109  17.236  65.966  1.00  0.00     0.000 HD 
ENDBRANCH   3   8
TORSDOF 1
ENDMDL
MODEL       30
REMARK 921   NORMALIZED FREE ENERGY PREDICTED BY IDOCK:   -3.48 KCAL/MOL
REMARK 922        TOTAL FREE ENERGY PREDICTED BY IDOCK:   -3.69 KCAL/MOL
REMARK 923 INTER-LIGAND FREE ENERGY PREDICTED BY IDOCK:   -3.45 KCAL/MOL
REMARK 924 INTRA-LIGAND FREE ENERGY PREDICTED BY IDOCK:   -0.24 KCAL/MOL
REMARK 927      BINDING AFFINITY PREDICTED BY RF-SCORE:    0.00 PKD
ROOT
HETATM    1  N   UNL     1     -10.034  13.808  65.238  1.00  0.00    -0.543 NA 
HETATM    2  H1  UNL     1      -9.730  14.074  64.302  1.00  0.00     0.000 HD 
HETATM    3  CA  UNL     1     -11.531  13.769  65.338  1.00  0.00    -0.311 C  
HETATM    4  H2  UNL     1      -9.617  12.924  65.529  1.00  0.00     0.000 HD 
HETATM    5  C   UNL     1     -12.047  12.799  64.257  1.00  0.00    -0.425 C  
HETATM    6  O   UNL     1     -11.098  12.597  63.300  1.00  0.00    -0.411 OA 
HETATM    7  O   UNL     1     -13.160  12.302  64.203  1.00  0.00    -0.749 OA 
ENDROOT
BRANCH   3   8
HETATM    8  C   UNL     1     -11.990  13.368  66.746  1.00  0.00    -0.394 C  
HETATM    9  O   UNL     1     -12.028  11.962  66.956  1.00  0.00    -0.615 OA 
HETATM   10  H   UNL     1     -12.312  11.714  67.828  1.00  0.00     0.000 HD 
ENDBRANCH   3   8
TORSDOF 1
ENDMDL
MODEL       31
REMARK 921   NORMALIZED FREE ENERGY PREDICTED BY IDOCK:   -3.46 KCAL/MOL
REMARK 922        TOTAL FREE ENERGY PREDICTED BY IDOCK:   -3.67 KCAL/MOL
REMARK 923 INTER-LIGAND FREE ENERGY PREDICTED BY IDOCK:   -3.44 KCAL/MOL
REMARK 924 INTRA-LIGAND FREE ENERGY PREDICTED BY IDOCK:   -0.24 KCAL/MOL
REMARK 927      BINDING AFFINITY PREDICTED BY RF-SCORE:    0.00 PKD
ROOT
HETATM    1  N   UNL     1     -13.024  15.377  73.975  1.00  0.00    -0.645 NA 
HETATM    2  H1  UNL     1     -12.804  16.361  74.125  1.00  0.00     0.000 HD 
HETATM    3  CA  UNL     1     -13.655  15.155  72.630  1.00  0.00    -0.491 C  
HETATM    4  H2  UNL     1     -12.203  14.786  74.104  1.00  0.00     0.000 HD 
HETATM    5  C   UNL     1     -12.690  15.708  71.564  1.00  0.00    -0.457 C  
HETATM    6  O   UNL     1     -11.798  16.571  72.125  1.00  0.00    -0.501 OA 
HETATM    7  O   UNL     1     -12.722  15.471  70.368  1.00  0.00    -0.425 OA 
ENDROOT
BRANCH   3   8
HETATM    8  C   UNL     1     -13.987  13.674  72.404  1.00  0.00    -0.548 C  
HETATM    9  O   UNL     1     -12.985  12.969  71.681  1.00  0.00    -0.370 OA 
HETATM   10  H   UNL     1     -13.191  12.052  71.540  1.00  0.00     0.000 HD 
ENDBRANCH   3   8
TORSDOF 1
ENDMDL
MODEL       32
REMARK 921   NORMALIZED FREE ENERGY PREDICTED BY IDOCK:   -3.46 KCAL/MOL
REMARK 922        TOTAL FREE ENERGY PREDICTED BY IDOCK:   -3.67 KCAL/MOL
REMARK 923 INTER-LIGAND FREE ENERGY PREDICTED BY IDOCK:   -3.45 KCAL/MOL
REMARK 924 INTRA-LIGAND FREE ENERGY PREDICTED BY IDOCK:   -0.22 KCAL/MOL
REMARK 927      BINDING AFFINITY PREDICTED BY RF-SCORE:    0.00 PKD
ROOT
HETATM    1  N   UNL     1     -11.789  13.223  66.160  1.00  0.00    -0.371 NA 
HETATM    2  H1  UNL     1     -11.441  13.116  67.112  1.00  0.00     0.000 HD 
HETATM    3  CA  UNL     1     -11.645  14.638  65.679  1.00  0.00    -0.328 C  
HETATM    4  H2  UNL     1     -11.342  12.565  65.522  1.00  0.00     0.000 HD 
HETATM    5  C   UNL     1     -10.159  15.026  65.807  1.00  0.00    -0.340 C  
HETATM    6  O   UNL     1      -9.515  14.185  66.663  1.00  0.00    -0.269 OA 
HETATM    7  O   UNL     1      -9.612  15.976  65.272  1.00  0.00    -0.368 OA 
ENDROOT
BRANCH   3   8
HETATM    8  C   UNL     1     -12.169  14.800  64.246  1.00  0.00    -0.379 C  
HETATM    9  O   UNL     1     -12.007  16.113  63.724  1.00  0.00    -1.394 OA 
HETATM   10  H   UNL     1     -12.332  16.214  62.837  1.00  0.00     0.000 HD 
ENDBRANCH   3   8
TORSDOF 1
ENDMDL
MODEL       33
REMARK 921   NORMALIZED FREE ENERGY PREDICTED BY IDOCK:   -3.46 KCAL/MOL
REMARK 922        TOTAL FREE ENERGY PREDICTED BY IDOCK:   -3.66 KCAL/MOL
REMARK 923 INTER-LIGAND FREE ENERGY PREDICTED BY IDOCK:   -3.42 KCAL/MOL
REMARK 924 INTRA-LIGAND FREE ENERGY PREDICTED BY IDOCK:   -0.24 KCAL/MOL
REMARK 927      BINDING AFFINITY PREDICTED BY RF-SCORE:    0.00 PKD
ROOT
HETATM    1  N   UNL     1     -13.895   9.158  72.963  1.00  0.00    -1.083 NA 
HETATM    2  H1  UNL     1     -14.472   8.474  73.453  1.00  0.00     0.000 HD 
HETATM    3  CA  UNL     1     -12.637   8.534  72.433  1.00  0.00    -0.348 C  
HETATM    4  H2  UNL     1     -14.419   9.628  72.225  1.00  0.00     0.000 HD 
HETATM    5  C   UNL     1     -13.044   7.355  71.527  1.00  0.00    -0.374 C  
HETATM    6  O   UNL     1     -14.324   6.969  71.789  1.00  0.00    -0.392 OA 
HETATM    7  O   UNL     1     -12.333   6.788  70.716  1.00  0.00    -0.377 OA 
ENDROOT
BRANCH   3   8
HETATM    8  C   UNL     1     -11.768   9.562  71.695  1.00  0.00    -0.390 C  
HETATM    9  O   UNL     1     -12.108   9.716  70.323  1.00  0.00    -0.459 OA 
HETATM   10  H   UNL     1     -11.570  10.352  69.866  1.00  0.00     0.000 HD 
ENDBRANCH   3   8
TORSDOF 1
ENDMDL
MODEL       34
REMARK 921   NORMALIZED FREE ENERGY PREDICTED BY IDOCK:   -3.44 KCAL/MOL
REMARK 922        TOTAL FREE ENERGY PREDICTED BY IDOCK:   -3.65 KCAL/MOL
REMARK 923 INTER-LIGAND FREE ENERGY PREDICTED BY IDOCK:   -3.63 KCAL/MOL
REMARK 924 INTRA-LIGAND FREE ENERGY PREDICTED BY IDOCK:   -0.02 KCAL/MOL
REMARK 927      BINDING AFFINITY PREDICTED BY RF-SCORE:    0.00 PKD
ROOT
HETATM    1  N   UNL     1     -13.958  13.057  72.511  1.00  0.00    -0.684 NA 
HETATM    2  H1  UNL     1     -13.428  12.198  72.368  1.00  0.00     0.000 HD 
HETATM    3  CA  UNL     1     -13.064  14.263  72.488  1.00  0.00    -0.461 C  
HETATM    4  H2  UNL     1     -14.719  13.143  71.838  1.00  0.00     0.000 HD 
HETATM    5  C   UNL     1     -12.307  14.259  71.146  1.00  0.00    -0.368 C  
HETATM    6  O   UNL     1     -12.337  13.019  70.582  1.00  0.00    -0.356 OA 
HETATM    7  O   UNL     1     -11.710  15.200  70.650  1.00  0.00    -0.268 OA 
ENDROOT
BRANCH   3   8
HETATM    8  C   UNL     1     -13.861  15.557  72.704  1.00  0.00    -0.564 C  
HETATM    9  O   UNL     1     -13.427  16.314  73.827  1.00  0.00    -0.924 OA 
HETATM   10  H   UNL     1     -13.921  17.115  73.961  1.00  0.00     0.000 HD 
ENDBRANCH   3   8
TORSDOF 1
ENDMDL
MODEL       35
REMARK 921   NORMALIZED FREE ENERGY PREDICTED BY IDOCK:   -3.40 KCAL/MOL
REMARK 922        TOTAL FREE ENERGY PREDICTED BY IDOCK:   -3.61 KCAL/MOL
REMARK 923 INTER-LIGAND FREE ENERGY PREDICTED BY IDOCK:   -3.46 KCAL/MOL
REMARK 924 INTRA-LIGAND FREE ENERGY PREDICTED BY IDOCK:   -0.15 KCAL/MOL
REMARK 927      BINDING AFFINITY PREDICTED BY RF-SCORE:    0.00 PKD
ROOT
HETATM    1  N   UNL     1     -12.279  13.549  63.085  1.00  0.00    -0.999 NA 
HETATM    2  H1  UNL     1     -12.080  13.133  62.175  1.00  0.00     0.000 HD 
HETATM    3  CA  UNL     1     -12.326  12.508  64.165  1.00  0.00    -0.462 C  
HETATM    4  H2  UNL     1     -11.616  14.291  63.309  1.00  0.00     0.000 HD 
HETATM    5  C   UNL     1     -10.982  11.754  64.147  1.00  0.00    -0.374 C  
HETATM    6  O   UNL     1     -10.342  11.941  62.959  1.00  0.00    -0.347 OA 
HETATM    7  O   UNL     1     -10.543  11.039  65.032  1.00  0.00    -0.292 OA 
ENDROOT
BRANCH   3   8
HETATM    8  C   UNL     1     -12.625  13.133  65.534  1.00  0.00    -0.408 C  
HETATM    9  O   UNL     1     -12.271  12.301  66.631  1.00  0.00    -0.574 OA 
HETATM   10  H   UNL     1     -12.457  12.688  67.479  1.00  0.00     0.000 HD 
ENDBRANCH   3   8
TORSDOF 1
ENDMDL
MODEL       36
REMARK 921   NORMALIZED FREE ENERGY PREDICTED BY IDOCK:   -3.37 KCAL/MOL
REMARK 922        TOTAL FREE ENERGY PREDICTED BY IDOCK:   -3.58 KCAL/MOL
REMARK 923 INTER-LIGAND FREE ENERGY PREDICTED BY IDOCK:   -3.36 KCAL/MOL
REMARK 924 INTRA-LIGAND FREE ENERGY PREDICTED BY IDOCK:   -0.22 KCAL/MOL
REMARK 927      BINDING AFFINITY PREDICTED BY RF-SCORE:    0.00 PKD
ROOT
HETATM    1  N   UNL     1     -12.334   6.965  70.361  1.00  0.00    -0.604 NA 
HETATM    2  H1  UNL     1     -11.342   6.920  70.127  1.00  0.00     0.000 HD 
HETATM    3  CA  UNL     1     -12.593   7.940  71.472  1.00  0.00    -0.321 C  
HETATM    4  H2  UNL     1     -12.902   7.175  69.540  1.00  0.00     0.000 HD 
HETATM    5  C   UNL     1     -12.032   9.308  71.035  1.00  0.00    -0.300 C  
HETATM    6  O   UNL     1     -11.138   9.157  70.018  1.00  0.00    -0.235 OA 
HETATM    7  O   UNL     1     -12.289  10.388  71.538  1.00  0.00    -0.376 OA 
ENDROOT
BRANCH   3   8
HETATM    8  C   UNL     1     -14.085   8.008  71.824  1.00  0.00    -0.434 C  
HETATM    9  O   UNL     1     -14.357   8.723  73.023  1.00  0.00    -1.089 OA 
HETATM   10  H   UNL     1     -15.280   8.764  73.241  1.00  0.00     0.000 HD 
ENDBRANCH   3   8
TORSDOF 1
ENDMDL
MODEL       37
REMARK 921   NORMALIZED FREE ENERGY PREDICTED BY IDOCK:   -3.31 KCAL/MOL
REMARK 922        TOTAL FREE ENERGY PREDICTED BY IDOCK:   -3.51 KCAL/MOL
REMARK 923 INTER-LIGAND FREE ENERGY PREDICTED BY IDOCK:   -3.27 KCAL/MOL
REMARK 924 INTRA-LIGAND FREE ENERGY PREDICTED BY IDOCK:   -0.24 KCAL/MOL
REMARK 927      BINDING AFFINITY PREDICTED BY RF-SCORE:    0.00 PKD
ROOT
HETATM    1  N   UNL     1     -12.709  13.852  65.729  1.00  0.00    -0.499 NA 
HETATM    2  H1  UNL     1     -13.612  13.815  65.256  1.00  0.00     0.000 HD 
HETATM    3  CA  UNL     1     -11.829  12.707  65.320  1.00  0.00    -0.408 C  
HETATM    4  H2  UNL     1     -12.247  14.749  65.583  1.00  0.00     0.000 HD 
HETATM    5  C   UNL     1     -11.688  12.749  63.786  1.00  0.00    -0.493 C  
HETATM    6  O   UNL     1     -12.681  13.501  63.234  1.00  0.00    -0.726 OA 
HETATM    7  O   UNL     1     -10.850  12.165  63.121  1.00  0.00    -0.366 OA 
ENDROOT
BRANCH   3   8
HETATM    8  C   UNL     1     -10.470  12.761  66.032  1.00  0.00    -0.274 C  
HETATM    9  O   UNL     1      -9.491  13.522  65.334  1.00  0.00    -0.499 OA 
HETATM   10  H   UNL     1      -8.650  13.555  65.775  1.00  0.00     0.000 HD 
ENDBRANCH   3   8
TORSDOF 1
ENDMDL
MODEL       38
REMARK 921   NORMALIZED FREE ENERGY PREDICTED BY IDOCK:   -3.29 KCAL/MOL
REMARK 922        TOTAL FREE ENERGY PREDICTED BY IDOCK:   -3.49 KCAL/MOL
REMARK 923 INTER-LIGAND FREE ENERGY PREDICTED BY IDOCK:   -3.38 KCAL/MOL
REMARK 924 INTRA-LIGAND FREE ENERGY PREDICTED BY IDOCK:   -0.10 KCAL/MOL
REMARK 927      BINDING AFFINITY PREDICTED BY RF-SCORE:    0.00 PKD
ROOT
HETATM    1  N   UNL     1     -10.565  14.327  66.462  1.00  0.00    -0.283 NA 
HETATM    2  H1  UNL     1     -10.763  13.488  65.917  1.00  0.00     0.000 HD 
HETATM    3  CA  UNL     1     -10.289  15.505  65.573  1.00  0.00    -0.394 C  
HETATM    4  H2  UNL     1     -11.313  14.527  67.125  1.00  0.00     0.000 HD 
HETATM    5  C   UNL     1     -11.504  15.683  64.642  1.00  0.00    -0.303 C  
HETATM    6  O   UNL     1     -12.245  14.541  64.596  1.00  0.00    -0.451 OA 
HETATM    7  O   UNL     1     -11.771  16.674  63.983  1.00  0.00    -1.143 OA 
ENDROOT
BRANCH   3   8
HETATM    8  C   UNL     1      -9.992  16.768  66.392  1.00  0.00    -0.304 C  
HETATM    9  O   UNL     1      -9.143  17.694  65.725  1.00  0.00    -0.503 OA 
HETATM   10  H   UNL     1      -8.958  18.476  66.232  1.00  0.00     0.000 HD 
ENDBRANCH   3   8
TORSDOF 1
ENDMDL
MODEL       39
REMARK 921   NORMALIZED FREE ENERGY PREDICTED BY IDOCK:   -3.28 KCAL/MOL
REMARK 922        TOTAL FREE ENERGY PREDICTED BY IDOCK:   -3.48 KCAL/MOL
REMARK 923 INTER-LIGAND FREE ENERGY PREDICTED BY IDOCK:   -3.26 KCAL/MOL
REMARK 924 INTRA-LIGAND FREE ENERGY PREDICTED BY IDOCK:   -0.22 KCAL/MOL
REMARK 927      BINDING AFFINITY PREDICTED BY RF-SCORE:    0.00 PKD
ROOT
HETATM    1  N   UNL     1     -12.021  12.299  66.026  1.00  0.00    -0.609 NA 
HETATM    2  H1  UNL     1     -11.376  12.215  66.812  1.00  0.00     0.000 HD 
HETATM    3  CA  UNL     1     -11.285  12.383  64.720  1.00  0.00    -0.310 C  
HETATM    4  H2  UNL     1     -12.704  11.542  66.022  1.00  0.00     0.000 HD 
HETATM    5  C   UNL     1     -10.385  11.138  64.608  1.00  0.00    -0.330 C  
HETATM    6  O   UNL     1     -10.197  10.570  65.833  1.00  0.00    -0.253 OA 
HETATM    7  O   UNL     1      -9.855  10.718  63.594  1.00  0.00    -0.295 OA 
ENDROOT
BRANCH   3   8
HETATM    8  C   UNL     1     -12.255  12.509  63.537  1.00  0.00    -0.558 C  
HETATM    9  O   UNL     1     -12.453  11.291  62.830  1.00  0.00    -0.905 OA 
HETATM   10  H   UNL     1     -13.053  11.370  62.097  1.00  0.00     0.000 HD 
ENDBRANCH   3   8
TORSDOF 1
ENDMDL
MODEL       40
REMARK 921   NORMALIZED FREE ENERGY PREDICTED BY IDOCK:   -3.25 KCAL/MOL
REMARK 922        TOTAL FREE ENERGY PREDICTED BY IDOCK:   -3.44 KCAL/MOL
REMARK 923 INTER-LIGAND FREE ENERGY PREDICTED BY IDOCK:   -3.44 KCAL/MOL
REMARK 924 INTRA-LIGAND FREE ENERGY PREDICTED BY IDOCK:   -0.01 KCAL/MOL
REMARK 927      BINDING AFFINITY PREDICTED BY RF-SCORE:    0.00 PKD
ROOT
HETATM    1  N   UNL     1     -11.627  12.593  70.249  1.00  0.00    -0.538 NA 
HETATM    2  H1  UNL     1     -12.149  11.740  70.049  1.00  0.00     0.000 HD 
HETATM    3  CA  UNL     1     -12.533  13.690  70.730  1.00  0.00    -0.359 C  
HETATM    4  H2  UNL     1     -10.867  12.421  70.907  1.00  0.00     0.000 HD 
HETATM    5  C   UNL     1     -13.290  13.163  71.965  1.00  0.00    -0.493 C  
HETATM    6  O   UNL     1     -13.248  11.802  72.010  1.00  0.00    -0.506 OA 
HETATM    7  O   UNL     1     -13.896  13.836  72.782  1.00  0.00    -0.716 OA 
ENDROOT
BRANCH   3   8
HETATM    8  C   UNL     1     -11.748  14.974  71.031  1.00  0.00    -0.332 C  
HETATM    9  O   UNL     1     -10.490  15.042  70.370  1.00  0.00    -0.493 OA 
HETATM   10  H   UNL     1     -10.004  15.837  70.557  1.00  0.00     0.000 HD 
ENDBRANCH   3   8
TORSDOF 1
ENDMDL
MODEL       41
REMARK 921   NORMALIZED FREE ENERGY PREDICTED BY IDOCK:   -3.16 KCAL/MOL
REMARK 922        TOTAL FREE ENERGY PREDICTED BY IDOCK:   -3.35 KCAL/MOL
REMARK 923 INTER-LIGAND FREE ENERGY PREDICTED BY IDOCK:   -3.16 KCAL/MOL
REMARK 924 INTRA-LIGAND FREE ENERGY PREDICTED BY IDOCK:   -0.20 KCAL/MOL
REMARK 927      BINDING AFFINITY PREDICTED BY RF-SCORE:    0.00 PKD
ROOT
HETATM    1  N   UNL     1     -10.348  13.522  64.374  1.00  0.00    -0.635 NA 
HETATM    2  H1  UNL     1     -10.352  12.731  63.731  1.00  0.00     0.000 HD 
HETATM    3  CA  UNL     1     -11.499  13.452  65.336  1.00  0.00    -0.302 C  
HETATM    4  H2  UNL     1      -9.457  13.601  64.864  1.00  0.00     0.000 HD 
HETATM    5  C   UNL     1     -11.415  12.099  66.069  1.00  0.00    -0.370 C  
HETATM    6  O   UNL     1     -10.626  11.228  65.380  1.00  0.00    -0.267 OA 
HETATM    7  O   UNL     1     -11.997  11.797  67.097  1.00  0.00    -0.617 OA 
ENDROOT
BRANCH   3   8
HETATM    8  C   UNL     1     -11.495  14.642  66.304  1.00  0.00    -0.351 C  
HETATM    9  O   UNL     1     -12.383  14.486  67.404  1.00  0.00    -0.614 OA 
HETATM   10  H   UNL     1     -12.380  15.223  68.004  1.00  0.00     0.000 HD 
ENDBRANCH   3   8
TORSDOF 1
ENDMDL
MODEL       42
REMARK 921   NORMALIZED FREE ENERGY PREDICTED BY IDOCK:   -3.15 KCAL/MOL
REMARK 922        TOTAL FREE ENERGY PREDICTED BY IDOCK:   -3.34 KCAL/MOL
REMARK 923 INTER-LIGAND FREE ENERGY PREDICTED BY IDOCK:   -3.15 KCAL/MOL
REMARK 924 INTRA-LIGAND FREE ENERGY PREDICTED BY IDOCK:   -0.19 KCAL/MOL
REMARK 927      BINDING AFFINITY PREDICTED BY RF-SCORE:    0.00 PKD
ROOT
HETATM    1  N   UNL     1     -11.722  10.663  70.822  1.00  0.00    -0.341 NA 
HETATM    2  H1  UNL     1     -10.923  10.421  70.235  1.00  0.00     0.000 HD 
HETATM    3  CA  UNL     1     -12.360   9.438  71.411  1.00  0.00    -0.357 C  
HETATM    4  H2  UNL     1     -11.465  11.335  71.544  1.00  0.00     0.000 HD 
HETATM    5  C   UNL     1     -11.273   8.672  72.190  1.00  0.00    -0.367 C  
HETATM    6  O   UNL     1     -10.031   9.066  71.791  1.00  0.00    -0.325 OA 
HETATM    7  O   UNL     1     -11.458   7.795  73.016  1.00  0.00    -0.372 OA 
ENDROOT
BRANCH   3   8
HETATM    8  C   UNL     1     -13.562   9.801  72.293  1.00  0.00    -0.308 C  
HETATM    9  O   UNL     1     -14.014   8.729  73.111  1.00  0.00    -1.077 OA 
HETATM   10  H   UNL     1     -14.758   8.954  73.657  1.00  0.00     0.000 HD 
ENDBRANCH   3   8
TORSDOF 1
ENDMDL
MODEL       43
REMARK 921   NORMALIZED FREE ENERGY PREDICTED BY IDOCK:   -3.13 KCAL/MOL
REMARK 922        TOTAL FREE ENERGY PREDICTED BY IDOCK:   -3.32 KCAL/MOL
REMARK 923 INTER-LIGAND FREE ENERGY PREDICTED BY IDOCK:   -3.09 KCAL/MOL
REMARK 924 INTRA-LIGAND FREE ENERGY PREDICTED BY IDOCK:   -0.22 KCAL/MOL
REMARK 927      BINDING AFFINITY PREDICTED BY RF-SCORE:    0.00 PKD
ROOT
HETATM    1  N   UNL     1     -11.837  10.257  68.511  1.00  0.00    -0.710 NA 
HETATM    2  H1  UNL     1     -11.409  10.016  67.617  1.00  0.00     0.000 HD 
HETATM    3  CA  UNL     1     -11.469  11.648  68.937  1.00  0.00    -0.287 C  
HETATM    4  H2  UNL     1     -12.848  10.128  68.489  1.00  0.00     0.000 HD 
HETATM    5  C   UNL     1     -11.890  12.610  67.809  1.00  0.00    -0.323 C  
HETATM    6  O   UNL     1     -12.070  11.931  66.642  1.00  0.00    -0.587 OA 
HETATM    7  O   UNL     1     -12.007  13.821  67.897  1.00  0.00    -0.362 OA 
ENDROOT
BRANCH   3   8
HETATM    8  C   UNL     1     -12.112  12.011  70.283  1.00  0.00    -0.312 C  
HETATM    9  O   UNL     1     -11.832  13.339  70.709  1.00  0.00    -0.513 OA 
HETATM   10  H   UNL     1     -12.230  13.564  71.542  1.00  0.00     0.000 HD 
ENDBRANCH   3   8
TORSDOF 1
ENDMDL
MODEL       44
REMARK 921   NORMALIZED FREE ENERGY PREDICTED BY IDOCK:   -3.12 KCAL/MOL
REMARK 922        TOTAL FREE ENERGY PREDICTED BY IDOCK:   -3.31 KCAL/MOL
REMARK 923 INTER-LIGAND FREE ENERGY PREDICTED BY IDOCK:   -3.08 KCAL/MOL
REMARK 924 INTRA-LIGAND FREE ENERGY PREDICTED BY IDOCK:   -0.23 KCAL/MOL
REMARK 927      BINDING AFFINITY PREDICTED BY RF-SCORE:    0.00 PKD
ROOT
HETATM    1  N   UNL     1     -11.018   9.351  71.152  1.00  0.00    -0.331 NA 
HETATM    2  H1  UNL     1     -10.862  10.284  71.535  1.00  0.00     0.000 HD 
HETATM    3  CA  UNL     1     -11.918   8.538  72.037  1.00  0.00    -0.361 C  
HETATM    4  H2  UNL     1     -11.374   9.395  70.197  1.00  0.00     0.000 HD 
HETATM    5  C   UNL     1     -13.231   9.325  72.219  1.00  0.00    -0.460 C  
HETATM    6  O   UNL     1     -13.052  10.638  71.902  1.00  0.00    -0.469 OA 
HETATM    7  O   UNL     1     -14.288   8.880  72.634  1.00  0.00    -0.613 OA 
ENDROOT
BRANCH   3   8
HETATM    8  C   UNL     1     -12.154   7.136  71.460  1.00  0.00    -0.342 C  
HETATM    9  O   UNL     1     -12.994   6.321  72.268  1.00  0.00    -0.507 OA 
HETATM   10  H   UNL     1     -13.139   5.452  71.911  1.00  0.00     0.000 HD 
ENDBRANCH   3   8
TORSDOF 1
ENDMDL
MODEL       45
REMARK 921   NORMALIZED FREE ENERGY PREDICTED BY IDOCK:   -3.10 KCAL/MOL
REMARK 922        TOTAL FREE ENERGY PREDICTED BY IDOCK:   -3.29 KCAL/MOL
REMARK 923 INTER-LIGAND FREE ENERGY PREDICTED BY IDOCK:   -3.09 KCAL/MOL
REMARK 924 INTRA-LIGAND FREE ENERGY PREDICTED BY IDOCK:   -0.20 KCAL/MOL
REMARK 927      BINDING AFFINITY PREDICTED BY RF-SCORE:    0.00 PKD
ROOT
HETATM    1  N   UNL     1     -10.630  17.684  65.380  1.00  0.00    -0.625 NA 
HETATM    2  H1  UNL     1     -10.513  16.704  65.638  1.00  0.00     0.000 HD 
HETATM    3  CA  UNL     1      -9.939  18.594  66.354  1.00  0.00    -0.388 C  
HETATM    4  H2  UNL     1     -10.323  17.858  64.423  1.00  0.00     0.000 HD 
HETATM    5  C   UNL     1      -8.456  18.177  66.412  1.00  0.00    -0.238 C  
HETATM    6  O   UNL     1      -8.293  16.915  65.926  1.00  0.00    -0.498 OA 
HETATM    7  O   UNL     1      -7.538  18.836  66.869  1.00  0.00    -0.219 OA 
ENDROOT
BRANCH   3   8
HETATM    8  C   UNL     1     -10.115  20.068  65.967  1.00  0.00    -0.450 C  
HETATM    9  O   UNL     1      -9.781  20.976  67.010  1.00  0.00    -0.671 OA 
HETATM   10  H   UNL     1      -9.891  21.889  66.770  1.00  0.00     0.000 HD 
ENDBRANCH   3   8
TORSDOF 1
ENDMDL
MODEL       46
REMARK 921   NORMALIZED FREE ENERGY PREDICTED BY IDOCK:   -3.08 KCAL/MOL
REMARK 922        TOTAL FREE ENERGY PREDICTED BY IDOCK:   -3.27 KCAL/MOL
REMARK 923 INTER-LIGAND FREE ENERGY PREDICTED BY IDOCK:   -3.06 KCAL/MOL
REMARK 924 INTRA-LIGAND FREE ENERGY PREDICTED BY IDOCK:   -0.21 KCAL/MOL
REMARK 927      BINDING AFFINITY PREDICTED BY RF-SCORE:    0.00 PKD
ROOT
HETATM    1  N   UNL     1     -13.937  12.947  72.613  1.00  0.00    -0.699 NA 
HETATM    2  H1  UNL     1     -13.439  12.146  73.003  1.00  0.00     0.000 HD 
HETATM    3  CA  UNL     1     -13.012  13.847  71.847  1.00  0.00    -0.354 C  
HETATM    4  H2  UNL     1     -14.729  12.652  72.043  1.00  0.00     0.000 HD 
HETATM    5  C   UNL     1     -12.326  12.998  70.759  1.00  0.00    -0.310 C  
HETATM    6  O   UNL     1     -12.421  11.671  71.055  1.00  0.00    -0.379 OA 
HETATM    7  O   UNL     1     -11.729  13.419  69.783  1.00  0.00    -0.293 OA 
ENDROOT
BRANCH   3   8
HETATM    8  C   UNL     1     -13.760  15.052  71.261  1.00  0.00    -0.450 C  
HETATM    9  O   UNL     1     -12.900  16.086  70.796  1.00  0.00    -0.578 OA 
HETATM   10  H   UNL     1     -13.363  16.832  70.434  1.00  0.00     0.000 HD 
ENDBRANCH   3   8
TORSDOF 1
ENDMDL
MODEL       47
REMARK 921   NORMALIZED FREE ENERGY PREDICTED BY IDOCK:   -3.08 KCAL/MOL
REMARK 922        TOTAL FREE ENERGY PREDICTED BY IDOCK:   -3.27 KCAL/MOL
REMARK 923 INTER-LIGAND FREE ENERGY PREDICTED BY IDOCK:   -3.05 KCAL/MOL
REMARK 924 INTRA-LIGAND FREE ENERGY PREDICTED BY IDOCK:   -0.21 KCAL/MOL
REMARK 927      BINDING AFFINITY PREDICTED BY RF-SCORE:    0.00 PKD
ROOT
HETATM    1  N   UNL     1      -9.779  20.446  65.982  1.00  0.00    -0.666 NA 
HETATM    2  H1  UNL     1     -10.510  20.370  65.274  1.00  0.00     0.000 HD 
HETATM    3  CA  UNL     1     -10.136  19.679  67.222  1.00  0.00    -0.409 C  
HETATM    4  H2  UNL     1      -8.872  20.162  65.614  1.00  0.00     0.000 HD 
HETATM    5  C   UNL     1     -10.401  18.218  66.808  1.00  0.00    -0.384 C  
HETATM    6  O   UNL     1     -10.643  18.134  65.470  1.00  0.00    -0.638 OA 
HETATM    7  O   UNL     1     -10.446  17.253  67.552  1.00  0.00    -0.345 OA 
ENDROOT
BRANCH   3   8
HETATM    8  C   UNL     1      -9.037  19.793  68.287  1.00  0.00    -0.297 C  
HETATM    9  O   UNL     1      -8.224  18.631  68.395  1.00  0.00    -0.314 OA 
HETATM   10  H   UNL     1      -7.544  18.701  69.055  1.00  0.00     0.000 HD 
ENDBRANCH   3   8
TORSDOF 1
ENDMDL
MODEL       48
REMARK 921   NORMALIZED FREE ENERGY PREDICTED BY IDOCK:   -3.07 KCAL/MOL
REMARK 922        TOTAL FREE ENERGY PREDICTED BY IDOCK:   -3.26 KCAL/MOL
REMARK 923 INTER-LIGAND FREE ENERGY PREDICTED BY IDOCK:   -3.04 KCAL/MOL
REMARK 924 INTRA-LIGAND FREE ENERGY PREDICTED BY IDOCK:   -0.21 KCAL/MOL
REMARK 927      BINDING AFFINITY PREDICTED BY RF-SCORE:    0.00 PKD
ROOT
HETATM    1  N   UNL     1     -11.223  14.860  65.783  1.00  0.00    -0.338 NA 
HETATM    2  H1  UNL     1     -11.091  14.641  64.796  1.00  0.00     0.000 HD 
HETATM    3  CA  UNL     1     -10.449  16.083  66.182  1.00  0.00    -0.326 C  
HETATM    4  H2  UNL     1     -12.212  14.952  66.017  1.00  0.00     0.000 HD 
HETATM    5  C   UNL     1     -10.890  17.237  65.262  1.00  0.00     0.004 C  
HETATM    6  O   UNL     1     -11.498  16.754  64.143  1.00  0.00    -1.171 OA 
HETATM    7  O   UNL     1     -10.695  18.426  65.450  1.00  0.00    -0.594 OA 
ENDROOT
BRANCH   3   8
HETATM    8  C   UNL     1     -10.647  16.413  67.668  1.00  0.00    -0.313 C  
HETATM    9  O   UNL     1     -10.052  17.643  68.063  1.00  0.00    -0.307 OA 
HETATM   10  H   UNL     1     -10.175  17.847  68.983  1.00  0.00     0.000 HD 
ENDBRANCH   3   8
TORSDOF 1
ENDMDL
MODEL       49
REMARK 921   NORMALIZED FREE ENERGY PREDICTED BY IDOCK:   -3.04 KCAL/MOL
REMARK 922        TOTAL FREE ENERGY PREDICTED BY IDOCK:   -3.23 KCAL/MOL
REMARK 923 INTER-LIGAND FREE ENERGY PREDICTED BY IDOCK:   -3.00 KCAL/MOL
REMARK 924 INTRA-LIGAND FREE ENERGY PREDICTED BY IDOCK:   -0.22 KCAL/MOL
REMARK 927      BINDING AFFINITY PREDICTED BY RF-SCORE:    0.00 PKD
ROOT
HETATM    1  N   UNL     1     -12.357   7.353  72.464  1.00  0.00    -0.521 NA 
HETATM    2  H1  UNL     1     -13.309   6.988  72.458  1.00  0.00     0.000 HD 
HETATM    3  CA  UNL     1     -12.218   8.537  71.551  1.00  0.00    -0.311 C  
HETATM    4  H2  UNL     1     -12.046   7.572  73.410  1.00  0.00     0.000 HD 
HETATM    5  C   UNL     1     -13.251   9.592  71.992  1.00  0.00    -0.452 C  
HETATM    6  O   UNL     1     -14.224   9.020  72.756  1.00  0.00    -0.572 OA 
HETATM    7  O   UNL     1     -13.259  10.770  71.680  1.00  0.00    -0.413 OA 
ENDROOT
BRANCH   3   8
HETATM    8  C   UNL     1     -10.785   9.086  71.560  1.00  0.00    -0.351 C  
HETATM    9  O   UNL     1     -10.560  10.109  70.597  1.00  0.00    -0.382 OA 
HETATM   10  H   UNL     1      -9.673  10.448  70.601  1.00  0.00     0.000 HD 
ENDBRANCH   3   8
TORSDOF 1
ENDMDL
MODEL       50
REMARK 921   NORMALIZED FREE ENERGY PREDICTED BY IDOCK:   -3.04 KCAL/MOL
REMARK 922        TOTAL FREE ENERGY PREDICTED BY IDOCK:   -3.22 KCAL/MOL
REMARK 923 INTER-LIGAND FREE ENERGY PREDICTED BY IDOCK:   -3.01 KCAL/MOL
REMARK 924 INTRA-LIGAND FREE ENERGY PREDICTED BY IDOCK:   -0.21 KCAL/MOL
REMARK 927      BINDING AFFINITY PREDICTED BY RF-SCORE:    0.00 PKD
ROOT
HETATM    1  N   UNL     1     -11.706  13.417  70.396  1.00  0.00    -0.541 NA 
HETATM    2  H1  UNL     1     -11.587  13.609  71.391  1.00  0.00     0.000 HD 
HETATM    3  CA  UNL     1     -11.697  11.942  70.117  1.00  0.00    -0.253 C  
HETATM    4  H2  UNL     1     -12.547  13.862  70.029  1.00  0.00     0.000 HD 
HETATM    5  C   UNL     1     -12.802  11.296  70.975  1.00  0.00    -0.300 C  
HETATM    6  O   UNL     1     -13.163  12.124  71.995  1.00  0.00    -0.499 OA 
HETATM    7  O   UNL     1     -13.277  10.183  70.823  1.00  0.00    -0.379 OA 
ENDROOT
BRANCH   3   8
HETATM    8  C   UNL     1     -11.876  11.653  68.621  1.00  0.00    -0.308 C  
HETATM    9  O   UNL     1     -12.019  10.270  68.320  1.00  0.00    -0.730 OA 
HETATM   10  H   UNL     1     -12.129  10.092  67.393  1.00  0.00     0.000 HD 
ENDBRANCH   3   8
TORSDOF 1
ENDMDL
MODEL       51
REMARK 921   NORMALIZED FREE ENERGY PREDICTED BY IDOCK:   -3.04 KCAL/MOL
REMARK 922        TOTAL FREE ENERGY PREDICTED BY IDOCK:   -3.22 KCAL/MOL
REMARK 923 INTER-LIGAND FREE ENERGY PREDICTED BY IDOCK:   -3.21 KCAL/MOL
REMARK 924 INTRA-LIGAND FREE ENERGY PREDICTED BY IDOCK:   -0.01 KCAL/MOL
REMARK 927      BINDING AFFINITY PREDICTED BY RF-SCORE:    0.00 PKD
ROOT
HETATM    1  N   UNL     1     -12.265  10.747  68.819  1.00  0.00    -0.814 NA 
HETATM    2  H1  UNL     1     -11.665  11.135  68.092  1.00  0.00     0.000 HD 
HETATM    3  CA  UNL     1     -11.977  11.367  70.156  1.00  0.00    -0.377 C  
HETATM    4  H2  UNL     1     -13.251  10.831  68.573  1.00  0.00     0.000 HD 
HETATM    5  C   UNL     1     -12.144  12.892  70.011  1.00  0.00    -0.286 C  
HETATM    6  O   UNL     1     -12.086  13.258  68.700  1.00  0.00    -0.337 OA 
HETATM    7  O   UNL     1     -12.261  13.696  70.920  1.00  0.00    -0.348 OA 
ENDROOT
BRANCH   3   8
HETATM    8  C   UNL     1     -12.880  10.784  71.251  1.00  0.00    -0.438 C  
HETATM    9  O   UNL     1     -13.300  11.742  72.215  1.00  0.00    -0.613 OA 
HETATM   10  H   UNL     1     -13.858  11.381  72.893  1.00  0.00     0.000 HD 
ENDBRANCH   3   8
TORSDOF 1
ENDMDL
MODEL       52
REMARK 921   NORMALIZED FREE ENERGY PREDICTED BY IDOCK:   -3.02 KCAL/MOL
REMARK 922        TOTAL FREE ENERGY PREDICTED BY IDOCK:   -3.20 KCAL/MOL
REMARK 923 INTER-LIGAND FREE ENERGY PREDICTED BY IDOCK:   -2.98 KCAL/MOL
REMARK 924 INTRA-LIGAND FREE ENERGY PREDICTED BY IDOCK:   -0.22 KCAL/MOL
REMARK 927      BINDING AFFINITY PREDICTED BY RF-SCORE:    0.00 PKD
ROOT
HETATM    1  N   UNL     1     -10.653  18.097  65.631  1.00  0.00    -0.595 NA 
HETATM    2  H1  UNL     1     -11.555  17.733  65.936  1.00  0.00     0.000 HD 
HETATM    3  CA  UNL     1     -10.125  19.128  66.586  1.00  0.00    -0.395 C  
HETATM    4  H2  UNL     1      -9.979  17.346  65.481  1.00  0.00     0.000 HD 
HETATM    5  C   UNL     1     -10.052  18.479  67.982  1.00  0.00    -0.371 C  
HETATM    6  O   UNL     1     -10.839  17.368  68.036  1.00  0.00    -0.384 OA 
HETATM    7  O   UNL     1      -9.430  18.899  68.943  1.00  0.00    -0.347 OA 
ENDROOT
BRANCH   3   8
HETATM    8  C   UNL     1      -8.767  19.675  66.126  1.00  0.00    -0.333 C  
HETATM    9  O   UNL     1      -8.323  20.801  66.874  1.00  0.00    -0.559 OA 
HETATM   10  H   UNL     1      -7.483  21.140  66.589  1.00  0.00     0.000 HD 
ENDBRANCH   3   8
TORSDOF 1
ENDMDL
MODEL       53
REMARK 921   NORMALIZED FREE ENERGY PREDICTED BY IDOCK:   -3.00 KCAL/MOL
REMARK 922        TOTAL FREE ENERGY PREDICTED BY IDOCK:   -3.18 KCAL/MOL
REMARK 923 INTER-LIGAND FREE ENERGY PREDICTED BY IDOCK:   -3.18 KCAL/MOL
REMARK 924 INTRA-LIGAND FREE ENERGY PREDICTED BY IDOCK:   -0.01 KCAL/MOL
REMARK 927      BINDING AFFINITY PREDICTED BY RF-SCORE:    0.00 PKD
ROOT
HETATM    1  N   UNL     1     -10.250  13.675  64.210  1.00  0.00    -0.753 NA 
HETATM    2  H1  UNL     1     -11.030  13.978  63.626  1.00  0.00     0.000 HD 
HETATM    3  CA  UNL     1     -10.638  13.620  65.659  1.00  0.00    -0.293 C  
HETATM    4  H2  UNL     1      -9.868  12.785  63.891  1.00  0.00     0.000 HD 
HETATM    5  C   UNL     1     -11.857  12.686  65.782  1.00  0.00    -0.444 C  
HETATM    6  O   UNL     1     -12.464  12.527  64.572  1.00  0.00    -0.464 OA 
HETATM    7  O   UNL     1     -12.282  12.181  66.808  1.00  0.00    -0.553 OA 
ENDROOT
BRANCH   3   8
HETATM    8  C   UNL     1      -9.465  13.165  66.537  1.00  0.00    -0.243 C  
HETATM    9  O   UNL     1      -8.412  14.118  66.621  1.00  0.00    -0.428 OA 
HETATM   10  H   UNL     1      -7.685  13.835  67.164  1.00  0.00     0.000 HD 
ENDBRANCH   3   8
TORSDOF 1
ENDMDL
MODEL       54
REMARK 921   NORMALIZED FREE ENERGY PREDICTED BY IDOCK:   -3.00 KCAL/MOL
REMARK 922        TOTAL FREE ENERGY PREDICTED BY IDOCK:   -3.18 KCAL/MOL
REMARK 923 INTER-LIGAND FREE ENERGY PREDICTED BY IDOCK:   -2.96 KCAL/MOL
REMARK 924 INTRA-LIGAND FREE ENERGY PREDICTED BY IDOCK:   -0.22 KCAL/MOL
REMARK 927      BINDING AFFINITY PREDICTED BY RF-SCORE:    0.00 PKD
ROOT
HETATM    1  N   UNL     1     -11.732  12.796  70.233  1.00  0.00    -0.548 NA 
HETATM    2  H1  UNL     1     -11.403  11.859  70.466  1.00  0.00     0.000 HD 
HETATM    3  CA  UNL     1     -11.342  13.183  68.836  1.00  0.00    -0.289 C  
HETATM    4  H2  UNL     1     -12.738  12.885  70.379  1.00  0.00     0.000 HD 
HETATM    5  C   UNL     1     -11.902  12.111  67.880  1.00  0.00    -0.269 C  
HETATM    6  O   UNL     1     -12.199  10.969  68.561  1.00  0.00    -0.582 OA 
HETATM    7  O   UNL     1     -12.028  12.215  66.672  1.00  0.00    -0.616 OA 
ENDROOT
BRANCH   3   8
HETATM    8  C   UNL     1     -11.838  14.592  68.486  1.00  0.00    -0.311 C  
HETATM    9  O   UNL     1     -11.329  15.085  67.252  1.00  0.00    -0.339 OA 
HETATM   10  H   UNL     1     -11.636  15.958  67.035  1.00  0.00     0.000 HD 
ENDBRANCH   3   8
TORSDOF 1
ENDMDL
MODEL       55
REMARK 921   NORMALIZED FREE ENERGY PREDICTED BY IDOCK:   -2.99 KCAL/MOL
REMARK 922        TOTAL FREE ENERGY PREDICTED BY IDOCK:   -3.17 KCAL/MOL
REMARK 923 INTER-LIGAND FREE ENERGY PREDICTED BY IDOCK:   -3.16 KCAL/MOL
REMARK 924 INTRA-LIGAND FREE ENERGY PREDICTED BY IDOCK:   -0.01 KCAL/MOL
REMARK 927      BINDING AFFINITY PREDICTED BY RF-SCORE:    0.00 PKD
ROOT
HETATM    1  N   UNL     1     -12.137  12.309  65.592  1.00  0.00    -0.578 NA 
HETATM    2  H1  UNL     1     -12.763  11.887  66.278  1.00  0.00     0.000 HD 
HETATM    3  CA  UNL     1     -12.125  13.805  65.707  1.00  0.00    -0.429 C  
HETATM    4  H2  UNL     1     -11.196  11.921  65.658  1.00  0.00     0.000 HD 
HETATM    5  C   UNL     1     -11.732  14.161  67.154  1.00  0.00    -0.403 C  
HETATM    6  O   UNL     1     -11.915  13.091  67.978  1.00  0.00    -0.350 OA 
HETATM    7  O   UNL     1     -11.354  15.249  67.554  1.00  0.00    -0.331 OA 
ENDROOT
BRANCH   3   8
HETATM    8  C   UNL     1     -11.183  14.440  64.675  1.00  0.00    -0.360 C  
HETATM    9  O   UNL     1     -10.236  13.528  64.131  1.00  0.00    -0.708 OA 
HETATM   10  H   UNL     1      -9.652  13.921  63.492  1.00  0.00     0.000 HD 
ENDBRANCH   3   8
TORSDOF 1
ENDMDL
MODEL       56
REMARK 921   NORMALIZED FREE ENERGY PREDICTED BY IDOCK:   -2.98 KCAL/MOL
REMARK 922        TOTAL FREE ENERGY PREDICTED BY IDOCK:   -3.16 KCAL/MOL
REMARK 923 INTER-LIGAND FREE ENERGY PREDICTED BY IDOCK:   -3.16 KCAL/MOL
REMARK 924 INTRA-LIGAND FREE ENERGY PREDICTED BY IDOCK:   -0.01 KCAL/MOL
REMARK 927      BINDING AFFINITY PREDICTED BY RF-SCORE:    0.00 PKD
ROOT
HETATM    1  N   UNL     1     -13.454   9.558  70.835  1.00  0.00    -0.592 NA 
HETATM    2  H1  UNL     1     -13.889   9.235  71.699  1.00  0.00     0.000 HD 
HETATM    3  CA  UNL     1     -12.088  10.126  71.088  1.00  0.00    -0.388 C  
HETATM    4  H2  UNL     1     -13.427   8.819  70.132  1.00  0.00     0.000 HD 
HETATM    5  C   UNL     1     -11.252   9.040  71.794  1.00  0.00    -0.378 C  
HETATM    6  O   UNL     1     -12.062   8.090  72.339  1.00  0.00    -0.340 OA 
HETATM    7  O   UNL     1     -10.038   9.025  71.912  1.00  0.00    -0.339 OA 
ENDROOT
BRANCH   3   8
HETATM    8  C   UNL     1     -11.433  10.612  69.788  1.00  0.00    -0.302 C  
HETATM    9  O   UNL     1     -12.335  10.694  68.690  1.00  0.00    -0.820 OA 
HETATM   10  H   UNL     1     -11.929  10.994  67.886  1.00  0.00     0.000 HD 
ENDBRANCH   3   8
TORSDOF 1
ENDMDL
MODEL       57
REMARK 921   NORMALIZED FREE ENERGY PREDICTED BY IDOCK:   -2.96 KCAL/MOL
REMARK 922        TOTAL FREE ENERGY PREDICTED BY IDOCK:   -3.14 KCAL/MOL
REMARK 923 INTER-LIGAND FREE ENERGY PREDICTED BY IDOCK:   -2.95 KCAL/MOL
REMARK 924 INTRA-LIGAND FREE ENERGY PREDICTED BY IDOCK:   -0.19 KCAL/MOL
REMARK 927      BINDING AFFINITY PREDICTED BY RF-SCORE:    0.00 PKD
ROOT
HETATM    1  N   UNL     1     -12.726  12.902  71.364  1.00  0.00    -0.330 NA 
HETATM    2  H1  UNL     1     -12.153  12.126  71.031  1.00  0.00     0.000 HD 
HETATM    3  CA  UNL     1     -12.141  14.226  70.966  1.00  0.00    -0.344 C  
HETATM    4  H2  UNL     1     -13.693  12.812  71.054  1.00  0.00     0.000 HD 
HETATM    5  C   UNL     1     -11.988  14.227  69.432  1.00  0.00    -0.337 C  
HETATM    6  O   UNL     1     -12.020  12.955  68.945  1.00  0.00    -0.300 OA 
HETATM    7  O   UNL     1     -11.811  15.205  68.725  1.00  0.00    -0.330 OA 
ENDROOT
BRANCH   3   8
HETATM    8  C   UNL     1     -13.003  15.393  71.467  1.00  0.00    -0.447 C  
HETATM    9  O   UNL     1     -14.228  15.542  70.760  1.00  0.00    -0.863 OA 
HETATM   10  H   UNL     1     -14.761  16.264  71.070  1.00  0.00     0.000 HD 
ENDBRANCH   3   8
TORSDOF 1
ENDMDL
MODEL       58
REMARK 921   NORMALIZED FREE ENERGY PREDICTED BY IDOCK:   -2.96 KCAL/MOL
REMARK 922        TOTAL FREE ENERGY PREDICTED BY IDOCK:   -3.14 KCAL/MOL
REMARK 923 INTER-LIGAND FREE ENERGY PREDICTED BY IDOCK:   -2.95 KCAL/MOL
REMARK 924 INTRA-LIGAND FREE ENERGY PREDICTED BY IDOCK:   -0.18 KCAL/MOL
REMARK 927      BINDING AFFINITY PREDICTED BY RF-SCORE:    0.00 PKD
ROOT
HETATM    1  N   UNL     1     -13.201  11.436  71.829  1.00  0.00    -0.439 NA 
HETATM    2  H1  UNL     1     -13.580  11.229  72.753  1.00  0.00     0.000 HD 
HETATM    3  CA  UNL     1     -12.171  10.423  71.420  1.00  0.00    -0.362 C  
HETATM    4  H2  UNL     1     -13.940  11.520  71.132  1.00  0.00     0.000 HD 
HETATM    5  C   UNL     1     -12.831   9.032  71.484  1.00  0.00    -0.336 C  
HETATM    6  O   UNL     1     -13.954   9.069  72.255  1.00  0.00    -0.448 OA 
HETATM    7  O   UNL     1     -12.411   8.008  70.973  1.00  0.00    -0.263 OA 
ENDROOT
BRANCH   3   8
HETATM    8  C   UNL     1     -11.600  10.734  70.030  1.00  0.00    -0.334 C  
HETATM    9  O   UNL     1     -12.518  10.496  68.970  1.00  0.00    -0.770 OA 
HETATM   10  H   UNL     1     -12.164  10.688  68.110  1.00  0.00     0.000 HD 
ENDBRANCH   3   8
TORSDOF 1
ENDMDL
MODEL       59
REMARK 921   NORMALIZED FREE ENERGY PREDICTED BY IDOCK:   -2.95 KCAL/MOL
REMARK 922        TOTAL FREE ENERGY PREDICTED BY IDOCK:   -3.13 KCAL/MOL
REMARK 923 INTER-LIGAND FREE ENERGY PREDICTED BY IDOCK:   -2.90 KCAL/MOL
REMARK 924 INTRA-LIGAND FREE ENERGY PREDICTED BY IDOCK:   -0.23 KCAL/MOL
REMARK 927      BINDING AFFINITY PREDICTED BY RF-SCORE:    0.00 PKD
ROOT
HETATM    1  N   UNL     1     -12.011   7.055  70.432  1.00  0.00    -0.573 NA 
HETATM    2  H1  UNL     1     -12.734   6.887  69.733  1.00  0.00     0.000 HD 
HETATM    3  CA  UNL     1     -12.303   8.287  71.238  1.00  0.00    -0.263 C  
HETATM    4  H2  UNL     1     -11.876   6.240  71.031  1.00  0.00     0.000 HD 
HETATM    5  C   UNL     1     -13.699   8.116  71.868  1.00  0.00    -0.344 C  
HETATM    6  O   UNL     1     -14.406   7.152  71.213  1.00  0.00    -0.361 OA 
HETATM    7  O   UNL     1     -14.161   8.767  72.790  1.00  0.00    -0.451 OA 
ENDROOT
BRANCH   3   8
HETATM    8  C   UNL     1     -11.216   8.540  72.291  1.00  0.00    -0.362 C  
HETATM    9  O   UNL     1     -11.363   7.750  73.464  1.00  0.00    -0.547 OA 
HETATM   10  H   UNL     1     -10.690   7.907  74.116  1.00  0.00     0.000 HD 
ENDBRANCH   3   8
TORSDOF 1
ENDMDL
MODEL       60
REMARK 921   NORMALIZED FREE ENERGY PREDICTED BY IDOCK:   -2.92 KCAL/MOL
REMARK 922        TOTAL FREE ENERGY PREDICTED BY IDOCK:   -3.10 KCAL/MOL
REMARK 923 INTER-LIGAND FREE ENERGY PREDICTED BY IDOCK:   -2.86 KCAL/MOL
REMARK 924 INTRA-LIGAND FREE ENERGY PREDICTED BY IDOCK:   -0.24 KCAL/MOL
REMARK 927      BINDING AFFINITY PREDICTED BY RF-SCORE:    0.00 PKD
ROOT
HETATM    1  N   UNL     1     -12.116  10.780  68.365  1.00  0.00    -0.827 NA 
HETATM    2  H1  UNL     1     -12.911  10.652  67.738  1.00  0.00     0.000 HD 
HETATM    3  CA  UNL     1     -10.820  10.810  67.608  1.00  0.00    -0.279 C  
HETATM    4  H2  UNL     1     -12.229  11.611  68.945  1.00  0.00     0.000 HD 
HETATM    5  C   UNL     1     -10.920  11.928  66.552  1.00  0.00    -0.292 C  
HETATM    6  O   UNL     1     -12.222  12.262  66.329  1.00  0.00    -0.628 OA 
HETATM    7  O   UNL     1      -9.991  12.431  65.942  1.00  0.00    -0.250 OA 
ENDROOT
BRANCH   3   8
HETATM    8  C   UNL     1      -9.625  11.004  68.551  1.00  0.00    -0.187 C  
HETATM    9  O   UNL     1      -9.325  12.368  68.819  1.00  0.00    -0.396 OA 
HETATM   10  H   UNL     1      -8.585  12.488  69.402  1.00  0.00     0.000 HD 
ENDBRANCH   3   8
TORSDOF 1
ENDMDL
MODEL       61
REMARK 921   NORMALIZED FREE ENERGY PREDICTED BY IDOCK:   -2.91 KCAL/MOL
REMARK 922        TOTAL FREE ENERGY PREDICTED BY IDOCK:   -3.08 KCAL/MOL
REMARK 923 INTER-LIGAND FREE ENERGY PREDICTED BY IDOCK:   -2.86 KCAL/MOL
REMARK 924 INTRA-LIGAND FREE ENERGY PREDICTED BY IDOCK:   -0.23 KCAL/MOL
REMARK 927      BINDING AFFINITY PREDICTED BY RF-SCORE:    0.00 PKD
ROOT
HETATM    1  N   UNL     1     -11.393  14.756  66.631  1.00  0.00    -0.351 NA 
HETATM    2  H1  UNL     1     -11.980  14.606  65.811  1.00  0.00     0.000 HD 
HETATM    3  CA  UNL     1     -11.904  13.992  67.818  1.00  0.00    -0.384 C  
HETATM    4  H2  UNL     1     -10.416  14.534  66.436  1.00  0.00     0.000 HD 
HETATM    5  C   UNL     1     -11.985  12.505  67.419  1.00  0.00    -0.213 C  
HETATM    6  O   UNL     1     -11.983  12.372  66.063  1.00  0.00    -0.537 OA 
HETATM    7  O   UNL     1     -12.090  11.557  68.178  1.00  0.00    -0.604 OA 
ENDROOT
BRANCH   3   8
HETATM    8  C   UNL     1     -11.020  14.216  69.052  1.00  0.00    -0.261 C  
HETATM    9  O   UNL     1     -11.470  13.523  70.210  1.00  0.00    -0.506 OA 
HETATM   10  H   UNL     1     -10.923  13.662  70.974  1.00  0.00     0.000 HD 
ENDBRANCH   3   8
TORSDOF 1
ENDMDL
MODEL       62
REMARK 921   NORMALIZED FREE ENERGY PREDICTED BY IDOCK:   -2.90 KCAL/MOL
REMARK 922        TOTAL FREE ENERGY PREDICTED BY IDOCK:   -3.08 KCAL/MOL
REMARK 923 INTER-LIGAND FREE ENERGY PREDICTED BY IDOCK:   -2.86 KCAL/MOL
REMARK 924 INTRA-LIGAND FREE ENERGY PREDICTED BY IDOCK:   -0.22 KCAL/MOL
REMARK 927      BINDING AFFINITY PREDICTED BY RF-SCORE:    0.00 PKD
ROOT
HETATM    1  N   UNL     1     -10.968  17.814  65.055  1.00  0.00    -0.696 NA 
HETATM    2  H1  UNL     1     -10.749  18.776  64.796  1.00  0.00     0.000 HD 
HETATM    3  CA  UNL     1     -10.117  17.348  66.200  1.00  0.00    -0.300 C  
HETATM    4  H2  UNL     1     -11.961  17.698  65.255  1.00  0.00     0.000 HD 
HETATM    5  C   UNL     1     -10.326  18.331  67.369  1.00  0.00    -0.392 C  
HETATM    6  O   UNL     1     -10.852  19.505  66.920  1.00  0.00    -0.476 OA 
HETATM    7  O   UNL     1     -10.028  18.141  68.536  1.00  0.00    -0.357 OA 
ENDROOT
BRANCH   3   8
HETATM    8  C   UNL     1     -10.445  15.901  66.591  1.00  0.00    -0.306 C  
HETATM    9  O   UNL     1     -11.248  15.793  67.760  1.00  0.00    -0.336 OA 
HETATM   10  H   UNL     1     -11.451  14.897  68.002  1.00  0.00     0.000 HD 
ENDBRANCH   3   8
TORSDOF 1
ENDMDL
MODEL       63
REMARK 921   NORMALIZED FREE ENERGY PREDICTED BY IDOCK:   -2.89 KCAL/MOL
REMARK 922        TOTAL FREE ENERGY PREDICTED BY IDOCK:   -3.06 KCAL/MOL
REMARK 923 INTER-LIGAND FREE ENERGY PREDICTED BY IDOCK:   -3.05 KCAL/MOL
REMARK 924 INTRA-LIGAND FREE ENERGY PREDICTED BY IDOCK:   -0.02 KCAL/MOL
REMARK 927      BINDING AFFINITY PREDICTED BY RF-SCORE:    0.00 PKD
ROOT
HETATM    1  N   UNL     1      -9.913  13.304  64.402  1.00  0.00    -0.648 NA 
HETATM    2  H1  UNL     1      -9.016  13.050  64.815  1.00  0.00     0.000 HD 
HETATM    3  CA  UNL     1     -11.020  13.249  65.415  1.00  0.00    -0.284 C  
HETATM    4  H2  UNL     1      -9.869  14.215  63.946  1.00  0.00     0.000 HD 
HETATM    5  C   UNL     1     -10.630  14.174  66.584  1.00  0.00    -0.278 C  
HETATM    6  O   UNL     1      -9.291  14.428  66.570  1.00  0.00    -0.273 OA 
HETATM    7  O   UNL     1     -11.377  14.599  67.449  1.00  0.00    -0.328 OA 
ENDROOT
BRANCH   3   8
HETATM    8  C   UNL     1     -12.369  13.632  64.793  1.00  0.00    -0.390 C  
HETATM    9  O   UNL     1     -13.284  12.546  64.702  1.00  0.00    -0.848 OA 
HETATM   10  H   UNL     1     -14.119  12.783  64.317  1.00  0.00     0.000 HD 
ENDBRANCH   3   8
TORSDOF 1
ENDMDL
MODEL       64
REMARK 921   NORMALIZED FREE ENERGY PREDICTED BY IDOCK:   -2.89 KCAL/MOL
REMARK 922        TOTAL FREE ENERGY PREDICTED BY IDOCK:   -3.06 KCAL/MOL
REMARK 923 INTER-LIGAND FREE ENERGY PREDICTED BY IDOCK:   -2.84 KCAL/MOL
REMARK 924 INTRA-LIGAND FREE ENERGY PREDICTED BY IDOCK:   -0.22 KCAL/MOL
REMARK 927      BINDING AFFINITY PREDICTED BY RF-SCORE:    0.00 PKD
ROOT
HETATM    1  N   UNL     1     -11.614  16.229  70.996  1.00  0.00    -0.578 NA 
HETATM    2  H1  UNL     1     -11.681  17.193  70.669  1.00  0.00     0.000 HD 
HETATM    3  CA  UNL     1     -12.280  15.279  70.043  1.00  0.00    -0.349 C  
HETATM    4  H2  UNL     1     -10.646  15.962  71.175  1.00  0.00     0.000 HD 
HETATM    5  C   UNL     1     -11.633  15.474  68.659  1.00  0.00    -0.368 C  
HETATM    6  O   UNL     1     -10.985  16.671  68.596  1.00  0.00    -0.339 OA 
HETATM    7  O   UNL     1     -11.710  14.710  67.711  1.00  0.00    -0.347 OA 
ENDROOT
BRANCH   3   8
HETATM    8  C   UNL     1     -12.179  13.829  70.535  1.00  0.00    -0.369 C  
HETATM    9  O   UNL     1     -11.173  13.071  69.874  1.00  0.00    -0.491 OA 
HETATM   10  H   UNL     1     -11.112  12.173  70.178  1.00  0.00     0.000 HD 
ENDBRANCH   3   8
TORSDOF 1
ENDMDL
MODEL       65
REMARK 921   NORMALIZED FREE ENERGY PREDICTED BY IDOCK:   -2.85 KCAL/MOL
REMARK 922        TOTAL FREE ENERGY PREDICTED BY IDOCK:   -3.02 KCAL/MOL
REMARK 923 INTER-LIGAND FREE ENERGY PREDICTED BY IDOCK:   -2.82 KCAL/MOL
REMARK 924 INTRA-LIGAND FREE ENERGY PREDICTED BY IDOCK:   -0.20 KCAL/MOL
REMARK 927      BINDING AFFINITY PREDICTED BY RF-SCORE:    0.00 PKD
ROOT
HETATM    1  N   UNL     1     -13.630  14.886  70.518  1.00  0.00    -0.592 NA 
HETATM    2  H1  UNL     1     -13.847  14.502  69.598  1.00  0.00     0.000 HD 
HETATM    3  CA  UNL     1     -12.181  14.697  70.863  1.00  0.00    -0.323 C  
HETATM    4  H2  UNL     1     -13.906  15.865  70.590  1.00  0.00     0.000 HD 
HETATM    5  C   UNL     1     -11.344  15.349  69.745  1.00  0.00    -0.306 C  
HETATM    6  O   UNL     1     -12.096  15.521  68.622  1.00  0.00    -0.271 OA 
HETATM    7  O   UNL     1     -10.161  15.638  69.803  1.00  0.00    -0.273 OA 
ENDROOT
BRANCH   3   8
HETATM    8  C   UNL     1     -11.854  15.273  72.247  1.00  0.00    -0.437 C  
HETATM    9  O   UNL     1     -11.796  16.695  72.274  1.00  0.00    -0.620 OA 
HETATM   10  H   UNL     1     -11.593  17.051  73.131  1.00  0.00     0.000 HD 
ENDBRANCH   3   8
TORSDOF 1
ENDMDL
MODEL       66
REMARK 921   NORMALIZED FREE ENERGY PREDICTED BY IDOCK:   -2.82 KCAL/MOL
REMARK 922        TOTAL FREE ENERGY PREDICTED BY IDOCK:   -2.99 KCAL/MOL
REMARK 923 INTER-LIGAND FREE ENERGY PREDICTED BY IDOCK:   -2.78 KCAL/MOL
REMARK 924 INTRA-LIGAND FREE ENERGY PREDICTED BY IDOCK:   -0.21 KCAL/MOL
REMARK 927      BINDING AFFINITY PREDICTED BY RF-SCORE:    0.00 PKD
ROOT
HETATM    1  N   UNL     1      -8.472  19.979  65.715  1.00  0.00    -0.512 NA 
HETATM    2  H1  UNL     1      -9.215  20.511  65.261  1.00  0.00     0.000 HD 
HETATM    3  CA  UNL     1      -8.445  20.231  67.195  1.00  0.00    -0.339 C  
HETATM    4  H2  UNL     1      -8.545  18.983  65.507  1.00  0.00     0.000 HD 
HETATM    5  C   UNL     1      -9.839  19.887  67.755  1.00  0.00    -0.402 C  
HETATM    6  O   UNL     1     -10.765  19.865  66.756  1.00  0.00    -0.466 OA 
HETATM    7  O   UNL     1     -10.122  19.703  68.926  1.00  0.00    -0.447 OA 
ENDROOT
BRANCH   3   8
HETATM    8  C   UNL     1      -7.328  19.432  67.879  1.00  0.00    -0.260 C  
HETATM    9  O   UNL     1      -7.361  19.506  69.300  1.00  0.00    -0.355 OA 
HETATM   10  H   UNL     1      -6.669  19.011  69.723  1.00  0.00     0.000 HD 
ENDBRANCH   3   8
TORSDOF 1
ENDMDL
MODEL       67
REMARK 921   NORMALIZED FREE ENERGY PREDICTED BY IDOCK:   -2.81 KCAL/MOL
REMARK 922        TOTAL FREE ENERGY PREDICTED BY IDOCK:   -2.98 KCAL/MOL
REMARK 923 INTER-LIGAND FREE ENERGY PREDICTED BY IDOCK:   -2.76 KCAL/MOL
REMARK 924 INTRA-LIGAND FREE ENERGY PREDICTED BY IDOCK:   -0.23 KCAL/MOL
REMARK 927      BINDING AFFINITY PREDICTED BY RF-SCORE:    0.00 PKD
ROOT
HETATM    1  N   UNL     1     -12.294  10.733  68.733  1.00  0.00    -0.792 NA 
HETATM    2  H1  UNL     1     -13.159  11.162  69.061  1.00  0.00     0.000 HD 
HETATM    3  CA  UNL     1     -11.273  10.650  69.830  1.00  0.00    -0.308 C  
HETATM    4  H2  UNL     1     -12.466   9.820  68.313  1.00  0.00     0.000 HD 
HETATM    5  C   UNL     1     -11.906   9.873  71.001  1.00  0.00    -0.376 C  
HETATM    6  O   UNL     1     -13.264   9.857  70.888  1.00  0.00    -0.348 OA 
HETATM    7  O   UNL     1     -11.312   9.373  71.941  1.00  0.00    -0.370 OA 
ENDROOT
BRANCH   3   8
HETATM    8  C   UNL     1      -9.971  10.004  69.338  1.00  0.00    -0.223 C  
HETATM    9  O   UNL     1      -8.964   9.915  70.338  1.00  0.00    -0.342 OA 
HETATM   10  H   UNL     1      -8.158   9.516  70.033  1.00  0.00     0.000 HD 
ENDBRANCH   3   8
TORSDOF 1
ENDMDL
MODEL       68
REMARK 921   NORMALIZED FREE ENERGY PREDICTED BY IDOCK:   -2.80 KCAL/MOL
REMARK 922        TOTAL FREE ENERGY PREDICTED BY IDOCK:   -2.97 KCAL/MOL
REMARK 923 INTER-LIGAND FREE ENERGY PREDICTED BY IDOCK:   -2.95 KCAL/MOL
REMARK 924 INTRA-LIGAND FREE ENERGY PREDICTED BY IDOCK:   -0.02 KCAL/MOL
REMARK 927      BINDING AFFINITY PREDICTED BY RF-SCORE:    0.00 PKD
ROOT
HETATM    1  N   UNL     1     -12.265  16.247  73.037  1.00  0.00    -0.524 NA 
HETATM    2  H1  UNL     1     -12.506  15.798  73.921  1.00  0.00     0.000 HD 
HETATM    3  CA  UNL     1     -11.699  15.261  72.058  1.00  0.00    -0.447 C  
HETATM    4  H2  UNL     1     -13.062  16.749  72.645  1.00  0.00     0.000 HD 
HETATM    5  C   UNL     1     -12.733  14.132  71.878  1.00  0.00    -0.320 C  
HETATM    6  O   UNL     1     -13.620  14.125  72.913  1.00  0.00    -0.651 OA 
HETATM    7  O   UNL     1     -12.757  13.310  70.978  1.00  0.00    -0.340 OA 
ENDROOT
BRANCH   3   8
HETATM    8  C   UNL     1     -11.337  15.936  70.728  1.00  0.00    -0.395 C  
HETATM    9  O   UNL     1     -11.569  15.115  69.589  1.00  0.00    -0.272 OA 
HETATM   10  H   UNL     1     -11.344  15.533  68.766  1.00  0.00     0.000 HD 
ENDBRANCH   3   8
TORSDOF 1
ENDMDL
MODEL       69
REMARK 921   NORMALIZED FREE ENERGY PREDICTED BY IDOCK:   -2.79 KCAL/MOL
REMARK 922        TOTAL FREE ENERGY PREDICTED BY IDOCK:   -2.96 KCAL/MOL
REMARK 923 INTER-LIGAND FREE ENERGY PREDICTED BY IDOCK:   -2.73 KCAL/MOL
REMARK 924 INTRA-LIGAND FREE ENERGY PREDICTED BY IDOCK:   -0.24 KCAL/MOL
REMARK 927      BINDING AFFINITY PREDICTED BY RF-SCORE:    0.00 PKD
ROOT
HETATM    1  N   UNL     1     -12.296  12.366  65.675  1.00  0.00    -0.621 NA 
HETATM    2  H1  UNL     1     -12.990  11.652  65.898  1.00  0.00     0.000 HD 
HETATM    3  CA  UNL     1     -12.198  13.394  66.765  1.00  0.00    -0.312 C  
HETATM    4  H2  UNL     1     -11.387  11.953  65.469  1.00  0.00     0.000 HD 
HETATM    5  C   UNL     1     -11.876  12.654  68.079  1.00  0.00    -0.323 C  
HETATM    6  O   UNL     1     -12.178  11.330  67.970  1.00  0.00    -0.621 OA 
HETATM    7  O   UNL     1     -11.458  13.157  69.108  1.00  0.00    -0.273 OA 
ENDROOT
BRANCH   3   8
HETATM    8  C   UNL     1     -11.154  14.468  66.431  1.00  0.00    -0.331 C  
HETATM    9  O   UNL     1      -9.871  14.209  66.987  1.00  0.00    -0.247 OA 
HETATM   10  H   UNL     1      -9.225  14.875  66.780  1.00  0.00     0.000 HD 
ENDBRANCH   3   8
TORSDOF 1
ENDMDL
MODEL       70
REMARK 921   NORMALIZED FREE ENERGY PREDICTED BY IDOCK:   -2.79 KCAL/MOL
REMARK 922        TOTAL FREE ENERGY PREDICTED BY IDOCK:   -2.95 KCAL/MOL
REMARK 923 INTER-LIGAND FREE ENERGY PREDICTED BY IDOCK:   -2.71 KCAL/MOL
REMARK 924 INTRA-LIGAND FREE ENERGY PREDICTED BY IDOCK:   -0.24 KCAL/MOL
REMARK 927      BINDING AFFINITY PREDICTED BY RF-SCORE:    0.00 PKD
ROOT
HETATM    1  N   UNL     1      -9.967  10.133  70.065  1.00  0.00    -0.396 NA 
HETATM    2  H1  UNL     1      -9.789   9.163  70.324  1.00  0.00     0.000 HD 
HETATM    3  CA  UNL     1     -11.437  10.405  69.932  1.00  0.00    -0.297 C  
HETATM    4  H2  UNL     1      -9.525  10.780  70.718  1.00  0.00     0.000 HD 
HETATM    5  C   UNL     1     -12.107  10.023  71.266  1.00  0.00    -0.394 C  
HETATM    6  O   UNL     1     -11.299   9.198  71.989  1.00  0.00    -0.366 OA 
HETATM    7  O   UNL     1     -13.222  10.350  71.635  1.00  0.00    -0.399 OA 
ENDROOT
BRANCH   3   8
HETATM    8  C   UNL     1     -11.704  11.865  69.543  1.00  0.00    -0.345 C  
HETATM    9  O   UNL     1     -11.902  12.726  70.658  1.00  0.00    -0.518 OA 
HETATM   10  H   UNL     1     -12.068  13.630  70.418  1.00  0.00     0.000 HD 
ENDBRANCH   3   8
TORSDOF 1
ENDMDL
MODEL       71
REMARK 921   NORMALIZED FREE ENERGY PREDICTED BY IDOCK:   -2.78 KCAL/MOL
REMARK 922        TOTAL FREE ENERGY PREDICTED BY IDOCK:   -2.95 KCAL/MOL
REMARK 923 INTER-LIGAND FREE ENERGY PREDICTED BY IDOCK:   -2.73 KCAL/MOL
REMARK 924 INTRA-LIGAND FREE ENERGY PREDICTED BY IDOCK:   -0.23 KCAL/MOL
REMARK 927      BINDING AFFINITY PREDICTED BY RF-SCORE:    0.00 PKD
ROOT
HETATM    1  N   UNL     1     -10.565  17.304  69.378  1.00  0.00    -0.359 NA 
HETATM    2  H1  UNL     1     -10.335  16.317  69.262  1.00  0.00     0.000 HD 
HETATM    3  CA  UNL     1      -9.811  18.161  68.402  1.00  0.00    -0.370 C  
HETATM    4  H2  UNL     1     -11.570  17.463  69.316  1.00  0.00     0.000 HD 
HETATM    5  C   UNL     1     -10.130  17.648  66.984  1.00  0.00    -0.330 C  
HETATM    6  O   UNL     1     -10.628  16.380  67.034  1.00  0.00    -0.305 OA 
HETATM    7  O   UNL     1      -9.932  18.242  65.939  1.00  0.00    -0.538 OA 
ENDROOT
BRANCH   3   8
HETATM    8  C   UNL     1     -10.156  19.646  68.576  1.00  0.00    -0.453 C  
HETATM    9  O   UNL     1      -9.459  20.503  67.680  1.00  0.00    -0.371 OA 
HETATM   10  H   UNL     1      -9.672  21.422  67.788  1.00  0.00     0.000 HD 
ENDBRANCH   3   8
TORSDOF 1
ENDMDL
MODEL       72
REMARK 921   NORMALIZED FREE ENERGY PREDICTED BY IDOCK:   -2.78 KCAL/MOL
REMARK 922        TOTAL FREE ENERGY PREDICTED BY IDOCK:   -2.95 KCAL/MOL
REMARK 923 INTER-LIGAND FREE ENERGY PREDICTED BY IDOCK:   -2.73 KCAL/MOL
REMARK 924 INTRA-LIGAND FREE ENERGY PREDICTED BY IDOCK:   -0.22 KCAL/MOL
REMARK 927      BINDING AFFINITY PREDICTED BY RF-SCORE:    0.00 PKD
ROOT
HETATM    1  N   UNL     1     -11.241  16.385  68.463  1.00  0.00    -0.363 NA 
HETATM    2  H1  UNL     1     -11.159  15.383  68.632  1.00  0.00     0.000 HD 
HETATM    3  CA  UNL     1     -10.398  16.816  67.298  1.00  0.00    -0.304 C  
HETATM    4  H2  UNL     1     -12.215  16.665  68.344  1.00  0.00     0.000 HD 
HETATM    5  C   UNL     1     -10.826  15.980  66.076  1.00  0.00    -0.190 C  
HETATM    6  O   UNL     1     -11.500  14.863  66.471  1.00  0.00    -0.345 OA 
HETATM    7  O   UNL     1     -10.572  16.223  64.909  1.00  0.00    -0.650 OA 
ENDROOT
BRANCH   3   8
HETATM    8  C   UNL     1     -10.522  18.324  67.044  1.00  0.00    -0.385 C  
HETATM    9  O   UNL     1      -9.820  18.767  65.888  1.00  0.00    -0.496 OA 
HETATM   10  H   UNL     1      -9.896  19.701  65.731  1.00  0.00     0.000 HD 
ENDBRANCH   3   8
TORSDOF 1
ENDMDL
MODEL       73
REMARK 921   NORMALIZED FREE ENERGY PREDICTED BY IDOCK:   -2.77 KCAL/MOL
REMARK 922        TOTAL FREE ENERGY PREDICTED BY IDOCK:   -2.94 KCAL/MOL
REMARK 923 INTER-LIGAND FREE ENERGY PREDICTED BY IDOCK:   -2.94 KCAL/MOL
REMARK 924 INTRA-LIGAND FREE ENERGY PREDICTED BY IDOCK:   -0.01 KCAL/MOL
REMARK 927      BINDING AFFINITY PREDICTED BY RF-SCORE:    0.00 PKD
ROOT
HETATM    1  N   UNL     1     -12.987  14.948  69.999  1.00  0.00    -0.603 NA 
HETATM    2  H1  UNL     1     -12.982  15.223  70.981  1.00  0.00     0.000 HD 
HETATM    3  CA  UNL     1     -12.019  13.830  69.739  1.00  0.00    -0.344 C  
HETATM    4  H2  UNL     1     -13.927  14.710  69.683  1.00  0.00     0.000 HD 
HETATM    5  C   UNL     1     -12.388  12.664  70.676  1.00  0.00    -0.290 C  
HETATM    6  O   UNL     1     -13.162  13.103  71.708  1.00  0.00    -0.410 OA 
HETATM    7  O   UNL     1     -12.017  11.507  70.571  1.00  0.00    -0.359 OA 
ENDROOT
BRANCH   3   8
HETATM    8  C   UNL     1     -12.026  13.415  68.261  1.00  0.00    -0.317 C  
HETATM    9  O   UNL     1     -12.332  14.481  67.371  1.00  0.00    -0.614 OA 
HETATM   10  H   UNL     1     -12.337  14.224  66.456  1.00  0.00     0.000 HD 
ENDBRANCH   3   8
TORSDOF 1
ENDMDL
MODEL       74
REMARK 921   NORMALIZED FREE ENERGY PREDICTED BY IDOCK:   -2.75 KCAL/MOL
REMARK 922        TOTAL FREE ENERGY PREDICTED BY IDOCK:   -2.92 KCAL/MOL
REMARK 923 INTER-LIGAND FREE ENERGY PREDICTED BY IDOCK:   -2.91 KCAL/MOL
REMARK 924 INTRA-LIGAND FREE ENERGY PREDICTED BY IDOCK:   -0.01 KCAL/MOL
REMARK 927      BINDING AFFINITY PREDICTED BY RF-SCORE:    0.00 PKD
ROOT
HETATM    1  N   UNL     1     -11.290  14.289  65.605  1.00  0.00    -0.312 NA 
HETATM    2  H1  UNL     1     -11.489  13.640  66.367  1.00  0.00     0.000 HD 
HETATM    3  CA  UNL     1     -11.020  15.673  66.121  1.00  0.00    -0.206 C  
HETATM    4  H2  UNL     1     -10.527  13.953  65.018  1.00  0.00     0.000 HD 
HETATM    5  C   UNL     1      -9.858  15.578  67.128  1.00  0.00    -0.235 C  
HETATM    6  O   UNL     1      -9.701  14.296  67.561  1.00  0.00    -0.217 OA 
HETATM    7  O   UNL     1      -9.184  16.506  67.543  1.00  0.00    -0.202 OA 
ENDROOT
BRANCH   3   8
HETATM    8  C   UNL     1     -10.721  16.649  64.976  1.00  0.00    -0.152 C  
HETATM    9  O   UNL     1     -11.424  16.353  63.775  1.00  0.00    -1.590 OA 
HETATM   10  H   UNL     1     -11.238  16.957  63.066  1.00  0.00     0.000 HD 
ENDBRANCH   3   8
TORSDOF 1
ENDMDL
MODEL       75
REMARK 921   NORMALIZED FREE ENERGY PREDICTED BY IDOCK:   -2.74 KCAL/MOL
REMARK 922        TOTAL FREE ENERGY PREDICTED BY IDOCK:   -2.91 KCAL/MOL
REMARK 923 INTER-LIGAND FREE ENERGY PREDICTED BY IDOCK:   -2.68 KCAL/MOL
REMARK 924 INTRA-LIGAND FREE ENERGY PREDICTED BY IDOCK:   -0.23 KCAL/MOL
REMARK 927      BINDING AFFINITY PREDICTED BY RF-SCORE:    0.00 PKD
ROOT
HETATM    1  N   UNL     1      -8.100  18.231  65.801  1.00  0.00    -0.488 NA 
HETATM    2  H1  UNL     1      -7.165  17.920  65.538  1.00  0.00     0.000 HD 
HETATM    3  CA  UNL     1      -8.061  19.133  67.001  1.00  0.00    -0.262 C  
HETATM    4  H2  UNL     1      -8.581  18.672  65.018  1.00  0.00     0.000 HD 
HETATM    5  C   UNL     1      -7.123  20.311  66.670  1.00  0.00    -0.255 C  
HETATM    6  O   UNL     1      -6.313  19.999  65.620  1.00  0.00    -0.200 OA 
HETATM    7  O   UNL     1      -7.051  21.368  67.273  1.00  0.00    -0.565 OA 
ENDROOT
BRANCH   3   8
HETATM    8  C   UNL     1      -9.467  19.602  67.396  1.00  0.00    -0.329 C  
HETATM    9  O   UNL     1      -9.947  20.690  66.616  1.00  0.00    -0.579 OA 
HETATM   10  H   UNL     1     -10.817  20.981  66.862  1.00  0.00     0.000 HD 
ENDBRANCH   3   8
TORSDOF 1
ENDMDL
MODEL       76
REMARK 921   NORMALIZED FREE ENERGY PREDICTED BY IDOCK:   -2.73 KCAL/MOL
REMARK 922        TOTAL FREE ENERGY PREDICTED BY IDOCK:   -2.89 KCAL/MOL
REMARK 923 INTER-LIGAND FREE ENERGY PREDICTED BY IDOCK:   -2.67 KCAL/MOL
REMARK 924 INTRA-LIGAND FREE ENERGY PREDICTED BY IDOCK:   -0.22 KCAL/MOL
REMARK 927      BINDING AFFINITY PREDICTED BY RF-SCORE:    0.00 PKD
ROOT
HETATM    1  N   UNL     1      -7.854  18.561  65.843  1.00  0.00    -0.502 NA 
HETATM    2  H1  UNL     1      -6.942  18.367  66.256  1.00  0.00     0.000 HD 
HETATM    3  CA  UNL     1      -8.966  18.273  66.810  1.00  0.00    -0.284 C  
HETATM    4  H2  UNL     1      -7.907  19.515  65.487  1.00  0.00     0.000 HD 
HETATM    5  C   UNL     1      -8.709  19.105  68.081  1.00  0.00    -0.324 C  
HETATM    6  O   UNL     1      -7.409  19.508  68.136  1.00  0.00    -0.279 OA 
HETATM    7  O   UNL     1      -9.517  19.348  68.962  1.00  0.00    -0.391 OA 
ENDROOT
BRANCH   3   8
HETATM    8  C   UNL     1     -10.339  18.566  66.189  1.00  0.00    -0.426 C  
HETATM    9  O   UNL     1     -10.899  19.806  66.603  1.00  0.00    -0.467 OA 
HETATM   10  H   UNL     1     -11.749  19.987  66.219  1.00  0.00     0.000 HD 
ENDBRANCH   3   8
TORSDOF 1
ENDMDL
MODEL       77
REMARK 921   NORMALIZED FREE ENERGY PREDICTED BY IDOCK:   -2.71 KCAL/MOL
REMARK 922        TOTAL FREE ENERGY PREDICTED BY IDOCK:   -2.88 KCAL/MOL
REMARK 923 INTER-LIGAND FREE ENERGY PREDICTED BY IDOCK:   -2.64 KCAL/MOL
REMARK 924 INTRA-LIGAND FREE ENERGY PREDICTED BY IDOCK:   -0.23 KCAL/MOL
REMARK 927      BINDING AFFINITY PREDICTED BY RF-SCORE:    0.00 PKD
ROOT
HETATM    1  N   UNL     1     -12.189  14.726  68.448  1.00  0.00    -0.605 NA 
HETATM    2  H1  UNL     1     -13.080  14.268  68.638  1.00  0.00     0.000 HD 
HETATM    3  CA  UNL     1     -11.839  15.713  69.524  1.00  0.00    -0.372 C  
HETATM    4  H2  UNL     1     -11.442  14.046  68.308  1.00  0.00     0.000 HD 
HETATM    5  C   UNL     1     -11.836  14.959  70.868  1.00  0.00    -0.321 C  
HETATM    6  O   UNL     1     -12.526  13.788  70.763  1.00  0.00    -0.340 OA 
HETATM    7  O   UNL     1     -11.340  15.346  71.913  1.00  0.00    -0.419 OA 
ENDROOT
BRANCH   3   8
HETATM    8  C   UNL     1     -10.497  16.401  69.238  1.00  0.00    -0.303 C  
HETATM    9  O   UNL     1      -9.367  15.632  69.630  1.00  0.00    -0.280 OA 
HETATM   10  H   UNL     1      -8.536  16.059  69.454  1.00  0.00     0.000 HD 
ENDBRANCH   3   8
TORSDOF 1
ENDMDL
MODEL       78
REMARK 921   NORMALIZED FREE ENERGY PREDICTED BY IDOCK:   -2.71 KCAL/MOL
REMARK 922        TOTAL FREE ENERGY PREDICTED BY IDOCK:   -2.87 KCAL/MOL
REMARK 923 INTER-LIGAND FREE ENERGY PREDICTED BY IDOCK:   -2.65 KCAL/MOL
REMARK 924 INTRA-LIGAND FREE ENERGY PREDICTED BY IDOCK:   -0.22 KCAL/MOL
REMARK 927      BINDING AFFINITY PREDICTED BY RF-SCORE:    0.00 PKD
ROOT
HETATM    1  N   UNL     1     -11.737   5.405  72.869  1.00  0.00    -0.491 NA 
HETATM    2  H1  UNL     1     -11.957   5.561  73.853  1.00  0.00     0.000 HD 
HETATM    3  CA  UNL     1     -11.854   6.672  72.073  1.00  0.00    -0.324 C  
HETATM    4  H2  UNL     1     -10.819   4.975  72.755  1.00  0.00     0.000 HD 
HETATM    5  C   UNL     1     -10.926   7.719  72.720  1.00  0.00    -0.388 C  
HETATM    6  O   UNL     1     -10.614   7.359  73.997  1.00  0.00    -0.284 OA 
HETATM    7  O   UNL     1     -10.546   8.760  72.212  1.00  0.00    -0.337 OA 
ENDROOT
BRANCH   3   8
HETATM    8  C   UNL     1     -11.523   6.437  70.593  1.00  0.00    -0.362 C  
HETATM    9  O   UNL     1     -11.547   7.623  69.807  1.00  0.00    -0.465 OA 
HETATM   10  H   UNL     1     -11.344   7.477  68.891  1.00  0.00     0.000 HD 
ENDBRANCH   3   8
TORSDOF 1
ENDMDL
MODEL       79
REMARK 921   NORMALIZED FREE ENERGY PREDICTED BY IDOCK:   -2.69 KCAL/MOL
REMARK 922        TOTAL FREE ENERGY PREDICTED BY IDOCK:   -2.86 KCAL/MOL
REMARK 923 INTER-LIGAND FREE ENERGY PREDICTED BY IDOCK:   -2.62 KCAL/MOL
REMARK 924 INTRA-LIGAND FREE ENERGY PREDICTED BY IDOCK:   -0.24 KCAL/MOL
REMARK 927      BINDING AFFINITY PREDICTED BY RF-SCORE:    0.00 PKD
ROOT
HETATM    1  N   UNL     1     -11.444   4.519  65.054  1.00  0.00    -1.108 NA 
HETATM    2  H1  UNL     1     -11.206   3.693  64.506  1.00  0.00     0.000 HD 
HETATM    3  CA  UNL     1     -10.424   4.779  66.125  1.00  0.00    -0.290 C  
HETATM    4  H2  UNL     1     -11.577   5.336  64.459  1.00  0.00     0.000 HD 
HETATM    5  C   UNL     1      -9.049   4.906  65.441  1.00  0.00    -0.155 C  
HETATM    6  O   UNL     1      -9.080   4.356  64.195  1.00  0.00    -0.148 OA 
HETATM    7  O   UNL     1      -8.038   5.380  65.932  1.00  0.00    -0.104 OA 
ENDROOT
BRANCH   3   8
HETATM    8  C   UNL     1     -10.782   6.022  66.950  1.00  0.00    -0.334 C  
HETATM    9  O   UNL     1     -10.353   7.243  66.359  1.00  0.00    -0.482 OA 
HETATM   10  H   UNL     1     -10.574   8.012  66.870  1.00  0.00     0.000 HD 
ENDBRANCH   3   8
TORSDOF 1
ENDMDL
MODEL       80
REMARK 921   NORMALIZED FREE ENERGY PREDICTED BY IDOCK:   -2.67 KCAL/MOL
REMARK 922        TOTAL FREE ENERGY PREDICTED BY IDOCK:   -2.83 KCAL/MOL
REMARK 923 INTER-LIGAND FREE ENERGY PREDICTED BY IDOCK:   -2.61 KCAL/MOL
REMARK 924 INTRA-LIGAND FREE ENERGY PREDICTED BY IDOCK:   -0.22 KCAL/MOL
REMARK 927      BINDING AFFINITY PREDICTED BY RF-SCORE:    0.00 PKD
ROOT
HETATM    1  N   UNL     1     -12.081  13.298  70.691  1.00  0.00    -0.496 NA 
HETATM    2  H1  UNL     1     -12.834  13.729  71.228  1.00  0.00     0.000 HD 
HETATM    3  CA  UNL     1     -12.019  13.848  69.295  1.00  0.00    -0.357 C  
HETATM    4  H2  UNL     1     -11.184  13.386  71.168  1.00  0.00     0.000 HD 
HETATM    5  C   UNL     1     -11.861  15.377  69.401  1.00  0.00    -0.351 C  
HETATM    6  O   UNL     1     -12.231  15.813  70.638  1.00  0.00    -0.392 OA 
HETATM    7  O   UNL     1     -11.506  16.131  68.511  1.00  0.00    -0.376 OA 
ENDROOT
BRANCH   3   8
HETATM    8  C   UNL     1     -10.886  13.200  68.487  1.00  0.00    -0.262 C  
HETATM    9  O   UNL     1      -9.595  13.698  68.814  1.00  0.00    -0.382 OA 
HETATM   10  H   UNL     1      -8.894  13.297  68.313  1.00  0.00     0.000 HD 
ENDBRANCH   3   8
TORSDOF 1
ENDMDL
MODEL       81
REMARK 921   NORMALIZED FREE ENERGY PREDICTED BY IDOCK:   -2.66 KCAL/MOL
REMARK 922        TOTAL FREE ENERGY PREDICTED BY IDOCK:   -2.82 KCAL/MOL
REMARK 923 INTER-LIGAND FREE ENERGY PREDICTED BY IDOCK:   -2.79 KCAL/MOL
REMARK 924 INTRA-LIGAND FREE ENERGY PREDICTED BY IDOCK:   -0.04 KCAL/MOL
REMARK 927      BINDING AFFINITY PREDICTED BY RF-SCORE:    0.00 PKD
ROOT
HETATM    1  N   UNL     1     -13.349  10.923  71.972  1.00  0.00    -0.525 NA 
HETATM    2  H1  UNL     1     -12.625  10.247  71.731  1.00  0.00     0.000 HD 
HETATM    3  CA  UNL     1     -12.833  12.331  71.897  1.00  0.00    -0.213 C  
HETATM    4  H2  UNL     1     -14.182  10.800  71.397  1.00  0.00     0.000 HD 
HETATM    5  C   UNL     1     -12.277  12.550  70.477  1.00  0.00    -0.297 C  
HETATM    6  O   UNL     1     -12.033  11.357  69.867  1.00  0.00    -0.307 OA 
HETATM    7  O   UNL     1     -12.028  13.625  69.956  1.00  0.00    -0.312 OA 
ENDROOT
BRANCH   3   8
HETATM    8  C   UNL     1     -13.922  13.348  72.260  1.00  0.00    -0.507 C  
HETATM    9  O   UNL     1     -13.464  14.401  73.101  1.00  0.00    -0.625 OA 
HETATM   10  H   UNL     1     -14.139  15.030  73.326  1.00  0.00     0.000 HD 
ENDBRANCH   3   8
TORSDOF 1
ENDMDL
MODEL       82
REMARK 921   NORMALIZED FREE ENERGY PREDICTED BY IDOCK:   -2.66 KCAL/MOL
REMARK 922        TOTAL FREE ENERGY PREDICTED BY IDOCK:   -2.82 KCAL/MOL
REMARK 923 INTER-LIGAND FREE ENERGY PREDICTED BY IDOCK:   -2.79 KCAL/MOL
REMARK 924 INTRA-LIGAND FREE ENERGY PREDICTED BY IDOCK:   -0.02 KCAL/MOL
REMARK 927      BINDING AFFINITY PREDICTED BY RF-SCORE:    0.00 PKD
ROOT
HETATM    1  N   UNL     1      -9.422  13.384  65.549  1.00  0.00    -0.485 NA 
HETATM    2  H1  UNL     1      -8.716  13.197  66.261  1.00  0.00     0.000 HD 
HETATM    3  CA  UNL     1     -10.350  12.217  65.377  1.00  0.00    -0.269 C  
HETATM    4  H2  UNL     1      -9.934  14.243  65.748  1.00  0.00     0.000 HD 
HETATM    5  C   UNL     1     -10.973  11.908  66.752  1.00  0.00    -0.292 C  
HETATM    6  O   UNL     1     -10.231  12.464  67.751  1.00  0.00    -0.203 OA 
HETATM    7  O   UNL     1     -11.961  11.224  66.961  1.00  0.00    -0.401 OA 
ENDROOT
BRANCH   3   8
HETATM    8  C   UNL     1     -11.412  12.499  64.306  1.00  0.00    -0.362 C  
HETATM    9  O   UNL     1     -11.428  11.543  63.253  1.00  0.00    -0.781 OA 
HETATM   10  H   UNL     1     -12.085  11.718  62.589  1.00  0.00     0.000 HD 
ENDBRANCH   3   8
TORSDOF 1
ENDMDL
MODEL       83
REMARK 921   NORMALIZED FREE ENERGY PREDICTED BY IDOCK:   -2.63 KCAL/MOL
REMARK 922        TOTAL FREE ENERGY PREDICTED BY IDOCK:   -2.79 KCAL/MOL
REMARK 923 INTER-LIGAND FREE ENERGY PREDICTED BY IDOCK:   -2.58 KCAL/MOL
REMARK 924 INTRA-LIGAND FREE ENERGY PREDICTED BY IDOCK:   -0.21 KCAL/MOL
REMARK 927      BINDING AFFINITY PREDICTED BY RF-SCORE:    0.00 PKD
ROOT
HETATM    1  N   UNL     1     -12.158  12.468  66.847  1.00  0.00    -0.533 NA 
HETATM    2  H1  UNL     1     -12.421  12.923  67.722  1.00  0.00     0.000 HD 
HETATM    3  CA  UNL     1     -11.273  13.350  66.015  1.00  0.00    -0.296 C  
HETATM    4  H2  UNL     1     -11.729  11.558  67.014  1.00  0.00     0.000 HD 
HETATM    5  C   UNL     1     -10.048  13.725  66.871  1.00  0.00    -0.260 C  
HETATM    6  O   UNL     1     -10.306  13.521  68.194  1.00  0.00    -0.233 OA 
HETATM    7  O   UNL     1      -8.997  14.191  66.464  1.00  0.00    -0.213 OA 
ENDROOT
BRANCH   3   8
HETATM    8  C   UNL     1     -10.877  12.666  64.700  1.00  0.00    -0.319 C  
HETATM    9  O   UNL     1      -9.886  13.374  63.964  1.00  0.00    -0.724 OA 
HETATM   10  H   UNL     1      -9.642  12.951  63.150  1.00  0.00     0.000 HD 
ENDBRANCH   3   8
TORSDOF 1
ENDMDL
MODEL       84
REMARK 921   NORMALIZED FREE ENERGY PREDICTED BY IDOCK:   -2.60 KCAL/MOL
REMARK 922        TOTAL FREE ENERGY PREDICTED BY IDOCK:   -2.75 KCAL/MOL
REMARK 923 INTER-LIGAND FREE ENERGY PREDICTED BY IDOCK:   -2.74 KCAL/MOL
REMARK 924 INTRA-LIGAND FREE ENERGY PREDICTED BY IDOCK:   -0.01 KCAL/MOL
REMARK 927      BINDING AFFINITY PREDICTED BY RF-SCORE:    0.00 PKD
ROOT
HETATM    1  N   UNL     1     -12.720  13.988  66.092  1.00  0.00    -0.483 NA 
HETATM    2  H1  UNL     1     -12.718  13.692  65.116  1.00  0.00     0.000 HD 
HETATM    3  CA  UNL     1     -11.670  13.265  66.886  1.00  0.00    -0.388 C  
HETATM    4  H2  UNL     1     -12.621  14.999  66.176  1.00  0.00     0.000 HD 
HETATM    5  C   UNL     1     -10.312  13.513  66.201  1.00  0.00    -0.296 C  
HETATM    6  O   UNL     1     -10.491  13.929  64.916  1.00  0.00    -0.386 OA 
HETATM    7  O   UNL     1      -9.211  13.325  66.690  1.00  0.00    -0.250 OA 
ENDROOT
BRANCH   3   8
HETATM    8  C   UNL     1     -11.672  13.709  68.354  1.00  0.00    -0.358 C  
HETATM    9  O   UNL     1     -12.456  14.872  68.598  1.00  0.00    -0.582 OA 
HETATM   10  H   UNL     1     -12.457  15.147  69.507  1.00  0.00     0.000 HD 
ENDBRANCH   3   8
TORSDOF 1
ENDMDL
MODEL       85
REMARK 921   NORMALIZED FREE ENERGY PREDICTED BY IDOCK:   -2.59 KCAL/MOL
REMARK 922        TOTAL FREE ENERGY PREDICTED BY IDOCK:   -2.75 KCAL/MOL
REMARK 923 INTER-LIGAND FREE ENERGY PREDICTED BY IDOCK:   -2.53 KCAL/MOL
REMARK 924 INTRA-LIGAND FREE ENERGY PREDICTED BY IDOCK:   -0.22 KCAL/MOL
REMARK 927      BINDING AFFINITY PREDICTED BY RF-SCORE:    0.00 PKD
ROOT
HETATM    1  N   UNL     1     -10.550  17.200  67.844  1.00  0.00    -0.370 NA 
HETATM    2  H1  UNL     1     -11.212  17.828  67.389  1.00  0.00     0.000 HD 
HETATM    3  CA  UNL     1     -10.668  15.800  67.315  1.00  0.00    -0.313 C  
HETATM    4  H2  UNL     1      -9.594  17.548  67.770  1.00  0.00     0.000 HD 
HETATM    5  C   UNL     1     -10.465  15.859  65.788  1.00  0.00    -0.370 C  
HETATM    6  O   UNL     1     -10.653  17.127  65.327  1.00  0.00    -0.662 OA 
HETATM    7  O   UNL     1     -10.220  14.915  65.055  1.00  0.00    -0.380 OA 
ENDROOT
BRANCH   3   8
HETATM    8  C   UNL     1      -9.671  14.855  67.999  1.00  0.00    -0.212 C  
HETATM    9  O   UNL     1      -9.733  13.517  67.521  1.00  0.00    -0.218 OA 
HETATM   10  H   UNL     1      -9.116  12.932  67.946  1.00  0.00     0.000 HD 
ENDBRANCH   3   8
TORSDOF 1
ENDMDL
MODEL       86
REMARK 921   NORMALIZED FREE ENERGY PREDICTED BY IDOCK:   -2.58 KCAL/MOL
REMARK 922        TOTAL FREE ENERGY PREDICTED BY IDOCK:   -2.74 KCAL/MOL
REMARK 923 INTER-LIGAND FREE ENERGY PREDICTED BY IDOCK:   -2.52 KCAL/MOL
REMARK 924 INTRA-LIGAND FREE ENERGY PREDICTED BY IDOCK:   -0.22 KCAL/MOL
REMARK 927      BINDING AFFINITY PREDICTED BY RF-SCORE:    0.00 PKD
ROOT
HETATM    1  N   UNL     1     -10.627  17.976  65.696  1.00  0.00    -0.591 NA 
HETATM    2  H1  UNL     1     -11.186  17.129  65.805  1.00  0.00     0.000 HD 
HETATM    3  CA  UNL     1      -9.378  17.918  66.527  1.00  0.00    -0.280 C  
HETATM    4  H2  UNL     1     -10.415  18.160  64.716  1.00  0.00     0.000 HD 
HETATM    5  C   UNL     1      -8.604  16.649  66.122  1.00  0.00    -0.289 C  
HETATM    6  O   UNL     1      -9.424  15.771  65.478  1.00  0.00    -0.323 OA 
HETATM    7  O   UNL     1      -7.435  16.405  66.370  1.00  0.00    -0.234 OA 
ENDROOT
BRANCH   3   8
HETATM    8  C   UNL     1      -8.536  19.191  66.364  1.00  0.00    -0.328 C  
HETATM    9  O   UNL     1      -7.404  19.022  65.520  1.00  0.00    -0.477 OA 
HETATM   10  H   UNL     1      -6.883  19.810  65.420  1.00  0.00     0.000 HD 
ENDBRANCH   3   8
TORSDOF 1
ENDMDL
MODEL       87
REMARK 921   NORMALIZED FREE ENERGY PREDICTED BY IDOCK:   -2.56 KCAL/MOL
REMARK 922        TOTAL FREE ENERGY PREDICTED BY IDOCK:   -2.71 KCAL/MOL
REMARK 923 INTER-LIGAND FREE ENERGY PREDICTED BY IDOCK:   -2.49 KCAL/MOL
REMARK 924 INTRA-LIGAND FREE ENERGY PREDICTED BY IDOCK:   -0.23 KCAL/MOL
REMARK 927      BINDING AFFINITY PREDICTED BY RF-SCORE:    0.00 PKD
ROOT
HETATM    1  N   UNL     1     -10.408  10.055  67.135  1.00  0.00    -0.227 NA 
HETATM    2  H1  UNL     1     -11.255   9.586  67.457  1.00  0.00     0.000 HD 
HETATM    3  CA  UNL     1     -10.732  11.250  66.287  1.00  0.00    -0.257 C  
HETATM    4  H2  UNL     1      -9.800  10.303  67.915  1.00  0.00     0.000 HD 
HETATM    5  C   UNL     1     -11.638  12.181  67.117  1.00  0.00    -0.335 C  
HETATM    6  O   UNL     1     -12.203  11.502  68.154  1.00  0.00    -0.576 OA 
HETATM    7  O   UNL     1     -11.880  13.353  66.880  1.00  0.00    -0.368 OA 
ENDROOT
BRANCH   3   8
HETATM    8  C   UNL     1      -9.459  11.956  65.802  1.00  0.00    -0.196 C  
HETATM    9  O   UNL     1      -9.710  13.051  64.931  1.00  0.00    -0.529 OA 
HETATM   10  H   UNL     1      -8.922  13.488  64.630  1.00  0.00     0.000 HD 
ENDBRANCH   3   8
TORSDOF 1
ENDMDL
MODEL       88
REMARK 921   NORMALIZED FREE ENERGY PREDICTED BY IDOCK:   -2.55 KCAL/MOL
REMARK 922        TOTAL FREE ENERGY PREDICTED BY IDOCK:   -2.70 KCAL/MOL
REMARK 923 INTER-LIGAND FREE ENERGY PREDICTED BY IDOCK:   -2.48 KCAL/MOL
REMARK 924 INTRA-LIGAND FREE ENERGY PREDICTED BY IDOCK:   -0.22 KCAL/MOL
REMARK 927      BINDING AFFINITY PREDICTED BY RF-SCORE:    0.00 PKD
ROOT
HETATM    1  N   UNL     1     -13.632   9.514  70.851  1.00  0.00    -0.573 NA 
HETATM    2  H1  UNL     1     -14.345   9.036  71.402  1.00  0.00     0.000 HD 
HETATM    3  CA  UNL     1     -12.261   9.295  71.420  1.00  0.00    -0.349 C  
HETATM    4  H2  UNL     1     -13.677   9.244  69.868  1.00  0.00     0.000 HD 
HETATM    5  C   UNL     1     -12.022   7.774  71.493  1.00  0.00    -0.300 C  
HETATM    6  O   UNL     1     -13.204   7.099  71.430  1.00  0.00    -0.385 OA 
HETATM    7  O   UNL     1     -10.947   7.217  71.638  1.00  0.00    -0.225 OA 
ENDROOT
BRANCH   3   8
HETATM    8  C   UNL     1     -11.188  10.014  70.591  1.00  0.00    -0.350 C  
HETATM    9  O   UNL     1      -9.864   9.804  71.066  1.00  0.00    -0.299 OA 
HETATM   10  H   UNL     1      -9.200  10.250  70.554  1.00  0.00     0.000 HD 
ENDBRANCH   3   8
TORSDOF 1
ENDMDL
MODEL       89
REMARK 921   NORMALIZED FREE ENERGY PREDICTED BY IDOCK:   -2.53 KCAL/MOL
REMARK 922        TOTAL FREE ENERGY PREDICTED BY IDOCK:   -2.68 KCAL/MOL
REMARK 923 INTER-LIGAND FREE ENERGY PREDICTED BY IDOCK:   -2.65 KCAL/MOL
REMARK 924 INTRA-LIGAND FREE ENERGY PREDICTED BY IDOCK:   -0.03 KCAL/MOL
REMARK 927      BINDING AFFINITY PREDICTED BY RF-SCORE:    0.00 PKD
ROOT
HETATM    1  N   UNL     1     -11.086  11.901  67.266  1.00  0.00    -0.270 NA 
HETATM    2  H1  UNL     1     -10.710  12.588  66.612  1.00  0.00     0.000 HD 
HETATM    3  CA  UNL     1     -11.102  12.431  68.670  1.00  0.00    -0.257 C  
HETATM    4  H2  UNL     1     -12.009  11.579  66.977  1.00  0.00     0.000 HD 
HETATM    5  C   UNL     1     -11.913  13.742  68.667  1.00  0.00    -0.366 C  
HETATM    6  O   UNL     1     -12.013  14.241  67.403  1.00  0.00    -0.395 OA 
HETATM    7  O   UNL     1     -12.372  14.310  69.643  1.00  0.00    -0.329 OA 
ENDROOT
BRANCH   3   8
HETATM    8  C   UNL     1     -11.668  11.398  69.653  1.00  0.00    -0.345 C  
HETATM    9  O   UNL     1     -12.752  10.642  69.126  1.00  0.00    -0.685 OA 
HETATM   10  H   UNL     1     -13.103  10.003  69.735  1.00  0.00     0.000 HD 
ENDBRANCH   3   8
TORSDOF 1
ENDMDL
MODEL       90
REMARK 921   NORMALIZED FREE ENERGY PREDICTED BY IDOCK:   -2.51 KCAL/MOL
REMARK 922        TOTAL FREE ENERGY PREDICTED BY IDOCK:   -2.67 KCAL/MOL
REMARK 923 INTER-LIGAND FREE ENERGY PREDICTED BY IDOCK:   -2.44 KCAL/MOL
REMARK 924 INTRA-LIGAND FREE ENERGY PREDICTED BY IDOCK:   -0.23 KCAL/MOL
REMARK 927      BINDING AFFINITY PREDICTED BY RF-SCORE:    0.00 PKD
ROOT
HETATM    1  N   UNL     1      -8.364  19.249  68.892  1.00  0.00    -0.344 NA 
HETATM    2  H1  UNL     1      -7.743  18.507  69.215  1.00  0.00     0.000 HD 
HETATM    3  CA  UNL     1      -9.042  18.875  67.606  1.00  0.00    -0.283 C  
HETATM    4  H2  UNL     1      -9.040  19.509  69.609  1.00  0.00     0.000 HD 
HETATM    5  C   UNL     1      -9.788  17.547  67.839  1.00  0.00    -0.293 C  
HETATM    6  O   UNL     1      -9.302  16.910  68.941  1.00  0.00    -0.256 OA 
HETATM    7  O   UNL     1     -10.661  17.074  67.131  1.00  0.00    -0.312 OA 
ENDROOT
BRANCH   3   8
HETATM    8  C   UNL     1      -9.976  19.990  67.118  1.00  0.00    -0.441 C  
HETATM    9  O   UNL     1     -10.553  19.735  65.844  1.00  0.00    -0.510 OA 
HETATM   10  H   UNL     1     -11.131  20.426  65.542  1.00  0.00     0.000 HD 
ENDBRANCH   3   8
TORSDOF 1
ENDMDL
MODEL       91
REMARK 921   NORMALIZED FREE ENERGY PREDICTED BY IDOCK:   -2.50 KCAL/MOL
REMARK 922        TOTAL FREE ENERGY PREDICTED BY IDOCK:   -2.65 KCAL/MOL
REMARK 923 INTER-LIGAND FREE ENERGY PREDICTED BY IDOCK:   -2.65 KCAL/MOL
REMARK 924 INTRA-LIGAND FREE ENERGY PREDICTED BY IDOCK:   -0.01 KCAL/MOL
REMARK 927      BINDING AFFINITY PREDICTED BY RF-SCORE:    0.00 PKD
ROOT
HETATM    1  N   UNL     1     -12.271  14.821  67.831  1.00  0.00    -0.572 NA 
HETATM    2  H1  UNL     1     -11.828  14.374  67.028  1.00  0.00     0.000 HD 
HETATM    3  CA  UNL     1     -11.294  15.028  68.952  1.00  0.00    -0.297 C  
HETATM    4  H2  UNL     1     -12.727  15.694  67.567  1.00  0.00     0.000 HD 
HETATM    5  C   UNL     1     -10.115  15.853  68.399  1.00  0.00    -0.223 C  
HETATM    6  O   UNL     1     -10.086  15.796  67.038  1.00  0.00    -0.251 OA 
HETATM    7  O   UNL     1      -9.276  16.445  69.056  1.00  0.00    -0.249 OA 
ENDROOT
BRANCH   3   8
HETATM    8  C   UNL     1     -11.960  15.701  70.159  1.00  0.00    -0.367 C  
HETATM    9  O   UNL     1     -13.372  15.530  70.201  1.00  0.00    -0.691 OA 
HETATM   10  H   UNL     1     -13.784  15.947  70.948  1.00  0.00     0.000 HD 
ENDBRANCH   3   8
TORSDOF 1
ENDMDL
MODEL       92
REMARK 921   NORMALIZED FREE ENERGY PREDICTED BY IDOCK:   -2.50 KCAL/MOL
REMARK 922        TOTAL FREE ENERGY PREDICTED BY IDOCK:   -2.65 KCAL/MOL
REMARK 923 INTER-LIGAND FREE ENERGY PREDICTED BY IDOCK:   -2.53 KCAL/MOL
REMARK 924 INTRA-LIGAND FREE ENERGY PREDICTED BY IDOCK:   -0.12 KCAL/MOL
REMARK 927      BINDING AFFINITY PREDICTED BY RF-SCORE:    0.00 PKD
ROOT
HETATM    1  N   UNL     1     -11.579   6.596  69.347  1.00  0.00    -0.652 NA 
HETATM    2  H1  UNL     1     -10.749   6.463  68.769  1.00  0.00     0.000 HD 
HETATM    3  CA  UNL     1     -11.238   7.253  70.653  1.00  0.00    -0.274 C  
HETATM    4  H2  UNL     1     -12.303   7.111  68.847  1.00  0.00     0.000 HD 
HETATM    5  C   UNL     1     -10.526   8.582  70.337  1.00  0.00    -0.207 C  
HETATM    6  O   UNL     1     -10.053   8.581  69.059  1.00  0.00    -0.189 OA 
HETATM    7  O   UNL     1     -10.346   9.507  71.110  1.00  0.00    -0.308 OA 
ENDROOT
BRANCH   3   8
HETATM    8  C   UNL     1     -12.487   7.453  71.523  1.00  0.00    -0.361 C  
HETATM    9  O   UNL     1     -12.211   7.489  72.918  1.00  0.00    -0.542 OA 
HETATM   10  H   UNL     1     -12.984   7.612  73.456  1.00  0.00     0.000 HD 
ENDBRANCH   3   8
TORSDOF 1
ENDMDL
MODEL       93
REMARK 921   NORMALIZED FREE ENERGY PREDICTED BY IDOCK:   -2.47 KCAL/MOL
REMARK 922        TOTAL FREE ENERGY PREDICTED BY IDOCK:   -2.62 KCAL/MOL
REMARK 923 INTER-LIGAND FREE ENERGY PREDICTED BY IDOCK:   -2.41 KCAL/MOL
REMARK 924 INTRA-LIGAND FREE ENERGY PREDICTED BY IDOCK:   -0.21 KCAL/MOL
REMARK 927      BINDING AFFINITY PREDICTED BY RF-SCORE:    0.00 PKD
ROOT
HETATM    1  N   UNL     1      -9.962   8.936  71.860  1.00  0.00    -0.338 NA 
HETATM    2  H1  UNL     1      -9.450   8.061  71.742  1.00  0.00     0.000 HD 
HETATM    3  CA  UNL     1     -11.303   8.880  71.187  1.00  0.00    -0.291 C  
HETATM    4  H2  UNL     1     -10.048   9.189  72.844  1.00  0.00     0.000 HD 
HETATM    5  C   UNL     1     -12.067   7.672  71.764  1.00  0.00    -0.305 C  
HETATM    6  O   UNL     1     -11.206   6.802  72.363  1.00  0.00    -0.247 OA 
HETATM    7  O   UNL     1     -13.265   7.463  71.672  1.00  0.00    -0.356 OA 
ENDROOT
BRANCH   3   8
HETATM    8  C   UNL     1     -12.074  10.195  71.364  1.00  0.00    -0.382 C  
HETATM    9  O   UNL     1     -13.123  10.118  72.322  1.00  0.00    -0.487 OA 
HETATM   10  H   UNL     1     -13.600  10.932  72.431  1.00  0.00     0.000 HD 
ENDBRANCH   3   8
TORSDOF 1
ENDMDL
MODEL       94
REMARK 921   NORMALIZED FREE ENERGY PREDICTED BY IDOCK:   -2.43 KCAL/MOL
REMARK 922        TOTAL FREE ENERGY PREDICTED BY IDOCK:   -2.58 KCAL/MOL
REMARK 923 INTER-LIGAND FREE ENERGY PREDICTED BY IDOCK:   -2.34 KCAL/MOL
REMARK 924 INTRA-LIGAND FREE ENERGY PREDICTED BY IDOCK:   -0.24 KCAL/MOL
REMARK 927      BINDING AFFINITY PREDICTED BY RF-SCORE:    0.00 PKD
ROOT
HETATM    1  N   UNL     1      -9.596  17.517  65.775  1.00  0.00    -0.520 NA 
HETATM    2  H1  UNL     1     -10.336  17.183  65.157  1.00  0.00     0.000 HD 
HETATM    3  CA  UNL     1     -10.103  17.729  67.172  1.00  0.00    -0.338 C  
HETATM    4  H2  UNL     1      -8.789  16.894  65.761  1.00  0.00     0.000 HD 
HETATM    5  C   UNL     1     -10.715  16.399  67.655  1.00  0.00    -0.312 C  
HETATM    6  O   UNL     1     -10.994  15.587  66.597  1.00  0.00    -0.312 OA 
HETATM    7  O   UNL     1     -10.976  16.100  68.808  1.00  0.00    -0.290 OA 
ENDROOT
BRANCH   3   8
HETATM    8  C   UNL     1      -8.990  18.230  68.103  1.00  0.00    -0.302 C  
HETATM    9  O   UNL     1      -8.295  17.186  68.774  1.00  0.00    -0.262 OA 
HETATM   10  H   UNL     1      -7.607  17.497  69.351  1.00  0.00     0.000 HD 
ENDBRANCH   3   8
TORSDOF 1
ENDMDL
MODEL       95
REMARK 921   NORMALIZED FREE ENERGY PREDICTED BY IDOCK:   -2.42 KCAL/MOL
REMARK 922        TOTAL FREE ENERGY PREDICTED BY IDOCK:   -2.56 KCAL/MOL
REMARK 923 INTER-LIGAND FREE ENERGY PREDICTED BY IDOCK:   -2.42 KCAL/MOL
REMARK 924 INTRA-LIGAND FREE ENERGY PREDICTED BY IDOCK:   -0.15 KCAL/MOL
REMARK 927      BINDING AFFINITY PREDICTED BY RF-SCORE:    0.00 PKD
ROOT
HETATM    1  N   UNL     1      -9.713   9.603  65.142  1.00  0.00    -0.422 NA 
HETATM    2  H1  UNL     1      -9.163   9.788  64.303  1.00  0.00     0.000 HD 
HETATM    3  CA  UNL     1     -10.229  10.874  65.751  1.00  0.00    -0.259 C  
HETATM    4  H2  UNL     1     -10.470   8.945  64.955  1.00  0.00     0.000 HD 
HETATM    5  C   UNL     1     -11.040  11.616  64.671  1.00  0.00    -0.278 C  
HETATM    6  O   UNL     1     -10.721  11.153  63.429  1.00  0.00    -0.360 OA 
HETATM    7  O   UNL     1     -11.827  12.528  64.856  1.00  0.00    -0.349 OA 
ENDROOT
BRANCH   3   8
HETATM    8  C   UNL     1     -11.057  10.597  67.013  1.00  0.00    -0.145 C  
HETATM    9  O   UNL     1     -11.910  11.672  67.384  1.00  0.00    -0.603 OA 
HETATM   10  H   UNL     1     -12.422  11.501  68.165  1.00  0.00     0.000 HD 
ENDBRANCH   3   8
TORSDOF 1
ENDMDL
MODEL       96
REMARK 921   NORMALIZED FREE ENERGY PREDICTED BY IDOCK:   -2.41 KCAL/MOL
REMARK 922        TOTAL FREE ENERGY PREDICTED BY IDOCK:   -2.56 KCAL/MOL
REMARK 923 INTER-LIGAND FREE ENERGY PREDICTED BY IDOCK:   -2.34 KCAL/MOL
REMARK 924 INTRA-LIGAND FREE ENERGY PREDICTED BY IDOCK:   -0.22 KCAL/MOL
REMARK 927      BINDING AFFINITY PREDICTED BY RF-SCORE:    0.00 PKD
ROOT
HETATM    1  N   UNL     1      -9.168  12.472  66.051  1.00  0.00    -0.431 NA 
HETATM    2  H1  UNL     1      -8.758  13.099  65.359  1.00  0.00     0.000 HD 
HETATM    3  CA  UNL     1      -9.884  13.234  67.127  1.00  0.00    -0.237 C  
HETATM    4  H2  UNL     1      -9.778  11.781  65.613  1.00  0.00     0.000 HD 
HETATM    5  C   UNL     1     -10.941  14.126  66.446  1.00  0.00    -0.311 C  
HETATM    6  O   UNL     1     -10.655  14.283  65.123  1.00  0.00    -0.354 OA 
HETATM    7  O   UNL     1     -11.885  14.673  66.990  1.00  0.00    -0.387 OA 
ENDROOT
BRANCH   3   8
HETATM    8  C   UNL     1     -10.502  12.290  68.168  1.00  0.00    -0.217 C  
HETATM    9  O   UNL     1     -11.030  12.961  69.305  1.00  0.00    -0.403 OA 
HETATM   10  H   UNL     1     -11.411  12.377  69.950  1.00  0.00     0.000 HD 
ENDBRANCH   3   8
TORSDOF 1
ENDMDL
MODEL       97
REMARK 921   NORMALIZED FREE ENERGY PREDICTED BY IDOCK:   -2.41 KCAL/MOL
REMARK 922        TOTAL FREE ENERGY PREDICTED BY IDOCK:   -2.56 KCAL/MOL
REMARK 923 INTER-LIGAND FREE ENERGY PREDICTED BY IDOCK:   -2.35 KCAL/MOL
REMARK 924 INTRA-LIGAND FREE ENERGY PREDICTED BY IDOCK:   -0.21 KCAL/MOL
REMARK 927      BINDING AFFINITY PREDICTED BY RF-SCORE:    0.00 PKD
ROOT
HETATM    1  N   UNL     1     -10.383   9.142  71.019  1.00  0.00    -0.267 NA 
HETATM    2  H1  UNL     1     -10.423   9.689  71.879  1.00  0.00     0.000 HD 
HETATM    3  CA  UNL     1     -10.692   7.696  71.274  1.00  0.00    -0.228 C  
HETATM    4  H2  UNL     1     -10.990   9.533  70.299  1.00  0.00     0.000 HD 
HETATM    5  C   UNL     1     -12.076   7.625  71.948  1.00  0.00    -0.298 C  
HETATM    6  O   UNL     1     -12.415   8.834  72.478  1.00  0.00    -0.382 OA 
HETATM    7  O   UNL     1     -12.778   6.633  72.057  1.00  0.00    -0.301 OA 
ENDROOT
BRANCH   3   8
HETATM    8  C   UNL     1     -10.631   6.873  69.981  1.00  0.00    -0.226 C  
HETATM    9  O   UNL     1     -11.910   6.519  69.468  1.00  0.00    -0.649 OA 
HETATM   10  H   UNL     1     -11.872   6.009  68.667  1.00  0.00     0.000 HD 
ENDBRANCH   3   8
TORSDOF 1
ENDMDL
MODEL       98
REMARK 921   NORMALIZED FREE ENERGY PREDICTED BY IDOCK:   -2.41 KCAL/MOL
REMARK 922        TOTAL FREE ENERGY PREDICTED BY IDOCK:   -2.56 KCAL/MOL
REMARK 923 INTER-LIGAND FREE ENERGY PREDICTED BY IDOCK:   -2.32 KCAL/MOL
REMARK 924 INTRA-LIGAND FREE ENERGY PREDICTED BY IDOCK:   -0.24 KCAL/MOL
REMARK 927      BINDING AFFINITY PREDICTED BY RF-SCORE:    0.00 PKD
ROOT
HETATM    1  N   UNL     1     -11.942  14.658  68.639  1.00  0.00    -0.510 NA 
HETATM    2  H1  UNL     1     -11.433  15.430  69.070  1.00  0.00     0.000 HD 
HETATM    3  CA  UNL     1     -11.668  14.576  67.165  1.00  0.00    -0.399 C  
HETATM    4  H2  UNL     1     -11.743  13.773  69.106  1.00  0.00     0.000 HD 
HETATM    5  C   UNL     1     -10.143  14.449  66.979  1.00  0.00    -0.256 C  
HETATM    6  O   UNL     1      -9.487  14.855  68.102  1.00  0.00    -0.194 OA 
HETATM    7  O   UNL     1      -9.566  14.090  65.966  1.00  0.00    -0.275 OA 
ENDROOT
BRANCH   3   8
HETATM    8  C   UNL     1     -12.433  13.414  66.517  1.00  0.00    -0.195 C  
HETATM    9  O   UNL     1     -11.680  12.209  66.437  1.00  0.00    -0.489 OA 
HETATM   10  H   UNL     1     -12.154  11.490  66.035  1.00  0.00     0.000 HD 
ENDBRANCH   3   8
TORSDOF 1
ENDMDL
MODEL       99
REMARK 921   NORMALIZED FREE ENERGY PREDICTED BY IDOCK:   -2.40 KCAL/MOL
REMARK 922        TOTAL FREE ENERGY PREDICTED BY IDOCK:   -2.55 KCAL/MOL
REMARK 923 INTER-LIGAND FREE ENERGY PREDICTED BY IDOCK:   -2.31 KCAL/MOL
REMARK 924 INTRA-LIGAND FREE ENERGY PREDICTED BY IDOCK:   -0.24 KCAL/MOL
REMARK 927      BINDING AFFINITY PREDICTED BY RF-SCORE:    0.00 PKD
ROOT
HETATM    1  N   UNL     1     -11.684   6.608  69.479  1.00  0.00    -0.657 NA 
HETATM    2  H1  UNL     1     -12.677   6.790  69.334  1.00  0.00     0.000 HD 
HETATM    3  CA  UNL     1     -11.070   7.619  70.403  1.00  0.00    -0.258 C  
HETATM    4  H2  UNL     1     -11.524   5.656  69.806  1.00  0.00     0.000 HD 
HETATM    5  C   UNL     1     -11.867   7.594  71.721  1.00  0.00    -0.290 C  
HETATM    6  O   UNL     1     -13.085   7.013  71.534  1.00  0.00    -0.380 OA 
HETATM    7  O   UNL     1     -11.513   8.064  72.789  1.00  0.00    -0.402 OA 
ENDROOT
BRANCH   3   8
HETATM    8  C   UNL     1      -9.576   7.344  70.620  1.00  0.00    -0.171 C  
HETATM    9  O   UNL     1      -9.303   6.544  71.764  1.00  0.00    -0.150 OA 
HETATM   10  H   UNL     1      -8.378   6.374  71.899  1.00  0.00     0.000 HD 
ENDBRANCH   3   8
TORSDOF 1
ENDMDL
MODEL      100
REMARK 921   NORMALIZED FREE ENERGY PREDICTED BY IDOCK:   -2.39 KCAL/MOL
REMARK 922        TOTAL FREE ENERGY PREDICTED BY IDOCK:   -2.53 KCAL/MOL
REMARK 923 INTER-LIGAND FREE ENERGY PREDICTED BY IDOCK:   -2.29 KCAL/MOL
REMARK 924 INTRA-LIGAND FREE ENERGY PREDICTED BY IDOCK:   -0.24 KCAL/MOL
REMARK 927      BINDING AFFINITY PREDICTED BY RF-SCORE:    0.00 PKD
ROOT
HETATM    1  N   UNL     1     -10.605  18.367  67.030  1.00  0.00    -0.391 NA 
HETATM    2  H1  UNL     1     -11.260  19.063  66.673  1.00  0.00     0.000 HD 
HETATM    3  CA  UNL     1      -9.202  18.653  66.581  1.00  0.00    -0.321 C  
HETATM    4  H2  UNL     1     -10.663  18.284  68.044  1.00  0.00     0.000 HD 
HETATM    5  C   UNL     1      -8.846  20.081  67.039  1.00  0.00    -0.347 C  
HETATM    6  O   UNL     1      -9.975  20.789  67.324  1.00  0.00    -0.433 OA 
HETATM    7  O   UNL     1      -7.727  20.562  67.103  1.00  0.00    -0.317 OA 
ENDROOT
BRANCH   3   8
HETATM    8  C   UNL     1      -8.216  17.606  67.117  1.00  0.00    -0.214 C  
HETATM    9  O   UNL     1      -7.680  17.929  68.394  1.00  0.00    -0.271 OA 
HETATM   10  H   UNL     1      -7.070  17.281  68.726  1.00  0.00     0.000 HD 
ENDBRANCH   3   8
TORSDOF 1
ENDMDL
MODEL      101
REMARK 921   NORMALIZED FREE ENERGY PREDICTED BY IDOCK:   -2.39 KCAL/MOL
REMARK 922        TOTAL FREE ENERGY PREDICTED BY IDOCK:   -2.53 KCAL/MOL
REMARK 923 INTER-LIGAND FREE ENERGY PREDICTED BY IDOCK:   -2.53 KCAL/MOL
REMARK 924 INTRA-LIGAND FREE ENERGY PREDICTED BY IDOCK:   -0.01 KCAL/MOL
REMARK 927      BINDING AFFINITY PREDICTED BY RF-SCORE:    0.00 PKD
ROOT
HETATM    1  N   UNL     1      -8.967  17.259  68.665  1.00  0.00    -0.274 NA 
HETATM    2  H1  UNL     1      -8.285  16.505  68.589  1.00  0.00     0.000 HD 
HETATM    3  CA  UNL     1      -8.480  18.509  67.990  1.00  0.00    -0.283 C  
HETATM    4  H2  UNL     1      -9.880  16.975  68.311  1.00  0.00     0.000 HD 
HETATM    5  C   UNL     1      -8.160  18.155  66.525  1.00  0.00    -0.269 C  
HETATM    6  O   UNL     1      -8.008  16.809  66.378  1.00  0.00    -0.268 OA 
HETATM    7  O   UNL     1      -8.007  18.944  65.607  1.00  0.00    -0.439 OA 
ENDROOT
BRANCH   3   8
HETATM    8  C   UNL     1      -9.506  19.644  68.105  1.00  0.00    -0.360 C  
HETATM    9  O   UNL     1     -10.190  19.671  69.352  1.00  0.00    -0.636 OA 
HETATM   10  H   UNL     1     -10.825  20.374  69.422  1.00  0.00     0.000 HD 
ENDBRANCH   3   8
TORSDOF 1
ENDMDL
MODEL      102
REMARK 921   NORMALIZED FREE ENERGY PREDICTED BY IDOCK:   -2.38 KCAL/MOL
REMARK 922        TOTAL FREE ENERGY PREDICTED BY IDOCK:   -2.53 KCAL/MOL
REMARK 923 INTER-LIGAND FREE ENERGY PREDICTED BY IDOCK:   -2.51 KCAL/MOL
REMARK 924 INTRA-LIGAND FREE ENERGY PREDICTED BY IDOCK:   -0.01 KCAL/MOL
REMARK 927      BINDING AFFINITY PREDICTED BY RF-SCORE:    0.00 PKD
ROOT
HETATM    1  N   UNL     1     -10.690  18.971  67.256  1.00  0.00    -0.472 NA 
HETATM    2  H1  UNL     1     -10.594  19.561  66.430  1.00  0.00     0.000 HD 
HETATM    3  CA  UNL     1     -10.345  17.542  66.953  1.00  0.00    -0.315 C  
HETATM    4  H2  UNL     1     -10.142  19.331  68.037  1.00  0.00     0.000 HD 
HETATM    5  C   UNL     1      -8.914  17.518  66.380  1.00  0.00    -0.238 C  
HETATM    6  O   UNL     1      -8.554  18.755  65.937  1.00  0.00    -0.478 OA 
HETATM    7  O   UNL     1      -8.195  16.539  66.274  1.00  0.00    -0.302 OA 
ENDROOT
BRANCH   3   8
HETATM    8  C   UNL     1     -10.490  16.654  68.196  1.00  0.00    -0.321 C  
HETATM    9  O   UNL     1     -10.641  17.387  69.406  1.00  0.00    -0.389 OA 
HETATM   10  H   UNL     1     -10.731  16.837  70.175  1.00  0.00     0.000 HD 
ENDBRANCH   3   8
TORSDOF 1
ENDMDL
MODEL      103
REMARK 921   NORMALIZED FREE ENERGY PREDICTED BY IDOCK:   -2.37 KCAL/MOL
REMARK 922        TOTAL FREE ENERGY PREDICTED BY IDOCK:   -2.52 KCAL/MOL
REMARK 923 INTER-LIGAND FREE ENERGY PREDICTED BY IDOCK:   -2.28 KCAL/MOL
REMARK 924 INTRA-LIGAND FREE ENERGY PREDICTED BY IDOCK:   -0.23 KCAL/MOL
REMARK 927      BINDING AFFINITY PREDICTED BY RF-SCORE:    0.00 PKD
ROOT
HETATM    1  N   UNL     1     -11.465   4.440  65.005  1.00  0.00    -1.079 NA 
HETATM    2  H1  UNL     1     -11.780   5.356  65.327  1.00  0.00     0.000 HD 
HETATM    3  CA  UNL     1      -9.971   4.316  65.081  1.00  0.00    -0.204 C  
HETATM    4  H2  UNL     1     -11.929   3.687  65.512  1.00  0.00     0.000 HD 
HETATM    5  C   UNL     1      -9.551   4.602  66.536  1.00  0.00    -0.182 C  
HETATM    6  O   UNL     1     -10.540   5.265  67.200  1.00  0.00    -0.227 OA 
HETATM    7  O   UNL     1      -8.475   4.334  67.044  1.00  0.00    -0.104 OA 
ENDROOT
BRANCH   3   8
HETATM    8  C   UNL     1      -9.498   2.939  64.598  1.00  0.00    -0.149 C  
HETATM    9  O   UNL     1      -9.593   1.922  65.589  1.00  0.00    -0.339 OA 
HETATM   10  H   UNL     1      -9.299   1.070  65.290  1.00  0.00     0.000 HD 
ENDBRANCH   3   8
TORSDOF 1
ENDMDL
MODEL      104
REMARK 921   NORMALIZED FREE ENERGY PREDICTED BY IDOCK:   -2.36 KCAL/MOL
REMARK 922        TOTAL FREE ENERGY PREDICTED BY IDOCK:   -2.51 KCAL/MOL
REMARK 923 INTER-LIGAND FREE ENERGY PREDICTED BY IDOCK:   -2.28 KCAL/MOL
REMARK 924 INTRA-LIGAND FREE ENERGY PREDICTED BY IDOCK:   -0.22 KCAL/MOL
REMARK 927      BINDING AFFINITY PREDICTED BY RF-SCORE:    0.00 PKD
ROOT
HETATM    1  N   UNL     1     -10.471  16.771  65.538  1.00  0.00    -0.587 NA 
HETATM    2  H1  UNL     1     -11.447  16.834  65.250  1.00  0.00     0.000 HD 
HETATM    3  CA  UNL     1     -10.342  16.203  66.921  1.00  0.00    -0.297 C  
HETATM    4  H2  UNL     1      -9.917  16.243  64.864  1.00  0.00     0.000 HD 
HETATM    5  C   UNL     1     -11.045  14.831  66.931  1.00  0.00    -0.339 C  
HETATM    6  O   UNL     1     -11.899  14.722  65.875  1.00  0.00    -0.314 OA 
HETATM    7  O   UNL     1     -10.919  13.961  67.776  1.00  0.00    -0.250 OA 
ENDROOT
BRANCH   3   8
HETATM    8  C   UNL     1      -8.873  16.108  67.354  1.00  0.00    -0.187 C  
HETATM    9  O   UNL     1      -8.187  14.990  66.804  1.00  0.00    -0.310 OA 
HETATM   10  H   UNL     1      -7.278  14.931  67.073  1.00  0.00     0.000 HD 
ENDBRANCH   3   8
TORSDOF 1
ENDMDL
MODEL      105
REMARK 921   NORMALIZED FREE ENERGY PREDICTED BY IDOCK:   -2.35 KCAL/MOL
REMARK 922        TOTAL FREE ENERGY PREDICTED BY IDOCK:   -2.50 KCAL/MOL
REMARK 923 INTER-LIGAND FREE ENERGY PREDICTED BY IDOCK:   -2.27 KCAL/MOL
REMARK 924 INTRA-LIGAND FREE ENERGY PREDICTED BY IDOCK:   -0.23 KCAL/MOL
REMARK 927      BINDING AFFINITY PREDICTED BY RF-SCORE:    0.00 PKD
ROOT
HETATM    1  N   UNL     1      -8.630   5.626  64.035  1.00  0.00    -0.331 NA 
HETATM    2  H1  UNL     1      -7.805   6.104  64.398  1.00  0.00     0.000 HD 
HETATM    3  CA  UNL     1      -9.178   4.645  65.031  1.00  0.00    -0.152 C  
HETATM    4  H2  UNL     1      -9.343   6.290  63.734  1.00  0.00     0.000 HD 
HETATM    5  C   UNL     1      -9.472   5.415  66.333  1.00  0.00    -0.154 C  
HETATM    6  O   UNL     1      -8.795   6.597  66.356  1.00  0.00    -0.134 OA 
HETATM    7  O   UNL     1     -10.166   5.030  67.259  1.00  0.00    -0.192 OA 
ENDROOT
BRANCH   3   8
HETATM    8  C   UNL     1     -10.420   3.927  64.485  1.00  0.00    -0.207 C  
HETATM    9  O   UNL     1     -11.647   4.471  64.958  1.00  0.00    -1.101 OA 
HETATM   10  H   UNL     1     -12.416   4.026  64.620  1.00  0.00     0.000 HD 
ENDBRANCH   3   8
TORSDOF 1
ENDMDL
MODEL      106
REMARK 921   NORMALIZED FREE ENERGY PREDICTED BY IDOCK:   -2.35 KCAL/MOL
REMARK 922        TOTAL FREE ENERGY PREDICTED BY IDOCK:   -2.49 KCAL/MOL
REMARK 923 INTER-LIGAND FREE ENERGY PREDICTED BY IDOCK:   -2.46 KCAL/MOL
REMARK 924 INTRA-LIGAND FREE ENERGY PREDICTED BY IDOCK:   -0.03 KCAL/MOL
REMARK 927      BINDING AFFINITY PREDICTED BY RF-SCORE:    0.00 PKD
ROOT
HETATM    1  N   UNL     1     -10.553  16.170  66.560  1.00  0.00    -0.297 NA 
HETATM    2  H1  UNL     1     -11.219  16.687  65.986  1.00  0.00     0.000 HD 
HETATM    3  CA  UNL     1     -11.214  15.021  67.265  1.00  0.00    -0.338 C  
HETATM    4  H2  UNL     1      -9.750  15.861  66.014  1.00  0.00     0.000 HD 
HETATM    5  C   UNL     1     -11.876  14.133  66.193  1.00  0.00    -0.407 C  
HETATM    6  O   UNL     1     -12.034  14.823  65.029  1.00  0.00    -0.366 OA 
HETATM    7  O   UNL     1     -12.265  12.987  66.343  1.00  0.00    -0.387 OA 
ENDROOT
BRANCH   3   8
HETATM    8  C   UNL     1     -10.213  14.242  68.129  1.00  0.00    -0.231 C  
HETATM    9  O   UNL     1     -10.634  14.075  69.478  1.00  0.00    -0.438 OA 
HETATM   10  H   UNL     1     -10.014  13.593  70.013  1.00  0.00     0.000 HD 
ENDBRANCH   3   8
TORSDOF 1
ENDMDL
MODEL      107
REMARK 921   NORMALIZED FREE ENERGY PREDICTED BY IDOCK:   -2.34 KCAL/MOL
REMARK 922        TOTAL FREE ENERGY PREDICTED BY IDOCK:   -2.49 KCAL/MOL
REMARK 923 INTER-LIGAND FREE ENERGY PREDICTED BY IDOCK:   -2.25 KCAL/MOL
REMARK 924 INTRA-LIGAND FREE ENERGY PREDICTED BY IDOCK:   -0.24 KCAL/MOL
REMARK 927      BINDING AFFINITY PREDICTED BY RF-SCORE:    0.00 PKD
ROOT
HETATM    1  N   UNL     1     -11.503   4.652  65.283  1.00  0.00    -1.096 NA 
HETATM    2  H1  UNL     1     -12.017   3.824  64.984  1.00  0.00     0.000 HD 
HETATM    3  CA  UNL     1     -10.031   4.375  65.390  1.00  0.00    -0.218 C  
HETATM    4  H2  UNL     1     -11.690   5.447  64.672  1.00  0.00     0.000 HD 
HETATM    5  C   UNL     1      -9.553   3.849  64.023  1.00  0.00    -0.162 C  
HETATM    6  O   UNL     1     -10.608   3.406  63.283  1.00  0.00    -0.206 OA 
HETATM    7  O   UNL     1      -8.397   3.777  63.640  1.00  0.00    -0.089 OA 
ENDROOT
BRANCH   3   8
HETATM    8  C   UNL     1      -9.257   5.621  65.839  1.00  0.00    -0.132 C  
HETATM    9  O   UNL     1      -8.702   6.367  64.762  1.00  0.00    -0.348 OA 
HETATM   10  H   UNL     1      -8.222   7.138  65.040  1.00  0.00     0.000 HD 
ENDBRANCH   3   8
TORSDOF 1
ENDMDL
MODEL      108
REMARK 921   NORMALIZED FREE ENERGY PREDICTED BY IDOCK:   -2.34 KCAL/MOL
REMARK 922        TOTAL FREE ENERGY PREDICTED BY IDOCK:   -2.49 KCAL/MOL
REMARK 923 INTER-LIGAND FREE ENERGY PREDICTED BY IDOCK:   -2.27 KCAL/MOL
REMARK 924 INTRA-LIGAND FREE ENERGY PREDICTED BY IDOCK:   -0.22 KCAL/MOL
REMARK 927      BINDING AFFINITY PREDICTED BY RF-SCORE:    0.00 PKD
ROOT
HETATM    1  N   UNL     1     -11.287  13.289  66.783  1.00  0.00    -0.314 NA 
HETATM    2  H1  UNL     1     -11.990  12.555  66.869  1.00  0.00     0.000 HD 
HETATM    3  CA  UNL     1     -11.646  14.491  67.607  1.00  0.00    -0.378 C  
HETATM    4  H2  UNL     1     -10.356  12.944  67.012  1.00  0.00     0.000 HD 
HETATM    5  C   UNL     1     -11.828  14.022  69.064  1.00  0.00    -0.354 C  
HETATM    6  O   UNL     1     -12.023  12.675  69.114  1.00  0.00    -0.291 OA 
HETATM    7  O   UNL     1     -11.851  14.733  70.055  1.00  0.00    -0.275 OA 
ENDROOT
BRANCH   3   8
HETATM    8  C   UNL     1     -10.590  15.596  67.478  1.00  0.00    -0.297 C  
HETATM    9  O   UNL     1     -10.983  16.833  68.063  1.00  0.00    -0.356 OA 
HETATM   10  H   UNL     1     -10.329  17.517  67.982  1.00  0.00     0.000 HD 
ENDBRANCH   3   8
TORSDOF 1
ENDMDL
MODEL      109
REMARK 921   NORMALIZED FREE ENERGY PREDICTED BY IDOCK:   -2.34 KCAL/MOL
REMARK 922        TOTAL FREE ENERGY PREDICTED BY IDOCK:   -2.48 KCAL/MOL
REMARK 923 INTER-LIGAND FREE ENERGY PREDICTED BY IDOCK:   -2.26 KCAL/MOL
REMARK 924 INTRA-LIGAND FREE ENERGY PREDICTED BY IDOCK:   -0.22 KCAL/MOL
REMARK 927      BINDING AFFINITY PREDICTED BY RF-SCORE:    0.00 PKD
ROOT
HETATM    1  N   UNL     1      -9.415   8.819  65.472  1.00  0.00    -0.452 NA 
HETATM    2  H1  UNL     1      -9.740   8.587  66.411  1.00  0.00     0.000 HD 
HETATM    3  CA  UNL     1     -10.011  10.110  64.989  1.00  0.00    -0.305 C  
HETATM    4  H2  UNL     1      -8.397   8.837  65.424  1.00  0.00     0.000 HD 
HETATM    5  C   UNL     1      -9.659  11.202  66.017  1.00  0.00    -0.217 C  
HETATM    6  O   UNL     1      -9.302  10.644  67.208  1.00  0.00    -0.150 OA 
HETATM    7  O   UNL     1      -9.727  12.407  65.844  1.00  0.00    -0.252 OA 
ENDROOT
BRANCH   3   8
HETATM    8  C   UNL     1      -9.522  10.459  63.577  1.00  0.00    -0.312 C  
HETATM    9  O   UNL     1     -10.230  11.538  62.979  1.00  0.00    -0.573 OA 
HETATM   10  H   UNL     1      -9.927  11.754  62.104  1.00  0.00     0.000 HD 
ENDBRANCH   3   8
TORSDOF 1
ENDMDL
MODEL      110
REMARK 921   NORMALIZED FREE ENERGY PREDICTED BY IDOCK:   -2.34 KCAL/MOL
REMARK 922        TOTAL FREE ENERGY PREDICTED BY IDOCK:   -2.48 KCAL/MOL
REMARK 923 INTER-LIGAND FREE ENERGY PREDICTED BY IDOCK:   -2.47 KCAL/MOL
REMARK 924 INTRA-LIGAND FREE ENERGY PREDICTED BY IDOCK:   -0.01 KCAL/MOL
REMARK 927      BINDING AFFINITY PREDICTED BY RF-SCORE:    0.00 PKD
ROOT
HETATM    1  N   UNL     1     -12.150  11.454  67.993  1.00  0.00    -0.615 NA 
HETATM    2  H1  UNL     1     -11.560  11.116  68.754  1.00  0.00     0.000 HD 
HETATM    3  CA  UNL     1     -11.381  12.341  67.057  1.00  0.00    -0.334 C  
HETATM    4  H2  UNL     1     -12.596  10.684  67.496  1.00  0.00     0.000 HD 
HETATM    5  C   UNL     1     -10.166  11.541  66.546  1.00  0.00    -0.218 C  
HETATM    6  O   UNL     1      -9.911  10.481  67.364  1.00  0.00    -0.170 OA 
HETATM    7  O   UNL     1      -9.475  11.815  65.580  1.00  0.00    -0.231 OA 
ENDROOT
BRANCH   3   8
HETATM    8  C   UNL     1     -12.266  12.850  65.912  1.00  0.00    -0.407 C  
HETATM    9  O   UNL     1     -12.753  14.172  66.111  1.00  0.00    -0.494 OA 
HETATM   10  H   UNL     1     -13.302  14.487  65.403  1.00  0.00     0.000 HD 
ENDBRANCH   3   8
TORSDOF 1
ENDMDL
MODEL      111
REMARK 921   NORMALIZED FREE ENERGY PREDICTED BY IDOCK:   -2.31 KCAL/MOL
REMARK 922        TOTAL FREE ENERGY PREDICTED BY IDOCK:   -2.45 KCAL/MOL
REMARK 923 INTER-LIGAND FREE ENERGY PREDICTED BY IDOCK:   -2.41 KCAL/MOL
REMARK 924 INTRA-LIGAND FREE ENERGY PREDICTED BY IDOCK:   -0.04 KCAL/MOL
REMARK 927      BINDING AFFINITY PREDICTED BY RF-SCORE:    0.00 PKD
ROOT
HETATM    1  N   UNL     1     -12.032   7.965  72.891  1.00  0.00    -0.619 NA 
HETATM    2  H1  UNL     1     -11.891   7.095  73.405  1.00  0.00     0.000 HD 
HETATM    3  CA  UNL     1     -10.849   8.289  72.026  1.00  0.00    -0.301 C  
HETATM    4  H2  UNL     1     -12.896   7.943  72.350  1.00  0.00     0.000 HD 
HETATM    5  C   UNL     1     -10.610   7.088  71.090  1.00  0.00    -0.217 C  
HETATM    6  O   UNL     1     -11.227   5.973  71.573  1.00  0.00    -0.277 OA 
HETATM    7  O   UNL     1      -9.930   7.084  70.078  1.00  0.00    -0.180 OA 
ENDROOT
BRANCH   3   8
HETATM    8  C   UNL     1     -11.061   9.597  71.253  1.00  0.00    -0.355 C  
HETATM    9  O   UNL     1     -12.305   9.660  70.568  1.00  0.00    -0.461 OA 
HETATM   10  H   UNL     1     -12.436  10.470  70.089  1.00  0.00     0.000 HD 
ENDBRANCH   3   8
TORSDOF 1
ENDMDL
MODEL      112
REMARK 921   NORMALIZED FREE ENERGY PREDICTED BY IDOCK:   -2.24 KCAL/MOL
REMARK 922        TOTAL FREE ENERGY PREDICTED BY IDOCK:   -2.38 KCAL/MOL
REMARK 923 INTER-LIGAND FREE ENERGY PREDICTED BY IDOCK:   -2.15 KCAL/MOL
REMARK 924 INTRA-LIGAND FREE ENERGY PREDICTED BY IDOCK:   -0.22 KCAL/MOL
REMARK 927      BINDING AFFINITY PREDICTED BY RF-SCORE:    0.00 PKD
ROOT
HETATM    1  N   UNL     1     -10.027  11.244  69.330  1.00  0.00    -0.428 NA 
HETATM    2  H1  UNL     1     -10.700  10.581  69.714  1.00  0.00     0.000 HD 
HETATM    3  CA  UNL     1     -10.705  12.296  68.501  1.00  0.00    -0.237 C  
HETATM    4  H2  UNL     1      -9.452  11.659  70.063  1.00  0.00     0.000 HD 
HETATM    5  C   UNL     1     -11.762  12.982  69.388  1.00  0.00    -0.326 C  
HETATM    6  O   UNL     1     -12.061  12.204  70.467  1.00  0.00    -0.364 OA 
HETATM    7  O   UNL     1     -12.314  14.046  69.164  1.00  0.00    -0.313 OA 
ENDROOT
BRANCH   3   8
HETATM    8  C   UNL     1      -9.693  13.294  67.923  1.00  0.00    -0.224 C  
HETATM    9  O   UNL     1     -10.287  14.315  67.131  1.00  0.00    -0.259 OA 
HETATM   10  H   UNL     1      -9.660  14.933  66.773  1.00  0.00     0.000 HD 
ENDBRANCH   3   8
TORSDOF 1
ENDMDL
MODEL      113
REMARK 921   NORMALIZED FREE ENERGY PREDICTED BY IDOCK:   -2.23 KCAL/MOL
REMARK 922        TOTAL FREE ENERGY PREDICTED BY IDOCK:   -2.36 KCAL/MOL
REMARK 923 INTER-LIGAND FREE ENERGY PREDICTED BY IDOCK:   -2.16 KCAL/MOL
REMARK 924 INTRA-LIGAND FREE ENERGY PREDICTED BY IDOCK:   -0.20 KCAL/MOL
REMARK 927      BINDING AFFINITY PREDICTED BY RF-SCORE:    0.00 PKD
ROOT
HETATM    1  N   UNL     1      -9.859   7.763  66.107  1.00  0.00    -0.460 NA 
HETATM    2  H1  UNL     1      -9.785   6.748  66.173  1.00  0.00     0.000 HD 
HETATM    3  CA  UNL     1     -10.648   8.331  67.252  1.00  0.00    -0.265 C  
HETATM    4  H2  UNL     1      -8.941   8.200  66.033  1.00  0.00     0.000 HD 
HETATM    5  C   UNL     1      -9.970   7.876  68.559  1.00  0.00    -0.187 C  
HETATM    6  O   UNL     1      -9.157   6.806  68.331  1.00  0.00    -0.127 OA 
HETATM    7  O   UNL     1     -10.149   8.348  69.669  1.00  0.00    -0.190 OA 
ENDROOT
BRANCH   3   8
HETATM    8  C   UNL     1     -10.759   9.858  67.154  1.00  0.00    -0.207 C  
HETATM    9  O   UNL     1     -11.765  10.412  67.993  1.00  0.00    -0.729 OA 
HETATM   10  H   UNL     1     -11.835  11.357  67.932  1.00  0.00     0.000 HD 
ENDBRANCH   3   8
TORSDOF 1
ENDMDL
MODEL      114
REMARK 921   NORMALIZED FREE ENERGY PREDICTED BY IDOCK:   -2.23 KCAL/MOL
REMARK 922        TOTAL FREE ENERGY PREDICTED BY IDOCK:   -2.36 KCAL/MOL
REMARK 923 INTER-LIGAND FREE ENERGY PREDICTED BY IDOCK:   -2.16 KCAL/MOL
REMARK 924 INTRA-LIGAND FREE ENERGY PREDICTED BY IDOCK:   -0.21 KCAL/MOL
REMARK 927      BINDING AFFINITY PREDICTED BY RF-SCORE:    0.00 PKD
ROOT
HETATM    1  N   UNL     1      -9.197   8.729  72.047  1.00  0.00    -0.349 NA 
HETATM    2  H1  UNL     1      -8.776   8.491  72.946  1.00  0.00     0.000 HD 
HETATM    3  CA  UNL     1      -9.859   7.537  71.420  1.00  0.00    -0.177 C  
HETATM    4  H2  UNL     1      -9.843   9.513  72.133  1.00  0.00     0.000 HD 
HETATM    5  C   UNL     1     -10.893   6.993  72.425  1.00  0.00    -0.240 C  
HETATM    6  O   UNL     1     -10.629   7.451  73.680  1.00  0.00    -0.370 OA 
HETATM    7  O   UNL     1     -11.803   6.219  72.178  1.00  0.00    -0.322 OA 
ENDROOT
BRANCH   3   8
HETATM    8  C   UNL     1     -10.491   7.893  70.068  1.00  0.00    -0.231 C  
HETATM    9  O   UNL     1     -11.911   7.975  70.106  1.00  0.00    -0.470 OA 
HETATM   10  H   UNL     1     -12.302   8.196  69.269  1.00  0.00     0.000 HD 
ENDBRANCH   3   8
TORSDOF 1
ENDMDL
MODEL      115
REMARK 921   NORMALIZED FREE ENERGY PREDICTED BY IDOCK:   -2.22 KCAL/MOL
REMARK 922        TOTAL FREE ENERGY PREDICTED BY IDOCK:   -2.36 KCAL/MOL
REMARK 923 INTER-LIGAND FREE ENERGY PREDICTED BY IDOCK:   -2.14 KCAL/MOL
REMARK 924 INTRA-LIGAND FREE ENERGY PREDICTED BY IDOCK:   -0.22 KCAL/MOL
REMARK 927      BINDING AFFINITY PREDICTED BY RF-SCORE:    0.00 PKD
ROOT
HETATM    1  N   UNL     1     -10.711  14.634  66.073  1.00  0.00    -0.302 NA 
HETATM    2  H1  UNL     1      -9.893  14.889  65.519  1.00  0.00     0.000 HD 
HETATM    3  CA  UNL     1     -10.680  13.184  66.462  1.00  0.00    -0.279 C  
HETATM    4  H2  UNL     1     -10.812  15.237  66.889  1.00  0.00     0.000 HD 
HETATM    5  C   UNL     1      -9.359  12.930  67.215  1.00  0.00    -0.212 C  
HETATM    6  O   UNL     1      -8.461  13.921  66.957  1.00  0.00    -0.199 OA 
HETATM    7  O   UNL     1      -9.100  11.964  67.913  1.00  0.00    -0.169 OA 
ENDROOT
BRANCH   3   8
HETATM    8  C   UNL     1     -11.909  12.800  67.296  1.00  0.00    -0.350 C  
HETATM    9  O   UNL     1     -12.033  11.401  67.519  1.00  0.00    -0.626 OA 
HETATM   10  H   UNL     1     -12.795  11.163  68.034  1.00  0.00     0.000 HD 
ENDBRANCH   3   8
TORSDOF 1
ENDMDL
MODEL      116
REMARK 921   NORMALIZED FREE ENERGY PREDICTED BY IDOCK:   -2.22 KCAL/MOL
REMARK 922        TOTAL FREE ENERGY PREDICTED BY IDOCK:   -2.36 KCAL/MOL
REMARK 923 INTER-LIGAND FREE ENERGY PREDICTED BY IDOCK:   -2.13 KCAL/MOL
REMARK 924 INTRA-LIGAND FREE ENERGY PREDICTED BY IDOCK:   -0.23 KCAL/MOL
REMARK 927      BINDING AFFINITY PREDICTED BY RF-SCORE:    0.00 PKD
ROOT
HETATM    1  N   UNL     1     -12.006  13.187  68.396  1.00  0.00    -0.333 NA 
HETATM    2  H1  UNL     1     -11.622  13.095  69.337  1.00  0.00     0.000 HD 
HETATM    3  CA  UNL     1     -11.258  12.334  67.413  1.00  0.00    -0.301 C  
HETATM    4  H2  UNL     1     -13.006  12.986  68.380  1.00  0.00     0.000 HD 
HETATM    5  C   UNL     1     -11.303  10.881  67.924  1.00  0.00    -0.308 C  
HETATM    6  O   UNL     1     -11.614  10.848  69.251  1.00  0.00    -0.267 OA 
HETATM    7  O   UNL     1     -11.051   9.878  67.277  1.00  0.00    -0.208 OA 
ENDROOT
BRANCH   3   8
HETATM    8  C   UNL     1     -11.835  12.471  65.998  1.00  0.00    -0.418 C  
HETATM    9  O   UNL     1     -11.141  11.705  65.021  1.00  0.00    -0.299 OA 
HETATM   10  H   UNL     1     -11.498  11.790  64.145  1.00  0.00     0.000 HD 
ENDBRANCH   3   8
TORSDOF 1
ENDMDL
MODEL      117
REMARK 921   NORMALIZED FREE ENERGY PREDICTED BY IDOCK:   -2.22 KCAL/MOL
REMARK 922        TOTAL FREE ENERGY PREDICTED BY IDOCK:   -2.36 KCAL/MOL
REMARK 923 INTER-LIGAND FREE ENERGY PREDICTED BY IDOCK:   -2.14 KCAL/MOL
REMARK 924 INTRA-LIGAND FREE ENERGY PREDICTED BY IDOCK:   -0.22 KCAL/MOL
REMARK 927      BINDING AFFINITY PREDICTED BY RF-SCORE:    0.00 PKD
ROOT
HETATM    1  N   UNL     1     -11.789  10.851  67.666  1.00  0.00    -0.634 NA 
HETATM    2  H1  UNL     1     -11.980  10.817  68.667  1.00  0.00     0.000 HD 
HETATM    3  CA  UNL     1     -10.811  11.940  67.331  1.00  0.00    -0.243 C  
HETATM    4  H2  UNL     1     -11.475   9.947  67.314  1.00  0.00     0.000 HD 
HETATM    5  C   UNL     1      -9.537  11.697  68.163  1.00  0.00    -0.190 C  
HETATM    6  O   UNL     1      -9.800  10.871  69.214  1.00  0.00    -0.185 OA 
HETATM    7  O   UNL     1      -8.441  12.197  67.969  1.00  0.00    -0.153 OA 
ENDROOT
BRANCH   3   8
HETATM    8  C   UNL     1     -10.523  11.992  65.825  1.00  0.00    -0.254 C  
HETATM    9  O   UNL     1      -9.754  13.122  65.429  1.00  0.00    -0.478 OA 
HETATM   10  H   UNL     1      -9.577  13.154  64.497  1.00  0.00     0.000 HD 
ENDBRANCH   3   8
TORSDOF 1
ENDMDL
MODEL      118
REMARK 921   NORMALIZED FREE ENERGY PREDICTED BY IDOCK:   -2.19 KCAL/MOL
REMARK 922        TOTAL FREE ENERGY PREDICTED BY IDOCK:   -2.32 KCAL/MOL
REMARK 923 INTER-LIGAND FREE ENERGY PREDICTED BY IDOCK:   -2.08 KCAL/MOL
REMARK 924 INTRA-LIGAND FREE ENERGY PREDICTED BY IDOCK:   -0.24 KCAL/MOL
REMARK 927      BINDING AFFINITY PREDICTED BY RF-SCORE:    0.00 PKD
ROOT
HETATM    1  N   UNL     1     -11.368   6.272  70.520  1.00  0.00    -0.358 NA 
HETATM    2  H1  UNL     1     -11.263   7.175  70.058  1.00  0.00     0.000 HD 
HETATM    3  CA  UNL     1     -10.445   6.147  71.697  1.00  0.00    -0.222 C  
HETATM    4  H2  UNL     1     -12.337   6.097  70.784  1.00  0.00     0.000 HD 
HETATM    5  C   UNL     1     -10.736   7.326  72.646  1.00  0.00    -0.278 C  
HETATM    6  O   UNL     1     -11.400   8.319  71.989  1.00  0.00    -0.280 OA 
HETATM    7  O   UNL     1     -10.393   7.417  73.813  1.00  0.00    -0.348 OA 
ENDROOT
BRANCH   3   8
HETATM    8  C   UNL     1     -10.602   4.788  72.392  1.00  0.00    -0.180 C  
HETATM    9  O   UNL     1     -11.668   4.747  73.332  1.00  0.00    -0.417 OA 
HETATM   10  H   UNL     1     -11.765   3.906  73.763  1.00  0.00     0.000 HD 
ENDBRANCH   3   8
TORSDOF 1
ENDMDL
MODEL      119
REMARK 921   NORMALIZED FREE ENERGY PREDICTED BY IDOCK:   -2.19 KCAL/MOL
REMARK 922        TOTAL FREE ENERGY PREDICTED BY IDOCK:   -2.32 KCAL/MOL
REMARK 923 INTER-LIGAND FREE ENERGY PREDICTED BY IDOCK:   -2.29 KCAL/MOL
REMARK 924 INTRA-LIGAND FREE ENERGY PREDICTED BY IDOCK:   -0.03 KCAL/MOL
REMARK 927      BINDING AFFINITY PREDICTED BY RF-SCORE:    0.00 PKD
ROOT
HETATM    1  N   UNL     1      -9.433   5.835  71.064  1.00  0.00    -0.163 NA 
HETATM    2  H1  UNL     1      -9.223   6.090  70.099  1.00  0.00     0.000 HD 
HETATM    3  CA  UNL     1     -10.431   6.776  71.675  1.00  0.00    -0.209 C  
HETATM    4  H2  UNL     1      -9.742   4.865  71.135  1.00  0.00     0.000 HD 
HETATM    5  C   UNL     1     -11.687   6.771  70.782  1.00  0.00    -0.386 C  
HETATM    6  O   UNL     1     -11.394   6.282  69.544  1.00  0.00    -0.409 OA 
HETATM    7  O   UNL     1     -12.792   7.187  71.086  1.00  0.00    -0.370 OA 
ENDROOT
BRANCH   3   8
HETATM    8  C   UNL     1     -10.747   6.392  73.127  1.00  0.00    -0.268 C  
HETATM    9  O   UNL     1     -10.588   7.465  74.048  1.00  0.00    -0.489 OA 
HETATM   10  H   UNL     1     -10.784   7.227  74.947  1.00  0.00     0.000 HD 
ENDBRANCH   3   8
TORSDOF 1
ENDMDL
MODEL      120
REMARK 921   NORMALIZED FREE ENERGY PREDICTED BY IDOCK:   -2.18 KCAL/MOL
REMARK 922        TOTAL FREE ENERGY PREDICTED BY IDOCK:   -2.32 KCAL/MOL
REMARK 923 INTER-LIGAND FREE ENERGY PREDICTED BY IDOCK:   -2.16 KCAL/MOL
REMARK 924 INTRA-LIGAND FREE ENERGY PREDICTED BY IDOCK:   -0.16 KCAL/MOL
REMARK 927      BINDING AFFINITY PREDICTED BY RF-SCORE:    0.00 PKD
ROOT
HETATM    1  N   UNL     1     -11.162  12.079  66.631  1.00  0.00    -0.310 NA 
HETATM    2  H1  UNL     1     -10.817  11.125  66.736  1.00  0.00     0.000 HD 
HETATM    3  CA  UNL     1     -10.335  12.856  65.649  1.00  0.00    -0.282 C  
HETATM    4  H2  UNL     1     -12.150  12.093  66.381  1.00  0.00     0.000 HD 
HETATM    5  C   UNL     1     -10.340  12.081  64.316  1.00  0.00    -0.322 C  
HETATM    6  O   UNL     1     -10.709  10.785  64.516  1.00  0.00    -0.297 OA 
HETATM    7  O   UNL     1     -10.017  12.518  63.225  1.00  0.00    -0.348 OA 
ENDROOT
BRANCH   3   8
HETATM    8  C   UNL     1     -10.853  14.291  65.490  1.00  0.00    -0.322 C  
HETATM    9  O   UNL     1      -9.875  15.201  65.001  1.00  0.00    -0.279 OA 
HETATM   10  H   UNL     1     -10.196  16.090  64.903  1.00  0.00     0.000 HD 
ENDBRANCH   3   8
TORSDOF 1
ENDMDL
MODEL      121
REMARK 921   NORMALIZED FREE ENERGY PREDICTED BY IDOCK:   -2.18 KCAL/MOL
REMARK 922        TOTAL FREE ENERGY PREDICTED BY IDOCK:   -2.31 KCAL/MOL
REMARK 923 INTER-LIGAND FREE ENERGY PREDICTED BY IDOCK:   -2.31 KCAL/MOL
REMARK 924 INTRA-LIGAND FREE ENERGY PREDICTED BY IDOCK:   -0.01 KCAL/MOL
REMARK 927      BINDING AFFINITY PREDICTED BY RF-SCORE:    0.00 PKD
ROOT
HETATM    1  N   UNL     1      -8.614   8.615  64.104  1.00  0.00    -0.387 NA 
HETATM    2  H1  UNL     1      -8.108   8.879  63.259  1.00  0.00     0.000 HD 
HETATM    3  CA  UNL     1      -9.149   9.820  64.822  1.00  0.00    -0.241 C  
HETATM    4  H2  UNL     1      -9.353   7.942  63.901  1.00  0.00     0.000 HD 
HETATM    5  C   UNL     1     -10.033  10.602  63.831  1.00  0.00    -0.326 C  
HETATM    6  O   UNL     1      -9.752  10.239  62.548  1.00  0.00    -0.262 OA 
HETATM    7  O   UNL     1     -10.844  11.467  64.114  1.00  0.00    -0.331 OA 
ENDROOT
BRANCH   3   8
HETATM    8  C   UNL     1      -9.911   9.422  66.094  1.00  0.00    -0.285 C  
HETATM    9  O   UNL     1     -10.044   8.016  66.264  1.00  0.00    -0.473 OA 
HETATM   10  H   UNL     1     -10.516   7.771  67.051  1.00  0.00     0.000 HD 
ENDBRANCH   3   8
TORSDOF 1
ENDMDL
MODEL      122
REMARK 921   NORMALIZED FREE ENERGY PREDICTED BY IDOCK:   -2.16 KCAL/MOL
REMARK 922        TOTAL FREE ENERGY PREDICTED BY IDOCK:   -2.29 KCAL/MOL
REMARK 923 INTER-LIGAND FREE ENERGY PREDICTED BY IDOCK:   -2.28 KCAL/MOL
REMARK 924 INTRA-LIGAND FREE ENERGY PREDICTED BY IDOCK:   -0.01 KCAL/MOL
REMARK 927      BINDING AFFINITY PREDICTED BY RF-SCORE:    0.00 PKD
ROOT
HETATM    1  N   UNL     1     -10.644  18.185  67.243  1.00  0.00    -0.390 NA 
HETATM    2  H1  UNL     1     -11.043  18.668  68.048  1.00  0.00     0.000 HD 
HETATM    3  CA  UNL     1      -9.318  17.566  67.577  1.00  0.00    -0.246 C  
HETATM    4  H2  UNL     1     -11.293  17.496  66.862  1.00  0.00     0.000 HD 
HETATM    5  C   UNL     1      -9.530  16.625  68.779  1.00  0.00    -0.258 C  
HETATM    6  O   UNL     1     -10.690  16.928  69.427  1.00  0.00    -0.335 OA 
HETATM    7  O   UNL     1      -8.766  15.754  69.159  1.00  0.00    -0.222 OA 
ENDROOT
BRANCH   3   8
HETATM    8  C   UNL     1      -8.718  16.839  66.367  1.00  0.00    -0.302 C  
HETATM    9  O   UNL     1      -7.695  17.576  65.707  1.00  0.00    -0.530 OA 
HETATM   10  H   UNL     1      -7.324  17.126  64.958  1.00  0.00     0.000 HD 
ENDBRANCH   3   8
TORSDOF 1
ENDMDL
MODEL      123
REMARK 921   NORMALIZED FREE ENERGY PREDICTED BY IDOCK:   -2.15 KCAL/MOL
REMARK 922        TOTAL FREE ENERGY PREDICTED BY IDOCK:   -2.28 KCAL/MOL
REMARK 923 INTER-LIGAND FREE ENERGY PREDICTED BY IDOCK:   -2.28 KCAL/MOL
REMARK 924 INTRA-LIGAND FREE ENERGY PREDICTED BY IDOCK:   -0.01 KCAL/MOL
REMARK 927      BINDING AFFINITY PREDICTED BY RF-SCORE:    0.00 PKD
ROOT
HETATM    1  N   UNL     1     -12.398  14.056  67.122  1.00  0.00    -0.539 NA 
HETATM    2  H1  UNL     1     -13.060  13.860  67.873  1.00  0.00     0.000 HD 
HETATM    3  CA  UNL     1     -11.457  15.165  67.494  1.00  0.00    -0.298 C  
HETATM    4  H2  UNL     1     -11.893  13.216  66.841  1.00  0.00     0.000 HD 
HETATM    5  C   UNL     1     -10.753  14.761  68.804  1.00  0.00    -0.253 C  
HETATM    6  O   UNL     1     -11.449  13.777  69.440  1.00  0.00    -0.265 OA 
HETATM    7  O   UNL     1      -9.741  15.262  69.265  1.00  0.00    -0.230 OA 
ENDROOT
BRANCH   3   8
HETATM    8  C   UNL     1     -10.462  15.459  66.364  1.00  0.00    -0.303 C  
HETATM    9  O   UNL     1     -11.046  15.430  65.067  1.00  0.00    -0.388 OA 
HETATM   10  H   UNL     1     -10.430  15.611  64.367  1.00  0.00     0.000 HD 
ENDBRANCH   3   8
TORSDOF 1
ENDMDL
MODEL      124
REMARK 921   NORMALIZED FREE ENERGY PREDICTED BY IDOCK:   -2.13 KCAL/MOL
REMARK 922        TOTAL FREE ENERGY PREDICTED BY IDOCK:   -2.26 KCAL/MOL
REMARK 923 INTER-LIGAND FREE ENERGY PREDICTED BY IDOCK:   -2.02 KCAL/MOL
REMARK 924 INTRA-LIGAND FREE ENERGY PREDICTED BY IDOCK:   -0.24 KCAL/MOL
REMARK 927      BINDING AFFINITY PREDICTED BY RF-SCORE:    0.00 PKD
ROOT
HETATM    1  N   UNL     1     -11.796  10.908  67.603  1.00  0.00    -0.634 NA 
HETATM    2  H1  UNL     1     -11.992  10.982  66.604  1.00  0.00     0.000 HD 
HETATM    3  CA  UNL     1     -10.665   9.958  67.871  1.00  0.00    -0.265 C  
HETATM    4  H2  UNL     1     -11.622  11.823  68.017  1.00  0.00     0.000 HD 
HETATM    5  C   UNL     1      -9.443  10.446  67.069  1.00  0.00    -0.163 C  
HETATM    6  O   UNL     1      -9.829  11.294  66.075  1.00  0.00    -0.212 OA 
HETATM    7  O   UNL     1      -8.284  10.105  67.238  1.00  0.00    -0.117 OA 
ENDROOT
BRANCH   3   8
HETATM    8  C   UNL     1     -10.370   9.847  69.373  1.00  0.00    -0.222 C  
HETATM    9  O   UNL     1      -9.330  10.710  69.816  1.00  0.00    -0.409 OA 
HETATM   10  H   UNL     1      -9.147  10.641  70.745  1.00  0.00     0.000 HD 
ENDBRANCH   3   8
TORSDOF 1
ENDMDL
MODEL      125
REMARK 921   NORMALIZED FREE ENERGY PREDICTED BY IDOCK:   -2.13 KCAL/MOL
REMARK 922        TOTAL FREE ENERGY PREDICTED BY IDOCK:   -2.26 KCAL/MOL
REMARK 923 INTER-LIGAND FREE ENERGY PREDICTED BY IDOCK:   -2.02 KCAL/MOL
REMARK 924 INTRA-LIGAND FREE ENERGY PREDICTED BY IDOCK:   -0.24 KCAL/MOL
REMARK 927      BINDING AFFINITY PREDICTED BY RF-SCORE:    0.00 PKD
ROOT
HETATM    1  N   UNL     1     -10.658   9.916  67.548  1.00  0.00    -0.259 NA 
HETATM    2  H1  UNL     1     -11.007   8.965  67.666  1.00  0.00     0.000 HD 
HETATM    3  CA  UNL     1     -11.543  10.914  68.237  1.00  0.00    -0.262 C  
HETATM    4  H2  UNL     1      -9.690   9.999  67.856  1.00  0.00     0.000 HD 
HETATM    5  C   UNL     1     -11.642  10.506  69.720  1.00  0.00    -0.294 C  
HETATM    6  O   UNL     1     -11.277   9.204  69.885  1.00  0.00    -0.206 OA 
HETATM    7  O   UNL     1     -12.036  11.206  70.637  1.00  0.00    -0.343 OA 
ENDROOT
BRANCH   3   8
HETATM    8  C   UNL     1     -11.018  12.345  68.060  1.00  0.00    -0.225 C  
HETATM    9  O   UNL     1     -10.199  12.789  69.135  1.00  0.00    -0.428 OA 
HETATM   10  H   UNL     1      -9.875  13.676  69.025  1.00  0.00     0.000 HD 
ENDBRANCH   3   8
TORSDOF 1
ENDMDL
MODEL      126
REMARK 921   NORMALIZED FREE ENERGY PREDICTED BY IDOCK:   -2.12 KCAL/MOL
REMARK 922        TOTAL FREE ENERGY PREDICTED BY IDOCK:   -2.25 KCAL/MOL
REMARK 923 INTER-LIGAND FREE ENERGY PREDICTED BY IDOCK:   -2.02 KCAL/MOL
REMARK 924 INTRA-LIGAND FREE ENERGY PREDICTED BY IDOCK:   -0.22 KCAL/MOL
REMARK 927      BINDING AFFINITY PREDICTED BY RF-SCORE:    0.00 PKD
ROOT
HETATM    1  N   UNL     1      -9.072  18.661  66.170  1.00  0.00    -0.486 NA 
HETATM    2  H1  UNL     1      -9.910  18.296  66.620  1.00  0.00     0.000 HD 
HETATM    3  CA  UNL     1      -8.188  19.375  67.151  1.00  0.00    -0.271 C  
HETATM    4  H2  UNL     1      -8.564  17.928  65.674  1.00  0.00     0.000 HD 
HETATM    5  C   UNL     1      -7.859  18.388  68.288  1.00  0.00    -0.298 C  
HETATM    6  O   UNL     1      -8.750  17.358  68.303  1.00  0.00    -0.245 OA 
HETATM    7  O   UNL     1      -6.967  18.505  69.111  1.00  0.00    -0.287 OA 
ENDROOT
BRANCH   3   8
HETATM    8  C   UNL     1      -6.926  19.925  66.473  1.00  0.00    -0.230 C  
HETATM    9  O   UNL     1      -6.134  20.747  67.322  1.00  0.00    -0.206 OA 
HETATM   10  H   UNL     1      -5.353  21.088  66.902  1.00  0.00     0.000 HD 
ENDBRANCH   3   8
TORSDOF 1
ENDMDL
MODEL      127
REMARK 921   NORMALIZED FREE ENERGY PREDICTED BY IDOCK:   -2.11 KCAL/MOL
REMARK 922        TOTAL FREE ENERGY PREDICTED BY IDOCK:   -2.24 KCAL/MOL
REMARK 923 INTER-LIGAND FREE ENERGY PREDICTED BY IDOCK:   -2.23 KCAL/MOL
REMARK 924 INTRA-LIGAND FREE ENERGY PREDICTED BY IDOCK:   -0.01 KCAL/MOL
REMARK 927      BINDING AFFINITY PREDICTED BY RF-SCORE:    0.00 PKD
ROOT
HETATM    1  N   UNL     1     -11.124   7.570  67.360  1.00  0.00    -0.541 NA 
HETATM    2  H1  UNL     1     -10.983   7.675  66.355  1.00  0.00     0.000 HD 
HETATM    3  CA  UNL     1     -10.824   6.171  67.813  1.00  0.00    -0.325 C  
HETATM    4  H2  UNL     1     -10.585   8.258  67.886  1.00  0.00     0.000 HD 
HETATM    5  C   UNL     1      -9.380   5.841  67.388  1.00  0.00    -0.112 C  
HETATM    6  O   UNL     1      -8.961   6.692  66.410  1.00  0.00    -0.141 OA 
HETATM    7  O   UNL     1      -8.694   4.924  67.808  1.00  0.00    -0.103 OA 
ENDROOT
BRANCH   3   8
HETATM    8  C   UNL     1     -11.036   6.014  69.325  1.00  0.00    -0.354 C  
HETATM    9  O   UNL     1     -12.083   6.827  69.842  1.00  0.00    -0.656 OA 
HETATM   10  H   UNL     1     -12.214   6.730  70.777  1.00  0.00     0.000 HD 
ENDBRANCH   3   8
TORSDOF 1
ENDMDL
MODEL      128
REMARK 921   NORMALIZED FREE ENERGY PREDICTED BY IDOCK:   -2.11 KCAL/MOL
REMARK 922        TOTAL FREE ENERGY PREDICTED BY IDOCK:   -2.24 KCAL/MOL
REMARK 923 INTER-LIGAND FREE ENERGY PREDICTED BY IDOCK:   -1.99 KCAL/MOL
REMARK 924 INTRA-LIGAND FREE ENERGY PREDICTED BY IDOCK:   -0.24 KCAL/MOL
REMARK 927      BINDING AFFINITY PREDICTED BY RF-SCORE:    0.00 PKD
ROOT
HETATM    1  N   UNL     1      -8.543  16.516  67.490  1.00  0.00    -0.176 NA 
HETATM    2  H1  UNL     1      -8.401  16.492  66.480  1.00  0.00     0.000 HD 
HETATM    3  CA  UNL     1      -9.971  16.228  67.849  1.00  0.00    -0.241 C  
HETATM    4  H2  UNL     1      -7.901  15.888  67.972  1.00  0.00     0.000 HD 
HETATM    5  C   UNL     1     -10.341  14.862  67.239  1.00  0.00    -0.251 C  
HETATM    6  O   UNL     1      -9.465  14.525  66.250  1.00  0.00    -0.289 OA 
HETATM    7  O   UNL     1     -11.302  14.173  67.536  1.00  0.00    -0.293 OA 
ENDROOT
BRANCH   3   8
HETATM    8  C   UNL     1     -10.186  16.264  69.368  1.00  0.00    -0.265 C  
HETATM    9  O   UNL     1      -9.920  15.024  70.012  1.00  0.00    -0.477 OA 
HETATM   10  H   UNL     1     -10.053  15.046  70.952  1.00  0.00     0.000 HD 
ENDBRANCH   3   8
TORSDOF 1
ENDMDL
MODEL      129
REMARK 921   NORMALIZED FREE ENERGY PREDICTED BY IDOCK:   -2.11 KCAL/MOL
REMARK 922        TOTAL FREE ENERGY PREDICTED BY IDOCK:   -2.23 KCAL/MOL
REMARK 923 INTER-LIGAND FREE ENERGY PREDICTED BY IDOCK:   -2.03 KCAL/MOL
REMARK 924 INTRA-LIGAND FREE ENERGY PREDICTED BY IDOCK:   -0.20 KCAL/MOL
REMARK 927      BINDING AFFINITY PREDICTED BY RF-SCORE:    0.00 PKD
ROOT
HETATM    1  N   UNL     1      -8.772   8.492  68.651  1.00  0.00    -0.138 NA 
HETATM    2  H1  UNL     1      -8.446   8.984  67.819  1.00  0.00     0.000 HD 
HETATM    3  CA  UNL     1     -10.217   8.106  68.530  1.00  0.00    -0.208 C  
HETATM    4  H2  UNL     1      -8.186   7.684  68.859  1.00  0.00     0.000 HD 
HETATM    5  C   UNL     1     -10.371   7.259  67.251  1.00  0.00    -0.279 C  
HETATM    6  O   UNL     1      -9.308   7.449  66.419  1.00  0.00    -0.177 OA 
HETATM    7  O   UNL     1     -11.318   6.548  66.964  1.00  0.00    -0.342 OA 
ENDROOT
BRANCH   3   8
HETATM    8  C   UNL     1     -10.707   7.365  69.781  1.00  0.00    -0.241 C  
HETATM    9  O   UNL     1     -11.981   6.752  69.620  1.00  0.00    -0.650 OA 
HETATM   10  H   UNL     1     -12.284   6.294  70.395  1.00  0.00     0.000 HD 
ENDBRANCH   3   8
TORSDOF 1
ENDMDL
MODEL      130
REMARK 921   NORMALIZED FREE ENERGY PREDICTED BY IDOCK:   -2.09 KCAL/MOL
REMARK 922        TOTAL FREE ENERGY PREDICTED BY IDOCK:   -2.22 KCAL/MOL
REMARK 923 INTER-LIGAND FREE ENERGY PREDICTED BY IDOCK:   -2.07 KCAL/MOL
REMARK 924 INTRA-LIGAND FREE ENERGY PREDICTED BY IDOCK:   -0.15 KCAL/MOL
REMARK 927      BINDING AFFINITY PREDICTED BY RF-SCORE:    0.00 PKD
ROOT
HETATM    1  N   UNL     1     -10.490   8.624  69.456  1.00  0.00    -0.219 NA 
HETATM    2  H1  UNL     1      -9.542   8.260  69.356  1.00  0.00     0.000 HD 
HETATM    3  CA  UNL     1     -10.483  10.077  69.833  1.00  0.00    -0.274 C  
HETATM    4  H2  UNL     1     -11.044   8.459  68.615  1.00  0.00     0.000 HD 
HETATM    5  C   UNL     1      -9.674  10.834  68.761  1.00  0.00    -0.192 C  
HETATM    6  O   UNL     1      -8.885   9.974  68.059  1.00  0.00    -0.124 OA 
HETATM    7  O   UNL     1      -9.674  12.039  68.573  1.00  0.00    -0.207 OA 
ENDROOT
BRANCH   3   8
HETATM    8  C   UNL     1     -11.908  10.625  69.982  1.00  0.00    -0.322 C  
HETATM    9  O   UNL     1     -12.631  10.677  68.758  1.00  0.00    -0.733 OA 
HETATM   10  H   UNL     1     -13.513  11.017  68.850  1.00  0.00     0.000 HD 
ENDBRANCH   3   8
TORSDOF 1
ENDMDL
MODEL      131
REMARK 921   NORMALIZED FREE ENERGY PREDICTED BY IDOCK:   -2.07 KCAL/MOL
REMARK 922        TOTAL FREE ENERGY PREDICTED BY IDOCK:   -2.20 KCAL/MOL
REMARK 923 INTER-LIGAND FREE ENERGY PREDICTED BY IDOCK:   -1.98 KCAL/MOL
REMARK 924 INTRA-LIGAND FREE ENERGY PREDICTED BY IDOCK:   -0.22 KCAL/MOL
REMARK 927      BINDING AFFINITY PREDICTED BY RF-SCORE:    0.00 PKD
ROOT
HETATM    1  N   UNL     1      -8.368  12.446  66.561  1.00  0.00    -0.402 NA 
HETATM    2  H1  UNL     1      -7.694  11.939  65.986  1.00  0.00     0.000 HD 
HETATM    3  CA  UNL     1      -9.749  11.874  66.420  1.00  0.00    -0.221 C  
HETATM    4  H2  UNL     1      -8.075  12.480  67.537  1.00  0.00     0.000 HD 
HETATM    5  C   UNL     1      -9.675  10.378  66.785  1.00  0.00    -0.181 C  
HETATM    6  O   UNL     1      -8.390   9.930  66.718  1.00  0.00    -0.123 OA 
HETATM    7  O   UNL     1     -10.618   9.652  67.051  1.00  0.00    -0.241 OA 
ENDROOT
BRANCH   3   8
HETATM    8  C   UNL     1     -10.762  12.635  67.284  1.00  0.00    -0.237 C  
HETATM    9  O   UNL     1     -12.068  12.071  67.263  1.00  0.00    -0.572 OA 
HETATM   10  H   UNL     1     -12.696  12.543  67.797  1.00  0.00     0.000 HD 
ENDBRANCH   3   8
TORSDOF 1
ENDMDL
MODEL      132
REMARK 921   NORMALIZED FREE ENERGY PREDICTED BY IDOCK:   -2.06 KCAL/MOL
REMARK 922        TOTAL FREE ENERGY PREDICTED BY IDOCK:   -2.18 KCAL/MOL
REMARK 923 INTER-LIGAND FREE ENERGY PREDICTED BY IDOCK:   -1.98 KCAL/MOL
REMARK 924 INTRA-LIGAND FREE ENERGY PREDICTED BY IDOCK:   -0.20 KCAL/MOL
REMARK 927      BINDING AFFINITY PREDICTED BY RF-SCORE:    0.00 PKD
ROOT
HETATM    1  N   UNL     1     -11.968   8.622  70.315  1.00  0.00    -0.436 NA 
HETATM    2  H1  UNL     1     -12.423   8.971  71.159  1.00  0.00     0.000 HD 
HETATM    3  CA  UNL     1     -10.629   9.266  70.107  1.00  0.00    -0.231 C  
HETATM    4  H2  UNL     1     -11.897   7.605  70.324  1.00  0.00     0.000 HD 
HETATM    5  C   UNL     1      -9.786   9.014  71.373  1.00  0.00    -0.311 C  
HETATM    6  O   UNL     1     -10.586   8.675  72.422  1.00  0.00    -0.331 OA 
HETATM    7  O   UNL     1      -8.577   9.140  71.474  1.00  0.00    -0.339 OA 
ENDROOT
BRANCH   3   8
HETATM    8  C   UNL     1      -9.945   8.742  68.838  1.00  0.00    -0.192 C  
HETATM    9  O   UNL     1      -8.859   7.860  69.098  1.00  0.00    -0.141 OA 
HETATM   10  H   UNL     1      -8.435   7.536  68.312  1.00  0.00     0.000 HD 
ENDBRANCH   3   8
TORSDOF 1
ENDMDL
MODEL      133
REMARK 921   NORMALIZED FREE ENERGY PREDICTED BY IDOCK:   -2.06 KCAL/MOL
REMARK 922        TOTAL FREE ENERGY PREDICTED BY IDOCK:   -2.18 KCAL/MOL
REMARK 923 INTER-LIGAND FREE ENERGY PREDICTED BY IDOCK:   -2.18 KCAL/MOL
REMARK 924 INTRA-LIGAND FREE ENERGY PREDICTED BY IDOCK:   -0.01 KCAL/MOL
REMARK 927      BINDING AFFINITY PREDICTED BY RF-SCORE:    0.00 PKD
ROOT
HETATM    1  N   UNL     1      -8.751  19.526  68.434  1.00  0.00    -0.348 NA 
HETATM    2  H1  UNL     1      -8.547  19.548  69.433  1.00  0.00     0.000 HD 
HETATM    3  CA  UNL     1      -7.569  19.974  67.624  1.00  0.00    -0.292 C  
HETATM    4  H2  UNL     1      -9.079  18.607  68.140  1.00  0.00     0.000 HD 
HETATM    5  C   UNL     1      -6.376  19.072  67.997  1.00  0.00    -0.216 C  
HETATM    6  O   UNL     1      -6.601  18.449  69.188  1.00  0.00    -0.260 OA 
HETATM    7  O   UNL     1      -5.339  18.947  67.368  1.00  0.00    -0.158 OA 
ENDROOT
BRANCH   3   8
HETATM    8  C   UNL     1      -7.875  19.942  66.120  1.00  0.00    -0.326 C  
HETATM    9  O   UNL     1      -9.176  20.415  65.793  1.00  0.00    -0.576 OA 
HETATM   10  H   UNL     1      -9.366  20.394  64.862  1.00  0.00     0.000 HD 
ENDBRANCH   3   8
TORSDOF 1
ENDMDL
MODEL      134
REMARK 921   NORMALIZED FREE ENERGY PREDICTED BY IDOCK:   -2.05 KCAL/MOL
REMARK 922        TOTAL FREE ENERGY PREDICTED BY IDOCK:   -2.17 KCAL/MOL
REMARK 923 INTER-LIGAND FREE ENERGY PREDICTED BY IDOCK:   -1.97 KCAL/MOL
REMARK 924 INTRA-LIGAND FREE ENERGY PREDICTED BY IDOCK:   -0.21 KCAL/MOL
REMARK 927      BINDING AFFINITY PREDICTED BY RF-SCORE:    0.00 PKD
ROOT
HETATM    1  N   UNL     1     -11.250  15.571  68.812  1.00  0.00    -0.293 NA 
HETATM    2  H1  UNL     1     -11.388  14.902  69.570  1.00  0.00     0.000 HD 
HETATM    3  CA  UNL     1     -10.231  15.079  67.826  1.00  0.00    -0.236 C  
HETATM    4  H2  UNL     1     -12.132  15.803  68.354  1.00  0.00     0.000 HD 
HETATM    5  C   UNL     1     -10.700  13.703  67.315  1.00  0.00    -0.279 C  
HETATM    6  O   UNL     1     -11.619  13.163  68.163  1.00  0.00    -0.296 OA 
HETATM    7  O   UNL     1     -10.292  13.123  66.323  1.00  0.00    -0.276 OA 
ENDROOT
BRANCH   3   8
HETATM    8  C   UNL     1     -10.023  16.085  66.686  1.00  0.00    -0.267 C  
HETATM    9  O   UNL     1      -8.858  15.834  65.909  1.00  0.00    -0.320 OA 
HETATM   10  H   UNL     1      -8.729  16.457  65.204  1.00  0.00     0.000 HD 
ENDBRANCH   3   8
TORSDOF 1
ENDMDL
MODEL      135
REMARK 921   NORMALIZED FREE ENERGY PREDICTED BY IDOCK:   -2.03 KCAL/MOL
REMARK 922        TOTAL FREE ENERGY PREDICTED BY IDOCK:   -2.16 KCAL/MOL
REMARK 923 INTER-LIGAND FREE ENERGY PREDICTED BY IDOCK:   -1.91 KCAL/MOL
REMARK 924 INTRA-LIGAND FREE ENERGY PREDICTED BY IDOCK:   -0.24 KCAL/MOL
REMARK 927      BINDING AFFINITY PREDICTED BY RF-SCORE:    0.00 PKD
ROOT
HETATM    1  N   UNL     1      -6.210  19.746  68.334  1.00  0.00    -0.248 NA 
HETATM    2  H1  UNL     1      -5.363  19.185  68.420  1.00  0.00     0.000 HD 
HETATM    3  CA  UNL     1      -7.341  18.946  67.756  1.00  0.00    -0.234 C  
HETATM    4  H2  UNL     1      -6.469  20.170  69.224  1.00  0.00     0.000 HD 
HETATM    5  C   UNL     1      -7.546  17.709  68.652  1.00  0.00    -0.276 C  
HETATM    6  O   UNL     1      -6.441  17.481  69.415  1.00  0.00    -0.241 OA 
HETATM    7  O   UNL     1      -8.525  16.983  68.668  1.00  0.00    -0.250 OA 
ENDROOT
BRANCH   3   8
HETATM    8  C   UNL     1      -8.616  19.790  67.626  1.00  0.00    -0.326 C  
HETATM    9  O   UNL     1      -9.453  19.740  68.775  1.00  0.00    -0.339 OA 
HETATM   10  H   UNL     1     -10.242  20.262  68.695  1.00  0.00     0.000 HD 
ENDBRANCH   3   8
TORSDOF 1
ENDMDL
MODEL      136
REMARK 921   NORMALIZED FREE ENERGY PREDICTED BY IDOCK:   -2.01 KCAL/MOL
REMARK 922        TOTAL FREE ENERGY PREDICTED BY IDOCK:   -2.13 KCAL/MOL
REMARK 923 INTER-LIGAND FREE ENERGY PREDICTED BY IDOCK:   -2.13 KCAL/MOL
REMARK 924 INTRA-LIGAND FREE ENERGY PREDICTED BY IDOCK:   -0.01 KCAL/MOL
REMARK 927      BINDING AFFINITY PREDICTED BY RF-SCORE:    0.00 PKD
ROOT
HETATM    1  N   UNL     1     -11.145   6.204  66.633  1.00  0.00    -0.759 NA 
HETATM    2  H1  UNL     1     -11.378   5.254  66.340  1.00  0.00     0.000 HD 
HETATM    3  CA  UNL     1     -10.812   6.260  68.095  1.00  0.00    -0.320 C  
HETATM    4  H2  UNL     1     -10.396   6.597  66.063  1.00  0.00     0.000 HD 
HETATM    5  C   UNL     1      -9.660   5.270  68.352  1.00  0.00    -0.134 C  
HETATM    6  O   UNL     1      -9.565   4.369  67.333  1.00  0.00    -0.162 OA 
HETATM    7  O   UNL     1      -8.944   5.233  69.338  1.00  0.00    -0.098 OA 
ENDROOT
BRANCH   3   8
HETATM    8  C   UNL     1     -10.462   7.688  68.536  1.00  0.00    -0.174 C  
HETATM    9  O   UNL     1     -11.037   8.696  67.713  1.00  0.00    -0.482 OA 
HETATM   10  H   UNL     1     -10.820   9.580  67.986  1.00  0.00     0.000 HD 
ENDBRANCH   3   8
TORSDOF 1
ENDMDL
MODEL      137
REMARK 921   NORMALIZED FREE ENERGY PREDICTED BY IDOCK:   -2.01 KCAL/MOL
REMARK 922        TOTAL FREE ENERGY PREDICTED BY IDOCK:   -2.13 KCAL/MOL
REMARK 923 INTER-LIGAND FREE ENERGY PREDICTED BY IDOCK:   -2.13 KCAL/MOL
REMARK 924 INTRA-LIGAND FREE ENERGY PREDICTED BY IDOCK:   -0.01 KCAL/MOL
REMARK 927      BINDING AFFINITY PREDICTED BY RF-SCORE:    0.00 PKD
ROOT
HETATM    1  N   UNL     1     -11.521   6.462  66.762  1.00  0.00    -0.746 NA 
HETATM    2  H1  UNL     1     -12.358   6.850  67.199  1.00  0.00     0.000 HD 
HETATM    3  CA  UNL     1     -10.273   7.078  67.326  1.00  0.00    -0.234 C  
HETATM    4  H2  UNL     1     -11.501   5.445  66.833  1.00  0.00     0.000 HD 
HETATM    5  C   UNL     1     -10.292   6.861  68.852  1.00  0.00    -0.189 C  
HETATM    6  O   UNL     1     -11.554   6.574  69.280  1.00  0.00    -0.309 OA 
HETATM    7  O   UNL     1      -9.343   6.972  69.610  1.00  0.00    -0.149 OA 
ENDROOT
BRANCH   3   8
HETATM    8  C   UNL     1      -9.015   6.495  66.670  1.00  0.00    -0.138 C  
HETATM    9  O   UNL     1      -8.845   6.885  65.313  1.00  0.00    -0.361 OA 
HETATM   10  H   UNL     1      -8.066   6.524  64.907  1.00  0.00     0.000 HD 
ENDBRANCH   3   8
TORSDOF 1
ENDMDL
MODEL      138
REMARK 921   NORMALIZED FREE ENERGY PREDICTED BY IDOCK:   -1.99 KCAL/MOL
REMARK 922        TOTAL FREE ENERGY PREDICTED BY IDOCK:   -2.11 KCAL/MOL
REMARK 923 INTER-LIGAND FREE ENERGY PREDICTED BY IDOCK:   -1.89 KCAL/MOL
REMARK 924 INTRA-LIGAND FREE ENERGY PREDICTED BY IDOCK:   -0.22 KCAL/MOL
REMARK 927      BINDING AFFINITY PREDICTED BY RF-SCORE:    0.00 PKD
ROOT
HETATM    1  N   UNL     1      -9.711   6.813  71.130  1.00  0.00    -0.174 NA 
HETATM    2  H1  UNL     1      -9.133   7.236  70.404  1.00  0.00     0.000 HD 
HETATM    3  CA  UNL     1      -8.991   6.766  72.447  1.00  0.00    -0.134 C  
HETATM    4  H2  UNL     1     -10.611   7.284  71.213  1.00  0.00     0.000 HD 
HETATM    5  C   UNL     1      -8.568   8.205  72.800  1.00  0.00    -0.206 C  
HETATM    6  O   UNL     1      -8.585   8.996  71.691  1.00  0.00    -0.333 OA 
HETATM    7  O   UNL     1      -8.213   8.606  73.896  1.00  0.00    -0.379 OA 
ENDROOT
BRANCH   3   8
HETATM    8  C   UNL     1      -9.860   6.129  73.539  1.00  0.00    -0.174 C  
HETATM    9  O   UNL     1     -10.858   7.001  74.056  1.00  0.00    -0.490 OA 
HETATM   10  H   UNL     1     -11.396   6.607  74.732  1.00  0.00     0.000 HD 
ENDBRANCH   3   8
TORSDOF 1
ENDMDL
MODEL      139
REMARK 921   NORMALIZED FREE ENERGY PREDICTED BY IDOCK:   -1.91 KCAL/MOL
REMARK 922        TOTAL FREE ENERGY PREDICTED BY IDOCK:   -2.03 KCAL/MOL
REMARK 923 INTER-LIGAND FREE ENERGY PREDICTED BY IDOCK:   -2.02 KCAL/MOL
REMARK 924 INTRA-LIGAND FREE ENERGY PREDICTED BY IDOCK:   -0.01 KCAL/MOL
REMARK 927      BINDING AFFINITY PREDICTED BY RF-SCORE:    0.00 PKD
ROOT
HETATM    1  N   UNL     1      -9.524   2.718  66.306  1.00  0.00    -0.381 NA 
HETATM    2  H1  UNL     1      -8.966   2.167  66.959  1.00  0.00     0.000 HD 
HETATM    3  CA  UNL     1      -9.761   4.107  66.822  1.00  0.00    -0.210 C  
HETATM    4  H2  UNL     1      -9.105   2.731  65.376  1.00  0.00     0.000 HD 
HETATM    5  C   UNL     1      -8.386   4.745  67.100  1.00  0.00    -0.106 C  
HETATM    6  O   UNL     1      -7.424   3.785  67.201  1.00  0.00    -0.070 OA 
HETATM    7  O   UNL     1      -8.159   5.932  67.262  1.00  0.00    -0.102 OA 
ENDROOT
BRANCH   3   8
HETATM    8  C   UNL     1     -10.601   4.935  65.840  1.00  0.00    -0.230 C  
HETATM    9  O   UNL     1     -11.364   4.146  64.935  1.00  0.00    -0.922 OA 
HETATM   10  H   UNL     1     -11.883   4.659  64.327  1.00  0.00     0.000 HD 
ENDBRANCH   3   8
TORSDOF 1
ENDMDL
MODEL      140
REMARK 921   NORMALIZED FREE ENERGY PREDICTED BY IDOCK:   -1.91 KCAL/MOL
REMARK 922        TOTAL FREE ENERGY PREDICTED BY IDOCK:   -2.03 KCAL/MOL
REMARK 923 INTER-LIGAND FREE ENERGY PREDICTED BY IDOCK:   -2.00 KCAL/MOL
REMARK 924 INTRA-LIGAND FREE ENERGY PREDICTED BY IDOCK:   -0.03 KCAL/MOL
REMARK 927      BINDING AFFINITY PREDICTED BY RF-SCORE:    0.00 PKD
ROOT
HETATM    1  N   UNL     1     -10.568  17.849  67.671  1.00  0.00    -0.401 NA 
HETATM    2  H1  UNL     1     -10.882  18.781  67.400  1.00  0.00     0.000 HD 
HETATM    3  CA  UNL     1      -9.081  17.709  67.529  1.00  0.00    -0.239 C  
HETATM    4  H2  UNL     1     -10.878  17.609  68.612  1.00  0.00     0.000 HD 
HETATM    5  C   UNL     1      -8.423  18.817  68.374  1.00  0.00    -0.342 C  
HETATM    6  O   UNL     1      -9.318  19.808  68.646  1.00  0.00    -0.327 OA 
HETATM    7  O   UNL     1      -7.257  18.861  68.727  1.00  0.00    -0.297 OA 
ENDROOT
BRANCH   3   8
HETATM    8  C   UNL     1      -8.608  16.307  67.936  1.00  0.00    -0.173 C  
HETATM    9  O   UNL     1      -7.863  15.639  66.924  1.00  0.00    -0.221 OA 
HETATM   10  H   UNL     1      -7.571  14.771  67.176  1.00  0.00     0.000 HD 
ENDBRANCH   3   8
TORSDOF 1
ENDMDL
MODEL      141
REMARK 921   NORMALIZED FREE ENERGY PREDICTED BY IDOCK:   -1.90 KCAL/MOL
REMARK 922        TOTAL FREE ENERGY PREDICTED BY IDOCK:   -2.01 KCAL/MOL
REMARK 923 INTER-LIGAND FREE ENERGY PREDICTED BY IDOCK:   -1.77 KCAL/MOL
REMARK 924 INTRA-LIGAND FREE ENERGY PREDICTED BY IDOCK:   -0.24 KCAL/MOL
REMARK 927      BINDING AFFINITY PREDICTED BY RF-SCORE:    0.00 PKD
ROOT
HETATM    1  N   UNL     1     -10.995   6.076  68.862  1.00  0.00    -0.338 NA 
HETATM    2  H1  UNL     1     -11.606   6.876  68.697  1.00  0.00     0.000 HD 
HETATM    3  CA  UNL     1     -10.248   6.214  70.156  1.00  0.00    -0.199 C  
HETATM    4  H2  UNL     1     -11.511   5.197  68.820  1.00  0.00     0.000 HD 
HETATM    5  C   UNL     1     -11.287   6.398  71.279  1.00  0.00    -0.306 C  
HETATM    6  O   UNL     1     -12.486   6.790  70.764  1.00  0.00    -0.351 OA 
HETATM    7  O   UNL     1     -11.089   6.271  72.476  1.00  0.00    -0.247 OA 
ENDROOT
BRANCH   3   8
HETATM    8  C   UNL     1      -9.328   5.011  70.405  1.00  0.00    -0.158 C  
HETATM    9  O   UNL     1      -9.980   3.916  71.037  1.00  0.00    -0.173 OA 
HETATM   10  H   UNL     1      -9.410   3.171  71.192  1.00  0.00     0.000 HD 
ENDBRANCH   3   8
TORSDOF 1
ENDMDL
MODEL      142
REMARK 921   NORMALIZED FREE ENERGY PREDICTED BY IDOCK:   -1.89 KCAL/MOL
REMARK 922        TOTAL FREE ENERGY PREDICTED BY IDOCK:   -2.00 KCAL/MOL
REMARK 923 INTER-LIGAND FREE ENERGY PREDICTED BY IDOCK:   -1.87 KCAL/MOL
REMARK 924 INTRA-LIGAND FREE ENERGY PREDICTED BY IDOCK:   -0.14 KCAL/MOL
REMARK 927      BINDING AFFINITY PREDICTED BY RF-SCORE:    0.00 PKD
ROOT
HETATM    1  N   UNL     1      -8.841   7.490  65.458  1.00  0.00    -0.363 NA 
HETATM    2  H1  UNL     1      -9.655   6.877  65.413  1.00  0.00     0.000 HD 
HETATM    3  CA  UNL     1      -9.243   8.936  65.469  1.00  0.00    -0.178 C  
HETATM    4  H2  UNL     1      -8.246   7.261  66.254  1.00  0.00     0.000 HD 
HETATM    5  C   UNL     1     -10.201   9.147  66.657  1.00  0.00    -0.258 C  
HETATM    6  O   UNL     1     -10.718   7.958  67.074  1.00  0.00    -0.339 OA 
HETATM    7  O   UNL     1     -10.516  10.217  67.150  1.00  0.00    -0.227 OA 
ENDROOT
BRANCH   3   8
HETATM    8  C   UNL     1      -8.018   9.858  65.537  1.00  0.00    -0.128 C  
HETATM    9  O   UNL     1      -8.250  11.156  65.003  1.00  0.00    -0.375 OA 
HETATM   10  H   UNL     1      -7.491  11.726  65.044  1.00  0.00     0.000 HD 
ENDBRANCH   3   8
TORSDOF 1
ENDMDL
MODEL      143
REMARK 921   NORMALIZED FREE ENERGY PREDICTED BY IDOCK:   -1.88 KCAL/MOL
REMARK 922        TOTAL FREE ENERGY PREDICTED BY IDOCK:   -1.99 KCAL/MOL
REMARK 923 INTER-LIGAND FREE ENERGY PREDICTED BY IDOCK:   -1.99 KCAL/MOL
REMARK 924 INTRA-LIGAND FREE ENERGY PREDICTED BY IDOCK:   -0.01 KCAL/MOL
REMARK 927      BINDING AFFINITY PREDICTED BY RF-SCORE:    0.00 PKD
ROOT
HETATM    1  N   UNL     1     -10.948   7.946  67.859  1.00  0.00    -0.478 NA 
HETATM    2  H1  UNL     1     -10.642   6.977  67.769  1.00  0.00     0.000 HD 
HETATM    3  CA  UNL     1     -10.124   8.691  68.868  1.00  0.00    -0.202 C  
HETATM    4  H2  UNL     1     -10.953   8.421  66.956  1.00  0.00     0.000 HD 
HETATM    5  C   UNL     1      -8.647   8.580  68.440  1.00  0.00    -0.139 C  
HETATM    6  O   UNL     1      -8.477   7.547  67.567  1.00  0.00    -0.119 OA 
HETATM    7  O   UNL     1      -7.724   9.268  68.842  1.00  0.00    -0.077 OA 
ENDROOT
BRANCH   3   8
HETATM    8  C   UNL     1     -10.583  10.148  69.003  1.00  0.00    -0.223 C  
HETATM    9  O   UNL     1     -11.795  10.431  68.314  1.00  0.00    -0.747 OA 
HETATM   10  H   UNL     1     -12.079  11.333  68.397  1.00  0.00     0.000 HD 
ENDBRANCH   3   8
TORSDOF 1
ENDMDL
MODEL      144
REMARK 921   NORMALIZED FREE ENERGY PREDICTED BY IDOCK:   -1.87 KCAL/MOL
REMARK 922        TOTAL FREE ENERGY PREDICTED BY IDOCK:   -1.99 KCAL/MOL
REMARK 923 INTER-LIGAND FREE ENERGY PREDICTED BY IDOCK:   -1.98 KCAL/MOL
REMARK 924 INTRA-LIGAND FREE ENERGY PREDICTED BY IDOCK:   -0.01 KCAL/MOL
REMARK 927      BINDING AFFINITY PREDICTED BY RF-SCORE:    0.00 PKD
ROOT
HETATM    1  N   UNL     1      -9.794   3.465  71.953  1.00  0.00    -0.168 NA 
HETATM    2  H1  UNL     1      -9.048   3.326  71.272  1.00  0.00     0.000 HD 
HETATM    3  CA  UNL     1     -10.161   4.916  72.076  1.00  0.00    -0.196 C  
HETATM    4  H2  UNL     1     -10.609   2.891  71.736  1.00  0.00     0.000 HD 
HETATM    5  C   UNL     1     -10.546   5.422  70.672  1.00  0.00    -0.232 C  
HETATM    6  O   UNL     1     -10.064   4.585  69.711  1.00  0.00    -0.229 OA 
HETATM    7  O   UNL     1     -11.152   6.449  70.415  1.00  0.00    -0.283 OA 
ENDROOT
BRANCH   3   8
HETATM    8  C   UNL     1     -11.284   5.126  73.100  1.00  0.00    -0.330 C  
HETATM    9  O   UNL     1     -12.355   5.927  72.615  1.00  0.00    -0.538 OA 
HETATM   10  H   UNL     1     -13.050   6.057  73.249  1.00  0.00     0.000 HD 
ENDBRANCH   3   8
TORSDOF 1
ENDMDL
MODEL      145
REMARK 921   NORMALIZED FREE ENERGY PREDICTED BY IDOCK:   -1.83 KCAL/MOL
REMARK 922        TOTAL FREE ENERGY PREDICTED BY IDOCK:   -1.94 KCAL/MOL
REMARK 923 INTER-LIGAND FREE ENERGY PREDICTED BY IDOCK:   -1.73 KCAL/MOL
REMARK 924 INTRA-LIGAND FREE ENERGY PREDICTED BY IDOCK:   -0.21 KCAL/MOL
REMARK 927      BINDING AFFINITY PREDICTED BY RF-SCORE:    0.00 PKD
ROOT
HETATM    1  N   UNL     1     -11.128   5.559  66.102  1.00  0.00    -0.778 NA 
HETATM    2  H1  UNL     1     -11.535   6.295  65.525  1.00  0.00     0.000 HD 
HETATM    3  CA  UNL     1      -9.663   5.792  66.334  1.00  0.00    -0.147 C  
HETATM    4  H2  UNL     1     -11.633   5.452  66.982  1.00  0.00     0.000 HD 
HETATM    5  C   UNL     1      -9.505   7.189  66.967  1.00  0.00    -0.155 C  
HETATM    6  O   UNL     1     -10.621   7.941  66.754  1.00  0.00    -0.326 OA 
HETATM    7  O   UNL     1      -8.517   7.615  67.541  1.00  0.00    -0.116 OA 
ENDROOT
BRANCH   3   8
HETATM    8  C   UNL     1      -9.049   4.686  67.203  1.00  0.00    -0.122 C  
HETATM    9  O   UNL     1      -7.699   4.935  67.575  1.00  0.00    -0.089 OA 
HETATM   10  H   UNL     1      -7.319   4.250  68.112  1.00  0.00     0.000 HD 
ENDBRANCH   3   8
TORSDOF 1
ENDMDL
MODEL      146
REMARK 921   NORMALIZED FREE ENERGY PREDICTED BY IDOCK:   -1.83 KCAL/MOL
REMARK 922        TOTAL FREE ENERGY PREDICTED BY IDOCK:   -1.94 KCAL/MOL
REMARK 923 INTER-LIGAND FREE ENERGY PREDICTED BY IDOCK:   -1.73 KCAL/MOL
REMARK 924 INTRA-LIGAND FREE ENERGY PREDICTED BY IDOCK:   -0.21 KCAL/MOL
REMARK 927      BINDING AFFINITY PREDICTED BY RF-SCORE:    0.00 PKD
ROOT
HETATM    1  N   UNL     1      -9.057  18.058  66.099  1.00  0.00    -0.504 NA 
HETATM    2  H1  UNL     1      -8.967  18.640  65.266  1.00  0.00     0.000 HD 
HETATM    3  CA  UNL     1      -7.877  17.145  66.262  1.00  0.00    -0.316 C  
HETATM    4  H2  UNL     1      -9.211  18.623  66.934  1.00  0.00     0.000 HD 
HETATM    5  C   UNL     1      -6.609  18.021  66.295  1.00  0.00    -0.241 C  
HETATM    6  O   UNL     1      -6.863  19.253  65.769  1.00  0.00    -0.250 OA 
HETATM    7  O   UNL     1      -5.504  17.680  66.681  1.00  0.00    -0.138 OA 
ENDROOT
BRANCH   3   8
HETATM    8  C   UNL     1      -8.013  16.270  67.515  1.00  0.00    -0.151 C  
HETATM    9  O   UNL     1      -6.852  15.499  67.801  1.00  0.00    -0.130 OA 
HETATM   10  H   UNL     1      -6.936  14.957  68.577  1.00  0.00     0.000 HD 
ENDBRANCH   3   8
TORSDOF 1
ENDMDL
MODEL      147
REMARK 921   NORMALIZED FREE ENERGY PREDICTED BY IDOCK:   -1.82 KCAL/MOL
REMARK 922        TOTAL FREE ENERGY PREDICTED BY IDOCK:   -1.94 KCAL/MOL
REMARK 923 INTER-LIGAND FREE ENERGY PREDICTED BY IDOCK:   -1.91 KCAL/MOL
REMARK 924 INTRA-LIGAND FREE ENERGY PREDICTED BY IDOCK:   -0.03 KCAL/MOL
REMARK 927      BINDING AFFINITY PREDICTED BY RF-SCORE:    0.00 PKD
ROOT
HETATM    1  N   UNL     1      -9.027  10.602  69.444  1.00  0.00    -0.380 NA 
HETATM    2  H1  UNL     1      -9.725  11.102  68.893  1.00  0.00     0.000 HD 
HETATM    3  CA  UNL     1      -9.661   9.551  70.309  1.00  0.00    -0.265 C  
HETATM    4  H2  UNL     1      -8.296  10.208  68.852  1.00  0.00     0.000 HD 
HETATM    5  C   UNL     1     -10.464   8.610  69.389  1.00  0.00    -0.218 C  
HETATM    6  O   UNL     1     -10.709   9.207  68.189  1.00  0.00    -0.206 OA 
HETATM    7  O   UNL     1     -10.883   7.502  69.678  1.00  0.00    -0.243 OA 
ENDROOT
BRANCH   3   8
HETATM    8  C   UNL     1      -8.611   8.799  71.138  1.00  0.00    -0.195 C  
HETATM    9  O   UNL     1      -8.902   8.763  72.530  1.00  0.00    -0.402 OA 
HETATM   10  H   UNL     1      -8.252   8.298  73.043  1.00  0.00     0.000 HD 
ENDBRANCH   3   8
TORSDOF 1
ENDMDL
MODEL      148
REMARK 921   NORMALIZED FREE ENERGY PREDICTED BY IDOCK:   -1.82 KCAL/MOL
REMARK 922        TOTAL FREE ENERGY PREDICTED BY IDOCK:   -1.93 KCAL/MOL
REMARK 923 INTER-LIGAND FREE ENERGY PREDICTED BY IDOCK:   -1.71 KCAL/MOL
REMARK 924 INTRA-LIGAND FREE ENERGY PREDICTED BY IDOCK:   -0.22 KCAL/MOL
REMARK 927      BINDING AFFINITY PREDICTED BY RF-SCORE:    0.00 PKD
ROOT
HETATM    1  N   UNL     1      -9.140   5.089  69.719  1.00  0.00    -0.109 NA 
HETATM    2  H1  UNL     1      -8.179   5.239  69.410  1.00  0.00     0.000 HD 
HETATM    3  CA  UNL     1      -9.713   6.328  70.344  1.00  0.00    -0.165 C  
HETATM    4  H2  UNL     1      -9.728   4.748  68.959  1.00  0.00     0.000 HD 
HETATM    5  C   UNL     1      -9.600   7.468  69.313  1.00  0.00    -0.158 C  
HETATM    6  O   UNL     1      -8.683   7.158  68.354  1.00  0.00    -0.126 OA 
HETATM    7  O   UNL     1     -10.193   8.533  69.345  1.00  0.00    -0.200 OA 
ENDROOT
BRANCH   3   8
HETATM    8  C   UNL     1     -11.159   6.104  70.809  1.00  0.00    -0.309 C  
HETATM    9  O   UNL     1     -12.133   6.644  69.924  1.00  0.00    -0.641 OA 
HETATM   10  H   UNL     1     -13.027   6.506  70.212  1.00  0.00     0.000 HD 
ENDBRANCH   3   8
TORSDOF 1
ENDMDL
MODEL      149
REMARK 921   NORMALIZED FREE ENERGY PREDICTED BY IDOCK:   -1.81 KCAL/MOL
REMARK 922        TOTAL FREE ENERGY PREDICTED BY IDOCK:   -1.92 KCAL/MOL
REMARK 923 INTER-LIGAND FREE ENERGY PREDICTED BY IDOCK:   -1.70 KCAL/MOL
REMARK 924 INTRA-LIGAND FREE ENERGY PREDICTED BY IDOCK:   -0.22 KCAL/MOL
REMARK 927      BINDING AFFINITY PREDICTED BY RF-SCORE:    0.00 PKD
ROOT
HETATM    1  N   UNL     1      -8.059   3.664  64.630  1.00  0.00    -0.089 NA 
HETATM    2  H1  UNL     1      -7.395   3.524  63.869  1.00  0.00     0.000 HD 
HETATM    3  CA  UNL     1      -9.450   3.882  64.110  1.00  0.00    -0.159 C  
HETATM    4  H2  UNL     1      -8.027   2.896  65.300  1.00  0.00     0.000 HD 
HETATM    5  C   UNL     1      -9.816   2.671  63.229  1.00  0.00    -0.107 C  
HETATM    6  O   UNL     1      -8.694   2.000  62.847  1.00  0.00    -0.076 OA 
HETATM    7  O   UNL     1     -10.935   2.356  62.862  1.00  0.00    -0.194 OA 
ENDROOT
BRANCH   3   8
HETATM    8  C   UNL     1     -10.451   4.093  65.254  1.00  0.00    -0.136 C  
HETATM    9  O   UNL     1     -11.737   4.514  64.817  1.00  0.00    -0.940 OA 
HETATM   10  H   UNL     1     -12.356   4.645  65.526  1.00  0.00     0.000 HD 
ENDBRANCH   3   8
TORSDOF 1
ENDMDL
MODEL      150
REMARK 921   NORMALIZED FREE ENERGY PREDICTED BY IDOCK:   -1.80 KCAL/MOL
REMARK 922        TOTAL FREE ENERGY PREDICTED BY IDOCK:   -1.91 KCAL/MOL
REMARK 923 INTER-LIGAND FREE ENERGY PREDICTED BY IDOCK:   -1.67 KCAL/MOL
REMARK 924 INTRA-LIGAND FREE ENERGY PREDICTED BY IDOCK:   -0.24 KCAL/MOL
REMARK 927      BINDING AFFINITY PREDICTED BY RF-SCORE:    0.00 PKD
ROOT
HETATM    1  N   UNL     1     -11.253   3.947  64.451  1.00  0.00    -0.727 NA 
HETATM    2  H1  UNL     1     -11.991   3.297  64.721  1.00  0.00     0.000 HD 
HETATM    3  CA  UNL     1      -9.972   3.225  64.146  1.00  0.00    -0.177 C  
HETATM    4  H2  UNL     1     -11.543   4.539  63.673  1.00  0.00     0.000 HD 
HETATM    5  C   UNL     1     -10.270   2.187  63.046  1.00  0.00    -0.117 C  
HETATM    6  O   UNL     1     -11.608   1.936  62.973  1.00  0.00    -0.337 OA 
HETATM    7  O   UNL     1      -9.448   1.612  62.353  1.00  0.00    -0.085 OA 
ENDROOT
BRANCH   3   8
HETATM    8  C   UNL     1      -8.861   4.202  63.739  1.00  0.00    -0.124 C  
HETATM    9  O   UNL     1      -8.873   4.537  62.356  1.00  0.00    -0.106 OA 
HETATM   10  H   UNL     1      -8.185   5.141  62.104  1.00  0.00     0.000 HD 
ENDBRANCH   3   8
TORSDOF 1
ENDMDL
MODEL      151
REMARK 921   NORMALIZED FREE ENERGY PREDICTED BY IDOCK:   -1.80 KCAL/MOL
REMARK 922        TOTAL FREE ENERGY PREDICTED BY IDOCK:   -1.91 KCAL/MOL
REMARK 923 INTER-LIGAND FREE ENERGY PREDICTED BY IDOCK:   -1.91 KCAL/MOL
REMARK 924 INTRA-LIGAND FREE ENERGY PREDICTED BY IDOCK:   -0.01 KCAL/MOL
REMARK 927      BINDING AFFINITY PREDICTED BY RF-SCORE:    0.00 PKD
ROOT
HETATM    1  N   UNL     1     -11.474   9.616  69.497  1.00  0.00    -0.444 NA 
HETATM    2  H1  UNL     1     -11.192   9.064  70.307  1.00  0.00     0.000 HD 
HETATM    3  CA  UNL     1     -10.292  10.262  68.835  1.00  0.00    -0.204 C  
HETATM    4  H2  UNL     1     -12.015   9.059  68.836  1.00  0.00     0.000 HD 
HETATM    5  C   UNL     1      -9.295   9.146  68.465  1.00  0.00    -0.135 C  
HETATM    6  O   UNL     1      -9.553   8.016  69.180  1.00  0.00    -0.155 OA 
HETATM    7  O   UNL     1      -8.363   9.240  67.685  1.00  0.00    -0.115 OA 
ENDROOT
BRANCH   3   8
HETATM    8  C   UNL     1     -10.716  11.093  67.616  1.00  0.00    -0.230 C  
HETATM    9  O   UNL     1     -12.066  11.538  67.671  1.00  0.00    -0.623 OA 
HETATM   10  H   UNL     1     -12.329  12.052  66.916  1.00  0.00     0.000 HD 
ENDBRANCH   3   8
TORSDOF 1
ENDMDL
MODEL      152
REMARK 921   NORMALIZED FREE ENERGY PREDICTED BY IDOCK:   -1.79 KCAL/MOL
REMARK 922        TOTAL FREE ENERGY PREDICTED BY IDOCK:   -1.90 KCAL/MOL
REMARK 923 INTER-LIGAND FREE ENERGY PREDICTED BY IDOCK:   -1.65 KCAL/MOL
REMARK 924 INTRA-LIGAND FREE ENERGY PREDICTED BY IDOCK:   -0.24 KCAL/MOL
REMARK 927      BINDING AFFINITY PREDICTED BY RF-SCORE:    0.00 PKD
ROOT
HETATM    1  N   UNL     1      -6.488  10.847  70.366  1.00  0.00    -0.350 NA 
HETATM    2  H1  UNL     1      -6.203  10.103  71.003  1.00  0.00     0.000 HD 
HETATM    3  CA  UNL     1      -7.464  10.347  69.340  1.00  0.00    -0.135 C  
HETATM    4  H2  UNL     1      -6.858  11.651  70.872  1.00  0.00     0.000 HD 
HETATM    5  C   UNL     1      -8.659   9.731  70.093  1.00  0.00    -0.181 C  
HETATM    6  O   UNL     1      -8.319   9.444  71.381  1.00  0.00    -0.295 OA 
HETATM    7  O   UNL     1      -9.754   9.473  69.623  1.00  0.00    -0.176 OA 
ENDROOT
BRANCH   3   8
HETATM    8  C   UNL     1      -7.893  11.466  68.382  1.00  0.00    -0.135 C  
HETATM    9  O   UNL     1      -9.019  12.207  68.837  1.00  0.00    -0.380 OA 
HETATM   10  H   UNL     1      -9.285  12.899  68.243  1.00  0.00     0.000 HD 
ENDBRANCH   3   8
TORSDOF 1
ENDMDL
MODEL      153
REMARK 921   NORMALIZED FREE ENERGY PREDICTED BY IDOCK:   -1.78 KCAL/MOL
REMARK 922        TOTAL FREE ENERGY PREDICTED BY IDOCK:   -1.89 KCAL/MOL
REMARK 923 INTER-LIGAND FREE ENERGY PREDICTED BY IDOCK:   -1.86 KCAL/MOL
REMARK 924 INTRA-LIGAND FREE ENERGY PREDICTED BY IDOCK:   -0.03 KCAL/MOL
REMARK 927      BINDING AFFINITY PREDICTED BY RF-SCORE:    0.00 PKD
ROOT
HETATM    1  N   UNL     1     -10.940   8.970  67.657  1.00  0.00    -0.479 NA 
HETATM    2  H1  UNL     1     -11.151   9.074  68.650  1.00  0.00     0.000 HD 
HETATM    3  CA  UNL     1     -10.578  10.287  67.033  1.00  0.00    -0.239 C  
HETATM    4  H2  UNL     1     -10.216   8.270  67.500  1.00  0.00     0.000 HD 
HETATM    5  C   UNL     1      -9.391  10.869  67.826  1.00  0.00    -0.157 C  
HETATM    6  O   UNL     1      -9.292  10.275  69.048  1.00  0.00    -0.169 OA 
HETATM    7  O   UNL     1      -8.654  11.771  67.464  1.00  0.00    -0.146 OA 
ENDROOT
BRANCH   3   8
HETATM    8  C   UNL     1     -10.262  10.132  65.540  1.00  0.00    -0.218 C  
HETATM    9  O   UNL     1      -9.644   8.892  65.213  1.00  0.00    -0.454 OA 
HETATM   10  H   UNL     1      -9.448   8.797  64.288  1.00  0.00     0.000 HD 
ENDBRANCH   3   8
TORSDOF 1
ENDMDL
MODEL      154
REMARK 921   NORMALIZED FREE ENERGY PREDICTED BY IDOCK:   -1.77 KCAL/MOL
REMARK 922        TOTAL FREE ENERGY PREDICTED BY IDOCK:   -1.88 KCAL/MOL
REMARK 923 INTER-LIGAND FREE ENERGY PREDICTED BY IDOCK:   -1.87 KCAL/MOL
REMARK 924 INTRA-LIGAND FREE ENERGY PREDICTED BY IDOCK:   -0.01 KCAL/MOL
REMARK 927      BINDING AFFINITY PREDICTED BY RF-SCORE:    0.00 PKD
ROOT
HETATM    1  N   UNL     1     -11.343   5.808  66.339  1.00  0.00    -0.649 NA 
HETATM    2  H1  UNL     1     -11.814   4.903  66.334  1.00  0.00     0.000 HD 
HETATM    3  CA  UNL     1      -9.900   5.673  66.729  1.00  0.00    -0.164 C  
HETATM    4  H2  UNL     1     -11.445   6.287  65.444  1.00  0.00     0.000 HD 
HETATM    5  C   UNL     1      -9.243   4.676  65.754  1.00  0.00    -0.147 C  
HETATM    6  O   UNL     1     -10.189   3.922  65.128  1.00  0.00    -0.177 OA 
HETATM    7  O   UNL     1      -8.046   4.519  65.579  1.00  0.00    -0.106 OA 
ENDROOT
BRANCH   3   8
HETATM    8  C   UNL     1      -9.191   7.034  66.736  1.00  0.00    -0.153 C  
HETATM    9  O   UNL     1      -9.976   8.089  66.195  1.00  0.00    -0.469 OA 
HETATM   10  H   UNL     1      -9.537   8.931  66.199  1.00  0.00     0.000 HD 
ENDBRANCH   3   8
TORSDOF 1
ENDMDL
MODEL      155
REMARK 921   NORMALIZED FREE ENERGY PREDICTED BY IDOCK:   -1.76 KCAL/MOL
REMARK 922        TOTAL FREE ENERGY PREDICTED BY IDOCK:   -1.87 KCAL/MOL
REMARK 923 INTER-LIGAND FREE ENERGY PREDICTED BY IDOCK:   -1.64 KCAL/MOL
REMARK 924 INTRA-LIGAND FREE ENERGY PREDICTED BY IDOCK:   -0.24 KCAL/MOL
REMARK 927      BINDING AFFINITY PREDICTED BY RF-SCORE:    0.00 PKD
ROOT
HETATM    1  N   UNL     1     -10.693   6.232  74.357  1.00  0.00    -0.326 NA 
HETATM    2  H1  UNL     1     -11.593   6.656  74.581  1.00  0.00     0.000 HD 
HETATM    3  CA  UNL     1     -10.799   5.308  73.178  1.00  0.00    -0.287 C  
HETATM    4  H2  UNL     1      -9.972   6.939  74.214  1.00  0.00     0.000 HD 
HETATM    5  C   UNL     1     -11.374   6.119  72.000  1.00  0.00    -0.297 C  
HETATM    6  O   UNL     1     -11.986   7.251  72.448  1.00  0.00    -0.251 OA 
HETATM    7  O   UNL     1     -11.350   5.799  70.823  1.00  0.00    -0.216 OA 
ENDROOT
BRANCH   3   8
HETATM    8  C   UNL     1      -9.445   4.670  72.841  1.00  0.00    -0.131 C  
HETATM    9  O   UNL     1      -8.608   5.497  72.041  1.00  0.00    -0.129 OA 
HETATM   10  H   UNL     1      -7.770   5.102  71.832  1.00  0.00     0.000 HD 
ENDBRANCH   3   8
TORSDOF 1
ENDMDL
MODEL      156
REMARK 921   NORMALIZED FREE ENERGY PREDICTED BY IDOCK:   -1.75 KCAL/MOL
REMARK 922        TOTAL FREE ENERGY PREDICTED BY IDOCK:   -1.86 KCAL/MOL
REMARK 923 INTER-LIGAND FREE ENERGY PREDICTED BY IDOCK:   -1.62 KCAL/MOL
REMARK 924 INTRA-LIGAND FREE ENERGY PREDICTED BY IDOCK:   -0.24 KCAL/MOL
REMARK 927      BINDING AFFINITY PREDICTED BY RF-SCORE:    0.00 PKD
ROOT
HETATM    1  N   UNL     1     -11.895   7.250  70.039  1.00  0.00    -0.532 NA 
HETATM    2  H1  UNL     1     -12.493   6.502  69.687  1.00  0.00     0.000 HD 
HETATM    3  CA  UNL     1     -10.475   6.790  70.195  1.00  0.00    -0.209 C  
HETATM    4  H2  UNL     1     -11.957   8.083  69.454  1.00  0.00     0.000 HD 
HETATM    5  C   UNL     1     -10.002   6.258  68.828  1.00  0.00    -0.149 C  
HETATM    6  O   UNL     1     -11.069   5.975  68.029  1.00  0.00    -0.304 OA 
HETATM    7  O   UNL     1      -8.848   6.058  68.490  1.00  0.00    -0.113 OA 
ENDROOT
BRANCH   3   8
HETATM    8  C   UNL     1      -9.576   7.915  70.725  1.00  0.00    -0.165 C  
HETATM    9  O   UNL     1      -9.098   8.790  69.710  1.00  0.00    -0.145 OA 
HETATM   10  H   UNL     1      -8.541   9.486  70.038  1.00  0.00     0.000 HD 
ENDBRANCH   3   8
TORSDOF 1
ENDMDL
MODEL      157
REMARK 921   NORMALIZED FREE ENERGY PREDICTED BY IDOCK:   -1.74 KCAL/MOL
REMARK 922        TOTAL FREE ENERGY PREDICTED BY IDOCK:   -1.85 KCAL/MOL
REMARK 923 INTER-LIGAND FREE ENERGY PREDICTED BY IDOCK:   -1.67 KCAL/MOL
REMARK 924 INTRA-LIGAND FREE ENERGY PREDICTED BY IDOCK:   -0.18 KCAL/MOL
REMARK 927      BINDING AFFINITY PREDICTED BY RF-SCORE:    0.00 PKD
ROOT
HETATM    1  N   UNL     1     -11.217  14.849  67.519  1.00  0.00    -0.318 NA 
HETATM    2  H1  UNL     1     -11.070  14.027  68.105  1.00  0.00     0.000 HD 
HETATM    3  CA  UNL     1     -10.309  15.976  67.918  1.00  0.00    -0.269 C  
HETATM    4  H2  UNL     1     -11.119  14.624  66.529  1.00  0.00     0.000 HD 
HETATM    5  C   UNL     1      -8.860  15.458  67.848  1.00  0.00    -0.168 C  
HETATM    6  O   UNL     1      -8.836  14.095  67.861  1.00  0.00    -0.165 OA 
HETATM    7  O   UNL     1      -7.848  16.139  67.833  1.00  0.00    -0.137 OA 
ENDROOT
BRANCH   3   8
HETATM    8  C   UNL     1     -10.529  17.213  67.037  1.00  0.00    -0.282 C  
HETATM    9  O   UNL     1     -10.038  18.418  67.612  1.00  0.00    -0.326 OA 
HETATM   10  H   UNL     1     -10.175  19.183  67.066  1.00  0.00     0.000 HD 
ENDBRANCH   3   8
TORSDOF 1
ENDMDL
MODEL      158
REMARK 921   NORMALIZED FREE ENERGY PREDICTED BY IDOCK:   -1.74 KCAL/MOL
REMARK 922        TOTAL FREE ENERGY PREDICTED BY IDOCK:   -1.84 KCAL/MOL
REMARK 923 INTER-LIGAND FREE ENERGY PREDICTED BY IDOCK:   -1.80 KCAL/MOL
REMARK 924 INTRA-LIGAND FREE ENERGY PREDICTED BY IDOCK:   -0.05 KCAL/MOL
REMARK 927      BINDING AFFINITY PREDICTED BY RF-SCORE:    0.00 PKD
ROOT
HETATM    1  N   UNL     1     -10.947   6.181  72.020  1.00  0.00    -0.246 NA 
HETATM    2  H1  UNL     1     -11.925   6.100  72.301  1.00  0.00     0.000 HD 
HETATM    3  CA  UNL     1     -10.745   7.314  71.058  1.00  0.00    -0.231 C  
HETATM    4  H2  UNL     1     -10.332   6.263  72.830  1.00  0.00     0.000 HD 
HETATM    5  C   UNL     1     -11.269   8.598  71.729  1.00  0.00    -0.326 C  
HETATM    6  O   UNL     1     -12.104   8.293  72.761  1.00  0.00    -0.353 OA 
HETATM    7  O   UNL     1     -11.032   9.744  71.383  1.00  0.00    -0.342 OA 
ENDROOT
BRANCH   3   8
HETATM    8  C   UNL     1      -9.274   7.436  70.635  1.00  0.00    -0.157 C  
HETATM    9  O   UNL     1      -8.876   8.767  70.332  1.00  0.00    -0.143 OA 
HETATM   10  H   UNL     1      -7.966   8.842  70.070  1.00  0.00     0.000 HD 
ENDBRANCH   3   8
TORSDOF 1
ENDMDL
MODEL      159
REMARK 921   NORMALIZED FREE ENERGY PREDICTED BY IDOCK:   -1.72 KCAL/MOL
REMARK 922        TOTAL FREE ENERGY PREDICTED BY IDOCK:   -1.82 KCAL/MOL
REMARK 923 INTER-LIGAND FREE ENERGY PREDICTED BY IDOCK:   -1.60 KCAL/MOL
REMARK 924 INTRA-LIGAND FREE ENERGY PREDICTED BY IDOCK:   -0.22 KCAL/MOL
REMARK 927      BINDING AFFINITY PREDICTED BY RF-SCORE:    0.00 PKD
ROOT
HETATM    1  N   UNL     1      -9.166   9.012  64.746  1.00  0.00    -0.440 NA 
HETATM    2  H1  UNL     1      -8.534   8.214  64.810  1.00  0.00     0.000 HD 
HETATM    3  CA  UNL     1      -9.063   9.892  65.958  1.00  0.00    -0.158 C  
HETATM    4  H2  UNL     1      -9.015   9.540  63.887  1.00  0.00     0.000 HD 
HETATM    5  C   UNL     1      -7.589  10.322  66.100  1.00  0.00    -0.124 C  
HETATM    6  O   UNL     1      -6.777   9.492  65.388  1.00  0.00    -0.076 OA 
HETATM    7  O   UNL     1      -7.167  11.239  66.785  1.00  0.00    -0.133 OA 
ENDROOT
BRANCH   3   8
HETATM    8  C   UNL     1     -10.013  11.093  65.863  1.00  0.00    -0.239 C  
HETATM    9  O   UNL     1      -9.374  12.297  65.457  1.00  0.00    -0.429 OA 
HETATM   10  H   UNL     1      -9.962  13.040  65.398  1.00  0.00     0.000 HD 
ENDBRANCH   3   8
TORSDOF 1
ENDMDL
MODEL      160
REMARK 921   NORMALIZED FREE ENERGY PREDICTED BY IDOCK:   -1.70 KCAL/MOL
REMARK 922        TOTAL FREE ENERGY PREDICTED BY IDOCK:   -1.80 KCAL/MOL
REMARK 923 INTER-LIGAND FREE ENERGY PREDICTED BY IDOCK:   -1.80 KCAL/MOL
REMARK 924 INTRA-LIGAND FREE ENERGY PREDICTED BY IDOCK:   -0.01 KCAL/MOL
REMARK 927      BINDING AFFINITY PREDICTED BY RF-SCORE:    0.00 PKD
ROOT
HETATM    1  N   UNL     1     -11.008   9.556  70.737  1.00  0.00    -0.292 NA 
HETATM    2  H1  UNL     1     -10.699   9.415  71.699  1.00  0.00     0.000 HD 
HETATM    3  CA  UNL     1      -9.877   9.377  69.766  1.00  0.00    -0.201 C  
HETATM    4  H2  UNL     1     -11.798   8.953  70.506  1.00  0.00     0.000 HD 
HETATM    5  C   UNL     1      -9.285   7.972  69.991  1.00  0.00    -0.156 C  
HETATM    6  O   UNL     1      -9.648   7.488  71.213  1.00  0.00    -0.157 OA 
HETATM    7  O   UNL     1      -8.550   7.366  69.230  1.00  0.00    -0.135 OA 
ENDROOT
BRANCH   3   8
HETATM    8  C   UNL     1     -10.341   9.588  68.319  1.00  0.00    -0.207 C  
HETATM    9  O   UNL     1     -11.692  10.020  68.210  1.00  0.00    -0.649 OA 
HETATM   10  H   UNL     1     -11.980  10.150  67.314  1.00  0.00     0.000 HD 
ENDBRANCH   3   8
TORSDOF 1
ENDMDL
MODEL      161
REMARK 921   NORMALIZED FREE ENERGY PREDICTED BY IDOCK:   -1.70 KCAL/MOL
REMARK 922        TOTAL FREE ENERGY PREDICTED BY IDOCK:   -1.80 KCAL/MOL
REMARK 923 INTER-LIGAND FREE ENERGY PREDICTED BY IDOCK:   -1.80 KCAL/MOL
REMARK 924 INTRA-LIGAND FREE ENERGY PREDICTED BY IDOCK:   -0.01 KCAL/MOL
REMARK 927      BINDING AFFINITY PREDICTED BY RF-SCORE:    0.00 PKD
ROOT
HETATM    1  N   UNL     1      -8.126  10.764  67.449  1.00  0.00    -0.111 NA 
HETATM    2  H1  UNL     1      -7.946   9.762  67.520  1.00  0.00     0.000 HD 
HETATM    3  CA  UNL     1      -9.517  11.037  66.956  1.00  0.00    -0.173 C  
HETATM    4  H2  UNL     1      -7.941  11.240  68.331  1.00  0.00     0.000 HD 
HETATM    5  C   UNL     1     -10.499  10.333  67.913  1.00  0.00    -0.212 C  
HETATM    6  O   UNL     1      -9.860   9.370  68.634  1.00  0.00    -0.156 OA 
HETATM    7  O   UNL     1     -11.697  10.544  68.003  1.00  0.00    -0.450 OA 
ENDROOT
BRANCH   3   8
HETATM    8  C   UNL     1      -9.788  12.544  66.848  1.00  0.00    -0.227 C  
HETATM    9  O   UNL     1      -9.343  13.118  65.625  1.00  0.00    -0.465 OA 
HETATM   10  H   UNL     1      -9.510  14.050  65.559  1.00  0.00     0.000 HD 
ENDBRANCH   3   8
TORSDOF 1
ENDMDL
MODEL      162
REMARK 921   NORMALIZED FREE ENERGY PREDICTED BY IDOCK:   -1.69 KCAL/MOL
REMARK 922        TOTAL FREE ENERGY PREDICTED BY IDOCK:   -1.80 KCAL/MOL
REMARK 923 INTER-LIGAND FREE ENERGY PREDICTED BY IDOCK:   -1.61 KCAL/MOL
REMARK 924 INTRA-LIGAND FREE ENERGY PREDICTED BY IDOCK:   -0.19 KCAL/MOL
REMARK 927      BINDING AFFINITY PREDICTED BY RF-SCORE:    0.00 PKD
ROOT
HETATM    1  N   UNL     1      -6.306  12.687  70.514  1.00  0.00    -0.483 NA 
HETATM    2  H1  UNL     1      -5.972  12.091  71.271  1.00  0.00     0.000 HD 
HETATM    3  CA  UNL     1      -6.264  11.973  69.194  1.00  0.00    -0.087 C  
HETATM    4  H2  UNL     1      -7.237  13.054  70.712  1.00  0.00     0.000 HD 
HETATM    5  C   UNL     1      -7.095  10.683  69.334  1.00  0.00    -0.120 C  
HETATM    6  O   UNL     1      -7.262  10.359  70.647  1.00  0.00    -0.259 OA 
HETATM    7  O   UNL     1      -7.517   9.993  68.421  1.00  0.00    -0.080 OA 
ENDROOT
BRANCH   3   8
HETATM    8  C   UNL     1      -6.767  12.870  68.055  1.00  0.00    -0.109 C  
HETATM    9  O   UNL     1      -6.385  12.418  66.762  1.00  0.00    -0.472 OA 
HETATM   10  H   UNL     1      -6.696  12.974  66.057  1.00  0.00     0.000 HD 
ENDBRANCH   3   8
TORSDOF 1
ENDMDL
MODEL      163
REMARK 921   NORMALIZED FREE ENERGY PREDICTED BY IDOCK:   -1.69 KCAL/MOL
REMARK 922        TOTAL FREE ENERGY PREDICTED BY IDOCK:   -1.80 KCAL/MOL
REMARK 923 INTER-LIGAND FREE ENERGY PREDICTED BY IDOCK:   -1.57 KCAL/MOL
REMARK 924 INTRA-LIGAND FREE ENERGY PREDICTED BY IDOCK:   -0.22 KCAL/MOL
REMARK 927      BINDING AFFINITY PREDICTED BY RF-SCORE:    0.00 PKD
ROOT
HETATM    1  N   UNL     1      -7.849  11.185  67.574  1.00  0.00    -0.114 NA 
HETATM    2  H1  UNL     1      -7.803  11.533  68.532  1.00  0.00     0.000 HD 
HETATM    3  CA  UNL     1      -9.230  11.329  67.004  1.00  0.00    -0.165 C  
HETATM    4  H2  UNL     1      -7.151  11.634  66.980  1.00  0.00     0.000 HD 
HETATM    5  C   UNL     1      -9.627  12.815  67.108  1.00  0.00    -0.219 C  
HETATM    6  O   UNL     1      -8.843  13.459  68.017  1.00  0.00    -0.168 OA 
HETATM    7  O   UNL     1     -10.542  13.361  66.515  1.00  0.00    -0.282 OA 
ENDROOT
BRANCH   3   8
HETATM    8  C   UNL     1      -9.300  10.806  65.563  1.00  0.00    -0.207 C  
HETATM    9  O   UNL     1      -9.257  11.834  64.581  1.00  0.00    -0.420 OA 
HETATM   10  H   UNL     1      -9.301  11.510  63.689  1.00  0.00     0.000 HD 
ENDBRANCH   3   8
TORSDOF 1
ENDMDL
MODEL      164
REMARK 921   NORMALIZED FREE ENERGY PREDICTED BY IDOCK:   -1.68 KCAL/MOL
REMARK 922        TOTAL FREE ENERGY PREDICTED BY IDOCK:   -1.78 KCAL/MOL
REMARK 923 INTER-LIGAND FREE ENERGY PREDICTED BY IDOCK:   -1.78 KCAL/MOL
REMARK 924 INTRA-LIGAND FREE ENERGY PREDICTED BY IDOCK:   -0.01 KCAL/MOL
REMARK 927      BINDING AFFINITY PREDICTED BY RF-SCORE:    0.00 PKD
ROOT
HETATM    1  N   UNL     1     -10.417  13.519  66.661  1.00  0.00    -0.272 NA 
HETATM    2  H1  UNL     1      -9.639  13.911  66.130  1.00  0.00     0.000 HD 
HETATM    3  CA  UNL     1     -10.346  13.911  68.108  1.00  0.00    -0.247 C  
HETATM    4  H2  UNL     1     -11.315  13.773  66.249  1.00  0.00     0.000 HD 
HETATM    5  C   UNL     1     -10.306  15.450  68.176  1.00  0.00    -0.239 C  
HETATM    6  O   UNL     1      -9.936  15.974  66.973  1.00  0.00    -0.246 OA 
HETATM    7  O   UNL     1     -10.519  16.136  69.161  1.00  0.00    -0.228 OA 
ENDROOT
BRANCH   3   8
HETATM    8  C   UNL     1     -11.517  13.323  68.907  1.00  0.00    -0.298 C  
HETATM    9  O   UNL     1     -11.477  11.905  69.017  1.00  0.00    -0.247 OA 
HETATM   10  H   UNL     1     -12.202  11.541  69.511  1.00  0.00     0.000 HD 
ENDBRANCH   3   8
TORSDOF 1
ENDMDL
MODEL      165
REMARK 921   NORMALIZED FREE ENERGY PREDICTED BY IDOCK:   -1.66 KCAL/MOL
REMARK 922        TOTAL FREE ENERGY PREDICTED BY IDOCK:   -1.76 KCAL/MOL
REMARK 923 INTER-LIGAND FREE ENERGY PREDICTED BY IDOCK:   -1.74 KCAL/MOL
REMARK 924 INTRA-LIGAND FREE ENERGY PREDICTED BY IDOCK:   -0.03 KCAL/MOL
REMARK 927      BINDING AFFINITY PREDICTED BY RF-SCORE:    0.00 PKD
ROOT
HETATM    1  N   UNL     1      -9.794   6.002  68.574  1.00  0.00    -0.125 NA 
HETATM    2  H1  UNL     1      -9.619   5.135  68.066  1.00  0.00     0.000 HD 
HETATM    3  CA  UNL     1     -10.721   5.780  69.734  1.00  0.00    -0.348 C  
HETATM    4  H2  UNL     1      -8.924   6.443  68.870  1.00  0.00     0.000 HD 
HETATM    5  C   UNL     1     -10.097   4.692  70.629  1.00  0.00    -0.191 C  
HETATM    6  O   UNL     1      -9.162   3.980  69.940  1.00  0.00    -0.111 OA 
HETATM    7  O   UNL     1     -10.407   4.439  71.782  1.00  0.00    -0.161 OA 
ENDROOT
BRANCH   3   8
HETATM    8  C   UNL     1     -10.983   7.084  70.499  1.00  0.00    -0.265 C  
HETATM    9  O   UNL     1     -12.364   7.404  70.625  1.00  0.00    -0.537 OA 
HETATM   10  H   UNL     1     -12.527   8.211  71.098  1.00  0.00     0.000 HD 
ENDBRANCH   3   8
TORSDOF 1
ENDMDL
MODEL      166
REMARK 921   NORMALIZED FREE ENERGY PREDICTED BY IDOCK:   -1.62 KCAL/MOL
REMARK 922        TOTAL FREE ENERGY PREDICTED BY IDOCK:   -1.73 KCAL/MOL
REMARK 923 INTER-LIGAND FREE ENERGY PREDICTED BY IDOCK:   -1.48 KCAL/MOL
REMARK 924 INTRA-LIGAND FREE ENERGY PREDICTED BY IDOCK:   -0.24 KCAL/MOL
REMARK 927      BINDING AFFINITY PREDICTED BY RF-SCORE:    0.00 PKD
ROOT
HETATM    1  N   UNL     1     -12.132   4.888  73.303  1.00  0.00    -0.302 NA 
HETATM    2  H1  UNL     1     -12.011   4.750  74.306  1.00  0.00     0.000 HD 
HETATM    3  CA  UNL     1     -11.103   5.831  72.751  1.00  0.00    -0.284 C  
HETATM    4  H2  UNL     1     -12.132   4.000  72.801  1.00  0.00     0.000 HD 
HETATM    5  C   UNL     1      -9.713   5.265  73.102  1.00  0.00    -0.145 C  
HETATM    6  O   UNL     1      -9.806   4.359  74.115  1.00  0.00    -0.125 OA 
HETATM    7  O   UNL     1      -8.651   5.593  72.600  1.00  0.00    -0.120 OA 
ENDROOT
BRANCH   3   8
HETATM    8  C   UNL     1     -11.284   6.039  71.242  1.00  0.00    -0.258 C  
HETATM    9  O   UNL     1     -10.537   5.126  70.447  1.00  0.00    -0.249 OA 
HETATM   10  H   UNL     1     -10.649   5.255  69.512  1.00  0.00     0.000 HD 
ENDBRANCH   3   8
TORSDOF 1
ENDMDL
MODEL      167
REMARK 921   NORMALIZED FREE ENERGY PREDICTED BY IDOCK:   -1.61 KCAL/MOL
REMARK 922        TOTAL FREE ENERGY PREDICTED BY IDOCK:   -1.71 KCAL/MOL
REMARK 923 INTER-LIGAND FREE ENERGY PREDICTED BY IDOCK:   -1.51 KCAL/MOL
REMARK 924 INTRA-LIGAND FREE ENERGY PREDICTED BY IDOCK:   -0.20 KCAL/MOL
REMARK 927      BINDING AFFINITY PREDICTED BY RF-SCORE:    0.00 PKD
ROOT
HETATM    1  N   UNL     1      -6.070  11.658  66.125  1.00  0.00    -0.479 NA 
HETATM    2  H1  UNL     1      -6.449  11.894  65.208  1.00  0.00     0.000 HD 
HETATM    3  CA  UNL     1      -6.980  12.116  67.228  1.00  0.00    -0.148 C  
HETATM    4  H2  UNL     1      -5.863  10.663  66.199  1.00  0.00     0.000 HD 
HETATM    5  C   UNL     1      -8.364  11.482  66.986  1.00  0.00    -0.165 C  
HETATM    6  O   UNL     1      -8.481  11.064  65.695  1.00  0.00    -0.170 OA 
HETATM    7  O   UNL     1      -9.270  11.395  67.797  1.00  0.00    -0.152 OA 
ENDROOT
BRANCH   3   8
HETATM    8  C   UNL     1      -6.410  11.762  68.608  1.00  0.00    -0.057 C  
HETATM    9  O   UNL     1      -7.033  12.461  69.679  1.00  0.00    -0.337 OA 
HETATM   10  H   UNL     1      -6.679  12.242  70.533  1.00  0.00     0.000 HD 
ENDBRANCH   3   8
TORSDOF 1
ENDMDL
MODEL      168
REMARK 921   NORMALIZED FREE ENERGY PREDICTED BY IDOCK:   -1.60 KCAL/MOL
REMARK 922        TOTAL FREE ENERGY PREDICTED BY IDOCK:   -1.70 KCAL/MOL
REMARK 923 INTER-LIGAND FREE ENERGY PREDICTED BY IDOCK:   -1.51 KCAL/MOL
REMARK 924 INTRA-LIGAND FREE ENERGY PREDICTED BY IDOCK:   -0.19 KCAL/MOL
REMARK 927      BINDING AFFINITY PREDICTED BY RF-SCORE:    0.00 PKD
ROOT
HETATM    1  N   UNL     1      -8.467   8.033  70.192  1.00  0.00    -0.126 NA 
HETATM    2  H1  UNL     1      -7.749   7.467  70.644  1.00  0.00     0.000 HD 
HETATM    3  CA  UNL     1      -9.118   7.291  69.061  1.00  0.00    -0.133 C  
HETATM    4  H2  UNL     1      -9.155   8.369  70.864  1.00  0.00     0.000 HD 
HETATM    5  C   UNL     1      -9.683   5.974  69.629  1.00  0.00    -0.152 C  
HETATM    6  O   UNL     1      -9.095   5.674  70.821  1.00  0.00    -0.144 OA 
HETATM    7  O   UNL     1     -10.502   5.248  69.093  1.00  0.00    -0.219 OA 
ENDROOT
BRANCH   3   8
HETATM    8  C   UNL     1     -10.199   8.142  68.380  1.00  0.00    -0.209 C  
HETATM    9  O   UNL     1     -11.068   7.394  67.539  1.00  0.00    -0.531 OA 
HETATM   10  H   UNL     1     -11.737   7.921  67.117  1.00  0.00     0.000 HD 
ENDBRANCH   3   8
TORSDOF 1
ENDMDL
MODEL      169
REMARK 921   NORMALIZED FREE ENERGY PREDICTED BY IDOCK:   -1.59 KCAL/MOL
REMARK 922        TOTAL FREE ENERGY PREDICTED BY IDOCK:   -1.69 KCAL/MOL
REMARK 923 INTER-LIGAND FREE ENERGY PREDICTED BY IDOCK:   -1.45 KCAL/MOL
REMARK 924 INTRA-LIGAND FREE ENERGY PREDICTED BY IDOCK:   -0.24 KCAL/MOL
REMARK 927      BINDING AFFINITY PREDICTED BY RF-SCORE:    0.00 PKD
ROOT
HETATM    1  N   UNL     1      -9.820   5.225  69.987  1.00  0.00    -0.197 NA 
HETATM    2  H1  UNL     1     -10.297   4.597  70.635  1.00  0.00     0.000 HD 
HETATM    3  CA  UNL     1     -10.623   6.469  69.740  1.00  0.00    -0.235 C  
HETATM    4  H2  UNL     1      -8.878   5.446  70.307  1.00  0.00     0.000 HD 
HETATM    5  C   UNL     1     -10.894   7.131  71.105  1.00  0.00    -0.239 C  
HETATM    6  O   UNL     1     -10.713   6.236  72.116  1.00  0.00    -0.217 OA 
HETATM    7  O   UNL     1     -11.268   8.277  71.291  1.00  0.00    -0.246 OA 
ENDROOT
BRANCH   3   8
HETATM    8  C   UNL     1      -9.907   7.414  68.766  1.00  0.00    -0.164 C  
HETATM    9  O   UNL     1      -9.063   8.363  69.407  1.00  0.00    -0.151 OA 
HETATM   10  H   UNL     1      -8.620   8.948  68.804  1.00  0.00     0.000 HD 
ENDBRANCH   3   8
TORSDOF 1
ENDMDL
MODEL      170
REMARK 921   NORMALIZED FREE ENERGY PREDICTED BY IDOCK:   -1.59 KCAL/MOL
REMARK 922        TOTAL FREE ENERGY PREDICTED BY IDOCK:   -1.69 KCAL/MOL
REMARK 923 INTER-LIGAND FREE ENERGY PREDICTED BY IDOCK:   -1.47 KCAL/MOL
REMARK 924 INTRA-LIGAND FREE ENERGY PREDICTED BY IDOCK:   -0.22 KCAL/MOL
REMARK 927      BINDING AFFINITY PREDICTED BY RF-SCORE:    0.00 PKD
ROOT
HETATM    1  N   UNL     1      -9.810  12.696  66.967  1.00  0.00    -0.221 NA 
HETATM    2  H1  UNL     1     -10.004  13.558  66.458  1.00  0.00     0.000 HD 
HETATM    3  CA  UNL     1     -10.608  11.546  66.424  1.00  0.00    -0.259 C  
HETATM    4  H2  UNL     1      -8.812  12.485  66.978  1.00  0.00     0.000 HD 
HETATM    5  C   UNL     1     -10.290  11.424  64.921  1.00  0.00    -0.292 C  
HETATM    6  O   UNL     1      -9.744  12.580  64.450  1.00  0.00    -0.097 OA 
HETATM    7  O   UNL     1     -10.525  10.462  64.208  1.00  0.00    -0.199 OA 
ENDROOT
BRANCH   3   8
HETATM    8  C   UNL     1     -10.316  10.249  67.189  1.00  0.00    -0.238 C  
HETATM    9  O   UNL     1      -9.447   9.361  66.496  1.00  0.00    -0.163 OA 
HETATM   10  H   UNL     1      -9.266   8.557  66.970  1.00  0.00     0.000 HD 
ENDBRANCH   3   8
TORSDOF 1
ENDMDL
MODEL      171
REMARK 921   NORMALIZED FREE ENERGY PREDICTED BY IDOCK:   -1.59 KCAL/MOL
REMARK 922        TOTAL FREE ENERGY PREDICTED BY IDOCK:   -1.68 KCAL/MOL
REMARK 923 INTER-LIGAND FREE ENERGY PREDICTED BY IDOCK:   -1.50 KCAL/MOL
REMARK 924 INTRA-LIGAND FREE ENERGY PREDICTED BY IDOCK:   -0.18 KCAL/MOL
REMARK 927      BINDING AFFINITY PREDICTED BY RF-SCORE:    0.00 PKD
ROOT
HETATM    1  N   UNL     1      -9.366   5.877  65.558  1.00  0.00    -0.368 NA 
HETATM    2  H1  UNL     1     -10.274   5.981  65.105  1.00  0.00     0.000 HD 
HETATM    3  CA  UNL     1      -9.003   7.102  66.345  1.00  0.00    -0.155 C  
HETATM    4  H2  UNL     1      -9.332   5.037  66.137  1.00  0.00     0.000 HD 
HETATM    5  C   UNL     1     -10.136   7.363  67.357  1.00  0.00    -0.211 C  
HETATM    6  O   UNL     1     -11.271   6.707  66.985  1.00  0.00    -0.404 OA 
HETATM    7  O   UNL     1     -10.079   8.087  68.336  1.00  0.00    -0.184 OA 
ENDROOT
BRANCH   3   8
HETATM    8  C   UNL     1      -7.637   6.946  67.028  1.00  0.00    -0.102 C  
HETATM    9  O   UNL     1      -7.050   8.182  67.418  1.00  0.00    -0.079 OA 
HETATM   10  H   UNL     1      -6.204   8.085  67.840  1.00  0.00     0.000 HD 
ENDBRANCH   3   8
TORSDOF 1
ENDMDL
MODEL      172
REMARK 921   NORMALIZED FREE ENERGY PREDICTED BY IDOCK:   -1.54 KCAL/MOL
REMARK 922        TOTAL FREE ENERGY PREDICTED BY IDOCK:   -1.64 KCAL/MOL
REMARK 923 INTER-LIGAND FREE ENERGY PREDICTED BY IDOCK:   -1.63 KCAL/MOL
REMARK 924 INTRA-LIGAND FREE ENERGY PREDICTED BY IDOCK:   -0.01 KCAL/MOL
REMARK 927      BINDING AFFINITY PREDICTED BY RF-SCORE:    0.00 PKD
ROOT
HETATM    1  N   UNL     1      -8.062   5.901  72.324  1.00  0.00    -0.107 NA 
HETATM    2  H1  UNL     1      -8.006   5.232  71.556  1.00  0.00     0.000 HD 
HETATM    3  CA  UNL     1      -9.314   6.726  72.244  1.00  0.00    -0.138 C  
HETATM    4  H2  UNL     1      -7.976   5.439  73.229  1.00  0.00     0.000 HD 
HETATM    5  C   UNL     1     -10.512   5.757  72.224  1.00  0.00    -0.209 C  
HETATM    6  O   UNL     1     -10.110   4.503  71.872  1.00  0.00    -0.183 OA 
HETATM    7  O   UNL     1     -11.678   6.044  72.436  1.00  0.00    -0.309 OA 
ENDROOT
BRANCH   3   8
HETATM    8  C   UNL     1      -9.397   7.732  73.399  1.00  0.00    -0.285 C  
HETATM    9  O   UNL     1      -8.300   8.636  73.450  1.00  0.00    -0.398 OA 
HETATM   10  H   UNL     1      -8.352   9.259  74.165  1.00  0.00     0.000 HD 
ENDBRANCH   3   8
TORSDOF 1
ENDMDL
MODEL      173
REMARK 921   NORMALIZED FREE ENERGY PREDICTED BY IDOCK:   -1.54 KCAL/MOL
REMARK 922        TOTAL FREE ENERGY PREDICTED BY IDOCK:   -1.63 KCAL/MOL
REMARK 923 INTER-LIGAND FREE ENERGY PREDICTED BY IDOCK:   -1.42 KCAL/MOL
REMARK 924 INTRA-LIGAND FREE ENERGY PREDICTED BY IDOCK:   -0.22 KCAL/MOL
REMARK 927      BINDING AFFINITY PREDICTED BY RF-SCORE:    0.00 PKD
ROOT
HETATM    1  N   UNL     1     -11.014   7.378  70.071  1.00  0.00    -0.272 NA 
HETATM    2  H1  UNL     1     -11.993   7.555  70.297  1.00  0.00     0.000 HD 
HETATM    3  CA  UNL     1     -10.531   8.287  68.978  1.00  0.00    -0.197 C  
HETATM    4  H2  UNL     1     -10.422   7.442  70.899  1.00  0.00     0.000 HD 
HETATM    5  C   UNL     1     -10.775   9.739  69.435  1.00  0.00    -0.228 C  
HETATM    6  O   UNL     1     -11.690   9.778  70.444  1.00  0.00    -0.261 OA 
HETATM    7  O   UNL     1     -10.276  10.742  68.952  1.00  0.00    -0.186 OA 
ENDROOT
BRANCH   3   8
HETATM    8  C   UNL     1      -9.059   8.023  68.637  1.00  0.00    -0.140 C  
HETATM    9  O   UNL     1      -8.620   8.677  67.453  1.00  0.00    -0.131 OA 
HETATM   10  H   UNL     1      -7.709   8.513  67.242  1.00  0.00     0.000 HD 
ENDBRANCH   3   8
TORSDOF 1
ENDMDL
MODEL      174
REMARK 921   NORMALIZED FREE ENERGY PREDICTED BY IDOCK:   -1.50 KCAL/MOL
REMARK 922        TOTAL FREE ENERGY PREDICTED BY IDOCK:   -1.59 KCAL/MOL
REMARK 923 INTER-LIGAND FREE ENERGY PREDICTED BY IDOCK:   -1.36 KCAL/MOL
REMARK 924 INTRA-LIGAND FREE ENERGY PREDICTED BY IDOCK:   -0.23 KCAL/MOL
REMARK 927      BINDING AFFINITY PREDICTED BY RF-SCORE:    0.00 PKD
ROOT
HETATM    1  N   UNL     1      -9.910   4.767  68.250  1.00  0.00    -0.140 NA 
HETATM    2  H1  UNL     1      -9.371   4.059  67.751  1.00  0.00     0.000 HD 
HETATM    3  CA  UNL     1      -9.291   6.127  68.113  1.00  0.00    -0.115 C  
HETATM    4  H2  UNL     1     -10.887   4.769  67.955  1.00  0.00     0.000 HD 
HETATM    5  C   UNL     1      -9.171   6.436  66.608  1.00  0.00    -0.151 C  
HETATM    6  O   UNL     1      -9.255   5.291  65.874  1.00  0.00    -0.155 OA 
HETATM    7  O   UNL     1      -8.976   7.532  66.108  1.00  0.00    -0.163 OA 
ENDROOT
BRANCH   3   8
HETATM    8  C   UNL     1     -10.102   7.191  68.864  1.00  0.00    -0.177 C  
HETATM    9  O   UNL     1     -10.997   7.919  68.031  1.00  0.00    -0.460 OA 
HETATM   10  H   UNL     1     -11.499   8.578  68.496  1.00  0.00     0.000 HD 
ENDBRANCH   3   8
TORSDOF 1
ENDMDL
MODEL      175
REMARK 921   NORMALIZED FREE ENERGY PREDICTED BY IDOCK:   -1.48 KCAL/MOL
REMARK 922        TOTAL FREE ENERGY PREDICTED BY IDOCK:   -1.57 KCAL/MOL
REMARK 923 INTER-LIGAND FREE ENERGY PREDICTED BY IDOCK:   -1.35 KCAL/MOL
REMARK 924 INTRA-LIGAND FREE ENERGY PREDICTED BY IDOCK:   -0.22 KCAL/MOL
REMARK 927      BINDING AFFINITY PREDICTED BY RF-SCORE:    0.00 PKD
ROOT
HETATM    1  N   UNL     1      -8.200   3.305  66.990  1.00  0.00    -0.083 NA 
HETATM    2  H1  UNL     1      -8.613   2.857  67.807  1.00  0.00     0.000 HD 
HETATM    3  CA  UNL     1      -9.250   3.920  66.112  1.00  0.00    -0.160 C  
HETATM    4  H2  UNL     1      -7.490   3.986  67.257  1.00  0.00     0.000 HD 
HETATM    5  C   UNL     1     -10.061   4.908  66.974  1.00  0.00    -0.205 C  
HETATM    6  O   UNL     1      -9.888   4.642  68.299  1.00  0.00    -0.150 OA 
HETATM    7  O   UNL     1     -10.804   5.783  66.564  1.00  0.00    -0.276 OA 
ENDROOT
BRANCH   3   8
HETATM    8  C   UNL     1      -8.628   4.595  64.882  1.00  0.00    -0.140 C  
HETATM    9  O   UNL     1      -9.587   5.064  63.942  1.00  0.00    -0.336 OA 
HETATM   10  H   UNL     1      -9.202   5.481  63.180  1.00  0.00     0.000 HD 
ENDBRANCH   3   8
TORSDOF 1
ENDMDL
MODEL      176
REMARK 921   NORMALIZED FREE ENERGY PREDICTED BY IDOCK:   -1.45 KCAL/MOL
REMARK 922        TOTAL FREE ENERGY PREDICTED BY IDOCK:   -1.54 KCAL/MOL
REMARK 923 INTER-LIGAND FREE ENERGY PREDICTED BY IDOCK:   -1.31 KCAL/MOL
REMARK 924 INTRA-LIGAND FREE ENERGY PREDICTED BY IDOCK:   -0.23 KCAL/MOL
REMARK 927      BINDING AFFINITY PREDICTED BY RF-SCORE:    0.00 PKD
ROOT
HETATM    1  N   UNL     1      -7.455   5.883  66.972  1.00  0.00    -0.083 NA 
HETATM    2  H1  UNL     1      -7.007   5.963  67.885  1.00  0.00     0.000 HD 
HETATM    3  CA  UNL     1      -8.817   5.262  67.083  1.00  0.00    -0.109 C  
HETATM    4  H2  UNL     1      -7.493   6.784  66.496  1.00  0.00     0.000 HD 
HETATM    5  C   UNL     1      -9.642   6.112  68.068  1.00  0.00    -0.115 C  
HETATM    6  O   UNL     1      -8.824   6.883  68.838  1.00  0.00    -0.130 OA 
HETATM    7  O   UNL     1     -10.854   6.089  68.205  1.00  0.00    -0.275 OA 
ENDROOT
BRANCH   3   8
HETATM    8  C   UNL     1      -9.492   5.142  65.710  1.00  0.00    -0.141 C  
HETATM    9  O   UNL     1     -10.770   4.518  65.754  1.00  0.00    -0.456 OA 
HETATM   10  H   UNL     1     -11.187   4.443  64.904  1.00  0.00     0.000 HD 
ENDBRANCH   3   8
TORSDOF 1
ENDMDL
MODEL      177
REMARK 921   NORMALIZED FREE ENERGY PREDICTED BY IDOCK:   -1.44 KCAL/MOL
REMARK 922        TOTAL FREE ENERGY PREDICTED BY IDOCK:   -1.53 KCAL/MOL
REMARK 923 INTER-LIGAND FREE ENERGY PREDICTED BY IDOCK:   -1.30 KCAL/MOL
REMARK 924 INTRA-LIGAND FREE ENERGY PREDICTED BY IDOCK:   -0.23 KCAL/MOL
REMARK 927      BINDING AFFINITY PREDICTED BY RF-SCORE:    0.00 PKD
ROOT
HETATM    1  N   UNL     1      -8.147  12.164  66.830  1.00  0.00    -0.354 NA 
HETATM    2  H1  UNL     1      -7.598  12.155  65.970  1.00  0.00     0.000 HD 
HETATM    3  CA  UNL     1      -8.892  10.874  67.018  1.00  0.00    -0.140 C  
HETATM    4  H2  UNL     1      -7.567  12.383  67.640  1.00  0.00     0.000 HD 
HETATM    5  C   UNL     1      -7.860   9.730  66.993  1.00  0.00    -0.102 C  
HETATM    6  O   UNL     1      -6.697  10.144  66.415  1.00  0.00    -0.082 OA 
HETATM    7  O   UNL     1      -8.038   8.587  67.380  1.00  0.00    -0.104 OA 
ENDROOT
BRANCH   3   8
HETATM    8  C   UNL     1      -9.717  10.887  68.312  1.00  0.00    -0.165 C  
HETATM    9  O   UNL     1      -8.959  10.577  69.475  1.00  0.00    -0.349 OA 
HETATM   10  H   UNL     1      -9.470  10.585  70.276  1.00  0.00     0.000 HD 
ENDBRANCH   3   8
TORSDOF 1
ENDMDL
MODEL      178
REMARK 921   NORMALIZED FREE ENERGY PREDICTED BY IDOCK:   -1.40 KCAL/MOL
REMARK 922        TOTAL FREE ENERGY PREDICTED BY IDOCK:   -1.49 KCAL/MOL
REMARK 923 INTER-LIGAND FREE ENERGY PREDICTED BY IDOCK:   -1.25 KCAL/MOL
REMARK 924 INTRA-LIGAND FREE ENERGY PREDICTED BY IDOCK:   -0.24 KCAL/MOL
REMARK 927      BINDING AFFINITY PREDICTED BY RF-SCORE:    0.00 PKD
ROOT
HETATM    1  N   UNL     1      -8.590   7.090  64.757  1.00  0.00    -0.346 NA 
HETATM    2  H1  UNL     1      -9.589   6.884  64.759  1.00  0.00     0.000 HD 
HETATM    3  CA  UNL     1      -8.331   8.544  64.487  1.00  0.00    -0.128 C  
HETATM    4  H2  UNL     1      -8.145   6.786  65.623  1.00  0.00     0.000 HD 
HETATM    5  C   UNL     1      -9.096   9.361  65.546  1.00  0.00    -0.218 C  
HETATM    6  O   UNL     1     -10.071   8.605  66.123  1.00  0.00    -0.250 OA 
HETATM    7  O   UNL     1      -8.917  10.536  65.820  1.00  0.00    -0.167 OA 
ENDROOT
BRANCH   3   8
HETATM    8  C   UNL     1      -6.828   8.854  64.485  1.00  0.00    -0.081 C  
HETATM    9  O   UNL     1      -6.314   9.197  65.766  1.00  0.00    -0.059 OA 
HETATM   10  H   UNL     1      -5.384   9.390  65.765  1.00  0.00     0.000 HD 
ENDBRANCH   3   8
TORSDOF 1
ENDMDL
MODEL      179
REMARK 921   NORMALIZED FREE ENERGY PREDICTED BY IDOCK:   -1.40 KCAL/MOL
REMARK 922        TOTAL FREE ENERGY PREDICTED BY IDOCK:   -1.49 KCAL/MOL
REMARK 923 INTER-LIGAND FREE ENERGY PREDICTED BY IDOCK:   -1.28 KCAL/MOL
REMARK 924 INTRA-LIGAND FREE ENERGY PREDICTED BY IDOCK:   -0.21 KCAL/MOL
REMARK 927      BINDING AFFINITY PREDICTED BY RF-SCORE:    0.00 PKD
ROOT
HETATM    1  N   UNL     1      -7.667   3.076  66.512  1.00  0.00    -0.076 NA 
HETATM    2  H1  UNL     1      -7.664   3.357  67.492  1.00  0.00     0.000 HD 
HETATM    3  CA  UNL     1      -9.065   2.933  65.986  1.00  0.00    -0.130 C  
HETATM    4  H2  UNL     1      -7.116   3.715  65.939  1.00  0.00     0.000 HD 
HETATM    5  C   UNL     1      -9.790   4.274  66.212  1.00  0.00    -0.220 C  
HETATM    6  O   UNL     1      -9.141   5.018  67.151  1.00  0.00    -0.112 OA 
HETATM    7  O   UNL     1     -10.829   4.632  65.683  1.00  0.00    -0.292 OA 
ENDROOT
BRANCH   3   8
HETATM    8  C   UNL     1      -9.069   2.510  64.511  1.00  0.00    -0.128 C  
HETATM    9  O   UNL     1     -10.339   2.068  64.047  1.00  0.00    -0.319 OA 
HETATM   10  H   UNL     1     -10.341   1.806  63.134  1.00  0.00     0.000 HD 
ENDBRANCH   3   8
TORSDOF 1
ENDMDL
MODEL      180
REMARK 921   NORMALIZED FREE ENERGY PREDICTED BY IDOCK:   -1.38 KCAL/MOL
REMARK 922        TOTAL FREE ENERGY PREDICTED BY IDOCK:   -1.46 KCAL/MOL
REMARK 923 INTER-LIGAND FREE ENERGY PREDICTED BY IDOCK:   -1.22 KCAL/MOL
REMARK 924 INTRA-LIGAND FREE ENERGY PREDICTED BY IDOCK:   -0.24 KCAL/MOL
REMARK 927      BINDING AFFINITY PREDICTED BY RF-SCORE:    0.00 PKD
ROOT
HETATM    1  N   UNL     1      -8.722   3.306  70.579  1.00  0.00    -0.070 NA 
HETATM    2  H1  UNL     1      -9.281   3.026  71.385  1.00  0.00     0.000 HD 
HETATM    3  CA  UNL     1      -9.573   3.931  69.512  1.00  0.00    -0.178 C  
HETATM    4  H2  UNL     1      -7.954   3.919  70.852  1.00  0.00     0.000 HD 
HETATM    5  C   UNL     1     -10.321   5.119  70.146  1.00  0.00    -0.270 C  
HETATM    6  O   UNL     1     -10.332   5.010  71.504  1.00  0.00    -0.204 OA 
HETATM    7  O   UNL     1     -10.883   6.022  69.548  1.00  0.00    -0.297 OA 
ENDROOT
BRANCH   3   8
HETATM    8  C   UNL     1      -8.732   4.352  68.299  1.00  0.00    -0.101 C  
HETATM    9  O   UNL     1      -8.229   5.680  68.387  1.00  0.00    -0.102 OA 
HETATM   10  H   UNL     1      -7.709   5.941  67.636  1.00  0.00     0.000 HD 
ENDBRANCH   3   8
TORSDOF 1
ENDMDL
MODEL      181
REMARK 921   NORMALIZED FREE ENERGY PREDICTED BY IDOCK:   -1.37 KCAL/MOL
REMARK 922        TOTAL FREE ENERGY PREDICTED BY IDOCK:   -1.45 KCAL/MOL
REMARK 923 INTER-LIGAND FREE ENERGY PREDICTED BY IDOCK:   -1.22 KCAL/MOL
REMARK 924 INTRA-LIGAND FREE ENERGY PREDICTED BY IDOCK:   -0.23 KCAL/MOL
REMARK 927      BINDING AFFINITY PREDICTED BY RF-SCORE:    0.00 PKD
ROOT
HETATM    1  N   UNL     1      -8.554   9.303  68.030  1.00  0.00    -0.121 NA 
HETATM    2  H1  UNL     1      -8.397   8.742  67.192  1.00  0.00     0.000 HD 
HETATM    3  CA  UNL     1      -9.367   8.554  69.046  1.00  0.00    -0.146 C  
HETATM    4  H2  UNL     1      -7.676   9.637  68.426  1.00  0.00     0.000 HD 
HETATM    5  C   UNL     1      -8.632   7.235  69.354  1.00  0.00    -0.134 C  
HETATM    6  O   UNL     1      -7.738   6.942  68.368  1.00  0.00    -0.111 OA 
HETATM    7  O   UNL     1      -8.830   6.503  70.309  1.00  0.00    -0.148 OA 
ENDROOT
BRANCH   3   8
HETATM    8  C   UNL     1      -9.604   9.398  70.306  1.00  0.00    -0.249 C  
HETATM    9  O   UNL     1      -8.682   9.128  71.355  1.00  0.00    -0.309 OA 
HETATM   10  H   UNL     1      -8.830   9.650  72.135  1.00  0.00     0.000 HD 
ENDBRANCH   3   8
TORSDOF 1
ENDMDL
MODEL      182
REMARK 921   NORMALIZED FREE ENERGY PREDICTED BY IDOCK:   -1.35 KCAL/MOL
REMARK 922        TOTAL FREE ENERGY PREDICTED BY IDOCK:   -1.44 KCAL/MOL
REMARK 923 INTER-LIGAND FREE ENERGY PREDICTED BY IDOCK:   -1.21 KCAL/MOL
REMARK 924 INTRA-LIGAND FREE ENERGY PREDICTED BY IDOCK:   -0.23 KCAL/MOL
REMARK 927      BINDING AFFINITY PREDICTED BY RF-SCORE:    0.00 PKD
ROOT
HETATM    1  N   UNL     1     -10.550   3.254  64.579  1.00  0.00    -0.445 NA 
HETATM    2  H1  UNL     1     -11.213   3.161  65.349  1.00  0.00     0.000 HD 
HETATM    3  CA  UNL     1      -9.633   4.425  64.783  1.00  0.00    -0.139 C  
HETATM    4  H2  UNL     1     -10.027   2.392  64.430  1.00  0.00     0.000 HD 
HETATM    5  C   UNL     1      -8.930   4.237  66.142  1.00  0.00    -0.123 C  
HETATM    6  O   UNL     1      -9.612   3.347  66.916  1.00  0.00    -0.182 OA 
HETATM    7  O   UNL     1      -7.931   4.822  66.526  1.00  0.00    -0.102 OA 
ENDROOT
BRANCH   3   8
HETATM    8  C   UNL     1      -8.636   4.565  63.626  1.00  0.00    -0.126 C  
HETATM    9  O   UNL     1      -7.800   5.712  63.728  1.00  0.00    -0.094 OA 
HETATM   10  H   UNL     1      -7.183   5.799  63.011  1.00  0.00     0.000 HD 
ENDBRANCH   3   8
TORSDOF 1
ENDMDL
MODEL      183
REMARK 921   NORMALIZED FREE ENERGY PREDICTED BY IDOCK:   -1.35 KCAL/MOL
REMARK 922        TOTAL FREE ENERGY PREDICTED BY IDOCK:   -1.43 KCAL/MOL
REMARK 923 INTER-LIGAND FREE ENERGY PREDICTED BY IDOCK:   -1.43 KCAL/MOL
REMARK 924 INTRA-LIGAND FREE ENERGY PREDICTED BY IDOCK:   -0.01 KCAL/MOL
REMARK 927      BINDING AFFINITY PREDICTED BY RF-SCORE:    0.00 PKD
ROOT
HETATM    1  N   UNL     1      -8.223  11.881  66.983  1.00  0.00    -0.167 NA 
HETATM    2  H1  UNL     1      -7.469  11.925  67.669  1.00  0.00     0.000 HD 
HETATM    3  CA  UNL     1      -9.152  13.053  67.114  1.00  0.00    -0.225 C  
HETATM    4  H2  UNL     1      -7.859  11.797  66.034  1.00  0.00     0.000 HD 
HETATM    5  C   UNL     1      -8.309  14.336  66.978  1.00  0.00    -0.131 C  
HETATM    6  O   UNL     1      -6.991  14.070  67.196  1.00  0.00    -0.135 OA 
HETATM    7  O   UNL     1      -8.732  15.459  66.759  1.00  0.00    -0.228 OA 
ENDROOT
BRANCH   3   8
HETATM    8  C   UNL     1     -10.285  12.989  66.081  1.00  0.00    -0.284 C  
HETATM    9  O   UNL     1     -10.616  11.665  65.679  1.00  0.00    -0.260 OA 
HETATM   10  H   UNL     1     -11.317  11.625  65.039  1.00  0.00     0.000 HD 
ENDBRANCH   3   8
TORSDOF 1
ENDMDL
MODEL      184
REMARK 921   NORMALIZED FREE ENERGY PREDICTED BY IDOCK:   -1.35 KCAL/MOL
REMARK 922        TOTAL FREE ENERGY PREDICTED BY IDOCK:   -1.43 KCAL/MOL
REMARK 923 INTER-LIGAND FREE ENERGY PREDICTED BY IDOCK:   -1.19 KCAL/MOL
REMARK 924 INTRA-LIGAND FREE ENERGY PREDICTED BY IDOCK:   -0.24 KCAL/MOL
REMARK 927      BINDING AFFINITY PREDICTED BY RF-SCORE:    0.00 PKD
ROOT
HETATM    1  N   UNL     1      -8.133   9.928  70.752  1.00  0.00    -0.379 NA 
HETATM    2  H1  UNL     1      -8.158   9.925  71.771  1.00  0.00     0.000 HD 
HETATM    3  CA  UNL     1      -7.865   8.556  70.205  1.00  0.00    -0.099 C  
HETATM    4  H2  UNL     1      -8.986  10.327  70.359  1.00  0.00     0.000 HD 
HETATM    5  C   UNL     1      -8.948   7.611  70.761  1.00  0.00    -0.149 C  
HETATM    6  O   UNL     1      -9.544   8.157  71.858  1.00  0.00    -0.167 OA 
HETATM    7  O   UNL     1      -9.225   6.501  70.338  1.00  0.00    -0.154 OA 
ENDROOT
BRANCH   3   8
HETATM    8  C   UNL     1      -7.828   8.561  68.671  1.00  0.00    -0.108 C  
HETATM    9  O   UNL     1      -9.085   8.276  68.069  1.00  0.00    -0.137 OA 
HETATM   10  H   UNL     1      -9.062   8.279  67.119  1.00  0.00     0.000 HD 
ENDBRANCH   3   8
TORSDOF 1
ENDMDL
MODEL      185
REMARK 921   NORMALIZED FREE ENERGY PREDICTED BY IDOCK:   -1.34 KCAL/MOL
REMARK 922        TOTAL FREE ENERGY PREDICTED BY IDOCK:   -1.42 KCAL/MOL
REMARK 923 INTER-LIGAND FREE ENERGY PREDICTED BY IDOCK:   -1.20 KCAL/MOL
REMARK 924 INTRA-LIGAND FREE ENERGY PREDICTED BY IDOCK:   -0.22 KCAL/MOL
REMARK 927      BINDING AFFINITY PREDICTED BY RF-SCORE:    0.00 PKD
ROOT
HETATM    1  N   UNL     1      -9.510   2.783  67.079  1.00  0.00    -0.400 NA 
HETATM    2  H1  UNL     1     -10.510   2.964  67.166  1.00  0.00     0.000 HD 
HETATM    3  CA  UNL     1      -9.122   2.524  65.653  1.00  0.00    -0.108 C  
HETATM    4  H2  UNL     1      -8.957   3.538  67.486  1.00  0.00     0.000 HD 
HETATM    5  C   UNL     1      -9.572   3.739  64.817  1.00  0.00    -0.174 C  
HETATM    6  O   UNL     1     -10.514   4.460  65.487  1.00  0.00    -0.265 OA 
HETATM    7  O   UNL     1      -9.199   4.019  63.691  1.00  0.00    -0.128 OA 
ENDROOT
BRANCH   3   8
HETATM    8  C   UNL     1      -7.617   2.252  65.521  1.00  0.00    -0.072 C  
HETATM    9  O   UNL     1      -7.185   2.071  64.178  1.00  0.00    -0.052 OA 
HETATM   10  H   UNL     1      -6.254   1.902  64.097  1.00  0.00     0.000 HD 
ENDBRANCH   3   8
TORSDOF 1
ENDMDL
MODEL      186
REMARK 921   NORMALIZED FREE ENERGY PREDICTED BY IDOCK:   -1.29 KCAL/MOL
REMARK 922        TOTAL FREE ENERGY PREDICTED BY IDOCK:   -1.37 KCAL/MOL
REMARK 923 INTER-LIGAND FREE ENERGY PREDICTED BY IDOCK:   -1.20 KCAL/MOL
REMARK 924 INTRA-LIGAND FREE ENERGY PREDICTED BY IDOCK:   -0.17 KCAL/MOL
REMARK 927      BINDING AFFINITY PREDICTED BY RF-SCORE:    0.00 PKD
ROOT
HETATM    1  N   UNL     1      -9.836   2.857  65.736  1.00  0.00    -0.347 NA 
HETATM    2  H1  UNL     1     -10.486   2.143  66.065  1.00  0.00     0.000 HD 
HETATM    3  CA  UNL     1      -9.692   3.968  66.735  1.00  0.00    -0.190 C  
HETATM    4  H2  UNL     1      -8.931   2.455  65.492  1.00  0.00     0.000 HD 
HETATM    5  C   UNL     1      -9.247   3.342  68.071  1.00  0.00    -0.187 C  
HETATM    6  O   UNL     1      -9.511   2.005  68.086  1.00  0.00    -0.198 OA 
HETATM    7  O   UNL     1      -8.770   3.935  69.024  1.00  0.00    -0.084 OA 
ENDROOT
BRANCH   3   8
HETATM    8  C   UNL     1      -8.714   5.043  66.242  1.00  0.00    -0.117 C  
HETATM    9  O   UNL     1      -7.359   4.609  66.206  1.00  0.00    -0.078 OA 
HETATM   10  H   UNL     1      -6.754   5.275  65.901  1.00  0.00     0.000 HD 
ENDBRANCH   3   8
TORSDOF 1
ENDMDL
MODEL      187
REMARK 921   NORMALIZED FREE ENERGY PREDICTED BY IDOCK:   -1.28 KCAL/MOL
REMARK 922        TOTAL FREE ENERGY PREDICTED BY IDOCK:   -1.37 KCAL/MOL
REMARK 923 INTER-LIGAND FREE ENERGY PREDICTED BY IDOCK:   -1.34 KCAL/MOL
REMARK 924 INTRA-LIGAND FREE ENERGY PREDICTED BY IDOCK:   -0.03 KCAL/MOL
REMARK 927      BINDING AFFINITY PREDICTED BY RF-SCORE:    0.00 PKD
ROOT
HETATM    1  N   UNL     1      -7.302  12.597  69.086  1.00  0.00    -0.317 NA 
HETATM    2  H1  UNL     1      -6.467  12.033  69.249  1.00  0.00     0.000 HD 
HETATM    3  CA  UNL     1      -8.228  11.934  68.108  1.00  0.00    -0.158 C  
HETATM    4  H2  UNL     1      -7.778  12.820  69.959  1.00  0.00     0.000 HD 
HETATM    5  C   UNL     1      -8.565  10.534  68.656  1.00  0.00    -0.139 C  
HETATM    6  O   UNL     1      -7.650  10.152  69.591  1.00  0.00    -0.123 OA 
HETATM    7  O   UNL     1      -9.481   9.816  68.294  1.00  0.00    -0.139 OA 
ENDROOT
BRANCH   3   8
HETATM    8  C   UNL     1      -9.484  12.781  67.862  1.00  0.00    -0.208 C  
HETATM    9  O   UNL     1      -9.727  13.056  66.488  1.00  0.00    -0.255 OA 
HETATM   10  H   UNL     1     -10.505  13.581  66.336  1.00  0.00     0.000 HD 
ENDBRANCH   3   8
TORSDOF 1
ENDMDL
MODEL      188
REMARK 921   NORMALIZED FREE ENERGY PREDICTED BY IDOCK:   -1.27 KCAL/MOL
REMARK 922        TOTAL FREE ENERGY PREDICTED BY IDOCK:   -1.35 KCAL/MOL
REMARK 923 INTER-LIGAND FREE ENERGY PREDICTED BY IDOCK:   -1.15 KCAL/MOL
REMARK 924 INTRA-LIGAND FREE ENERGY PREDICTED BY IDOCK:   -0.21 KCAL/MOL
REMARK 927      BINDING AFFINITY PREDICTED BY RF-SCORE:    0.00 PKD
ROOT
HETATM    1  N   UNL     1      -7.568   2.432  63.147  1.00  0.00    -0.056 NA 
HETATM    2  H1  UNL     1      -7.919   1.532  62.819  1.00  0.00     0.000 HD 
HETATM    3  CA  UNL     1      -8.607   3.507  63.013  1.00  0.00    -0.089 C  
HETATM    4  H2  UNL     1      -7.215   2.370  64.101  1.00  0.00     0.000 HD 
HETATM    5  C   UNL     1      -9.858   3.049  63.788  1.00  0.00    -0.146 C  
HETATM    6  O   UNL     1      -9.825   1.703  63.998  1.00  0.00    -0.134 OA 
HETATM    7  O   UNL     1     -10.791   3.753  64.136  1.00  0.00    -0.285 OA 
ENDROOT
BRANCH   3   8
HETATM    8  C   UNL     1      -8.080   4.861  63.506  1.00  0.00    -0.101 C  
HETATM    9  O   UNL     1      -8.894   5.964  63.125  1.00  0.00    -0.334 OA 
HETATM   10  H   UNL     1      -8.567   6.802  63.430  1.00  0.00     0.000 HD 
ENDBRANCH   3   8
TORSDOF 1
ENDMDL
MODEL      189
REMARK 921   NORMALIZED FREE ENERGY PREDICTED BY IDOCK:   -1.25 KCAL/MOL
REMARK 922        TOTAL FREE ENERGY PREDICTED BY IDOCK:   -1.33 KCAL/MOL
REMARK 923 INTER-LIGAND FREE ENERGY PREDICTED BY IDOCK:   -1.32 KCAL/MOL
REMARK 924 INTRA-LIGAND FREE ENERGY PREDICTED BY IDOCK:   -0.01 KCAL/MOL
REMARK 927      BINDING AFFINITY PREDICTED BY RF-SCORE:    0.00 PKD
ROOT
HETATM    1  N   UNL     1      -8.434  12.333  67.083  1.00  0.00    -0.179 NA 
HETATM    2  H1  UNL     1      -7.813  11.564  67.336  1.00  0.00     0.000 HD 
HETATM    3  CA  UNL     1      -8.044  13.604  67.778  1.00  0.00    -0.173 C  
HETATM    4  H2  UNL     1      -8.480  12.458  66.072  1.00  0.00     0.000 HD 
HETATM    5  C   UNL     1      -6.573  13.899  67.424  1.00  0.00     0.067 C  
HETATM    6  O   UNL     1      -5.956  12.775  66.963  1.00  0.00    -0.307 OA 
HETATM    7  O   UNL     1      -5.994  14.962  67.570  1.00  0.00    -0.320 OA 
ENDROOT
BRANCH   3   8
HETATM    8  C   UNL     1      -8.978  14.761  67.399  1.00  0.00    -0.192 C  
HETATM    9  O   UNL     1     -10.130  14.860  68.227  1.00  0.00    -0.215 OA 
HETATM   10  H   UNL     1     -10.709  15.575  67.991  1.00  0.00     0.000 HD 
ENDBRANCH   3   8
TORSDOF 1
ENDMDL
MODEL      190
REMARK 921   NORMALIZED FREE ENERGY PREDICTED BY IDOCK:   -1.20 KCAL/MOL
REMARK 922        TOTAL FREE ENERGY PREDICTED BY IDOCK:   -1.28 KCAL/MOL
REMARK 923 INTER-LIGAND FREE ENERGY PREDICTED BY IDOCK:   -1.04 KCAL/MOL
REMARK 924 INTRA-LIGAND FREE ENERGY PREDICTED BY IDOCK:   -0.24 KCAL/MOL
REMARK 927      BINDING AFFINITY PREDICTED BY RF-SCORE:    0.00 PKD
ROOT
HETATM    1  N   UNL     1      -7.534   5.267  70.571  1.00  0.00    -0.069 NA 
HETATM    2  H1  UNL     1      -7.455   5.266  69.554  1.00  0.00     0.000 HD 
HETATM    3  CA  UNL     1      -8.511   6.304  71.044  1.00  0.00    -0.128 C  
HETATM    4  H2  UNL     1      -7.769   4.342  70.928  1.00  0.00     0.000 HD 
HETATM    5  C   UNL     1      -9.860   6.026  70.352  1.00  0.00    -0.179 C  
HETATM    6  O   UNL     1      -9.683   5.237  69.255  1.00  0.00    -0.142 OA 
HETATM    7  O   UNL     1     -10.946   6.472  70.680  1.00  0.00    -0.250 OA 
ENDROOT
BRANCH   3   8
HETATM    8  C   UNL     1      -8.630   6.307  72.573  1.00  0.00    -0.120 C  
HETATM    9  O   UNL     1      -9.704   5.512  73.063  1.00  0.00    -0.150 OA 
HETATM   10  H   UNL     1      -9.778   5.514  74.010  1.00  0.00     0.000 HD 
ENDBRANCH   3   8
TORSDOF 1
ENDMDL
MODEL      191
REMARK 921   NORMALIZED FREE ENERGY PREDICTED BY IDOCK:   -1.18 KCAL/MOL
REMARK 922        TOTAL FREE ENERGY PREDICTED BY IDOCK:   -1.26 KCAL/MOL
REMARK 923 INTER-LIGAND FREE ENERGY PREDICTED BY IDOCK:   -1.02 KCAL/MOL
REMARK 924 INTRA-LIGAND FREE ENERGY PREDICTED BY IDOCK:   -0.24 KCAL/MOL
REMARK 927      BINDING AFFINITY PREDICTED BY RF-SCORE:    0.00 PKD
ROOT
HETATM    1  N   UNL     1     -10.414   5.275  70.698  1.00  0.00    -0.257 NA 
HETATM    2  H1  UNL     1     -11.248   5.451  71.259  1.00  0.00     0.000 HD 
HETATM    3  CA  UNL     1      -9.391   6.358  70.882  1.00  0.00    -0.161 C  
HETATM    4  H2  UNL     1     -10.022   4.354  70.890  1.00  0.00     0.000 HD 
HETATM    5  C   UNL     1      -9.074   6.452  72.388  1.00  0.00    -0.137 C  
HETATM    6  O   UNL     1     -10.060   5.864  73.123  1.00  0.00    -0.173 OA 
HETATM    7  O   UNL     1      -8.114   7.009  72.891  1.00  0.00    -0.105 OA 
ENDROOT
BRANCH   3   8
HETATM    8  C   UNL     1      -8.137   6.095  70.038  1.00  0.00    -0.119 C  
HETATM    9  O   UNL     1      -7.174   5.275  70.688  1.00  0.00    -0.064 OA 
HETATM   10  H   UNL     1      -6.397   5.112  70.166  1.00  0.00     0.000 HD 
ENDBRANCH   3   8
TORSDOF 1
ENDMDL
MODEL      192
REMARK 921   NORMALIZED FREE ENERGY PREDICTED BY IDOCK:   -1.16 KCAL/MOL
REMARK 922        TOTAL FREE ENERGY PREDICTED BY IDOCK:   -1.23 KCAL/MOL
REMARK 923 INTER-LIGAND FREE ENERGY PREDICTED BY IDOCK:   -1.02 KCAL/MOL
REMARK 924 INTRA-LIGAND FREE ENERGY PREDICTED BY IDOCK:   -0.21 KCAL/MOL
REMARK 927      BINDING AFFINITY PREDICTED BY RF-SCORE:    0.00 PKD
ROOT
HETATM    1  N   UNL     1      -7.721   3.324  64.235  1.00  0.00    -0.076 NA 
HETATM    2  H1  UNL     1      -7.930   2.961  63.305  1.00  0.00     0.000 HD 
HETATM    3  CA  UNL     1      -8.699   4.387  64.642  1.00  0.00    -0.142 C  
HETATM    4  H2  UNL     1      -7.673   2.575  64.926  1.00  0.00     0.000 HD 
HETATM    5  C   UNL     1     -10.113   3.780  64.555  1.00  0.00    -0.210 C  
HETATM    6  O   UNL     1     -10.109   2.663  63.773  1.00  0.00    -0.146 OA 
HETATM    7  O   UNL     1     -11.127   4.234  65.058  1.00  0.00    -0.226 OA 
ENDROOT
BRANCH   3   8
HETATM    8  C   UNL     1      -8.385   4.933  66.041  1.00  0.00    -0.113 C  
HETATM    9  O   UNL     1      -8.760   4.054  67.094  1.00  0.00    -0.106 OA 
HETATM   10  H   UNL     1      -8.566   4.392  67.960  1.00  0.00     0.000 HD 
ENDBRANCH   3   8
TORSDOF 1
ENDMDL
MODEL      193
REMARK 921   NORMALIZED FREE ENERGY PREDICTED BY IDOCK:   -1.12 KCAL/MOL
REMARK 922        TOTAL FREE ENERGY PREDICTED BY IDOCK:   -1.19 KCAL/MOL
REMARK 923 INTER-LIGAND FREE ENERGY PREDICTED BY IDOCK:   -1.16 KCAL/MOL
REMARK 924 INTRA-LIGAND FREE ENERGY PREDICTED BY IDOCK:   -0.03 KCAL/MOL
REMARK 927      BINDING AFFINITY PREDICTED BY RF-SCORE:    0.00 PKD
ROOT
HETATM    1  N   UNL     1      -9.436   8.385  71.225  1.00  0.00    -0.171 NA 
HETATM    2  H1  UNL     1      -9.179   8.404  72.212  1.00  0.00     0.000 HD 
HETATM    3  CA  UNL     1      -9.316   7.002  70.654  1.00  0.00    -0.162 C  
HETATM    4  H2  UNL     1     -10.367   8.772  71.074  1.00  0.00     0.000 HD 
HETATM    5  C   UNL     1     -10.195   6.066  71.506  1.00  0.00    -0.204 C  
HETATM    6  O   UNL     1     -10.472   6.635  72.713  1.00  0.00    -0.198 OA 
HETATM    7  O   UNL     1     -10.568   4.946  71.199  1.00  0.00    -0.151 OA 
ENDROOT
BRANCH   3   8
HETATM    8  C   UNL     1      -9.702   6.972  69.169  1.00  0.00    -0.156 C  
HETATM    9  O   UNL     1      -8.740   6.329  68.342  1.00  0.00    -0.117 OA 
HETATM   10  H   UNL     1      -8.979   6.311  67.423  1.00  0.00     0.000 HD 
ENDBRANCH   3   8
TORSDOF 1
ENDMDL
MODEL      194
REMARK 921   NORMALIZED FREE ENERGY PREDICTED BY IDOCK:   -1.11 KCAL/MOL
REMARK 922        TOTAL FREE ENERGY PREDICTED BY IDOCK:   -1.18 KCAL/MOL
REMARK 923 INTER-LIGAND FREE ENERGY PREDICTED BY IDOCK:   -0.96 KCAL/MOL
REMARK 924 INTRA-LIGAND FREE ENERGY PREDICTED BY IDOCK:   -0.23 KCAL/MOL
REMARK 927      BINDING AFFINITY PREDICTED BY RF-SCORE:    0.00 PKD
ROOT
HETATM    1  N   UNL     1     -10.424   6.866  68.744  1.00  0.00    -0.196 NA 
HETATM    2  H1  UNL     1     -10.183   6.795  67.756  1.00  0.00     0.000 HD 
HETATM    3  CA  UNL     1      -9.585   5.944  69.581  1.00  0.00    -0.148 C  
HETATM    4  H2  UNL     1     -10.365   7.829  69.075  1.00  0.00     0.000 HD 
HETATM    5  C   UNL     1      -8.106   6.285  69.313  1.00  0.00    -0.110 C  
HETATM    6  O   UNL     1      -7.978   6.984  68.150  1.00  0.00    -0.115 OA 
HETATM    7  O   UNL     1      -7.152   5.951  69.994  1.00  0.00    -0.066 OA 
ENDROOT
BRANCH   3   8
HETATM    8  C   UNL     1      -9.946   6.051  71.068  1.00  0.00    -0.187 C  
HETATM    9  O   UNL     1      -9.235   5.138  71.896  1.00  0.00    -0.136 OA 
HETATM   10  H   UNL     1      -9.460   5.204  72.816  1.00  0.00     0.000 HD 
ENDBRANCH   3   8
TORSDOF 1
ENDMDL
MODEL      195
REMARK 921   NORMALIZED FREE ENERGY PREDICTED BY IDOCK:   -1.02 KCAL/MOL
REMARK 922        TOTAL FREE ENERGY PREDICTED BY IDOCK:   -1.08 KCAL/MOL
REMARK 923 INTER-LIGAND FREE ENERGY PREDICTED BY IDOCK:   -1.04 KCAL/MOL
REMARK 924 INTRA-LIGAND FREE ENERGY PREDICTED BY IDOCK:   -0.04 KCAL/MOL
REMARK 927      BINDING AFFINITY PREDICTED BY RF-SCORE:    0.00 PKD
ROOT
HETATM    1  N   UNL     1      -6.992   2.862  66.125  1.00  0.00    -0.055 NA 
HETATM    2  H1  UNL     1      -6.264   3.274  65.541  1.00  0.00     0.000 HD 
HETATM    3  CA  UNL     1      -7.836   3.919  66.777  1.00  0.00    -0.089 C  
HETATM    4  H2  UNL     1      -7.563   2.200  65.599  1.00  0.00     0.000 HD 
HETATM    5  C   UNL     1      -8.415   4.810  65.661  1.00  0.00    -0.121 C  
HETATM    6  O   UNL     1      -7.701   4.662  64.510  1.00  0.00    -0.078 OA 
HETATM    7  O   UNL     1      -9.347   5.589  65.768  1.00  0.00    -0.156 OA 
ENDROOT
BRANCH   3   8
HETATM    8  C   UNL     1      -8.931   3.299  67.655  1.00  0.00    -0.151 C  
HETATM    9  O   UNL     1      -9.658   2.259  67.012  1.00  0.00    -0.393 OA 
HETATM   10  H   UNL     1     -10.337   1.876  67.555  1.00  0.00     0.000 HD 
ENDBRANCH   3   8
TORSDOF 1
ENDMDL
MODEL      196
REMARK 921   NORMALIZED FREE ENERGY PREDICTED BY IDOCK:   -1.00 KCAL/MOL
REMARK 922        TOTAL FREE ENERGY PREDICTED BY IDOCK:   -1.07 KCAL/MOL
REMARK 923 INTER-LIGAND FREE ENERGY PREDICTED BY IDOCK:   -0.85 KCAL/MOL
REMARK 924 INTRA-LIGAND FREE ENERGY PREDICTED BY IDOCK:   -0.22 KCAL/MOL
REMARK 927      BINDING AFFINITY PREDICTED BY RF-SCORE:    0.00 PKD
ROOT
HETATM    1  N   UNL     1     -10.422   8.431  70.703  1.00  0.00    -0.197 NA 
HETATM    2  H1  UNL     1     -10.822   8.813  69.847  1.00  0.00     0.000 HD 
HETATM    3  CA  UNL     1      -9.144   7.692  70.429  1.00  0.00    -0.152 C  
HETATM    4  H2  UNL     1     -10.291   9.154  71.409  1.00  0.00     0.000 HD 
HETATM    5  C   UNL     1      -8.184   8.664  69.717  1.00  0.00    -0.121 C  
HETATM    6  O   UNL     1      -8.871   9.715  69.187  1.00  0.00    -0.140 OA 
HETATM    7  O   UNL     1      -6.981   8.523  69.581  1.00  0.00    -0.046 OA 
ENDROOT
BRANCH   3   8
HETATM    8  C   UNL     1      -8.542   7.116  71.717  1.00  0.00    -0.117 C  
HETATM    9  O   UNL     1      -7.264   6.519  71.532  1.00  0.00    -0.079 OA 
HETATM   10  H   UNL     1      -6.891   6.162  72.329  1.00  0.00     0.000 HD 
ENDBRANCH   3   8
TORSDOF 1
ENDMDL
MODEL      197
REMARK 921   NORMALIZED FREE ENERGY PREDICTED BY IDOCK:   -1.00 KCAL/MOL
REMARK 922        TOTAL FREE ENERGY PREDICTED BY IDOCK:   -1.06 KCAL/MOL
REMARK 923 INTER-LIGAND FREE ENERGY PREDICTED BY IDOCK:   -0.83 KCAL/MOL
REMARK 924 INTRA-LIGAND FREE ENERGY PREDICTED BY IDOCK:   -0.24 KCAL/MOL
REMARK 927      BINDING AFFINITY PREDICTED BY RF-SCORE:    0.00 PKD
ROOT
HETATM    1  N   UNL     1      -7.705   7.319  63.103  1.00  0.00    -0.116 NA 
HETATM    2  H1  UNL     1      -6.980   8.035  63.159  1.00  0.00     0.000 HD 
HETATM    3  CA  UNL     1      -7.313   6.082  63.857  1.00  0.00    -0.066 C  
HETATM    4  H2  UNL     1      -8.608   7.677  63.416  1.00  0.00     0.000 HD 
HETATM    5  C   UNL     1      -7.009   6.496  65.310  1.00  0.00    -0.052 C  
HETATM    6  O   UNL     1      -6.778   7.836  65.389  1.00  0.00    -0.044 OA 
HETATM    7  O   UNL     1      -6.926   5.751  66.272  1.00  0.00    -0.057 OA 
ENDROOT
BRANCH   3   8
HETATM    8  C   UNL     1      -8.403   5.005  63.774  1.00  0.00    -0.132 C  
HETATM    9  O   UNL     1      -9.445   5.173  64.728  1.00  0.00    -0.359 OA 
HETATM   10  H   UNL     1     -10.120   4.506  64.677  1.00  0.00     0.000 HD 
ENDBRANCH   3   8
TORSDOF 1
ENDMDL
MODEL      198
REMARK 921   NORMALIZED FREE ENERGY PREDICTED BY IDOCK:   -0.99 KCAL/MOL
REMARK 922        TOTAL FREE ENERGY PREDICTED BY IDOCK:   -1.05 KCAL/MOL
REMARK 923 INTER-LIGAND FREE ENERGY PREDICTED BY IDOCK:   -0.87 KCAL/MOL
REMARK 924 INTRA-LIGAND FREE ENERGY PREDICTED BY IDOCK:   -0.19 KCAL/MOL
REMARK 927      BINDING AFFINITY PREDICTED BY RF-SCORE:    0.00 PKD
ROOT
HETATM    1  N   UNL     1      -6.646   8.854  72.878  1.00  0.00    -0.314 NA 
HETATM    2  H1  UNL     1      -6.359   8.238  73.639  1.00  0.00     0.000 HD 
HETATM    3  CA  UNL     1      -6.808   8.096  71.592  1.00  0.00    -0.063 C  
HETATM    4  H2  UNL     1      -7.492   9.372  73.115  1.00  0.00     0.000 HD 
HETATM    5  C   UNL     1      -7.820   6.962  71.841  1.00  0.00    -0.095 C  
HETATM    6  O   UNL     1      -7.947   6.716  73.175  1.00  0.00    -0.104 OA 
HETATM    7  O   UNL     1      -8.407   6.316  70.989  1.00  0.00    -0.121 OA 
ENDROOT
BRANCH   3   8
HETATM    8  C   UNL     1      -7.239   9.021  70.446  1.00  0.00    -0.069 C  
HETATM    9  O   UNL     1      -7.728   8.327  69.305  1.00  0.00    -0.098 OA 
HETATM   10  H   UNL     1      -7.994   8.899  68.595  1.00  0.00     0.000 HD 
ENDBRANCH   3   8
TORSDOF 1
ENDMDL
MODEL      199
REMARK 921   NORMALIZED FREE ENERGY PREDICTED BY IDOCK:   -0.97 KCAL/MOL
REMARK 922        TOTAL FREE ENERGY PREDICTED BY IDOCK:   -1.03 KCAL/MOL
REMARK 923 INTER-LIGAND FREE ENERGY PREDICTED BY IDOCK:   -0.99 KCAL/MOL
REMARK 924 INTRA-LIGAND FREE ENERGY PREDICTED BY IDOCK:   -0.04 KCAL/MOL
REMARK 927      BINDING AFFINITY PREDICTED BY RF-SCORE:    0.00 PKD
ROOT
HETATM    1  N   UNL     1      -8.069   2.618  69.291  1.00  0.00    -0.048 NA 
HETATM    2  H1  UNL     1      -7.720   3.091  68.457  1.00  0.00     0.000 HD 
HETATM    3  CA  UNL     1      -8.595   3.599  70.298  1.00  0.00    -0.061 C  
HETATM    4  H2  UNL     1      -8.767   1.913  69.056  1.00  0.00     0.000 HD 
HETATM    5  C   UNL     1      -9.683   4.443  69.606  1.00  0.00    -0.219 C  
HETATM    6  O   UNL     1      -9.566   4.358  68.251  1.00  0.00    -0.147 OA 
HETATM    7  O   UNL     1     -10.516   5.142  70.157  1.00  0.00    -0.286 OA 
ENDROOT
BRANCH   3   8
HETATM    8  C   UNL     1      -9.119   2.889  71.553  1.00  0.00    -0.103 C  
HETATM    9  O   UNL     1      -9.931   1.755  71.270  1.00  0.00    -0.129 OA 
HETATM   10  H   UNL     1     -10.256   1.316  72.047  1.00  0.00     0.000 HD 
ENDBRANCH   3   8
TORSDOF 1
ENDMDL
MODEL      200
REMARK 921   NORMALIZED FREE ENERGY PREDICTED BY IDOCK:   -0.87 KCAL/MOL
REMARK 922        TOTAL FREE ENERGY PREDICTED BY IDOCK:   -0.92 KCAL/MOL
REMARK 923 INTER-LIGAND FREE ENERGY PREDICTED BY IDOCK:   -0.68 KCAL/MOL
REMARK 924 INTRA-LIGAND FREE ENERGY PREDICTED BY IDOCK:   -0.24 KCAL/MOL
REMARK 927      BINDING AFFINITY PREDICTED BY RF-SCORE:    0.00 PKD
ROOT
HETATM    1  N   UNL     1      -7.943   2.929  69.789  1.00  0.00    -0.042 NA 
HETATM    2  H1  UNL     1      -7.563   2.430  68.985  1.00  0.00     0.000 HD 
HETATM    3  CA  UNL     1      -7.755   4.412  69.653  1.00  0.00    -0.054 C  
HETATM    4  H2  UNL     1      -8.921   2.689  69.949  1.00  0.00     0.000 HD 
HETATM    5  C   UNL     1      -8.414   4.848  68.329  1.00  0.00    -0.098 C  
HETATM    6  O   UNL     1      -8.589   3.777  67.505  1.00  0.00    -0.097 OA 
HETATM    7  O   UNL     1      -8.704   5.987  68.007  1.00  0.00    -0.114 OA 
ENDROOT
BRANCH   3   8
HETATM    8  C   UNL     1      -8.327   5.164  70.862  1.00  0.00    -0.114 C  
HETATM    9  O   UNL     1      -9.693   5.533  70.712  1.00  0.00    -0.164 OA 
HETATM   10  H   UNL     1     -10.046   5.998  71.461  1.00  0.00     0.000 HD 
ENDBRANCH   3   8
TORSDOF 1
ENDMDL
MODEL      201
REMARK 921   NORMALIZED FREE ENERGY PREDICTED BY IDOCK:   -0.85 KCAL/MOL
REMARK 922        TOTAL FREE ENERGY PREDICTED BY IDOCK:   -0.90 KCAL/MOL
REMARK 923 INTER-LIGAND FREE ENERGY PREDICTED BY IDOCK:   -0.69 KCAL/MOL
REMARK 924 INTRA-LIGAND FREE ENERGY PREDICTED BY IDOCK:   -0.21 KCAL/MOL
REMARK 927      BINDING AFFINITY PREDICTED BY RF-SCORE:    0.00 PKD
ROOT
HETATM    1  N   UNL     1      -9.785   5.283  66.398  1.00  0.00    -0.158 NA 
HETATM    2  H1  UNL     1     -10.179   6.212  66.548  1.00  0.00     0.000 HD 
HETATM    3  CA  UNL     1      -8.312   5.260  66.689  1.00  0.00    -0.108 C  
HETATM    4  H2  UNL     1     -10.283   4.575  66.937  1.00  0.00     0.000 HD 
HETATM    5  C   UNL     1      -8.112   5.756  68.135  1.00  0.00    -0.104 C  
HETATM    6  O   UNL     1      -9.211   6.437  68.564  1.00  0.00    -0.126 OA 
HETATM    7  O   UNL     1      -7.108   5.621  68.813  1.00  0.00    -0.068 OA 
ENDROOT
BRANCH   3   8
HETATM    8  C   UNL     1      -7.717   3.864  66.465  1.00  0.00    -0.089 C  
HETATM    9  O   UNL     1      -6.295   3.842  66.462  1.00  0.00    -0.034 OA 
HETATM   10  H   UNL     1      -5.927   2.978  66.323  1.00  0.00     0.000 HD 
ENDBRANCH   3   8
TORSDOF 1
ENDMDL
MODEL      202
REMARK 921   NORMALIZED FREE ENERGY PREDICTED BY IDOCK:   -0.82 KCAL/MOL
REMARK 922        TOTAL FREE ENERGY PREDICTED BY IDOCK:   -0.88 KCAL/MOL
REMARK 923 INTER-LIGAND FREE ENERGY PREDICTED BY IDOCK:   -0.66 KCAL/MOL
REMARK 924 INTRA-LIGAND FREE ENERGY PREDICTED BY IDOCK:   -0.22 KCAL/MOL
REMARK 927      BINDING AFFINITY PREDICTED BY RF-SCORE:    0.00 PKD
ROOT
HETATM    1  N   UNL     1      -8.289   6.394  66.773  1.00  0.00    -0.110 NA 
HETATM    2  H1  UNL     1      -8.966   6.254  67.523  1.00  0.00     0.000 HD 
HETATM    3  CA  UNL     1      -8.102   7.853  66.469  1.00  0.00    -0.107 C  
HETATM    4  H2  UNL     1      -7.400   5.940  66.984  1.00  0.00     0.000 HD 
HETATM    5  C   UNL     1      -7.684   8.554  67.776  1.00  0.00    -0.103 C  
HETATM    6  O   UNL     1      -8.000   7.785  68.856  1.00  0.00    -0.119 OA 
HETATM    7  O   UNL     1      -7.185   9.662  67.874  1.00  0.00    -0.080 OA 
ENDROOT
BRANCH   3   8
HETATM    8  C   UNL     1      -7.082   8.064  65.342  1.00  0.00    -0.060 C  
HETATM    9  O   UNL     1      -6.786   9.433  65.090  1.00  0.00    -0.080 OA 
HETATM   10  H   UNL     1      -6.155   9.564  64.392  1.00  0.00     0.000 HD 
ENDBRANCH   3   8
TORSDOF 1
ENDMDL
MODEL      203
REMARK 921   NORMALIZED FREE ENERGY PREDICTED BY IDOCK:   -0.65 KCAL/MOL
REMARK 922        TOTAL FREE ENERGY PREDICTED BY IDOCK:   -0.69 KCAL/MOL
REMARK 923 INTER-LIGAND FREE ENERGY PREDICTED BY IDOCK:   -0.68 KCAL/MOL
REMARK 924 INTRA-LIGAND FREE ENERGY PREDICTED BY IDOCK:   -0.02 KCAL/MOL
REMARK 927      BINDING AFFINITY PREDICTED BY RF-SCORE:    0.00 PKD
ROOT
HETATM    1  N   UNL     1      -8.793   2.772  66.243  1.00  0.00    -0.139 NA 
HETATM    2  H1  UNL     1      -8.592   1.943  65.684  1.00  0.00     0.000 HD 
HETATM    3  CA  UNL     1      -7.792   3.861  65.989  1.00  0.00    -0.090 C  
HETATM    4  H2  UNL     1      -9.748   3.099  66.094  1.00  0.00     0.000 HD 
HETATM    5  C   UNL     1      -7.797   4.159  64.477  1.00  0.00    -0.085 C  
HETATM    6  O   UNL     1      -8.354   3.124  63.786  1.00  0.00    -0.085 OA 
HETATM    7  O   UNL     1      -7.331   5.146  63.933  1.00  0.00    -0.049 OA 
ENDROOT
BRANCH   3   8
HETATM    8  C   UNL     1      -8.096   5.109  66.829  1.00  0.00    -0.108 C  
HETATM    9  O   UNL     1      -9.441   5.175  67.287  1.00  0.00    -0.121 OA 
HETATM   10  H   UNL     1      -9.629   5.948  67.807  1.00  0.00     0.000 HD 
ENDBRANCH   3   8
TORSDOF 1
ENDMDL
MODEL      204
REMARK 921   NORMALIZED FREE ENERGY PREDICTED BY IDOCK:   -0.38 KCAL/MOL
REMARK 922        TOTAL FREE ENERGY PREDICTED BY IDOCK:   -0.40 KCAL/MOL
REMARK 923 INTER-LIGAND FREE ENERGY PREDICTED BY IDOCK:   -0.20 KCAL/MOL
REMARK 924 INTRA-LIGAND FREE ENERGY PREDICTED BY IDOCK:   -0.21 KCAL/MOL
REMARK 927      BINDING AFFINITY PREDICTED BY RF-SCORE:    0.00 PKD
ROOT
HETATM    1  N   UNL     1      -5.238   8.092  73.217  1.00  0.00    -0.040 NA 
HETATM    2  H1  UNL     1      -4.780   7.181  73.263  1.00  0.00     0.000 HD 
HETATM    3  CA  UNL     1      -5.280   8.614  71.810  1.00  0.00    -0.037 C  
HETATM    4  H2  UNL     1      -6.169   8.062  73.632  1.00  0.00     0.000 HD 
HETATM    5  C   UNL     1      -5.987   7.558  70.939  1.00  0.00    -0.035 C  
HETATM    6  O   UNL     1      -5.989   6.346  71.562  1.00  0.00    -0.034 OA 
HETATM    7  O   UNL     1      -6.448   7.731  69.823  1.00  0.00    -0.034 OA 
ENDROOT
BRANCH   3   8
HETATM    8  C   UNL     1      -5.969   9.983  71.740  1.00  0.00     0.288 C  
HETATM    9  O   UNL     1      -7.278   9.935  71.186  1.00  0.00    -0.305 OA 
HETATM   10  H   UNL     1      -7.705  10.783  71.143  1.00  0.00     0.000 HD 
ENDBRANCH   3   8
TORSDOF 1
ENDMDL
MODEL      205
REMARK 921   NORMALIZED FREE ENERGY PREDICTED BY IDOCK:   13.94 KCAL/MOL
REMARK 922        TOTAL FREE ENERGY PREDICTED BY IDOCK:   14.75 KCAL/MOL
REMARK 923 INTER-LIGAND FREE ENERGY PREDICTED BY IDOCK:   14.80 KCAL/MOL
REMARK 924 INTRA-LIGAND FREE ENERGY PREDICTED BY IDOCK:   -0.05 KCAL/MOL
REMARK 927      BINDING AFFINITY PREDICTED BY RF-SCORE:    0.00 PKD
ROOT
HETATM    1  N   UNL     1      -7.210   9.846  72.315  1.00  0.00     1.164 NA 
HETATM    2  H1  UNL     1      -8.172   9.512  72.359  1.00  0.00     0.000 HD 
HETATM    3  CA  UNL     1      -6.888  10.417  70.964  1.00  0.00     0.689 C  
HETATM    4  H2  UNL     1      -7.012  10.514  73.060  1.00  0.00     0.000 HD 
HETATM    5  C   UNL     1      -7.909  11.533  70.672  1.00  0.00     4.039 C  
HETATM    6  O   UNL     1      -9.003  11.405  71.475  1.00  0.00     8.361 OA 
HETATM    7  O   UNL     1      -7.811  12.397  69.817  1.00  0.00     0.979 OA 
ENDROOT
BRANCH   3   8
HETATM    8  C   UNL     1      -5.439  10.919  70.898  1.00  0.00    -0.108 C  
HETATM    9  O   UNL     1      -5.133  11.906  71.877  1.00  0.00    -0.320 OA 
HETATM   10  H   UNL     1      -4.236  12.217  71.835  1.00  0.00     0.000 HD 
ENDBRANCH   3   8
TORSDOF 1
ENDMDL
