MODEL        1
REMARK 921   NORMALIZED FREE ENERGY PREDICTED BY IDOCK:   -6.39 KCAL/MOL
REMARK 922        TOTAL FREE ENERGY PREDICTED BY IDOCK:  -16.31 KCAL/MOL
REMARK 923 INTER-LIGAND FREE ENERGY PREDICTED BY IDOCK:  -13.10 KCAL/MOL
REMARK 924 INTRA-LIGAND FREE ENERGY PREDICTED BY IDOCK:   -3.21 KCAL/MOL
REMARK 927      BINDING AFFINITY PREDICTED BY RF-SCORE:    0.00 PKD
ROOT
HETATM    1  C   UNL     1     -12.334  15.891  71.903  1.00  0.00    -0.541 C  
HETATM    2  C   UNL     1     -13.650  15.173  72.150  1.00  0.00    -0.558 C  
ENDROOT
BRANCH   2   3
HETATM    3  C   UNL     1     -13.467  13.674  71.976  1.00  0.00    -0.573 C  
BRANCH   3   4
HETATM    4  C   UNL     1     -12.479  13.339  70.866  1.00  0.00    -0.424 C  
BRANCH   4   5
HETATM    5  C   UNL     1     -12.444  11.828  70.693  1.00  0.00    -0.364 C  
BRANCH   5   6
HETATM    6  C   UNL     1     -13.114  11.101  71.833  1.00  0.00    -0.408 C  
BRANCH   6   7
HETATM    7  O   UNL     1     -12.512   9.800  71.932  1.00  0.00    -0.381 OA 
BRANCH   7   8
HETATM    8  C   UNL     1     -13.346   8.798  72.322  1.00  0.00    -0.419 C  
HETATM    9  N   UNL     1     -12.966   7.568  71.876  1.00  0.00    -0.459 N  
HETATM   10  O   UNL     1     -14.350   8.983  73.002  1.00  0.00    -0.462 OA 
HETATM   11  H   UNL     1     -13.660   6.972  71.424  1.00  0.00     0.000 HD 
BRANCH   9  12
HETATM   12  C   UNL     1     -11.747   7.126  72.005  1.00  0.00    -0.289 C  
HETATM   13  H1  UNL     1     -10.296   6.802  73.384  1.00  0.00     0.000 HD 
HETATM   14  N   UNL     1     -11.250   7.148  73.283  1.00  0.00    -0.567 NA 
HETATM   15  H2  UNL     1     -11.795   7.487  74.076  1.00  0.00     0.000 HD 
BRANCH  12  16
HETATM   16  C   UNL     1     -10.892   6.551  70.920  1.00  0.00    -0.302 A  
HETATM   17  C   UNL     1      -9.519   6.360  71.089  1.00  0.00    -0.177 A  
HETATM   18  C   UNL     1      -8.700   6.250  69.961  1.00  0.00    -0.141 A  
HETATM   19  C   UNL     1      -9.247   6.212  68.671  1.00  0.00    -0.123 A  
HETATM   20  C   UNL     1     -10.637   6.229  68.538  1.00  0.00    -0.315 A  
HETATM   21  C   UNL     1     -11.459   6.409  69.650  1.00  0.00    -0.446 A  
BRANCH  19  22
HETATM   22  N   UNL     1      -8.377   6.406  67.582  1.00  0.00    -0.117 NA 
HETATM   23  H   UNL     1      -8.297   5.717  66.835  1.00  0.00     0.000 HD 
BRANCH  22  24
HETATM   24  C   UNL     1      -7.594   7.640  67.569  1.00  0.00    -0.109 C  
BRANCH  24  25
HETATM   25  C   UNL     1      -8.329   8.958  67.419  1.00  0.00    -0.108 A  
HETATM   26  N   UNL     1      -8.718   9.811  68.359  1.00  0.00    -0.119 NA 
HETATM   27  C   UNL     1      -9.280  10.895  67.698  1.00  0.00    -0.152 A  
HETATM   28  C   UNL     1      -9.222  10.690  66.323  1.00  0.00    -0.170 A  
HETATM   29  N   UNL     1      -8.676   9.437  66.175  1.00  0.00    -0.142 NA 
HETATM   30  C   UNL     1      -9.641  11.647  65.398  1.00  0.00    -0.228 A  
HETATM   31  C   UNL     1     -10.168  12.842  65.900  1.00  0.00    -0.299 A  
HETATM   32  C   UNL     1      -8.464   8.742  64.925  1.00  0.00    -0.171 C  
HETATM   33  C   UNL     1     -10.329  13.070  67.275  1.00  0.00    -0.238 A  
HETATM   34  C   UNL     1      -9.851  12.103  68.192  1.00  0.00    -0.207 A  
BRANCH  33  35
HETATM   35  C   UNL     1     -10.971  14.396  67.632  1.00  0.00    -0.286 C  
HETATM   36  N   UNL     1     -10.234  15.472  68.151  1.00  0.00    -0.225 N  
HETATM   37  O   UNL     1     -12.196  14.467  67.498  1.00  0.00    -0.342 OA 
BRANCH  36  38
HETATM   38  C   UNL     1      -8.834  15.439  68.257  1.00  0.00    -0.176 A  
HETATM   39  C   UNL     1      -6.117  15.227  68.445  1.00  0.00    -0.105 A  
HETATM   40  N   UNL     1      -8.105  15.533  67.120  1.00  0.00    -0.197 NA 
HETATM   41  C   UNL     1      -6.883  15.186  69.602  1.00  0.00    -0.188 A  
HETATM   42  C   UNL     1      -6.765  15.406  67.236  1.00  0.00    -0.061 A  
HETATM   43  C   UNL     1      -8.258  15.294  69.513  1.00  0.00    -0.188 A  
ENDBRANCH  36  38
BRANCH  36  44
HETATM   44  C   UNL     1     -10.845  16.801  68.326  1.00  0.00    -0.366 C  
BRANCH  44  45
HETATM   45  C   UNL     1     -10.641  17.842  67.216  1.00  0.00    -0.341 C  
BRANCH  45  46
HETATM   46  C   UNL     1      -9.505  18.845  67.330  1.00  0.00    -0.301 C  
HETATM   47  O   UNL     1      -9.263  19.579  68.274  1.00  0.00    -0.331 OA 
BRANCH  46  48
HETATM   48  O   UNL     1      -8.795  18.802  66.154  1.00  0.00    -0.440 OA 
BRANCH  48  49
HETATM   49  C   UNL     1      -7.357  18.868  66.188  1.00  0.00    -0.266 C  
HETATM   50  C   UNL     1      -6.879  20.308  66.164  1.00  0.00    -0.282 C  
ENDBRANCH  48  49
ENDBRANCH  46  48
ENDBRANCH  45  46
ENDBRANCH  44  45
ENDBRANCH  36  44
ENDBRANCH  33  35
ENDBRANCH  24  25
ENDBRANCH  22  24
ENDBRANCH  19  22
ENDBRANCH  12  16
ENDBRANCH   9  12
ENDBRANCH   7   8
ENDBRANCH   6   7
ENDBRANCH   5   6
ENDBRANCH   4   5
ENDBRANCH   3   4
ENDBRANCH   2   3
TORSDOF 18
ENDMDL
MODEL        2
REMARK 921   NORMALIZED FREE ENERGY PREDICTED BY IDOCK:   -6.36 KCAL/MOL
REMARK 922        TOTAL FREE ENERGY PREDICTED BY IDOCK:  -16.25 KCAL/MOL
REMARK 923 INTER-LIGAND FREE ENERGY PREDICTED BY IDOCK:  -11.51 KCAL/MOL
REMARK 924 INTRA-LIGAND FREE ENERGY PREDICTED BY IDOCK:   -4.74 KCAL/MOL
REMARK 927      BINDING AFFINITY PREDICTED BY RF-SCORE:    0.00 PKD
ROOT
HETATM    1  C   UNL     1      -7.468   9.749  70.316  1.00  0.00    -0.173 C  
HETATM    2  C   UNL     1      -8.875   9.988  69.796  1.00  0.00    -0.205 C  
ENDROOT
BRANCH   2   3
HETATM    3  C   UNL     1      -8.904   9.842  68.283  1.00  0.00    -0.119 C  
BRANCH   3   4
HETATM    4  C   UNL     1     -10.144   9.100  67.800  1.00  0.00    -0.253 C  
BRANCH   4   5
HETATM    5  C   UNL     1      -9.825   8.451  66.462  1.00  0.00    -0.338 C  
BRANCH   5   6
HETATM    6  C   UNL     1      -8.503   7.722  66.475  1.00  0.00    -0.132 C  
BRANCH   6   7
HETATM    7  O   UNL     1      -8.693   6.490  67.189  1.00  0.00    -0.111 OA 
BRANCH   7   8
HETATM    8  C   UNL     1      -7.716   6.176  68.083  1.00  0.00    -0.103 C  
HETATM    9  N   UNL     1      -8.107   6.299  69.383  1.00  0.00    -0.112 N  
HETATM   10  O   UNL     1      -6.588   5.824  67.753  1.00  0.00    -0.049 OA 
HETATM   11  H   UNL     1      -7.509   6.814  70.030  1.00  0.00     0.000 HD 
BRANCH   9  12
HETATM   12  C   UNL     1      -9.217   5.782  69.829  1.00  0.00    -0.140 C  
HETATM   13  H1  UNL     1     -10.309   4.074  69.818  1.00  0.00     0.000 HD 
HETATM   14  N   UNL     1      -9.441   4.478  69.469  1.00  0.00    -0.156 NA 
HETATM   15  H2  UNL     1      -8.786   3.950  68.892  1.00  0.00     0.000 HD 
BRANCH  12  16
HETATM   16  C   UNL     1     -10.208   6.451  70.730  1.00  0.00    -0.228 A  
HETATM   17  C   UNL     1     -11.548   6.598  70.368  1.00  0.00    -0.457 A  
HETATM   18  C   UNL     1     -12.323   7.578  70.995  1.00  0.00    -0.265 A  
HETATM   19  C   UNL     1     -11.810   8.334  72.058  1.00  0.00    -0.347 A  
HETATM   20  C   UNL     1     -10.522   8.047  72.517  1.00  0.00    -0.383 A  
HETATM   21  C   UNL     1      -9.718   7.121  71.855  1.00  0.00    -0.169 A  
BRANCH  19  22
HETATM   22  N   UNL     1     -12.512   9.492  72.440  1.00  0.00    -0.221 NA 
HETATM   23  H   UNL     1     -12.484   9.839  73.399  1.00  0.00     0.000 HD 
BRANCH  22  24
HETATM   24  C   UNL     1     -13.282  10.175  71.403  1.00  0.00    -0.380 C  
BRANCH  24  25
HETATM   25  C   UNL     1     -12.676  11.400  70.745  1.00  0.00    -0.253 A  
HETATM   26  N   UNL     1     -11.919  11.478  69.657  1.00  0.00    -0.332 NA 
HETATM   27  C   UNL     1     -11.688  12.829  69.434  1.00  0.00    -0.319 A  
HETATM   28  C   UNL     1     -12.328  13.584  70.414  1.00  0.00    -0.327 A  
HETATM   29  N   UNL     1     -12.889  12.659  71.262  1.00  0.00    -0.319 NA 
HETATM   30  C   UNL     1     -12.338  14.979  70.405  1.00  0.00    -0.401 A  
HETATM   31  C   UNL     1     -11.643  15.623  69.375  1.00  0.00    -0.378 A  
HETATM   32  C   UNL     1     -13.616  12.950  72.478  1.00  0.00    -0.358 C  
HETATM   33  C   UNL     1     -10.911  14.916  68.409  1.00  0.00    -0.266 A  
HETATM   34  C   UNL     1     -10.957  13.501  68.414  1.00  0.00    -0.289 A  
BRANCH  33  35
HETATM   35  C   UNL     1     -10.173  15.781  67.407  1.00  0.00    -0.270 C  
HETATM   36  N   UNL     1      -8.772  15.831  67.348  1.00  0.00    -0.178 N  
HETATM   37  O   UNL     1     -10.869  16.491  66.676  1.00  0.00    -0.206 OA 
BRANCH  36  38
HETATM   38  C   UNL     1      -7.958  14.991  68.124  1.00  0.00    -0.131 A  
HETATM   39  C   UNL     1      -6.254  13.430  69.582  1.00  0.00    -0.120 A  
HETATM   40  N   UNL     1      -7.634  15.393  69.375  1.00  0.00    -0.213 NA 
HETATM   41  C   UNL     1      -6.642  13.012  68.316  1.00  0.00    -0.094 A  
HETATM   42  C   UNL     1      -6.775  14.615  70.069  1.00  0.00    -0.135 A  
HETATM   43  C   UNL     1      -7.505  13.797  67.574  1.00  0.00    -0.182 A  
ENDBRANCH  36  38
BRANCH  36  44
HETATM   44  C   UNL     1      -8.079  16.541  66.257  1.00  0.00    -0.306 C  
BRANCH  44  45
HETATM   45  C   UNL     1      -7.116  17.677  66.632  1.00  0.00    -0.258 C  
BRANCH  45  46
HETATM   46  C   UNL     1      -7.563  19.120  66.472  1.00  0.00    -0.251 C  
HETATM   47  O   UNL     1      -7.706  19.735  65.428  1.00  0.00    -0.372 OA 
BRANCH  46  48
HETATM   48  O   UNL     1      -7.757  19.635  67.730  1.00  0.00    -0.270 OA 
BRANCH  48  49
HETATM   49  C   UNL     1      -8.913  19.238  68.492  1.00  0.00    -0.369 C  
HETATM   50  C   UNL     1     -10.189  19.741  67.843  1.00  0.00    -0.576 C  
ENDBRANCH  48  49
ENDBRANCH  46  48
ENDBRANCH  45  46
ENDBRANCH  44  45
ENDBRANCH  36  44
ENDBRANCH  33  35
ENDBRANCH  24  25
ENDBRANCH  22  24
ENDBRANCH  19  22
ENDBRANCH  12  16
ENDBRANCH   9  12
ENDBRANCH   7   8
ENDBRANCH   6   7
ENDBRANCH   5   6
ENDBRANCH   4   5
ENDBRANCH   3   4
ENDBRANCH   2   3
TORSDOF 18
ENDMDL
MODEL        3
REMARK 921   NORMALIZED FREE ENERGY PREDICTED BY IDOCK:   -6.34 KCAL/MOL
REMARK 922        TOTAL FREE ENERGY PREDICTED BY IDOCK:  -16.23 KCAL/MOL
REMARK 923 INTER-LIGAND FREE ENERGY PREDICTED BY IDOCK:  -13.70 KCAL/MOL
REMARK 924 INTRA-LIGAND FREE ENERGY PREDICTED BY IDOCK:   -2.53 KCAL/MOL
REMARK 927      BINDING AFFINITY PREDICTED BY RF-SCORE:    0.00 PKD
ROOT
HETATM    1  C   UNL     1     -13.440  15.198  72.032  1.00  0.00    -0.520 C  
HETATM    2  C   UNL     1     -13.346  13.699  72.266  1.00  0.00    -0.622 C  
ENDROOT
BRANCH   2   3
HETATM    3  C   UNL     1     -12.772  13.014  71.037  1.00  0.00    -0.347 C  
BRANCH   3   4
HETATM    4  C   UNL     1     -12.772  11.496  71.172  1.00  0.00    -0.458 C  
BRANCH   4   5
HETATM    5  C   UNL     1     -12.051  10.907  69.968  1.00  0.00    -0.433 C  
BRANCH   5   6
HETATM    6  C   UNL     1     -10.855  10.076  70.361  1.00  0.00    -0.318 C  
BRANCH   6   7
HETATM    7  O   UNL     1     -11.135   9.491  71.644  1.00  0.00    -0.371 OA 
BRANCH   7   8
HETATM    8  C   UNL     1     -10.140   8.722  72.166  1.00  0.00    -0.292 C  
HETATM    9  N   UNL     1     -10.572   7.518  72.633  1.00  0.00    -0.258 N  
HETATM   10  O   UNL     1      -8.969   9.082  72.221  1.00  0.00    -0.360 OA 
HETATM   11  H   UNL     1     -10.286   7.221  73.567  1.00  0.00     0.000 HD 
BRANCH   9  12
HETATM   12  C   UNL     1     -11.337   6.731  71.931  1.00  0.00    -0.271 C  
HETATM   13  H1  UNL     1     -13.254   6.091  71.759  1.00  0.00     0.000 HD 
HETATM   14  N   UNL     1     -12.655   6.707  72.309  1.00  0.00    -0.551 NA 
HETATM   15  H2  UNL     1     -13.011   7.265  73.085  1.00  0.00     0.000 HD 
BRANCH  12  16
HETATM   16  C   UNL     1     -10.924   5.923  70.740  1.00  0.00    -0.343 A  
HETATM   17  C   UNL     1      -9.857   5.026  70.794  1.00  0.00    -0.279 A  
HETATM   18  C   UNL     1      -9.231   4.633  69.607  1.00  0.00    -0.186 A  
HETATM   19  C   UNL     1      -9.730   5.036  68.360  1.00  0.00    -0.152 A  
HETATM   20  C   UNL     1     -10.904   5.792  68.326  1.00  0.00    -0.249 A  
HETATM   21  C   UNL     1     -11.495   6.245  69.505  1.00  0.00    -0.387 A  
BRANCH  19  22
HETATM   22  N   UNL     1      -8.900   4.871  67.236  1.00  0.00    -0.103 NA 
HETATM   23  H   UNL     1      -8.127   4.206  67.238  1.00  0.00     0.000 HD 
BRANCH  22  24
HETATM   24  C   UNL     1      -9.195   5.695  66.066  1.00  0.00    -0.152 C  
BRANCH  24  25
HETATM   25  C   UNL     1      -8.974   7.192  66.165  1.00  0.00    -0.140 A  
HETATM   26  N   UNL     1      -9.829   8.143  66.523  1.00  0.00    -0.249 NA 
HETATM   27  C   UNL     1      -9.116   9.334  66.523  1.00  0.00    -0.154 A  
HETATM   28  C   UNL     1      -7.794   9.092  66.160  1.00  0.00    -0.102 A  
HETATM   29  N   UNL     1      -7.746   7.747  65.878  1.00  0.00    -0.090 NA 
HETATM   30  C   UNL     1      -6.819  10.090  66.147  1.00  0.00    -0.102 A  
HETATM   31  C   UNL     1      -7.218  11.386  66.489  1.00  0.00    -0.057 A  
HETATM   32  C   UNL     1      -6.594   7.017  65.397  1.00  0.00    -0.047 C  
HETATM   33  C   UNL     1      -8.553  11.706  66.782  1.00  0.00    -0.180 A  
HETATM   34  C   UNL     1      -9.512  10.666  66.834  1.00  0.00    -0.189 A  
BRANCH  33  35
HETATM   35  C   UNL     1      -8.810  13.172  67.070  1.00  0.00    -0.210 C  
HETATM   36  N   UNL     1      -9.751  13.924  66.352  1.00  0.00    -0.291 N  
HETATM   37  O   UNL     1      -8.103  13.693  67.937  1.00  0.00    -0.136 OA 
BRANCH  36  38
HETATM   38  C   UNL     1     -10.609  13.343  65.403  1.00  0.00    -0.303 A  
HETATM   39  C   UNL     1     -12.308  12.351  63.508  1.00  0.00    -0.648 A  
HETATM   40  N   UNL     1     -10.098  13.019  64.193  1.00  0.00    -0.296 NA 
HETATM   41  C   UNL     1     -12.799  12.642  64.774  1.00  0.00    -0.349 A  
HETATM   42  C   UNL     1     -10.960  12.548  63.266  1.00  0.00    -0.191 A  
HETATM   43  C   UNL     1     -11.943  13.143  65.737  1.00  0.00    -0.473 A  
ENDBRANCH  36  38
BRANCH  36  44
HETATM   44  C   UNL     1     -10.107  15.294  66.762  1.00  0.00    -0.258 C  
BRANCH  44  45
HETATM   45  C   UNL     1      -9.753  16.448  65.813  1.00  0.00    -0.271 C  
BRANCH  45  46
HETATM   46  C   UNL     1     -10.864  17.177  65.075  1.00  0.00     0.073 C  
HETATM   47  O   UNL     1     -11.580  16.729  64.195  1.00  0.00    -1.106 OA 
BRANCH  46  48
HETATM   48  O   UNL     1     -10.907  18.462  65.558  1.00  0.00    -0.492 OA 
BRANCH  48  49
HETATM   49  C   UNL     1      -9.697  19.092  66.018  1.00  0.00    -0.186 C  
HETATM   50  C   UNL     1     -10.005  20.210  66.997  1.00  0.00    -0.596 C  
ENDBRANCH  48  49
ENDBRANCH  46  48
ENDBRANCH  45  46
ENDBRANCH  44  45
ENDBRANCH  36  44
ENDBRANCH  33  35
ENDBRANCH  24  25
ENDBRANCH  22  24
ENDBRANCH  19  22
ENDBRANCH  12  16
ENDBRANCH   9  12
ENDBRANCH   7   8
ENDBRANCH   6   7
ENDBRANCH   5   6
ENDBRANCH   4   5
ENDBRANCH   3   4
ENDBRANCH   2   3
TORSDOF 18
ENDMDL
MODEL        4
REMARK 921   NORMALIZED FREE ENERGY PREDICTED BY IDOCK:   -6.06 KCAL/MOL
REMARK 922        TOTAL FREE ENERGY PREDICTED BY IDOCK:  -15.65 KCAL/MOL
REMARK 923 INTER-LIGAND FREE ENERGY PREDICTED BY IDOCK:  -12.21 KCAL/MOL
REMARK 924 INTRA-LIGAND FREE ENERGY PREDICTED BY IDOCK:   -3.43 KCAL/MOL
REMARK 927      BINDING AFFINITY PREDICTED BY RF-SCORE:    0.00 PKD
ROOT
HETATM    1  C   UNL     1     -10.527   5.147  66.341  1.00  0.00    -0.356 C  
HETATM    2  C   UNL     1     -10.546   6.392  67.212  1.00  0.00    -0.382 C  
ENDROOT
BRANCH   2   3
HETATM    3  C   UNL     1     -10.898   6.021  68.644  1.00  0.00    -0.379 C  
BRANCH   3   4
HETATM    4  C   UNL     1      -9.663   5.692  69.473  1.00  0.00    -0.206 C  
BRANCH   4   5
HETATM    5  C   UNL     1      -9.697   4.212  69.820  1.00  0.00    -0.278 C  
BRANCH   5   6
HETATM    6  C   UNL     1      -8.436   3.751  70.509  1.00  0.00    -0.068 C  
BRANCH   6   7
HETATM    7  O   UNL     1      -8.819   3.135  71.750  1.00  0.00    -0.081 OA 
BRANCH   7   8
HETATM    8  C   UNL     1      -8.226   3.646  72.864  1.00  0.00    -0.086 C  
HETATM    9  N   UNL     1      -8.801   4.798  73.308  1.00  0.00    -0.107 N  
HETATM   10  O   UNL     1      -7.259   3.125  73.411  1.00  0.00    -0.043 OA 
HETATM   11  H   UNL     1      -8.203   5.597  73.521  1.00  0.00     0.000 HD 
BRANCH   9  12
HETATM   12  C   UNL     1     -10.089   4.917  73.470  1.00  0.00    -0.164 C  
HETATM   13  H1  UNL     1     -11.697   3.982  74.277  1.00  0.00     0.000 HD 
HETATM   14  N   UNL     1     -10.690   3.888  74.150  1.00  0.00    -0.214 NA 
HETATM   15  H2  UNL     1     -10.166   3.087  74.502  1.00  0.00     0.000 HD 
BRANCH  12  16
HETATM   16  C   UNL     1     -10.933   6.079  73.047  1.00  0.00    -0.289 A  
HETATM   17  C   UNL     1     -12.149   5.901  72.386  1.00  0.00    -0.135 A  
HETATM   18  C   UNL     1     -12.680   6.954  71.635  1.00  0.00    -0.396 A  
HETATM   19  C   UNL     1     -12.071   8.216  71.628  1.00  0.00    -0.304 A  
HETATM   20  C   UNL     1     -10.950   8.417  72.437  1.00  0.00    -0.425 A  
HETATM   21  C   UNL     1     -10.373   7.357  73.135  1.00  0.00    -0.384 A  
BRANCH  19  22
HETATM   22  N   UNL     1     -12.463   9.130  70.633  1.00  0.00    -0.487 NA 
HETATM   23  H   UNL     1     -12.393   8.901  69.642  1.00  0.00     0.000 HD 
BRANCH  22  24
HETATM   24  C   UNL     1     -12.974  10.423  71.084  1.00  0.00    -0.412 C  
BRANCH  24  25
HETATM   25  C   UNL     1     -12.431  11.679  70.430  1.00  0.00    -0.221 A  
HETATM   26  N   UNL     1     -11.696  11.800  69.331  1.00  0.00    -0.315 NA 
HETATM   27  C   UNL     1     -11.526  13.162  69.118  1.00  0.00    -0.305 A  
HETATM   28  C   UNL     1     -12.183  13.879  70.115  1.00  0.00    -0.358 A  
HETATM   29  N   UNL     1     -12.691  12.923  70.962  1.00  0.00    -0.305 NA 
HETATM   30  C   UNL     1     -12.254  15.273  70.120  1.00  0.00    -0.402 A  
HETATM   31  C   UNL     1     -11.603  15.956  69.086  1.00  0.00    -0.382 A  
HETATM   32  C   UNL     1     -13.412  13.171  72.191  1.00  0.00    -0.560 C  
HETATM   33  C   UNL     1     -10.856  15.290  68.103  1.00  0.00    -0.273 A  
HETATM   34  C   UNL     1     -10.840  13.874  68.094  1.00  0.00    -0.262 A  
BRANCH  33  35
HETATM   35  C   UNL     1     -10.171  16.196  67.099  1.00  0.00    -0.281 C  
HETATM   36  N   UNL     1      -8.781  16.390  67.090  1.00  0.00    -0.180 N  
HETATM   37  O   UNL     1     -10.906  16.806  66.318  1.00  0.00    -0.161 OA 
BRANCH  36  38
HETATM   38  C   UNL     1      -7.917  15.664  67.926  1.00  0.00    -0.142 A  
HETATM   39  C   UNL     1      -6.353  14.167  69.592  1.00  0.00    -0.131 A  
HETATM   40  N   UNL     1      -7.312  14.565  67.419  1.00  0.00    -0.190 NA 
HETATM   41  C   UNL     1      -6.942  15.328  70.075  1.00  0.00    -0.054 A  
HETATM   42  C   UNL     1      -6.560  13.830  68.266  1.00  0.00    -0.109 A  
HETATM   43  C   UNL     1      -7.734  16.090  69.236  1.00  0.00    -0.223 A  
ENDBRANCH  36  38
BRANCH  36  44
HETATM   44  C   UNL     1      -8.122  17.134  66.001  1.00  0.00    -0.148 C  
BRANCH  44  45
HETATM   45  C   UNL     1      -7.258  18.347  66.375  1.00  0.00    -0.276 C  
BRANCH  45  46
HETATM   46  C   UNL     1      -7.676  19.734  65.916  1.00  0.00    -0.320 C  
HETATM   47  O   UNL     1      -6.954  20.608  65.466  1.00  0.00    -0.192 OA 
BRANCH  46  48
HETATM   48  O   UNL     1      -9.029  19.848  66.122  1.00  0.00    -0.369 OA 
BRANCH  48  49
HETATM   49  C   UNL     1      -9.516  20.538  67.288  1.00  0.00    -0.418 C  
HETATM   50  C   UNL     1     -10.599  19.731  67.983  1.00  0.00    -0.439 C  
ENDBRANCH  48  49
ENDBRANCH  46  48
ENDBRANCH  45  46
ENDBRANCH  44  45
ENDBRANCH  36  44
ENDBRANCH  33  35
ENDBRANCH  24  25
ENDBRANCH  22  24
ENDBRANCH  19  22
ENDBRANCH  12  16
ENDBRANCH   9  12
ENDBRANCH   7   8
ENDBRANCH   6   7
ENDBRANCH   5   6
ENDBRANCH   4   5
ENDBRANCH   3   4
ENDBRANCH   2   3
TORSDOF 18
ENDMDL
MODEL        5
REMARK 921   NORMALIZED FREE ENERGY PREDICTED BY IDOCK:   -6.03 KCAL/MOL
REMARK 922        TOTAL FREE ENERGY PREDICTED BY IDOCK:  -15.57 KCAL/MOL
REMARK 923 INTER-LIGAND FREE ENERGY PREDICTED BY IDOCK:  -12.81 KCAL/MOL
REMARK 924 INTRA-LIGAND FREE ENERGY PREDICTED BY IDOCK:   -2.77 KCAL/MOL
REMARK 927      BINDING AFFINITY PREDICTED BY RF-SCORE:    0.00 PKD
ROOT
HETATM    1  C   UNL     1      -7.946   9.520  66.778  1.00  0.00    -0.109 C  
HETATM    2  C   UNL     1      -7.900   8.026  66.506  1.00  0.00    -0.097 C  
ENDROOT
BRANCH   2   3
HETATM    3  C   UNL     1      -8.062   7.762  65.017  1.00  0.00    -0.139 C  
BRANCH   3   4
HETATM    4  C   UNL     1      -7.600   6.363  64.627  1.00  0.00    -0.099 C  
BRANCH   4   5
HETATM    5  C   UNL     1      -7.991   6.115  63.179  1.00  0.00    -0.102 C  
BRANCH   5   6
HETATM    6  C   UNL     1      -8.233   4.654  62.888  1.00  0.00    -0.094 C  
BRANCH   6   7
HETATM    7  O   UNL     1      -8.105   3.938  64.128  1.00  0.00    -0.088 OA 
BRANCH   7   8
HETATM    8  C   UNL     1      -8.981   2.912  64.304  1.00  0.00    -0.111 C  
HETATM    9  N   UNL     1      -9.765   3.049  65.411  1.00  0.00    -0.370 N  
HETATM   10  O   UNL     1      -9.054   1.950  63.546  1.00  0.00    -0.088 OA 
HETATM   11  H   UNL     1      -9.853   2.259  66.052  1.00  0.00     0.000 HD 
BRANCH   9  12
HETATM   12  C   UNL     1     -10.405   4.151  65.679  1.00  0.00    -0.097 C  
HETATM   13  H1  UNL     1     -11.923   5.326  65.023  1.00  0.00     0.000 HD 
HETATM   14  N   UNL     1     -11.421   4.463  64.813  1.00  0.00    -1.021 NA 
HETATM   15  H2  UNL     1     -11.658   3.874  64.014  1.00  0.00     0.000 HD 
BRANCH  12  16
HETATM   16  C   UNL     1     -10.175   5.046  66.857  1.00  0.00    -0.270 A  
HETATM   17  C   UNL     1      -9.326   4.681  67.903  1.00  0.00    -0.169 A  
HETATM   18  C   UNL     1      -9.468   5.302  69.148  1.00  0.00    -0.184 A  
HETATM   19  C   UNL     1     -10.367   6.362  69.328  1.00  0.00    -0.207 A  
HETATM   20  C   UNL     1     -11.081   6.825  68.220  1.00  0.00    -0.222 A  
HETATM   21  C   UNL     1     -10.998   6.168  66.993  1.00  0.00    -0.414 A  
BRANCH  19  22
HETATM   22  N   UNL     1     -10.686   6.736  70.647  1.00  0.00    -0.227 NA 
HETATM   23  H   UNL     1     -10.052   6.544  71.423  1.00  0.00     0.000 HD 
BRANCH  22  24
HETATM   24  C   UNL     1     -11.964   7.413  70.855  1.00  0.00    -0.277 C  
BRANCH  24  25
HETATM   25  C   UNL     1     -11.989   8.929  70.834  1.00  0.00    -0.213 A  
HETATM   26  N   UNL     1     -11.252   9.768  70.115  1.00  0.00    -0.260 NA 
HETATM   27  C   UNL     1     -11.713  11.045  70.407  1.00  0.00    -0.343 A  
HETATM   28  C   UNL     1     -12.759  10.971  71.323  1.00  0.00    -0.432 A  
HETATM   29  N   UNL     1     -12.871   9.634  71.624  1.00  0.00    -0.373 NA 
HETATM   30  C   UNL     1     -13.473  12.092  71.746  1.00  0.00    -0.194 A  
HETATM   31  C   UNL     1     -13.083  13.335  71.237  1.00  0.00    -0.299 A  
HETATM   32  C   UNL     1     -13.784   9.049  72.580  1.00  0.00    -0.436 C  
HETATM   33  C   UNL     1     -11.984  13.481  70.377  1.00  0.00    -0.367 A  
HETATM   34  C   UNL     1     -11.306  12.322  69.927  1.00  0.00    -0.084 A  
BRANCH  33  35
HETATM   35  C   UNL     1     -11.672  14.909  69.976  1.00  0.00    -0.294 C  
HETATM   36  N   UNL     1     -11.211  15.245  68.693  1.00  0.00    -0.279 N  
HETATM   37  O   UNL     1     -11.787  15.765  70.857  1.00  0.00    -0.347 OA 
BRANCH  36  38
HETATM   38  C   UNL     1     -11.128  14.301  67.656  1.00  0.00    -0.292 A  
HETATM   39  C   UNL     1     -10.936  12.580  65.543  1.00  0.00    -0.322 A  
HETATM   40  N   UNL     1      -9.918  13.763  67.377  1.00  0.00    -0.234 NA 
HETATM   41  C   UNL     1     -12.177  13.105  65.881  1.00  0.00    -0.497 A  
HETATM   42  C   UNL     1      -9.844  12.930  66.316  1.00  0.00    -0.273 A  
HETATM   43  C   UNL     1     -12.280  13.975  66.950  1.00  0.00    -0.415 A  
ENDBRANCH  36  38
BRANCH  36  44
HETATM   44  C   UNL     1     -11.081  16.651  68.273  1.00  0.00    -0.295 C  
BRANCH  44  45
HETATM   45  C   UNL     1      -9.777  17.083  67.586  1.00  0.00    -0.257 C  
BRANCH  45  46
HETATM   46  C   UNL     1      -9.787  17.414  66.103  1.00  0.00    -0.245 C  
HETATM   47  O   UNL     1     -10.322  16.778  65.211  1.00  0.00    -0.622 OA 
BRANCH  46  48
HETATM   48  O   UNL     1      -9.052  18.562  65.931  1.00  0.00    -0.477 OA 
BRANCH  48  49
HETATM   49  C   UNL     1      -7.772  18.692  66.578  1.00  0.00    -0.258 C  
HETATM   50  C   UNL     1      -6.641  18.491  65.586  1.00  0.00    -0.310 C  
ENDBRANCH  48  49
ENDBRANCH  46  48
ENDBRANCH  45  46
ENDBRANCH  44  45
ENDBRANCH  36  44
ENDBRANCH  33  35
ENDBRANCH  24  25
ENDBRANCH  22  24
ENDBRANCH  19  22
ENDBRANCH  12  16
ENDBRANCH   9  12
ENDBRANCH   7   8
ENDBRANCH   6   7
ENDBRANCH   5   6
ENDBRANCH   4   5
ENDBRANCH   3   4
ENDBRANCH   2   3
TORSDOF 18
ENDMDL
MODEL        6
REMARK 921   NORMALIZED FREE ENERGY PREDICTED BY IDOCK:   -6.02 KCAL/MOL
REMARK 922        TOTAL FREE ENERGY PREDICTED BY IDOCK:  -15.56 KCAL/MOL
REMARK 923 INTER-LIGAND FREE ENERGY PREDICTED BY IDOCK:  -11.77 KCAL/MOL
REMARK 924 INTRA-LIGAND FREE ENERGY PREDICTED BY IDOCK:   -3.80 KCAL/MOL
REMARK 927      BINDING AFFINITY PREDICTED BY RF-SCORE:    0.00 PKD
ROOT
HETATM    1  C   UNL     1      -9.873   9.507  65.767  1.00  0.00    -0.363 C  
HETATM    2  C   UNL     1      -8.438   9.943  66.008  1.00  0.00    -0.135 C  
ENDROOT
BRANCH   2   3
HETATM    3  C   UNL     1      -7.485   9.068  65.209  1.00  0.00    -0.093 C  
BRANCH   3   4
HETATM    4  C   UNL     1      -8.222   8.129  64.263  1.00  0.00    -0.095 C  
BRANCH   4   5
HETATM    5  C   UNL     1      -7.217   7.555  63.276  1.00  0.00    -0.083 C  
BRANCH   5   6
HETATM    6  C   UNL     1      -7.501   6.112  62.936  1.00  0.00    -0.066 C  
BRANCH   6   7
HETATM    7  O   UNL     1      -6.847   5.297  63.922  1.00  0.00    -0.044 OA 
BRANCH   7   8
HETATM    8  C   UNL     1      -7.545   4.204  64.334  1.00  0.00    -0.076 C  
HETATM    9  N   UNL     1      -7.524   4.022  65.684  1.00  0.00    -0.080 N  
HETATM   10  O   UNL     1      -8.129   3.448  63.565  1.00  0.00    -0.082 OA 
HETATM   11  H   UNL     1      -7.293   3.098  66.053  1.00  0.00     0.000 HD 
BRANCH   9  12
HETATM   12  C   UNL     1      -7.788   4.984  66.522  1.00  0.00    -0.100 C  
HETATM   13  H1  UNL     1      -6.994   6.662  67.341  1.00  0.00     0.000 HD 
HETATM   14  N   UNL     1      -6.787   5.908  66.685  1.00  0.00    -0.058 NA 
HETATM   15  H2  UNL     1      -5.899   5.846  66.186  1.00  0.00     0.000 HD 
BRANCH  12  16
HETATM   16  C   UNL     1      -9.077   5.197  67.251  1.00  0.00    -0.113 A  
HETATM   17  C   UNL     1     -10.130   5.920  66.687  1.00  0.00    -0.229 A  
HETATM   18  C   UNL     1     -11.110   6.466  67.522  1.00  0.00    -0.401 A  
HETATM   19  C   UNL     1     -11.115   6.203  68.899  1.00  0.00    -0.345 A  
HETATM   20  C   UNL     1     -10.150   5.333  69.413  1.00  0.00    -0.311 A  
HETATM   21  C   UNL     1      -9.129   4.840  68.602  1.00  0.00    -0.149 A  
BRANCH  19  22
HETATM   22  N   UNL     1     -11.924   7.009  69.720  1.00  0.00    -0.516 NA 
HETATM   23  H   UNL     1     -12.942   6.953  69.684  1.00  0.00     0.000 HD 
BRANCH  22  24
HETATM   24  C   UNL     1     -11.242   7.931  70.625  1.00  0.00    -0.263 C  
BRANCH  24  25
HETATM   25  C   UNL     1     -11.055   9.369  70.181  1.00  0.00    -0.242 A  
HETATM   26  N   UNL     1     -10.154   9.877  69.349  1.00  0.00    -0.198 NA 
HETATM   27  C   UNL     1     -10.455  11.227  69.219  1.00  0.00    -0.111 A  
HETATM   28  C   UNL     1     -11.571  11.537  69.992  1.00  0.00    -0.282 A  
HETATM   29  N   UNL     1     -11.891  10.365  70.637  1.00  0.00    -0.322 NA 
HETATM   30  C   UNL     1     -12.155  12.804  70.001  1.00  0.00    -0.355 A  
HETATM   31  C   UNL     1     -11.557  13.796  69.216  1.00  0.00    -0.362 A  
HETATM   32  C   UNL     1     -12.950  10.187  71.605  1.00  0.00    -0.456 C  
HETATM   33  C   UNL     1     -10.383  13.564  68.483  1.00  0.00    -0.242 A  
HETATM   34  C   UNL     1      -9.839  12.257  68.454  1.00  0.00    -0.199 A  
BRANCH  33  35
HETATM   35  C   UNL     1      -9.846  14.771  67.739  1.00  0.00    -0.214 C  
HETATM   36  N   UNL     1     -10.066  14.967  66.368  1.00  0.00    -0.273 N  
HETATM   37  O   UNL     1      -9.148  15.552  68.392  1.00  0.00    -0.182 OA 
BRANCH  36  38
HETATM   38  C   UNL     1     -10.904  14.127  65.615  1.00  0.00    -0.305 A  
HETATM   39  C   UNL     1     -12.523  12.392  64.263  1.00  0.00    -0.529 A  
HETATM   40  N   UNL     1     -12.238  14.200  65.828  1.00  0.00    -0.431 NA 
HETATM   41  C   UNL     1     -11.156  12.371  64.023  1.00  0.00    -0.452 A  
HETATM   42  C   UNL     1     -13.017  13.319  65.162  1.00  0.00    -0.161 A  
HETATM   43  C   UNL     1     -10.331  13.248  64.704  1.00  0.00    -0.394 A  
ENDBRANCH  36  38
BRANCH  36  44
HETATM   44  C   UNL     1      -9.685  16.227  65.706  1.00  0.00    -0.264 C  
BRANCH  44  45
HETATM   45  C   UNL     1     -10.597  17.448  65.896  1.00  0.00    -0.201 C  
BRANCH  45  46
HETATM   46  C   UNL     1      -9.981  18.798  66.220  1.00  0.00    -0.385 C  
HETATM   47  O   UNL     1     -10.572  19.839  66.455  1.00  0.00    -0.464 OA 
BRANCH  46  48
HETATM   48  O   UNL     1      -8.616  18.652  66.176  1.00  0.00    -0.447 OA 
BRANCH  48  49
HETATM   49  C   UNL     1      -7.778  19.818  66.059  1.00  0.00    -0.332 C  
HETATM   50  C   UNL     1      -7.419  20.367  67.428  1.00  0.00    -0.361 C  
ENDBRANCH  48  49
ENDBRANCH  46  48
ENDBRANCH  45  46
ENDBRANCH  44  45
ENDBRANCH  36  44
ENDBRANCH  33  35
ENDBRANCH  24  25
ENDBRANCH  22  24
ENDBRANCH  19  22
ENDBRANCH  12  16
ENDBRANCH   9  12
ENDBRANCH   7   8
ENDBRANCH   6   7
ENDBRANCH   5   6
ENDBRANCH   4   5
ENDBRANCH   3   4
ENDBRANCH   2   3
TORSDOF 18
ENDMDL
MODEL        7
REMARK 921   NORMALIZED FREE ENERGY PREDICTED BY IDOCK:   -5.98 KCAL/MOL
REMARK 922        TOTAL FREE ENERGY PREDICTED BY IDOCK:  -15.48 KCAL/MOL
REMARK 923 INTER-LIGAND FREE ENERGY PREDICTED BY IDOCK:  -11.86 KCAL/MOL
REMARK 924 INTRA-LIGAND FREE ENERGY PREDICTED BY IDOCK:   -3.62 KCAL/MOL
REMARK 927      BINDING AFFINITY PREDICTED BY RF-SCORE:    0.00 PKD
ROOT
HETATM    1  C   UNL     1      -7.774   9.556  68.791  1.00  0.00    -0.080 C  
HETATM    2  C   UNL     1      -8.088   8.936  67.439  1.00  0.00    -0.108 C  
ENDROOT
BRANCH   2   3
HETATM    3  C   UNL     1      -9.391   9.500  66.896  1.00  0.00    -0.185 C  
BRANCH   3   4
HETATM    4  C   UNL     1      -9.508   9.326  65.387  1.00  0.00    -0.281 C  
BRANCH   4   5
HETATM    5  C   UNL     1      -8.295   9.970  64.733  1.00  0.00    -0.166 C  
BRANCH   5   6
HETATM    6  C   UNL     1      -7.596   9.040  63.771  1.00  0.00    -0.115 C  
BRANCH   6   7
HETATM    7  O   UNL     1      -8.200   7.743  63.904  1.00  0.00    -0.100 OA 
BRANCH   7   8
HETATM    8  C   UNL     1      -7.335   6.714  64.116  1.00  0.00    -0.078 C  
HETATM    9  N   UNL     1      -7.584   6.020  65.262  1.00  0.00    -0.083 N  
HETATM   10  O   UNL     1      -6.412   6.442  63.355  1.00  0.00    -0.032 OA 
HETATM   11  H   UNL     1      -6.811   5.830  65.900  1.00  0.00     0.000 HD 
BRANCH   9  12
HETATM   12  C   UNL     1      -8.775   5.591  65.572  1.00  0.00    -0.154 C  
HETATM   13  H1  UNL     1     -10.423   4.718  64.775  1.00  0.00     0.000 HD 
HETATM   14  N   UNL     1      -9.491   5.054  64.533  1.00  0.00    -0.355 NA 
HETATM   15  H2  UNL     1      -9.119   4.996  63.585  1.00  0.00     0.000 HD 
BRANCH  12  16
HETATM   16  C   UNL     1      -9.384   5.574  66.939  1.00  0.00    -0.129 A  
HETATM   17  C   UNL     1     -10.701   5.979  67.161  1.00  0.00    -0.409 A  
HETATM   18  C   UNL     1     -11.090   6.366  68.447  1.00  0.00    -0.374 A  
HETATM   19  C   UNL     1     -10.214   6.245  69.534  1.00  0.00    -0.194 A  
HETATM   20  C   UNL     1      -8.958   5.673  69.316  1.00  0.00    -0.122 A  
HETATM   21  C   UNL     1      -8.536   5.348  68.027  1.00  0.00    -0.100 A  
BRANCH  19  22
HETATM   22  N   UNL     1     -10.542   6.922  70.723  1.00  0.00    -0.217 NA 
HETATM   23  H   UNL     1      -9.901   6.949  71.516  1.00  0.00     0.000 HD 
BRANCH  22  24
HETATM   24  C   UNL     1     -11.844   7.585  70.772  1.00  0.00    -0.228 C  
BRANCH  24  25
HETATM   25  C   UNL     1     -11.881   9.101  70.752  1.00  0.00    -0.227 A  
HETATM   26  N   UNL     1     -11.214   9.944  69.974  1.00  0.00    -0.264 NA 
HETATM   27  C   UNL     1     -11.657  11.218  70.303  1.00  0.00    -0.275 A  
HETATM   28  C   UNL     1     -12.621  11.137  71.304  1.00  0.00    -0.398 A  
HETATM   29  N   UNL     1     -12.698   9.800  71.614  1.00  0.00    -0.388 NA 
HETATM   30  C   UNL     1     -13.306  12.254  71.786  1.00  0.00    -0.353 A  
HETATM   31  C   UNL     1     -12.969  13.500  71.244  1.00  0.00    -0.384 A  
HETATM   32  C   UNL     1     -13.523   9.210  72.644  1.00  0.00    -0.331 C  
HETATM   33  C   UNL     1     -11.948  13.652  70.294  1.00  0.00    -0.397 A  
HETATM   34  C   UNL     1     -11.303  12.498  69.789  1.00  0.00    -0.111 A  
BRANCH  33  35
HETATM   35  C   UNL     1     -11.681  15.082  69.867  1.00  0.00    -0.307 C  
HETATM   36  N   UNL     1     -11.241  15.410  68.576  1.00  0.00    -0.299 N  
HETATM   37  O   UNL     1     -11.815  15.949  70.735  1.00  0.00    -0.361 OA 
BRANCH  36  38
HETATM   38  C   UNL     1     -11.138  14.452  67.553  1.00  0.00    -0.302 A  
HETATM   39  C   UNL     1     -10.915  12.703  65.467  1.00  0.00    -0.313 A  
HETATM   40  N   UNL     1      -9.911  13.967  67.254  1.00  0.00    -0.239 NA 
HETATM   41  C   UNL     1     -12.171  13.175  65.826  1.00  0.00    -0.514 A  
HETATM   42  C   UNL     1      -9.823  13.118  66.206  1.00  0.00    -0.283 A  
HETATM   43  C   UNL     1     -12.290  14.059  66.882  1.00  0.00    -0.321 A  
ENDBRANCH  36  38
BRANCH  36  44
HETATM   44  C   UNL     1     -11.156  16.812  68.131  1.00  0.00    -0.254 C  
BRANCH  44  45
HETATM   45  C   UNL     1      -9.786  17.504  68.180  1.00  0.00    -0.302 C  
BRANCH  45  46
HETATM   46  C   UNL     1      -9.448  18.567  67.149  1.00  0.00    -0.289 C  
HETATM   47  O   UNL     1      -9.648  18.517  65.946  1.00  0.00    -0.494 OA 
BRANCH  46  48
HETATM   48  O   UNL     1      -8.842  19.608  67.810  1.00  0.00    -0.309 OA 
BRANCH  48  49
HETATM   49  C   UNL     1      -7.460  19.914  67.542  1.00  0.00    -0.279 C  
HETATM   50  C   UNL     1      -6.659  19.976  68.829  1.00  0.00    -0.356 C  
ENDBRANCH  48  49
ENDBRANCH  46  48
ENDBRANCH  45  46
ENDBRANCH  44  45
ENDBRANCH  36  44
ENDBRANCH  33  35
ENDBRANCH  24  25
ENDBRANCH  22  24
ENDBRANCH  19  22
ENDBRANCH  12  16
ENDBRANCH   9  12
ENDBRANCH   7   8
ENDBRANCH   6   7
ENDBRANCH   5   6
ENDBRANCH   4   5
ENDBRANCH   3   4
ENDBRANCH   2   3
TORSDOF 18
ENDMDL
MODEL        8
REMARK 921   NORMALIZED FREE ENERGY PREDICTED BY IDOCK:   -5.95 KCAL/MOL
REMARK 922        TOTAL FREE ENERGY PREDICTED BY IDOCK:  -15.42 KCAL/MOL
REMARK 923 INTER-LIGAND FREE ENERGY PREDICTED BY IDOCK:  -12.14 KCAL/MOL
REMARK 924 INTRA-LIGAND FREE ENERGY PREDICTED BY IDOCK:   -3.28 KCAL/MOL
REMARK 927      BINDING AFFINITY PREDICTED BY RF-SCORE:    0.00 PKD
ROOT
HETATM    1  C   UNL     1     -12.132  16.176  72.978  1.00  0.00    -0.636 C  
HETATM    2  C   UNL     1     -12.486  14.793  72.460  1.00  0.00    -0.414 C  
ENDROOT
BRANCH   2   3
HETATM    3  C   UNL     1     -12.724  14.843  70.959  1.00  0.00    -0.412 C  
BRANCH   3   4
HETATM    4  C   UNL     1     -11.426  14.996  70.176  1.00  0.00    -0.314 C  
BRANCH   4   5
HETATM    5  C   UNL     1     -11.718  15.789  68.911  1.00  0.00    -0.404 C  
BRANCH   5   6
HETATM    6  C   UNL     1     -10.764  16.943  68.720  1.00  0.00    -0.333 C  
BRANCH   6   7
HETATM    7  O   UNL     1     -11.196  17.677  67.563  1.00  0.00    -0.062 OA 
BRANCH   7   8
HETATM    8  C   UNL     1     -10.208  18.052  66.705  1.00  0.00    -0.373 C  
HETATM    9  N   UNL     1      -9.734  17.029  65.940  1.00  0.00    -0.197 N  
HETATM   10  O   UNL     1      -9.777  19.198  66.632  1.00  0.00    -0.311 OA 
HETATM   11  H   UNL     1      -8.725  16.889  65.875  1.00  0.00     0.000 HD 
BRANCH   9  12
HETATM   12  C   UNL     1     -10.522  16.221  65.288  1.00  0.00    -0.300 C  
HETATM   13  H1  UNL     1     -11.816  16.155  63.728  1.00  0.00     0.000 HD 
HETATM   14  N   UNL     1     -11.199  16.787  64.238  1.00  0.00    -1.365 NA 
HETATM   15  H2  UNL     1     -11.093  17.769  63.985  1.00  0.00     0.000 HD 
BRANCH  12  16
HETATM   16  C   UNL     1     -10.698  14.756  65.541  1.00  0.00    -0.369 A  
HETATM   17  C   UNL     1     -11.819  14.061  65.085  1.00  0.00    -0.370 A  
HETATM   18  C   UNL     1     -12.166  12.849  65.690  1.00  0.00    -0.519 A  
HETATM   19  C   UNL     1     -11.344  12.268  66.665  1.00  0.00    -0.343 A  
HETATM   20  C   UNL     1     -10.137  12.897  66.980  1.00  0.00    -0.245 A  
HETATM   21  C   UNL     1      -9.816  14.139  66.433  1.00  0.00    -0.308 A  
BRANCH  19  22
HETATM   22  N   UNL     1     -11.883  11.228  67.445  1.00  0.00    -0.560 NA 
HETATM   23  H   UNL     1     -12.314  10.409  67.016  1.00  0.00     0.000 HD 
BRANCH  22  24
HETATM   24  C   UNL     1     -11.801  11.375  68.897  1.00  0.00    -0.347 C  
BRANCH  24  25
HETATM   25  C   UNL     1     -11.440  10.156  69.724  1.00  0.00    -0.228 A  
HETATM   26  N   UNL     1     -10.564   9.194  69.459  1.00  0.00    -0.222 NA 
HETATM   27  C   UNL     1     -10.555   8.354  70.566  1.00  0.00    -0.216 A  
HETATM   28  C   UNL     1     -11.447   8.829  71.524  1.00  0.00    -0.305 A  
HETATM   29  N   UNL     1     -12.037   9.927  70.945  1.00  0.00    -0.320 NA 
HETATM   30  C   UNL     1     -11.596   8.233  72.777  1.00  0.00    -0.326 A  
HETATM   31  C   UNL     1     -10.828   7.095  73.046  1.00  0.00    -0.367 A  
HETATM   32  C   UNL     1     -13.085  10.737  71.526  1.00  0.00    -0.414 C  
HETATM   33  C   UNL     1      -9.976   6.523  72.089  1.00  0.00    -0.173 A  
HETATM   34  C   UNL     1      -9.808   7.174  70.843  1.00  0.00    -0.182 A  
BRANCH  33  35
HETATM   35  C   UNL     1      -9.270   5.258  72.536  1.00  0.00    -0.136 C  
HETATM   36  N   UNL     1      -7.933   5.256  72.962  1.00  0.00    -0.101 N  
HETATM   37  O   UNL     1      -9.916   4.210  72.453  1.00  0.00    -0.153 OA 
BRANCH  36  38
HETATM   38  C   UNL     1      -7.195   6.440  73.123  1.00  0.00    -0.086 A  
HETATM   39  C   UNL     1      -5.877   8.819  73.378  1.00  0.00    -0.104 A  
HETATM   40  N   UNL     1      -7.345   7.134  74.275  1.00  0.00    -0.098 NA 
HETATM   41  C   UNL     1      -5.698   8.063  72.227  1.00  0.00    -0.038 A  
HETATM   42  C   UNL     1      -6.699   8.316  74.371  1.00  0.00    -0.139 A  
HETATM   43  C   UNL     1      -6.362   6.858  72.093  1.00  0.00    -0.045 A  
ENDBRANCH  36  38
BRANCH  36  44
HETATM   44  C   UNL     1      -7.323   4.052  73.554  1.00  0.00    -0.070 C  
BRANCH  44  45
HETATM   45  C   UNL     1      -6.459   3.161  72.651  1.00  0.00    -0.014 C  
BRANCH  45  46
HETATM   46  C   UNL     1      -7.011   2.689  71.316  1.00  0.00    -0.032 C  
HETATM   47  O   UNL     1      -7.525   1.610  71.072  1.00  0.00    -0.032 OA 
BRANCH  46  48
HETATM   48  O   UNL     1      -6.804   3.695  70.404  1.00  0.00    -0.033 OA 
BRANCH  48  49
HETATM   49  C   UNL     1      -7.869   4.079  69.513  1.00  0.00    -0.052 C  
HETATM   50  C   UNL     1      -7.465   5.273  68.668  1.00  0.00    -0.071 C  
ENDBRANCH  48  49
ENDBRANCH  46  48
ENDBRANCH  45  46
ENDBRANCH  44  45
ENDBRANCH  36  44
ENDBRANCH  33  35
ENDBRANCH  24  25
ENDBRANCH  22  24
ENDBRANCH  19  22
ENDBRANCH  12  16
ENDBRANCH   9  12
ENDBRANCH   7   8
ENDBRANCH   6   7
ENDBRANCH   5   6
ENDBRANCH   4   5
ENDBRANCH   3   4
ENDBRANCH   2   3
TORSDOF 18
ENDMDL
MODEL        9
REMARK 921   NORMALIZED FREE ENERGY PREDICTED BY IDOCK:   -5.92 KCAL/MOL
REMARK 922        TOTAL FREE ENERGY PREDICTED BY IDOCK:  -15.35 KCAL/MOL
REMARK 923 INTER-LIGAND FREE ENERGY PREDICTED BY IDOCK:  -11.86 KCAL/MOL
REMARK 924 INTRA-LIGAND FREE ENERGY PREDICTED BY IDOCK:   -3.49 KCAL/MOL
REMARK 927      BINDING AFFINITY PREDICTED BY RF-SCORE:    0.00 PKD
ROOT
HETATM    1  C   UNL     1      -9.407   9.872  68.763  1.00  0.00    -0.157 C  
HETATM    2  C   UNL     1     -10.673   9.276  68.169  1.00  0.00    -0.205 C  
ENDROOT
BRANCH   2   3
HETATM    3  C   UNL     1     -10.382   8.701  66.793  1.00  0.00    -0.336 C  
BRANCH   3   4
HETATM    4  C   UNL     1      -9.903   7.256  66.862  1.00  0.00    -0.279 C  
BRANCH   4   5
HETATM    5  C   UNL     1      -8.608   7.141  66.073  1.00  0.00    -0.158 C  
BRANCH   5   6
HETATM    6  C   UNL     1      -7.457   6.655  66.920  1.00  0.00    -0.087 C  
BRANCH   6   7
HETATM    7  O   UNL     1      -7.987   6.291  68.205  1.00  0.00    -0.106 OA 
BRANCH   7   8
HETATM    8  C   UNL     1      -7.123   6.411  69.249  1.00  0.00    -0.080 C  
HETATM    9  N   UNL     1      -7.735   6.691  70.434  1.00  0.00    -0.096 N  
HETATM   10  O   UNL     1      -5.907   6.289  69.136  1.00  0.00    -0.018 OA 
HETATM   11  H   UNL     1      -7.375   7.456  71.005  1.00  0.00     0.000 HD 
BRANCH   9  12
HETATM   12  C   UNL     1      -8.765   6.017  70.863  1.00  0.00    -0.135 C  
HETATM   13  H1  UNL     1      -9.363   4.143  71.355  1.00  0.00     0.000 HD 
HETATM   14  N   UNL     1      -8.558   4.670  71.019  1.00  0.00    -0.108 NA 
HETATM   15  H2  UNL     1      -7.662   4.227  70.813  1.00  0.00     0.000 HD 
BRANCH  12  16
HETATM   16  C   UNL     1     -10.096   6.581  71.251  1.00  0.00    -0.208 A  
HETATM   17  C   UNL     1     -11.283   6.126  70.675  1.00  0.00    -0.387 A  
HETATM   18  C   UNL     1     -12.420   6.939  70.718  1.00  0.00    -0.251 A  
HETATM   19  C   UNL     1     -12.418   8.147  71.428  1.00  0.00    -0.292 A  
HETATM   20  C   UNL     1     -11.269   8.497  72.142  1.00  0.00    -0.432 A  
HETATM   21  C   UNL     1     -10.109   7.729  72.049  1.00  0.00    -0.244 A  
BRANCH  19  22
HETATM   22  N   UNL     1     -13.467   9.054  71.187  1.00  0.00    -0.557 NA 
HETATM   23  H   UNL     1     -14.201   8.850  70.509  1.00  0.00     0.000 HD 
BRANCH  22  24
HETATM   24  C   UNL     1     -13.457  10.300  71.950  1.00  0.00    -0.302 C  
BRANCH  24  25
HETATM   25  C   UNL     1     -12.839  11.530  71.313  1.00  0.00    -0.360 A  
HETATM   26  N   UNL     1     -11.876  11.606  70.402  1.00  0.00    -0.334 NA 
HETATM   27  C   UNL     1     -11.727  12.953  70.099  1.00  0.00    -0.159 A  
HETATM   28  C   UNL     1     -12.630  13.706  70.845  1.00  0.00    -0.346 A  
HETATM   29  N   UNL     1     -13.273  12.794  71.648  1.00  0.00    -0.376 NA 
HETATM   30  C   UNL     1     -12.766  15.087  70.696  1.00  0.00    -0.428 A  
HETATM   31  C   UNL     1     -11.928  15.721  69.773  1.00  0.00    -0.337 A  
HETATM   32  C   UNL     1     -14.269  13.095  72.652  1.00  0.00     0.167 C  
HETATM   33  C   UNL     1     -10.943  15.027  69.054  1.00  0.00    -0.253 A  
HETATM   34  C   UNL     1     -10.858  13.620  69.190  1.00  0.00    -0.189 A  
BRANCH  33  35
HETATM   35  C   UNL     1     -10.089  15.888  68.145  1.00  0.00    -0.229 C  
HETATM   36  N   UNL     1      -9.763  15.503  66.835  1.00  0.00    -0.228 N  
HETATM   37  O   UNL     1      -9.640  16.928  68.635  1.00  0.00    -0.247 OA 
BRANCH  36  38
HETATM   38  C   UNL     1     -10.309  14.358  66.233  1.00  0.00    -0.295 A  
HETATM   39  C   UNL     1     -11.420  12.088  65.196  1.00  0.00    -0.344 A  
HETATM   40  N   UNL     1     -11.583  14.418  65.782  1.00  0.00    -0.349 NA 
HETATM   41  C   UNL     1     -10.097  12.065  65.617  1.00  0.00    -0.272 A  
HETATM   42  C   UNL     1     -12.118  13.278  65.292  1.00  0.00    -0.418 A  
HETATM   43  C   UNL     1      -9.529  13.211  66.141  1.00  0.00    -0.156 A  
ENDBRANCH  36  38
BRANCH  36  44
HETATM   44  C   UNL     1      -9.081  16.431  65.915  1.00  0.00    -0.182 C  
BRANCH  44  45
HETATM   45  C   UNL     1      -7.627  16.817  66.225  1.00  0.00    -0.275 C  
BRANCH  45  46
HETATM   46  C   UNL     1      -7.155  18.235  65.950  1.00  0.00    -0.256 C  
HETATM   47  O   UNL     1      -6.546  18.631  64.970  1.00  0.00    -0.505 OA 
BRANCH  46  48
HETATM   48  O   UNL     1      -7.515  19.007  67.027  1.00  0.00    -0.216 OA 
BRANCH  48  49
HETATM   49  C   UNL     1      -8.214  20.248  66.813  1.00  0.00    -0.264 C  
HETATM   50  C   UNL     1      -9.690  20.102  67.137  1.00  0.00    -0.576 C  
ENDBRANCH  48  49
ENDBRANCH  46  48
ENDBRANCH  45  46
ENDBRANCH  44  45
ENDBRANCH  36  44
ENDBRANCH  33  35
ENDBRANCH  24  25
ENDBRANCH  22  24
ENDBRANCH  19  22
ENDBRANCH  12  16
ENDBRANCH   9  12
ENDBRANCH   7   8
ENDBRANCH   6   7
ENDBRANCH   5   6
ENDBRANCH   4   5
ENDBRANCH   3   4
ENDBRANCH   2   3
TORSDOF 18
ENDMDL
MODEL       10
REMARK 921   NORMALIZED FREE ENERGY PREDICTED BY IDOCK:   -5.89 KCAL/MOL
REMARK 922        TOTAL FREE ENERGY PREDICTED BY IDOCK:  -15.30 KCAL/MOL
REMARK 923 INTER-LIGAND FREE ENERGY PREDICTED BY IDOCK:  -12.52 KCAL/MOL
REMARK 924 INTRA-LIGAND FREE ENERGY PREDICTED BY IDOCK:   -2.78 KCAL/MOL
REMARK 927      BINDING AFFINITY PREDICTED BY RF-SCORE:    0.00 PKD
ROOT
HETATM    1  C   UNL     1     -11.393  10.327  70.785  1.00  0.00    -0.421 C  
HETATM    2  C   UNL     1     -12.652  10.657  71.568  1.00  0.00    -0.517 C  
ENDROOT
BRANCH   2   3
HETATM    3  C   UNL     1     -13.783   9.729  71.153  1.00  0.00    -0.144 C  
BRANCH   3   4
HETATM    4  C   UNL     1     -14.220   8.810  72.287  1.00  0.00    -0.498 C  
BRANCH   4   5
HETATM    5  C   UNL     1     -14.291   7.388  71.753  1.00  0.00    -0.586 C  
BRANCH   5   6
HETATM    6  C   UNL     1     -12.963   6.902  71.226  1.00  0.00    -0.244 C  
BRANCH   6   7
HETATM    7  O   UNL     1     -12.352   6.108  72.255  1.00  0.00    -0.271 OA 
BRANCH   7   8
HETATM    8  C   UNL     1     -11.152   6.563  72.710  1.00  0.00    -0.245 C  
HETATM    9  N   UNL     1     -10.137   5.668  72.558  1.00  0.00    -0.175 N  
HETATM   10  O   UNL     1     -11.000   7.669  73.219  1.00  0.00    -0.400 OA 
HETATM   11  H   UNL     1      -9.530   5.471  73.355  1.00  0.00     0.000 HD 
BRANCH   9  12
HETATM   12  C   UNL     1      -9.911   5.054  71.431  1.00  0.00    -0.193 C  
HETATM   13  H1  UNL     1      -9.721   3.204  70.622  1.00  0.00     0.000 HD 
HETATM   14  N   UNL     1      -9.897   3.685  71.504  1.00  0.00    -0.175 NA 
HETATM   15  H2  UNL     1     -10.051   3.182  72.379  1.00  0.00     0.000 HD 
BRANCH  12  16
HETATM   16  C   UNL     1      -9.737   5.696  70.090  1.00  0.00    -0.228 A  
HETATM   17  C   UNL     1      -9.243   6.995  69.956  1.00  0.00    -0.148 A  
HETATM   18  C   UNL     1      -9.499   7.706  68.780  1.00  0.00    -0.152 A  
HETATM   19  C   UNL     1     -10.142   7.098  67.693  1.00  0.00    -0.180 A  
HETATM   20  C   UNL     1     -10.472   5.744  67.788  1.00  0.00    -0.289 A  
HETATM   21  C   UNL     1     -10.283   5.045  68.980  1.00  0.00    -0.207 A  
BRANCH  19  22
HETATM   22  N   UNL     1     -10.640   7.931  66.674  1.00  0.00    -0.428 NA 
HETATM   23  H   UNL     1     -11.608   7.867  66.360  1.00  0.00     0.000 HD 
BRANCH  22  24
HETATM   24  C   UNL     1      -9.708   8.890  66.084  1.00  0.00    -0.268 C  
BRANCH  24  25
HETATM   25  C   UNL     1      -9.974  10.369  66.287  1.00  0.00    -0.226 A  
HETATM   26  N   UNL     1     -10.104  11.049  67.420  1.00  0.00    -0.182 NA 
HETATM   27  C   UNL     1     -10.262  12.382  67.063  1.00  0.00    -0.220 A  
HETATM   28  C   UNL     1     -10.219  12.506  65.677  1.00  0.00    -0.267 A  
HETATM   29  N   UNL     1     -10.101  11.219  65.209  1.00  0.00    -0.253 NA 
HETATM   30  C   UNL     1     -10.273  13.741  65.028  1.00  0.00    -0.370 A  
HETATM   31  C   UNL     1     -10.406  14.883  65.825  1.00  0.00    -0.351 A  
HETATM   32  C   UNL     1     -10.075  10.815  63.821  1.00  0.00    -0.327 C  
HETATM   33  C   UNL     1     -10.538  14.812  67.220  1.00  0.00    -0.273 A  
HETATM   34  C   UNL     1     -10.433  13.552  67.856  1.00  0.00    -0.253 A  
BRANCH  33  35
HETATM   35  C   UNL     1     -10.733  16.147  67.911  1.00  0.00    -0.321 C  
HETATM   36  N   UNL     1      -9.665  16.868  68.466  1.00  0.00    -0.253 N  
HETATM   37  O   UNL     1     -11.896  16.546  68.016  1.00  0.00     0.130 OA 
BRANCH  36  38
HETATM   38  C   UNL     1      -8.328  16.467  68.310  1.00  0.00    -0.189 A  
HETATM   39  C   UNL     1      -5.685  15.818  68.065  1.00  0.00    -0.141 A  
HETATM   40  N   UNL     1      -7.731  15.819  69.337  1.00  0.00    -0.226 NA 
HETATM   41  C   UNL     1      -6.334  16.437  67.005  1.00  0.00    -0.176 A  
HETATM   42  C   UNL     1      -6.419  15.526  69.201  1.00  0.00    -0.128 A  
HETATM   43  C   UNL     1      -7.671  16.767  67.122  1.00  0.00    -0.213 A  
ENDBRANCH  36  38
BRANCH  36  44
HETATM   44  C   UNL     1      -9.852  18.237  68.977  1.00  0.00    -0.250 C  
BRANCH  44  45
HETATM   45  C   UNL     1     -10.467  19.282  68.035  1.00  0.00    -0.488 C  
BRANCH  45  46
HETATM   46  C   UNL     1      -9.772  19.610  66.725  1.00  0.00    -0.378 C  
HETATM   47  O   UNL     1     -10.059  19.193  65.615  1.00  0.00    -0.448 OA 
BRANCH  46  48
HETATM   48  O   UNL     1      -8.725  20.452  67.011  1.00  0.00    -0.332 OA 
BRANCH  48  49
HETATM   49  C   UNL     1      -7.468  20.283  66.330  1.00  0.00    -0.230 C  
HETATM   50  C   UNL     1      -6.347  20.982  67.078  1.00  0.00    -0.386 C  
ENDBRANCH  48  49
ENDBRANCH  46  48
ENDBRANCH  45  46
ENDBRANCH  44  45
ENDBRANCH  36  44
ENDBRANCH  33  35
ENDBRANCH  24  25
ENDBRANCH  22  24
ENDBRANCH  19  22
ENDBRANCH  12  16
ENDBRANCH   9  12
ENDBRANCH   7   8
ENDBRANCH   6   7
ENDBRANCH   5   6
ENDBRANCH   4   5
ENDBRANCH   3   4
ENDBRANCH   2   3
TORSDOF 18
ENDMDL
MODEL       11
REMARK 921   NORMALIZED FREE ENERGY PREDICTED BY IDOCK:   -5.82 KCAL/MOL
REMARK 922        TOTAL FREE ENERGY PREDICTED BY IDOCK:  -15.14 KCAL/MOL
REMARK 923 INTER-LIGAND FREE ENERGY PREDICTED BY IDOCK:  -11.41 KCAL/MOL
REMARK 924 INTRA-LIGAND FREE ENERGY PREDICTED BY IDOCK:   -3.73 KCAL/MOL
REMARK 927      BINDING AFFINITY PREDICTED BY RF-SCORE:    0.00 PKD
ROOT
HETATM    1  C   UNL     1     -10.596   9.222  67.343  1.00  0.00    -0.324 C  
HETATM    2  C   UNL     1      -9.405  10.166  67.368  1.00  0.00    -0.167 C  
ENDROOT
BRANCH   2   3
HETATM    3  C   UNL     1      -8.830  10.242  68.773  1.00  0.00    -0.148 C  
BRANCH   3   4
HETATM    4  C   UNL     1      -7.625   9.327  68.952  1.00  0.00    -0.075 C  
BRANCH   4   5
HETATM    5  C   UNL     1      -7.931   8.344  70.072  1.00  0.00    -0.109 C  
BRANCH   5   6
HETATM    6  C   UNL     1      -6.802   8.233  71.067  1.00  0.00    -0.046 C  
BRANCH   6   7
HETATM    7  O   UNL     1      -6.602   6.838  71.344  1.00  0.00    -0.051 OA 
BRANCH   7   8
HETATM    8  C   UNL     1      -6.716   6.478  72.652  1.00  0.00    -0.064 C  
HETATM    9  N   UNL     1      -8.002   6.459  73.101  1.00  0.00    -0.105 N  
HETATM   10  O   UNL     1      -5.754   6.208  73.363  1.00  0.00    -0.039 OA 
HETATM   11  H   UNL     1      -8.225   6.933  73.977  1.00  0.00     0.000 HD 
BRANCH   9  12
HETATM   12  C   UNL     1      -8.958   5.855  72.452  1.00  0.00    -0.137 C  
HETATM   13  H1  UNL     1      -9.435   4.092  71.571  1.00  0.00     0.000 HD 
HETATM   14  N   UNL     1      -8.686   4.564  72.079  1.00  0.00    -0.116 NA 
HETATM   15  H2  UNL     1      -7.799   4.109  72.292  1.00  0.00     0.000 HD 
BRANCH  12  16
HETATM   16  C   UNL     1     -10.313   6.414  72.147  1.00  0.00    -0.213 A  
HETATM   17  C   UNL     1     -10.943   6.184  70.923  1.00  0.00    -0.359 A  
HETATM   18  C   UNL     1     -11.961   7.047  70.505  1.00  0.00    -0.315 A  
HETATM   19  C   UNL     1     -12.436   8.065  71.343  1.00  0.00    -0.301 A  
HETATM   20  C   UNL     1     -11.907   8.164  72.633  1.00  0.00    -0.389 A  
HETATM   21  C   UNL     1     -10.845   7.354  73.033  1.00  0.00    -0.423 A  
BRANCH  19  22
HETATM   22  N   UNL     1     -13.228   9.075  70.768  1.00  0.00    -0.424 NA 
HETATM   23  H   UNL     1     -13.755   8.914  69.909  1.00  0.00     0.000 HD 
BRANCH  22  24
HETATM   24  C   UNL     1     -13.264  10.364  71.455  1.00  0.00    -0.386 C  
BRANCH  24  25
HETATM   25  C   UNL     1     -12.647  11.565  70.765  1.00  0.00    -0.298 A  
HETATM   26  N   UNL     1     -11.838  11.602  69.714  1.00  0.00    -0.334 NA 
HETATM   27  C   UNL     1     -11.619  12.944  69.432  1.00  0.00    -0.302 A  
HETATM   28  C   UNL     1     -12.321  13.735  70.337  1.00  0.00    -0.353 A  
HETATM   29  N   UNL     1     -12.908  12.845  71.204  1.00  0.00    -0.294 NA 
HETATM   30  C   UNL     1     -12.355  15.128  70.254  1.00  0.00    -0.398 A  
HETATM   31  C   UNL     1     -11.620  15.731  69.227  1.00  0.00    -0.380 A  
HETATM   32  C   UNL     1     -13.701  13.183  72.365  1.00  0.00    -0.540 C  
HETATM   33  C   UNL     1     -10.827  14.990  68.338  1.00  0.00    -0.256 A  
HETATM   34  C   UNL     1     -10.848  13.576  68.415  1.00  0.00    -0.286 A  
BRANCH  33  35
HETATM   35  C   UNL     1     -10.054  15.817  67.330  1.00  0.00    -0.247 C  
HETATM   36  N   UNL     1      -8.652  15.872  67.322  1.00  0.00    -0.175 N  
HETATM   37  O   UNL     1     -10.724  16.492  66.544  1.00  0.00    -0.260 OA 
BRANCH  36  38
HETATM   38  C   UNL     1      -7.865  15.068  68.164  1.00  0.00    -0.120 A  
HETATM   39  C   UNL     1      -6.213  13.570  69.741  1.00  0.00    -0.116 A  
HETATM   40  N   UNL     1      -7.516  15.562  69.375  1.00  0.00    -0.209 NA 
HETATM   41  C   UNL     1      -6.627  13.062  68.517  1.00  0.00    -0.088 A  
HETATM   42  C   UNL     1      -6.683  14.812  70.129  1.00  0.00    -0.114 A  
HETATM   43  C   UNL     1      -7.464  13.816  67.715  1.00  0.00    -0.168 A  
ENDBRANCH  36  38
BRANCH  36  44
HETATM   44  C   UNL     1      -7.921  16.539  66.231  1.00  0.00    -0.272 C  
BRANCH  44  45
HETATM   45  C   UNL     1      -7.143  17.822  66.561  1.00  0.00    -0.275 C  
BRANCH  45  46
HETATM   46  C   UNL     1      -7.758  18.850  67.495  1.00  0.00    -0.233 C  
HETATM   47  O   UNL     1      -7.758  18.829  68.715  1.00  0.00    -0.326 OA 
BRANCH  46  48
HETATM   48  O   UNL     1      -8.348  19.816  66.716  1.00  0.00    -0.291 OA 
BRANCH  48  49
HETATM   49  C   UNL     1      -9.462  20.567  67.236  1.00  0.00    -0.418 C  
HETATM   50  C   UNL     1     -10.778  19.897  66.886  1.00  0.00    -0.471 C  
ENDBRANCH  48  49
ENDBRANCH  46  48
ENDBRANCH  45  46
ENDBRANCH  44  45
ENDBRANCH  36  44
ENDBRANCH  33  35
ENDBRANCH  24  25
ENDBRANCH  22  24
ENDBRANCH  19  22
ENDBRANCH  12  16
ENDBRANCH   9  12
ENDBRANCH   7   8
ENDBRANCH   6   7
ENDBRANCH   5   6
ENDBRANCH   4   5
ENDBRANCH   3   4
ENDBRANCH   2   3
TORSDOF 18
ENDMDL
MODEL       12
REMARK 921   NORMALIZED FREE ENERGY PREDICTED BY IDOCK:   -5.80 KCAL/MOL
REMARK 922        TOTAL FREE ENERGY PREDICTED BY IDOCK:  -15.11 KCAL/MOL
REMARK 923 INTER-LIGAND FREE ENERGY PREDICTED BY IDOCK:  -12.30 KCAL/MOL
REMARK 924 INTRA-LIGAND FREE ENERGY PREDICTED BY IDOCK:   -2.81 KCAL/MOL
REMARK 927      BINDING AFFINITY PREDICTED BY RF-SCORE:    0.00 PKD
ROOT
HETATM    1  C   UNL     1     -13.434  13.037  72.083  1.00  0.00    -0.638 C  
HETATM    2  C   UNL     1     -12.732  11.999  71.224  1.00  0.00    -0.382 C  
ENDROOT
BRANCH   2   3
HETATM    3  C   UNL     1     -13.077  10.600  71.709  1.00  0.00    -0.571 C  
BRANCH   3   4
HETATM    4  C   UNL     1     -11.971   9.597  71.406  1.00  0.00    -0.480 C  
BRANCH   4   5
HETATM    5  C   UNL     1     -12.170   8.379  72.296  1.00  0.00    -0.449 C  
BRANCH   5   6
HETATM    6  C   UNL     1     -11.926   7.083  71.562  1.00  0.00    -0.334 C  
BRANCH   6   7
HETATM    7  O   UNL     1     -10.782   6.454  72.160  1.00  0.00    -0.215 OA 
BRANCH   7   8
HETATM    8  C   UNL     1     -10.949   5.150  72.513  1.00  0.00    -0.215 C  
HETATM    9  N   UNL     1     -10.295   4.276  71.697  1.00  0.00    -0.081 N  
HETATM   10  O   UNL     1     -11.631   4.792  73.468  1.00  0.00    -0.281 OA 
HETATM   11  H   UNL     1     -10.805   3.474  71.326  1.00  0.00     0.000 HD 
BRANCH   9  12
HETATM   12  C   UNL     1      -9.042   4.429  71.374  1.00  0.00    -0.127 C  
HETATM   13  H1  UNL     1      -7.232   4.909  72.152  1.00  0.00     0.000 HD 
HETATM   14  N   UNL     1      -8.213   4.790  72.405  1.00  0.00    -0.113 NA 
HETATM   15  H2  UNL     1      -8.552   4.930  73.357  1.00  0.00     0.000 HD 
BRANCH  12  16
HETATM   16  C   UNL     1      -8.437   4.187  70.027  1.00  0.00    -0.091 A  
HETATM   17  C   UNL     1      -7.297   4.869  69.599  1.00  0.00    -0.056 A  
HETATM   18  C   UNL     1      -7.024   4.955  68.231  1.00  0.00    -0.057 A  
HETATM   19  C   UNL     1      -7.810   4.272  67.293  1.00  0.00    -0.096 A  
HETATM   20  C   UNL     1      -8.841   3.453  67.759  1.00  0.00    -0.153 A  
HETATM   21  C   UNL     1      -9.165   3.416  69.115  1.00  0.00    -0.227 A  
BRANCH  19  22
HETATM   22  N   UNL     1      -7.681   4.634  65.939  1.00  0.00    -0.093 NA 
HETATM   23  H   UNL     1      -6.885   4.329  65.380  1.00  0.00     0.000 HD 
BRANCH  22  24
HETATM   24  C   UNL     1      -8.740   5.466  65.370  1.00  0.00    -0.154 C  
BRANCH  24  25
HETATM   25  C   UNL     1      -8.942   6.859  65.934  1.00  0.00    -0.064 A  
HETATM   26  N   UNL     1      -8.237   7.962  65.712  1.00  0.00    -0.123 NA 
HETATM   27  C   UNL     1      -8.875   8.983  66.405  1.00  0.00    -0.146 A  
HETATM   28  C   UNL     1      -9.997   8.479  67.058  1.00  0.00    -0.250 A  
HETATM   29  N   UNL     1      -9.981   7.129  66.798  1.00  0.00    -0.214 NA 
HETATM   30  C   UNL     1     -10.881   9.287  67.773  1.00  0.00    -0.192 A  
HETATM   31  C   UNL     1     -10.589  10.654  67.848  1.00  0.00    -0.266 A  
HETATM   32  C   UNL     1     -10.916   6.151  67.309  1.00  0.00    -0.326 C  
HETATM   33  C   UNL     1      -9.429  11.204  67.281  1.00  0.00    -0.178 A  
HETATM   34  C   UNL     1      -8.575  10.369  66.522  1.00  0.00    -0.134 A  
BRANCH  33  35
HETATM   35  C   UNL     1      -9.248  12.691  67.514  1.00  0.00    -0.190 C  
HETATM   36  N   UNL     1      -9.791  13.657  66.653  1.00  0.00    -0.276 N  
HETATM   37  O   UNL     1      -8.544  13.015  68.475  1.00  0.00    -0.144 OA 
BRANCH  36  38
HETATM   38  C   UNL     1     -10.644  13.319  65.589  1.00  0.00    -0.283 A  
HETATM   39  C   UNL     1     -12.329  12.529  63.589  1.00  0.00    -0.618 A  
HETATM   40  N   UNL     1     -11.958  13.621  65.704  1.00  0.00    -0.372 NA 
HETATM   41  C   UNL     1     -10.969  12.276  63.471  1.00  0.00    -0.521 A  
HETATM   42  C   UNL     1     -12.774  13.204  64.711  1.00  0.00    -0.308 A  
HETATM   43  C   UNL     1     -10.111  12.674  64.479  1.00  0.00    -0.271 A  
ENDBRANCH  36  38
BRANCH  36  44
HETATM   44  C   UNL     1      -9.750  15.090  66.992  1.00  0.00    -0.236 C  
BRANCH  44  45
HETATM   45  C   UNL     1      -9.238  16.071  65.927  1.00  0.00    -0.321 C  
BRANCH  45  46
HETATM   46  C   UNL     1      -9.240  17.562  66.220  1.00  0.00    -0.203 C  
HETATM   47  O   UNL     1      -8.392  18.376  65.897  1.00  0.00    -0.502 OA 
BRANCH  46  48
HETATM   48  O   UNL     1     -10.371  17.839  66.949  1.00  0.00    -0.335 OA 
BRANCH  48  49
HETATM   49  C   UNL     1     -10.769  19.207  67.154  1.00  0.00    -0.471 C  
HETATM   50  C   UNL     1     -10.251  19.730  68.481  1.00  0.00    -0.547 C  
ENDBRANCH  48  49
ENDBRANCH  46  48
ENDBRANCH  45  46
ENDBRANCH  44  45
ENDBRANCH  36  44
ENDBRANCH  33  35
ENDBRANCH  24  25
ENDBRANCH  22  24
ENDBRANCH  19  22
ENDBRANCH  12  16
ENDBRANCH   9  12
ENDBRANCH   7   8
ENDBRANCH   6   7
ENDBRANCH   5   6
ENDBRANCH   4   5
ENDBRANCH   3   4
ENDBRANCH   2   3
TORSDOF 18
ENDMDL
MODEL       13
REMARK 921   NORMALIZED FREE ENERGY PREDICTED BY IDOCK:   -5.77 KCAL/MOL
REMARK 922        TOTAL FREE ENERGY PREDICTED BY IDOCK:  -15.04 KCAL/MOL
REMARK 923 INTER-LIGAND FREE ENERGY PREDICTED BY IDOCK:  -11.63 KCAL/MOL
REMARK 924 INTRA-LIGAND FREE ENERGY PREDICTED BY IDOCK:   -3.41 KCAL/MOL
REMARK 927      BINDING AFFINITY PREDICTED BY RF-SCORE:    0.00 PKD
ROOT
HETATM    1  C   UNL     1     -11.543  11.449  69.698  1.00  0.00    -0.399 C  
HETATM    2  C   UNL     1     -12.504  11.661  70.855  1.00  0.00    -0.440 C  
ENDROOT
BRANCH   2   3
HETATM    3  C   UNL     1     -12.839  10.329  71.507  1.00  0.00    -0.557 C  
BRANCH   3   4
HETATM    4  C   UNL     1     -11.634   9.399  71.567  1.00  0.00    -0.467 C  
BRANCH   4   5
HETATM    5  C   UNL     1     -12.126   7.965  71.435  1.00  0.00    -0.333 C  
BRANCH   5   6
HETATM    6  C   UNL     1     -11.660   7.088  72.571  1.00  0.00    -0.206 C  
BRANCH   6   7
HETATM    7  O   UNL     1     -11.573   5.743  72.074  1.00  0.00    -0.255 OA 
BRANCH   7   8
HETATM    8  C   UNL     1     -10.991   4.845  72.915  1.00  0.00    -0.262 C  
HETATM    9  N   UNL     1      -9.981   4.135  72.339  1.00  0.00    -0.160 N  
HETATM   10  O   UNL     1     -11.346   4.681  74.078  1.00  0.00    -0.232 OA 
HETATM   11  H   UNL     1      -9.974   3.119  72.438  1.00  0.00     0.000 HD 
BRANCH   9  12
HETATM   12  C   UNL     1      -9.023   4.707  71.664  1.00  0.00    -0.133 C  
HETATM   13  H1  UNL     1      -7.013   4.972  71.643  1.00  0.00     0.000 HD 
HETATM   14  N   UNL     1      -7.762   4.525  72.171  1.00  0.00    -0.088 NA 
HETATM   15  H2  UNL     1      -7.586   3.981  73.017  1.00  0.00     0.000 HD 
BRANCH  12  16
HETATM   16  C   UNL     1      -9.172   5.468  70.384  1.00  0.00    -0.182 A  
HETATM   17  C   UNL     1      -8.707   6.777  70.250  1.00  0.00    -0.144 A  
HETATM   18  C   UNL     1      -9.232   7.590  69.241  1.00  0.00    -0.144 A  
HETATM   19  C   UNL     1     -10.130   7.077  68.294  1.00  0.00    -0.167 A  
HETATM   20  C   UNL     1     -10.446   5.717  68.345  1.00  0.00    -0.283 A  
HETATM   21  C   UNL     1      -9.982   4.916  69.388  1.00  0.00    -0.282 A  
BRANCH  19  22
HETATM   22  N   UNL     1     -10.849   7.994  67.506  1.00  0.00    -0.518 NA 
HETATM   23  H   UNL     1     -11.820   8.227  67.713  1.00  0.00     0.000 HD 
BRANCH  22  24
HETATM   24  C   UNL     1     -10.143   8.598  66.377  1.00  0.00    -0.224 C  
BRANCH  24  25
HETATM   25  C   UNL     1      -9.911  10.096  66.391  1.00  0.00    -0.234 A  
HETATM   26  N   UNL     1     -10.748  11.076  66.070  1.00  0.00    -0.218 NA 
HETATM   27  C   UNL     1     -10.077  12.265  66.324  1.00  0.00    -0.234 A  
HETATM   28  C   UNL     1      -8.804  11.992  66.816  1.00  0.00    -0.198 A  
HETATM   29  N   UNL     1      -8.701  10.621  66.789  1.00  0.00    -0.129 NA 
HETATM   30  C   UNL     1      -7.925  12.992  67.233  1.00  0.00    -0.143 A  
HETATM   31  C   UNL     1      -8.354  14.319  67.115  1.00  0.00    -0.202 A  
HETATM   32  C   UNL     1      -7.534   9.847  67.150  1.00  0.00    -0.091 C  
HETATM   33  C   UNL     1      -9.593  14.657  66.549  1.00  0.00    -0.308 A  
HETATM   34  C   UNL     1     -10.483  13.622  66.177  1.00  0.00    -0.297 A  
BRANCH  33  35
HETATM   35  C   UNL     1      -9.862  16.145  66.447  1.00  0.00    -0.284 C  
HETATM   36  N   UNL     1     -10.616  16.839  67.406  1.00  0.00    -0.315 N  
HETATM   37  O   UNL     1      -9.433  16.714  65.439  1.00  0.00    -0.413 OA 
BRANCH  36  38
HETATM   38  C   UNL     1     -11.064  16.232  68.590  1.00  0.00    -0.356 A  
HETATM   39  C   UNL     1     -12.002  15.181  70.931  1.00  0.00    -0.378 A  
HETATM   40  N   UNL     1     -12.282  15.642  68.584  1.00  0.00    -0.056 NA 
HETATM   41  C   UNL     1     -10.733  15.745  70.900  1.00  0.00    -0.039 A  
HETATM   42  C   UNL     1     -12.733  15.147  69.757  1.00  0.00    -0.024 A  
HETATM   43  C   UNL     1     -10.253  16.277  69.718  1.00  0.00    -0.169 A  
ENDBRANCH  36  38
BRANCH  36  44
HETATM   44  C   UNL     1     -10.718  18.309  67.379  1.00  0.00    -0.350 C  
BRANCH  44  45
HETATM   45  C   UNL     1      -9.541  19.126  67.930  1.00  0.00    -0.390 C  
BRANCH  45  46
HETATM   46  C   UNL     1      -8.406  19.525  67.002  1.00  0.00    -0.287 C  
HETATM   47  O   UNL     1      -8.503  19.947  65.861  1.00  0.00    -0.338 OA 
BRANCH  46  48
HETATM   48  O   UNL     1      -7.226  19.300  67.668  1.00  0.00    -0.224 OA 
BRANCH  48  49
HETATM   49  C   UNL     1      -7.240  18.581  68.916  1.00  0.00    -0.279 C  
HETATM   50  C   UNL     1      -6.681  17.180  68.741  1.00  0.00    -0.200 C  
ENDBRANCH  48  49
ENDBRANCH  46  48
ENDBRANCH  45  46
ENDBRANCH  44  45
ENDBRANCH  36  44
ENDBRANCH  33  35
ENDBRANCH  24  25
ENDBRANCH  22  24
ENDBRANCH  19  22
ENDBRANCH  12  16
ENDBRANCH   9  12
ENDBRANCH   7   8
ENDBRANCH   6   7
ENDBRANCH   5   6
ENDBRANCH   4   5
ENDBRANCH   3   4
ENDBRANCH   2   3
TORSDOF 18
ENDMDL
MODEL       14
REMARK 921   NORMALIZED FREE ENERGY PREDICTED BY IDOCK:   -5.70 KCAL/MOL
REMARK 922        TOTAL FREE ENERGY PREDICTED BY IDOCK:  -14.90 KCAL/MOL
REMARK 923 INTER-LIGAND FREE ENERGY PREDICTED BY IDOCK:  -11.66 KCAL/MOL
REMARK 924 INTRA-LIGAND FREE ENERGY PREDICTED BY IDOCK:   -3.24 KCAL/MOL
REMARK 927      BINDING AFFINITY PREDICTED BY RF-SCORE:    0.00 PKD
ROOT
HETATM    1  C   UNL     1      -8.047  15.140  69.474  1.00  0.00    -0.167 C  
HETATM    2  C   UNL     1      -8.128  14.505  68.096  1.00  0.00    -0.137 C  
ENDROOT
BRANCH   2   3
HETATM    3  C   UNL     1      -7.289  15.298  67.106  1.00  0.00    -0.178 C  
BRANCH   3   4
HETATM    4  C   UNL     1      -7.058  16.732  67.566  1.00  0.00    -0.171 C  
BRANCH   4   5
HETATM    5  C   UNL     1      -6.999  17.627  66.337  1.00  0.00    -0.300 C  
BRANCH   5   6
HETATM    6  C   UNL     1      -7.455  19.036  66.627  1.00  0.00    -0.228 C  
BRANCH   6   7
HETATM    7  O   UNL     1      -8.762  19.197  66.053  1.00  0.00    -0.450 OA 
BRANCH   7   8
HETATM    8  C   UNL     1      -9.665  19.858  66.827  1.00  0.00    -0.416 C  
HETATM    9  N   UNL     1     -10.728  19.092  67.200  1.00  0.00    -0.471 N  
HETATM   10  O   UNL     1      -9.540  21.035  67.151  1.00  0.00    -0.360 OA 
HETATM   11  H   UNL     1     -11.670  19.464  67.076  1.00  0.00     0.000 HD 
BRANCH   9  12
HETATM   12  C   UNL     1     -10.584  17.902  67.710  1.00  0.00    -0.389 C  
HETATM   13  H1  UNL     1     -10.135  16.940  69.438  1.00  0.00     0.000 HD 
HETATM   14  N   UNL     1     -10.248  17.872  69.039  1.00  0.00    -0.381 NA 
HETATM   15  H2  UNL     1     -10.118  18.721  69.590  1.00  0.00     0.000 HD 
BRANCH  12  16
HETATM   16  C   UNL     1     -10.812  16.601  67.005  1.00  0.00    -0.091 A  
HETATM   17  C   UNL     1     -10.513  16.436  65.652  1.00  0.00    -0.364 A  
HETATM   18  C   UNL     1     -11.125  15.402  64.937  1.00  0.00    -0.435 A  
HETATM   19  C   UNL     1     -11.941  14.462  65.581  1.00  0.00    -0.354 A  
HETATM   20  C   UNL     1     -12.084  14.546  66.968  1.00  0.00    -0.303 A  
HETATM   21  C   UNL     1     -11.536  15.613  67.679  1.00  0.00    -0.167 A  
BRANCH  19  22
HETATM   22  N   UNL     1     -12.760  13.644  64.781  1.00  0.00    -0.680 NA 
HETATM   23  H   UNL     1     -13.581  14.017  64.305  1.00  0.00     0.000 HD 
BRANCH  22  24
HETATM   24  C   UNL     1     -12.383  12.237  64.664  1.00  0.00    -0.369 C  
BRANCH  24  25
HETATM   25  C   UNL     1     -11.396  11.671  65.667  1.00  0.00    -0.170 A  
HETATM   26  N   UNL     1     -11.553  11.461  66.968  1.00  0.00    -0.514 NA 
HETATM   27  C   UNL     1     -10.383  10.859  67.413  1.00  0.00    -0.211 A  
HETATM   28  C   UNL     1      -9.501  10.699  66.348  1.00  0.00    -0.171 A  
HETATM   29  N   UNL     1     -10.136  11.275  65.274  1.00  0.00    -0.253 NA 
HETATM   30  C   UNL     1      -8.272  10.051  66.477  1.00  0.00    -0.119 A  
HETATM   31  C   UNL     1      -7.921   9.579  67.746  1.00  0.00    -0.099 A  
HETATM   32  C   UNL     1      -9.597  11.413  63.939  1.00  0.00    -0.216 C  
HETATM   33  C   UNL     1      -8.732   9.786  68.873  1.00  0.00    -0.136 A  
HETATM   34  C   UNL     1      -9.994  10.403  68.705  1.00  0.00    -0.196 A  
BRANCH  33  35
HETATM   35  C   UNL     1      -8.163   9.258  70.175  1.00  0.00    -0.167 C  
HETATM   36  N   UNL     1      -8.488   7.988  70.676  1.00  0.00    -0.122 N  
HETATM   37  O   UNL     1      -7.437  10.028  70.810  1.00  0.00    -0.298 OA 
BRANCH  36  38
HETATM   38  C   UNL     1      -9.262   7.070  69.947  1.00  0.00    -0.144 A  
HETATM   39  C   UNL     1     -10.768   5.383  68.416  1.00  0.00    -0.071 A  
HETATM   40  N   UNL     1      -8.620   6.184  69.151  1.00  0.00    -0.118 NA 
HETATM   41  C   UNL     1     -11.404   6.265  69.279  1.00  0.00    -0.411 A  
HETATM   42  C   UNL     1      -9.385   5.373  68.389  1.00  0.00    -0.114 A  
HETATM   43  C   UNL     1     -10.646   7.121  70.057  1.00  0.00    -0.248 A  
ENDBRANCH  36  38
BRANCH  36  44
HETATM   44  C   UNL     1      -7.792   7.429  71.849  1.00  0.00    -0.090 C  
BRANCH  44  45
HETATM   45  C   UNL     1      -8.447   7.599  73.227  1.00  0.00    -0.208 C  
BRANCH  45  46
HETATM   46  C   UNL     1      -9.711   6.823  73.555  1.00  0.00    -0.203 C  
HETATM   47  O   UNL     1     -10.779   7.279  73.929  1.00  0.00    -0.318 OA 
BRANCH  46  48
HETATM   48  O   UNL     1      -9.435   5.489  73.381  1.00  0.00    -0.138 OA 
BRANCH  48  49
HETATM   49  C   UNL     1     -10.353   4.662  72.642  1.00  0.00    -0.196 C  
HETATM   50  C   UNL     1     -10.816   3.483  73.479  1.00  0.00    -0.321 C  
ENDBRANCH  48  49
ENDBRANCH  46  48
ENDBRANCH  45  46
ENDBRANCH  44  45
ENDBRANCH  36  44
ENDBRANCH  33  35
ENDBRANCH  24  25
ENDBRANCH  22  24
ENDBRANCH  19  22
ENDBRANCH  12  16
ENDBRANCH   9  12
ENDBRANCH   7   8
ENDBRANCH   6   7
ENDBRANCH   5   6
ENDBRANCH   4   5
ENDBRANCH   3   4
ENDBRANCH   2   3
TORSDOF 18
ENDMDL
MODEL       15
REMARK 921   NORMALIZED FREE ENERGY PREDICTED BY IDOCK:   -5.67 KCAL/MOL
REMARK 922        TOTAL FREE ENERGY PREDICTED BY IDOCK:  -14.84 KCAL/MOL
REMARK 923 INTER-LIGAND FREE ENERGY PREDICTED BY IDOCK:  -12.23 KCAL/MOL
REMARK 924 INTRA-LIGAND FREE ENERGY PREDICTED BY IDOCK:   -2.61 KCAL/MOL
REMARK 927      BINDING AFFINITY PREDICTED BY RF-SCORE:    0.00 PKD
ROOT
HETATM    1  C   UNL     1     -12.186  11.996  63.420  1.00  0.00    -0.627 C  
HETATM    2  C   UNL     1     -10.679  11.886  63.267  1.00  0.00    -0.415 C  
ENDROOT
BRANCH   2   3
HETATM    3  C   UNL     1     -10.124  10.887  64.270  1.00  0.00    -0.413 C  
BRANCH   3   4
HETATM    4  C   UNL     1      -9.178   9.884  63.621  1.00  0.00    -0.283 C  
BRANCH   4   5
HETATM    5  C   UNL     1      -8.187   9.409  64.672  1.00  0.00    -0.148 C  
BRANCH   5   6
HETATM    6  C   UNL     1      -8.213   7.911  64.854  1.00  0.00    -0.124 C  
BRANCH   6   7
HETATM    7  O   UNL     1      -8.540   7.646  66.228  1.00  0.00    -0.129 OA 
BRANCH   7   8
HETATM    8  C   UNL     1      -9.858   7.427  66.485  1.00  0.00    -0.139 C  
HETATM    9  N   UNL     1     -10.212   6.112  66.431  1.00  0.00    -0.400 N  
HETATM   10  O   UNL     1     -10.656   8.325  66.731  1.00  0.00    -0.306 OA 
HETATM   11  H   UNL     1     -11.032   5.845  65.885  1.00  0.00     0.000 HD 
BRANCH   9  12
HETATM   12  C   UNL     1      -9.540   5.183  67.050  1.00  0.00    -0.147 C  
HETATM   13  H1  UNL     1      -8.425   3.521  66.724  1.00  0.00     0.000 HD 
HETATM   14  N   UNL     1      -8.950   4.248  66.239  1.00  0.00    -0.116 NA 
HETATM   15  H2  UNL     1      -9.032   4.277  65.222  1.00  0.00     0.000 HD 
BRANCH  12  16
HETATM   16  C   UNL     1      -9.309   5.090  68.526  1.00  0.00    -0.167 A  
HETATM   17  C   UNL     1     -10.365   4.939  69.427  1.00  0.00    -0.138 A  
HETATM   18  C   UNL     1     -10.177   5.290  70.767  1.00  0.00    -0.317 A  
HETATM   19  C   UNL     1      -8.917   5.681  71.242  1.00  0.00    -0.139 A  
HETATM   20  C   UNL     1      -7.836   5.656  70.357  1.00  0.00    -0.102 A  
HETATM   21  C   UNL     1      -8.027   5.374  69.005  1.00  0.00    -0.094 A  
BRANCH  19  22
HETATM   22  N   UNL     1      -8.854   6.306  72.500  1.00  0.00    -0.124 NA 
HETATM   23  H   UNL     1      -9.089   5.805  73.357  1.00  0.00     0.000 HD 
BRANCH  22  24
HETATM   24  C   UNL     1      -8.437   7.707  72.526  1.00  0.00    -0.120 C  
BRANCH  24  25
HETATM   25  C   UNL     1      -9.117   8.678  71.581  1.00  0.00    -0.247 A  
HETATM   26  N   UNL     1      -8.614   9.315  70.530  1.00  0.00    -0.218 NA 
HETATM   27  C   UNL     1      -9.663  10.025  69.961  1.00  0.00    -0.175 A  
HETATM   28  C   UNL     1     -10.830   9.804  70.688  1.00  0.00    -0.329 A  
HETATM   29  N   UNL     1     -10.447   9.005  71.739  1.00  0.00    -0.354 NA 
HETATM   30  C   UNL     1     -12.067  10.327  70.308  1.00  0.00    -0.330 A  
HETATM   31  C   UNL     1     -12.104  11.127  69.161  1.00  0.00    -0.352 A  
HETATM   32  C   UNL     1     -11.296   8.546  72.815  1.00  0.00    -0.021 C  
HETATM   33  C   UNL     1     -10.947  11.452  68.436  1.00  0.00    -0.263 A  
HETATM   34  C   UNL     1      -9.713  10.871  68.817  1.00  0.00    -0.196 A  
BRANCH  33  35
HETATM   35  C   UNL     1     -11.170  12.379  67.259  1.00  0.00    -0.303 C  
HETATM   36  N   UNL     1     -10.239  13.363  66.891  1.00  0.00    -0.249 N  
HETATM   37  O   UNL     1     -12.247  12.267  66.667  1.00  0.00    -0.574 OA 
BRANCH  36  38
HETATM   38  C   UNL     1      -8.982  13.473  67.508  1.00  0.00    -0.210 A  
HETATM   39  C   UNL     1      -6.507  13.805  68.616  1.00  0.00    -0.093 A  
HETATM   40  N   UNL     1      -8.865  14.295  68.577  1.00  0.00    -0.182 NA 
HETATM   41  C   UNL     1      -6.662  12.928  67.551  1.00  0.00    -0.156 A  
HETATM   42  C   UNL     1      -7.628  14.458  69.096  1.00  0.00    -0.072 A  
HETATM   43  C   UNL     1      -7.912  12.755  66.987  1.00  0.00    -0.045 A  
ENDBRANCH  36  38
BRANCH  36  44
HETATM   44  C   UNL     1     -10.395  14.133  65.644  1.00  0.00    -0.333 C  
BRANCH  44  45
HETATM   45  C   UNL     1     -10.158  15.650  65.697  1.00  0.00    -0.395 C  
BRANCH  45  46
HETATM   46  C   UNL     1     -11.054  16.575  64.891  1.00  0.00    -0.190 C  
HETATM   47  O   UNL     1     -11.865  16.255  64.038  1.00  0.00    -0.958 OA 
BRANCH  46  48
HETATM   48  O   UNL     1     -10.772  17.863  65.276  1.00  0.00    -0.640 OA 
BRANCH  48  49
HETATM   49  C   UNL     1      -9.923  18.096  66.415  1.00  0.00    -0.376 C  
HETATM   50  C   UNL     1     -10.640  18.924  67.466  1.00  0.00    -0.524 C  
ENDBRANCH  48  49
ENDBRANCH  46  48
ENDBRANCH  45  46
ENDBRANCH  44  45
ENDBRANCH  36  44
ENDBRANCH  33  35
ENDBRANCH  24  25
ENDBRANCH  22  24
ENDBRANCH  19  22
ENDBRANCH  12  16
ENDBRANCH   9  12
ENDBRANCH   7   8
ENDBRANCH   6   7
ENDBRANCH   5   6
ENDBRANCH   4   5
ENDBRANCH   3   4
ENDBRANCH   2   3
TORSDOF 18
ENDMDL
MODEL       16
REMARK 921   NORMALIZED FREE ENERGY PREDICTED BY IDOCK:   -5.67 KCAL/MOL
REMARK 922        TOTAL FREE ENERGY PREDICTED BY IDOCK:  -14.84 KCAL/MOL
REMARK 923 INTER-LIGAND FREE ENERGY PREDICTED BY IDOCK:  -10.11 KCAL/MOL
REMARK 924 INTRA-LIGAND FREE ENERGY PREDICTED BY IDOCK:   -4.73 KCAL/MOL
REMARK 927      BINDING AFFINITY PREDICTED BY RF-SCORE:    0.00 PKD
ROOT
HETATM    1  C   UNL     1     -11.248   6.279  69.126  1.00  0.00    -0.439 C  
HETATM    2  C   UNL     1     -10.519   7.062  68.047  1.00  0.00    -0.255 C  
ENDROOT
BRANCH   2   3
HETATM    3  C   UNL     1      -9.020   7.026  68.298  1.00  0.00    -0.128 C  
BRANCH   3   4
HETATM    4  C   UNL     1      -8.259   6.373  67.151  1.00  0.00    -0.113 C  
BRANCH   4   5
HETATM    5  C   UNL     1      -9.264   5.923  66.102  1.00  0.00    -0.164 C  
BRANCH   5   6
HETATM    6  C   UNL     1      -8.720   4.834  65.211  1.00  0.00    -0.142 C  
BRANCH   6   7
HETATM    7  O   UNL     1      -9.173   3.576  65.737  1.00  0.00    -0.148 OA 
BRANCH   7   8
HETATM    8  C   UNL     1      -8.196   2.663  65.992  1.00  0.00    -0.087 C  
HETATM    9  N   UNL     1      -7.666   2.768  67.243  1.00  0.00    -0.069 N  
HETATM   10  O   UNL     1      -7.820   1.831  65.172  1.00  0.00    -0.070 OA 
HETATM   11  H   UNL     1      -6.651   2.788  67.347  1.00  0.00     0.000 HD 
BRANCH   9  12
HETATM   12  C   UNL     1      -8.408   2.844  68.311  1.00  0.00    -0.073 C  
HETATM   13  H1  UNL     1     -10.148   2.171  69.107  1.00  0.00     0.000 HD 
HETATM   14  N   UNL     1      -9.567   2.111  68.270  1.00  0.00    -0.272 NA 
HETATM   15  H2  UNL     1      -9.829   1.548  67.462  1.00  0.00     0.000 HD 
BRANCH  12  16
HETATM   16  C   UNL     1      -8.082   3.590  69.567  1.00  0.00    -0.064 A  
HETATM   17  C   UNL     1      -9.044   3.833  70.548  1.00  0.00    -0.189 A  
HETATM   18  C   UNL     1      -8.843   4.871  71.463  1.00  0.00    -0.152 A  
HETATM   19  C   UNL     1      -7.642   5.594  71.482  1.00  0.00    -0.105 A  
HETATM   20  C   UNL     1      -6.624   5.215  70.603  1.00  0.00    -0.035 A  
HETATM   21  C   UNL     1      -6.841   4.228  69.642  1.00  0.00    -0.042 A  
BRANCH  19  22
HETATM   22  N   UNL     1      -7.613   6.803  72.201  1.00  0.00    -0.093 NA 
HETATM   23  H   UNL     1      -6.733   7.258  72.441  1.00  0.00     0.000 HD 
BRANCH  22  24
HETATM   24  C   UNL     1      -8.900   7.376  72.588  1.00  0.00    -0.129 C  
BRANCH  24  25
HETATM   25  C   UNL     1      -9.489   8.474  71.723  1.00  0.00    -0.258 A  
HETATM   26  N   UNL     1      -8.870   9.318  70.906  1.00  0.00    -0.221 NA 
HETATM   27  C   UNL     1      -9.863  10.072  70.294  1.00  0.00    -0.085 A  
HETATM   28  C   UNL     1     -11.113   9.666  70.753  1.00  0.00    -0.334 A  
HETATM   29  N   UNL     1     -10.847   8.704  71.698  1.00  0.00    -0.278 NA 
HETATM   30  C   UNL     1     -12.307  10.192  70.258  1.00  0.00    -0.211 A  
HETATM   31  C   UNL     1     -12.216  11.189  69.281  1.00  0.00    -0.295 A  
HETATM   32  C   UNL     1     -11.825   8.013  72.510  1.00  0.00    -0.361 C  
HETATM   33  C   UNL     1     -10.984  11.697  68.841  1.00  0.00    -0.282 A  
HETATM   34  C   UNL     1      -9.789  11.113  69.325  1.00  0.00    -0.000 A  
BRANCH  33  35
HETATM   35  C   UNL     1     -11.081  12.816  67.823  1.00  0.00    -0.253 C  
HETATM   36  N   UNL     1     -10.355  12.803  66.622  1.00  0.00    -0.239 N  
HETATM   37  O   UNL     1     -11.791  13.777  68.130  1.00  0.00    -0.343 OA 
BRANCH  36  38
HETATM   38  C   UNL     1      -9.587  11.697  66.221  1.00  0.00    -0.221 A  
HETATM   39  C   UNL     1      -8.073   9.615  65.310  1.00  0.00    -0.125 A  
HETATM   40  N   UNL     1      -8.253  11.732  66.443  1.00  0.00    -0.072 NA 
HETATM   41  C   UNL     1      -9.451   9.577  65.141  1.00  0.00    -0.305 A  
HETATM   42  C   UNL     1      -7.522  10.701  65.966  1.00  0.00    -0.137 A  
HETATM   43  C   UNL     1     -10.222  10.628  65.601  1.00  0.00    -0.319 A  
ENDBRANCH  36  38
BRANCH  36  44
HETATM   44  C   UNL     1     -10.595  13.811  65.574  1.00  0.00    -0.307 C  
BRANCH  44  45
HETATM   45  C   UNL     1      -9.944  15.193  65.737  1.00  0.00    -0.375 C  
BRANCH  45  46
HETATM   46  C   UNL     1     -10.686  16.430  65.259  1.00  0.00    -0.295 C  
HETATM   47  O   UNL     1     -11.213  16.598  64.173  1.00  0.00    -1.103 OA 
BRANCH  46  48
HETATM   48  O   UNL     1     -10.637  17.358  66.271  1.00  0.00    -0.297 OA 
BRANCH  48  49
HETATM   49  C   UNL     1      -9.361  17.818  66.755  1.00  0.00    -0.280 C  
HETATM   50  C   UNL     1      -9.522  18.610  68.040  1.00  0.00    -0.344 C  
ENDBRANCH  48  49
ENDBRANCH  46  48
ENDBRANCH  45  46
ENDBRANCH  44  45
ENDBRANCH  36  44
ENDBRANCH  33  35
ENDBRANCH  24  25
ENDBRANCH  22  24
ENDBRANCH  19  22
ENDBRANCH  12  16
ENDBRANCH   9  12
ENDBRANCH   7   8
ENDBRANCH   6   7
ENDBRANCH   5   6
ENDBRANCH   4   5
ENDBRANCH   3   4
ENDBRANCH   2   3
TORSDOF 18
ENDMDL
MODEL       17
REMARK 921   NORMALIZED FREE ENERGY PREDICTED BY IDOCK:   -5.61 KCAL/MOL
REMARK 922        TOTAL FREE ENERGY PREDICTED BY IDOCK:  -14.72 KCAL/MOL
REMARK 923 INTER-LIGAND FREE ENERGY PREDICTED BY IDOCK:  -12.02 KCAL/MOL
REMARK 924 INTRA-LIGAND FREE ENERGY PREDICTED BY IDOCK:   -2.70 KCAL/MOL
REMARK 927      BINDING AFFINITY PREDICTED BY RF-SCORE:    0.00 PKD
ROOT
HETATM    1  C   UNL     1     -10.291   2.379  72.252  1.00  0.00    -0.156 C  
HETATM    2  C   UNL     1     -10.755   3.011  73.554  1.00  0.00    -0.297 C  
ENDROOT
BRANCH   2   3
HETATM    3  C   UNL     1     -10.967   4.504  73.364  1.00  0.00    -0.382 C  
BRANCH   3   4
HETATM    4  C   UNL     1      -9.854   5.143  72.542  1.00  0.00    -0.197 C  
BRANCH   4   5
HETATM    5  C   UNL     1      -9.565   6.522  73.115  1.00  0.00    -0.164 C  
BRANCH   5   6
HETATM    6  C   UNL     1     -10.822   7.319  73.364  1.00  0.00    -0.324 C  
BRANCH   6   7
HETATM    7  O   UNL     1     -10.802   8.450  72.479  1.00  0.00    -0.344 OA 
BRANCH   7   8
HETATM    8  C   UNL     1     -11.995   8.765  71.904  1.00  0.00    -0.365 C  
HETATM    9  N   UNL     1     -11.943   8.834  70.544  1.00  0.00    -0.473 N  
HETATM   10  O   UNL     1     -13.017   8.978  72.547  1.00  0.00    -0.418 OA 
HETATM   11  H   UNL     1     -12.341   9.649  70.077  1.00  0.00     0.000 HD 
BRANCH   9  12
HETATM   12  C   UNL     1     -11.403   7.895  69.819  1.00  0.00     0.112 C  
HETATM   13  H1  UNL     1     -11.414   5.888  69.526  1.00  0.00     0.000 HD 
HETATM   14  N   UNL     1     -11.836   6.623  70.094  1.00  0.00    -0.605 NA 
HETATM   15  H2  UNL     1     -12.530   6.425  70.815  1.00  0.00     0.000 HD 
BRANCH  12  16
HETATM   16  C   UNL     1     -10.428   8.088  68.700  1.00  0.00    -0.196 A  
HETATM   17  C   UNL     1      -9.493   9.124  68.711  1.00  0.00    -0.147 A  
HETATM   18  C   UNL     1      -8.918   9.541  67.506  1.00  0.00    -0.133 A  
HETATM   19  C   UNL     1      -9.180   8.862  66.309  1.00  0.00    -0.207 A  
HETATM   20  C   UNL     1      -9.983   7.720  66.353  1.00  0.00    -0.164 A  
HETATM   21  C   UNL     1     -10.615   7.338  67.536  1.00  0.00    -0.344 A  
BRANCH  19  22
HETATM   22  N   UNL     1      -8.829   9.496  65.103  1.00  0.00    -0.174 NA 
HETATM   23  H   UNL     1      -7.878   9.455  64.736  1.00  0.00     0.000 HD 
BRANCH  22  24
HETATM   24  C   UNL     1      -9.887  10.218  64.399  1.00  0.00    -0.305 C  
BRANCH  24  25
HETATM   25  C   UNL     1     -10.122  11.674  64.751  1.00  0.00    -0.260 A  
HETATM   26  N   UNL     1      -9.421  12.465  65.554  1.00  0.00    -0.062 NA 
HETATM   27  C   UNL     1     -10.006  13.722  65.477  1.00  0.00    -0.238 A  
HETATM   28  C   UNL     1     -11.086  13.686  64.599  1.00  0.00    -0.381 A  
HETATM   29  N   UNL     1     -11.177  12.372  64.204  1.00  0.00    -0.346 NA 
HETATM   30  C   UNL     1     -11.822  14.822  64.260  1.00  0.00    -0.335 A  
HETATM   31  C   UNL     1     -11.459  16.030  64.866  1.00  0.00    -0.125 A  
HETATM   32  C   UNL     1     -12.185  11.812  63.331  1.00  0.00    -0.348 C  
HETATM   33  C   UNL     1     -10.435  16.111  65.821  1.00  0.00    -0.384 A  
HETATM   34  C   UNL     1      -9.674  14.953  66.111  1.00  0.00    -0.333 A  
BRANCH  33  35
HETATM   35  C   UNL     1     -10.222  17.490  66.414  1.00  0.00    -0.354 C  
HETATM   36  N   UNL     1     -10.434  17.762  67.774  1.00  0.00    -0.384 N  
HETATM   37  O   UNL     1      -9.906  18.384  65.625  1.00  0.00    -0.440 OA 
BRANCH  36  38
HETATM   38  C   UNL     1     -10.734  16.753  68.703  1.00  0.00    -0.352 A  
HETATM   39  C   UNL     1     -11.340  14.898  70.614  1.00  0.00    -0.275 A  
HETATM   40  N   UNL     1     -12.028  16.382  68.848  1.00  0.00     0.021 NA 
HETATM   41  C   UNL     1     -10.014  15.256  70.412  1.00  0.00     0.203 A  
HETATM   42  C   UNL     1     -12.306  15.478  69.812  1.00  0.00    -0.232 A  
HETATM   43  C   UNL     1      -9.701  16.193  69.446  1.00  0.00    -0.219 A  
ENDBRANCH  36  38
BRANCH  36  44
HETATM   44  C   UNL     1     -10.055  19.060  68.360  1.00  0.00    -0.403 C  
BRANCH  44  45
HETATM   45  C   UNL     1      -8.577  19.293  68.706  1.00  0.00    -0.375 C  
BRANCH  45  46
HETATM   46  C   UNL     1      -7.670  19.976  67.696  1.00  0.00    -0.294 C  
HETATM   47  O   UNL     1      -7.973  20.865  66.918  1.00  0.00    -0.176 OA 
BRANCH  46  48
HETATM   48  O   UNL     1      -6.431  19.391  67.791  1.00  0.00    -0.216 OA 
BRANCH  48  49
HETATM   49  C   UNL     1      -6.327  17.963  67.948  1.00  0.00    -0.178 C  
HETATM   50  C   UNL     1      -6.287  17.270  66.599  1.00  0.00    -0.249 C  
ENDBRANCH  48  49
ENDBRANCH  46  48
ENDBRANCH  45  46
ENDBRANCH  44  45
ENDBRANCH  36  44
ENDBRANCH  33  35
ENDBRANCH  24  25
ENDBRANCH  22  24
ENDBRANCH  19  22
ENDBRANCH  12  16
ENDBRANCH   9  12
ENDBRANCH   7   8
ENDBRANCH   6   7
ENDBRANCH   5   6
ENDBRANCH   4   5
ENDBRANCH   3   4
ENDBRANCH   2   3
TORSDOF 18
ENDMDL
MODEL       18
REMARK 921   NORMALIZED FREE ENERGY PREDICTED BY IDOCK:   -5.60 KCAL/MOL
REMARK 922        TOTAL FREE ENERGY PREDICTED BY IDOCK:  -14.70 KCAL/MOL
REMARK 923 INTER-LIGAND FREE ENERGY PREDICTED BY IDOCK:  -12.30 KCAL/MOL
REMARK 924 INTRA-LIGAND FREE ENERGY PREDICTED BY IDOCK:   -2.40 KCAL/MOL
REMARK 927      BINDING AFFINITY PREDICTED BY RF-SCORE:    0.00 PKD
ROOT
HETATM    1  C   UNL     1      -5.210  18.515  64.670  1.00  0.00    -0.167 C  
HETATM    2  C   UNL     1      -5.715  19.599  63.733  1.00  0.00    -0.328 C  
ENDROOT
BRANCH   2   3
HETATM    3  C   UNL     1      -6.212  20.791  64.534  1.00  0.00    -0.335 C  
BRANCH   3   4
HETATM    4  C   UNL     1      -5.425  20.987  65.823  1.00  0.00    -0.257 C  
BRANCH   4   5
HETATM    5  C   UNL     1      -6.401  21.349  66.932  1.00  0.00    -0.360 C  
BRANCH   5   6
HETATM    6  C   UNL     1      -7.136  20.145  67.469  1.00  0.00    -0.276 C  
BRANCH   6   7
HETATM    7  O   UNL     1      -8.544  20.411  67.357  1.00  0.00    -0.342 OA 
BRANCH   7   8
HETATM    8  C   UNL     1      -9.342  19.702  68.202  1.00  0.00    -0.352 C  
HETATM    9  N   UNL     1     -10.494  19.262  67.622  1.00  0.00    -0.432 N  
HETATM   10  O   UNL     1      -9.058  19.488  69.376  1.00  0.00    -0.165 OA 
HETATM   11  H   UNL     1     -11.379  19.422  68.104  1.00  0.00     0.000 HD 
BRANCH   9  12
HETATM   12  C   UNL     1     -10.505  18.644  66.475  1.00  0.00    -0.420 C  
HETATM   13  H1  UNL     1     -10.329  18.962  64.480  1.00  0.00     0.000 HD 
HETATM   14  N   UNL     1     -10.320  19.446  65.378  1.00  0.00    -0.320 NA 
HETATM   15  H2  UNL     1     -10.184  20.454  65.454  1.00  0.00     0.000 HD 
BRANCH  12  16
HETATM   16  C   UNL     1     -10.634  17.168  66.263  1.00  0.00    -0.185 A  
HETATM   17  C   UNL     1     -10.877  16.625  65.001  1.00  0.00    -0.190 A  
HETATM   18  C   UNL     1     -11.417  15.339  64.901  1.00  0.00    -0.343 A  
HETATM   19  C   UNL     1     -11.609  14.546  66.040  1.00  0.00    -0.356 A  
HETATM   20  C   UNL     1     -11.195  15.047  67.277  1.00  0.00    -0.339 A  
HETATM   21  C   UNL     1     -10.720  16.352  67.395  1.00  0.00    -0.278 A  
BRANCH  19  22
HETATM   22  N   UNL     1     -12.424  13.406  65.918  1.00  0.00    -0.432 NA 
HETATM   23  H   UNL     1     -13.435  13.458  66.042  1.00  0.00     0.000 HD 
BRANCH  22  24
HETATM   24  C   UNL     1     -11.758  12.143  65.606  1.00  0.00    -0.323 C  
BRANCH  24  25
HETATM   25  C   UNL     1     -11.144  11.353  66.746  1.00  0.00    -0.281 A  
HETATM   26  N   UNL     1     -11.307  11.507  68.054  1.00  0.00    -0.273 NA 
HETATM   27  C   UNL     1     -10.588  10.486  68.663  1.00  0.00    -0.200 A  
HETATM   28  C   UNL     1      -9.980   9.694  67.693  1.00  0.00    -0.174 A  
HETATM   29  N   UNL     1     -10.293  10.297  66.498  1.00  0.00    -0.228 NA 
HETATM   30  C   UNL     1      -9.253   8.544  68.003  1.00  0.00    -0.143 A  
HETATM   31  C   UNL     1      -9.118   8.212  69.356  1.00  0.00    -0.148 A  
HETATM   32  C   UNL     1      -9.842   9.880  65.189  1.00  0.00    -0.278 C  
HETATM   33  C   UNL     1      -9.637   9.018  70.380  1.00  0.00    -0.246 A  
HETATM   34  C   UNL     1     -10.410  10.152  70.036  1.00  0.00    -0.301 A  
BRANCH  33  35
HETATM   35  C   UNL     1      -9.342   8.533  71.786  1.00  0.00    -0.253 C  
HETATM   36  N   UNL     1     -10.353   8.100  72.658  1.00  0.00    -0.318 N  
HETATM   37  O   UNL     1      -8.165   8.591  72.151  1.00  0.00    -0.195 OA 
BRANCH  36  38
HETATM   38  C   UNL     1     -11.690   7.967  72.249  1.00  0.00    -0.355 A  
HETATM   39  C   UNL     1     -14.256   7.788  71.331  1.00  0.00    -0.489 A  
HETATM   40  N   UNL     1     -12.013   6.922  71.452  1.00  0.00    -0.329 NA 
HETATM   41  C   UNL     1     -13.914   8.822  72.192  1.00  0.00    -0.522 A  
HETATM   42  C   UNL     1     -13.283   6.865  70.995  1.00  0.00     0.036 A  
HETATM   43  C   UNL     1     -12.617   8.917  72.661  1.00  0.00    -0.267 A  
ENDBRANCH  36  38
BRANCH  36  44
HETATM   44  C   UNL     1     -10.027   7.472  73.951  1.00  0.00    -0.121 C  
BRANCH  44  45
HETATM   45  C   UNL     1     -10.124   5.943  74.056  1.00  0.00    -0.252 C  
BRANCH  45  46
HETATM   46  C   UNL     1      -9.309   5.075  73.112  1.00  0.00    -0.128 C  
HETATM   47  O   UNL     1      -8.099   5.085  72.963  1.00  0.00    -0.103 OA 
BRANCH  46  48
HETATM   48  O   UNL     1     -10.189   4.278  72.420  1.00  0.00    -0.176 OA 
BRANCH  48  49
HETATM   49  C   UNL     1      -9.812   3.752  71.133  1.00  0.00    -0.143 C  
HETATM   50  C   UNL     1      -9.477   2.275  71.228  1.00  0.00    -0.213 C  
ENDBRANCH  48  49
ENDBRANCH  46  48
ENDBRANCH  45  46
ENDBRANCH  44  45
ENDBRANCH  36  44
ENDBRANCH  33  35
ENDBRANCH  24  25
ENDBRANCH  22  24
ENDBRANCH  19  22
ENDBRANCH  12  16
ENDBRANCH   9  12
ENDBRANCH   7   8
ENDBRANCH   6   7
ENDBRANCH   5   6
ENDBRANCH   4   5
ENDBRANCH   3   4
ENDBRANCH   2   3
TORSDOF 18
ENDMDL
MODEL       19
REMARK 921   NORMALIZED FREE ENERGY PREDICTED BY IDOCK:   -5.60 KCAL/MOL
REMARK 922        TOTAL FREE ENERGY PREDICTED BY IDOCK:  -14.69 KCAL/MOL
REMARK 923 INTER-LIGAND FREE ENERGY PREDICTED BY IDOCK:  -11.86 KCAL/MOL
REMARK 924 INTRA-LIGAND FREE ENERGY PREDICTED BY IDOCK:   -2.83 KCAL/MOL
REMARK 927      BINDING AFFINITY PREDICTED BY RF-SCORE:    0.00 PKD
ROOT
HETATM    1  C   UNL     1      -9.074   4.857  64.949  1.00  0.00    -0.117 C  
HETATM    2  C   UNL     1     -10.197   4.541  65.923  1.00  0.00    -0.289 C  
ENDROOT
BRANCH   2   3
HETATM    3  C   UNL     1     -10.187   5.536  67.072  1.00  0.00    -0.265 C  
BRANCH   3   4
HETATM    4  C   UNL     1     -10.091   4.847  68.428  1.00  0.00    -0.148 C  
BRANCH   4   5
HETATM    5  C   UNL     1      -9.214   3.613  68.279  1.00  0.00    -0.218 C  
BRANCH   5   6
HETATM    6  C   UNL     1      -9.329   2.678  69.458  1.00  0.00    -0.114 C  
BRANCH   6   7
HETATM    7  O   UNL     1      -8.059   2.667  70.129  1.00  0.00    -0.042 OA 
BRANCH   7   8
HETATM    8  C   UNL     1      -8.114   2.545  71.484  1.00  0.00    -0.051 C  
HETATM    9  N   UNL     1      -7.661   3.644  72.148  1.00  0.00    -0.057 N  
HETATM   10  O   UNL     1      -8.523   1.538  72.053  1.00  0.00    -0.047 OA 
HETATM   11  H   UNL     1      -6.985   3.519  72.903  1.00  0.00     0.000 HD 
BRANCH   9  12
HETATM   12  C   UNL     1      -8.059   4.850  71.855  1.00  0.00    -0.114 C  
HETATM   13  H1  UNL     1      -7.662   6.418  70.632  1.00  0.00     0.000 HD 
HETATM   14  N   UNL     1      -7.350   5.474  70.862  1.00  0.00    -0.080 NA 
HETATM   15  H2  UNL     1      -6.566   5.027  70.386  1.00  0.00     0.000 HD 
BRANCH  12  16
HETATM   16  C   UNL     1      -9.232   5.566  72.449  1.00  0.00    -0.153 A  
HETATM   17  C   UNL     1     -10.545   5.197  72.151  1.00  0.00    -0.273 A  
HETATM   18  C   UNL     1     -11.577   6.120  72.351  1.00  0.00    -0.338 A  
HETATM   19  C   UNL     1     -11.329   7.362  72.950  1.00  0.00    -0.273 A  
HETATM   20  C   UNL     1     -10.035   7.638  73.398  1.00  0.00    -0.373 A  
HETATM   21  C   UNL     1      -8.987   6.754  73.142  1.00  0.00    -0.144 A  
BRANCH  19  22
HETATM   22  N   UNL     1     -12.324   8.352  72.847  1.00  0.00    -0.598 NA 
HETATM   23  H   UNL     1     -12.648   8.868  73.665  1.00  0.00     0.000 HD 
BRANCH  22  24
HETATM   24  C   UNL     1     -12.872   8.608  71.517  1.00  0.00    -0.319 C  
BRANCH  24  25
HETATM   25  C   UNL     1     -12.340   9.793  70.734  1.00  0.00    -0.236 A  
HETATM   26  N   UNL     1     -12.767  11.050  70.726  1.00  0.00    -0.339 NA 
HETATM   27  C   UNL     1     -11.897  11.756  69.904  1.00  0.00    -0.348 A  
HETATM   28  C   UNL     1     -10.918  10.899  69.409  1.00  0.00    -0.252 A  
HETATM   29  N   UNL     1     -11.255   9.658  69.896  1.00  0.00    -0.233 NA 
HETATM   30  C   UNL     1      -9.859  11.341  68.616  1.00  0.00    -0.208 A  
HETATM   31  C   UNL     1      -9.819  12.702  68.292  1.00  0.00    -0.227 A  
HETATM   32  C   UNL     1     -10.570   8.416  69.611  1.00  0.00    -0.219 C  
HETATM   33  C   UNL     1     -10.823  13.596  68.692  1.00  0.00    -0.283 A  
HETATM   34  C   UNL     1     -11.861  13.130  69.535  1.00  0.00    -0.383 A  
BRANCH  33  35
HETATM   35  C   UNL     1     -10.646  15.018  68.199  1.00  0.00    -0.248 C  
HETATM   36  N   UNL     1     -10.773  15.364  66.845  1.00  0.00    -0.311 N  
HETATM   37  O   UNL     1     -10.322  15.857  69.045  1.00  0.00    -0.208 OA 
BRANCH  36  38
HETATM   38  C   UNL     1     -11.198  14.444  65.873  1.00  0.00    -0.324 A  
HETATM   39  C   UNL     1     -11.997  12.544  64.080  1.00  0.00    -0.508 A  
HETATM   40  N   UNL     1     -12.504  14.088  65.858  1.00  0.00    -0.491 NA 
HETATM   41  C   UNL     1     -10.674  12.964  64.080  1.00  0.00    -0.443 A  
HETATM   42  C   UNL     1     -12.872  13.133  64.976  1.00  0.00    -0.302 A  
HETATM   43  C   UNL     1     -10.264  13.926  64.984  1.00  0.00    -0.383 A  
ENDBRANCH  36  38
BRANCH  36  44
HETATM   44  C   UNL     1     -10.769  16.774  66.414  1.00  0.00    -0.105 C  
BRANCH  44  45
HETATM   45  C   UNL     1      -9.413  17.481  66.270  1.00  0.00    -0.238 C  
BRANCH  45  46
HETATM   46  C   UNL     1      -9.136  18.739  67.075  1.00  0.00    -0.291 C  
HETATM   47  O   UNL     1      -9.462  18.961  68.229  1.00  0.00    -0.316 OA 
BRANCH  46  48
HETATM   48  O   UNL     1      -8.465  19.615  66.257  1.00  0.00    -0.341 OA 
BRANCH  48  49
HETATM   49  C   UNL     1      -7.026  19.668  66.299  1.00  0.00    -0.233 C  
HETATM   50  C   UNL     1      -6.552  20.719  67.286  1.00  0.00    -0.374 C  
ENDBRANCH  48  49
ENDBRANCH  46  48
ENDBRANCH  45  46
ENDBRANCH  44  45
ENDBRANCH  36  44
ENDBRANCH  33  35
ENDBRANCH  24  25
ENDBRANCH  22  24
ENDBRANCH  19  22
ENDBRANCH  12  16
ENDBRANCH   9  12
ENDBRANCH   7   8
ENDBRANCH   6   7
ENDBRANCH   5   6
ENDBRANCH   4   5
ENDBRANCH   3   4
ENDBRANCH   2   3
TORSDOF 18
ENDMDL
MODEL       20
REMARK 921   NORMALIZED FREE ENERGY PREDICTED BY IDOCK:   -5.56 KCAL/MOL
REMARK 922        TOTAL FREE ENERGY PREDICTED BY IDOCK:  -14.61 KCAL/MOL
REMARK 923 INTER-LIGAND FREE ENERGY PREDICTED BY IDOCK:  -11.92 KCAL/MOL
REMARK 924 INTRA-LIGAND FREE ENERGY PREDICTED BY IDOCK:   -2.69 KCAL/MOL
REMARK 927      BINDING AFFINITY PREDICTED BY RF-SCORE:    0.00 PKD
ROOT
HETATM    1  C   UNL     1     -10.065  19.675  68.518  1.00  0.00    -0.557 C  
HETATM    2  C   UNL     1     -10.007  20.068  67.052  1.00  0.00    -0.582 C  
ENDROOT
BRANCH   2   3
HETATM    3  C   UNL     1     -10.447  18.902  66.181  1.00  0.00    -0.521 C  
BRANCH   3   4
HETATM    4  C   UNL     1     -10.409  17.577  66.931  1.00  0.00    -0.315 C  
BRANCH   4   5
HETATM    5  C   UNL     1      -9.400  16.667  66.248  1.00  0.00    -0.323 C  
BRANCH   5   6
HETATM    6  C   UNL     1      -9.897  15.248  66.117  1.00  0.00    -0.307 C  
BRANCH   6   7
HETATM    7  O   UNL     1     -11.270  15.306  65.696  1.00  0.00    -0.323 OA 
BRANCH   7   8
HETATM    8  C   UNL     1     -12.081  14.342  66.211  1.00  0.00    -0.413 C  
HETATM    9  N   UNL     1     -12.786  13.661  65.265  1.00  0.00    -0.723 N  
HETATM   10  O   UNL     1     -12.178  14.113  67.413  1.00  0.00    -0.380 OA 
HETATM   11  H   UNL     1     -13.791  13.538  65.394  1.00  0.00     0.000 HD 
BRANCH   9  12
HETATM   12  C   UNL     1     -12.224  13.161  64.202  1.00  0.00    -0.398 C  
HETATM   13  H1  UNL     1     -11.973  13.486  62.216  1.00  0.00     0.000 HD 
HETATM   14  N   UNL     1     -12.414  13.877  63.048  1.00  0.00    -1.009 NA 
HETATM   15  H2  UNL     1     -12.958  14.740  63.024  1.00  0.00     0.000 HD 
BRANCH  12  16
HETATM   16  C   UNL     1     -11.358  11.941  64.146  1.00  0.00    -0.455 A  
HETATM   17  C   UNL     1     -11.158  11.130  65.264  1.00  0.00    -0.076 A  
HETATM   18  C   UNL     1     -10.041  10.290  65.310  1.00  0.00    -0.359 A  
HETATM   19  C   UNL     1      -9.186  10.165  64.207  1.00  0.00    -0.266 A  
HETATM   20  C   UNL     1      -9.506  10.856  63.035  1.00  0.00    -0.369 A  
HETATM   21  C   UNL     1     -10.577  11.748  63.003  1.00  0.00    -0.202 A  
BRANCH  19  22
HETATM   22  N   UNL     1      -7.933   9.557  64.411  1.00  0.00    -0.127 NA 
HETATM   23  H   UNL     1      -7.594   8.817  63.797  1.00  0.00     0.000 HD 
BRANCH  22  24
HETATM   24  C   UNL     1      -7.140  10.033  65.544  1.00  0.00    -0.132 C  
BRANCH  24  25
HETATM   25  C   UNL     1      -7.391   9.417  66.907  1.00  0.00    -0.090 A  
HETATM   26  N   UNL     1      -7.607   8.146  67.224  1.00  0.00    -0.096 NA 
HETATM   27  C   UNL     1      -7.703   8.097  68.609  1.00  0.00    -0.112 A  
HETATM   28  C   UNL     1      -7.536   9.374  69.138  1.00  0.00    -0.074 A  
HETATM   29  N   UNL     1      -7.404  10.196  68.043  1.00  0.00    -0.086 NA 
HETATM   30  C   UNL     1      -7.506   9.625  70.510  1.00  0.00    -0.147 A  
HETATM   31  C   UNL     1      -7.684   8.535  71.369  1.00  0.00    -0.131 A  
HETATM   32  C   UNL     1      -7.265  11.635  68.070  1.00  0.00    -0.083 C  
HETATM   33  C   UNL     1      -7.940   7.240  70.893  1.00  0.00    -0.098 A  
HETATM   34  C   UNL     1      -7.918   7.005  69.497  1.00  0.00    -0.125 A  
BRANCH  33  35
HETATM   35  C   UNL     1      -8.166   6.197  71.969  1.00  0.00    -0.110 C  
HETATM   36  N   UNL     1      -9.409   6.025  72.597  1.00  0.00    -0.147 N  
HETATM   37  O   UNL     1      -7.181   5.538  72.312  1.00  0.00    -0.084 OA 
BRANCH  36  38
HETATM   38  C   UNL     1     -10.560   6.718  72.186  1.00  0.00    -0.211 A  
HETATM   39  C   UNL     1     -12.878   7.977  71.479  1.00  0.00    -0.331 A  
HETATM   40  N   UNL     1     -10.942   7.802  72.900  1.00  0.00    -0.391 NA 
HETATM   41  C   UNL     1     -12.438   6.894  70.730  1.00  0.00    -0.251 A  
HETATM   42  C   UNL     1     -12.101   8.397  72.544  1.00  0.00    -0.337 A  
HETATM   43  C   UNL     1     -11.265   6.253  71.083  1.00  0.00    -0.365 A  
ENDBRANCH  36  38
BRANCH  36  44
HETATM   44  C   UNL     1      -9.652   4.895  73.512  1.00  0.00    -0.132 C  
BRANCH  44  45
HETATM   45  C   UNL     1     -10.157   3.575  72.911  1.00  0.00    -0.224 C  
BRANCH  45  46
HETATM   46  C   UNL     1      -9.163   2.473  72.584  1.00  0.00    -0.083 C  
HETATM   47  O   UNL     1      -8.329   1.988  73.332  1.00  0.00    -0.053 OA 
BRANCH  46  48
HETATM   48  O   UNL     1      -9.348   2.126  71.268  1.00  0.00    -0.102 OA 
BRANCH  48  49
HETATM   49  C   UNL     1      -9.336   3.147  70.253  1.00  0.00    -0.165 C  
HETATM   50  C   UNL     1      -7.991   3.198  69.552  1.00  0.00    -0.058 C  
ENDBRANCH  48  49
ENDBRANCH  46  48
ENDBRANCH  45  46
ENDBRANCH  44  45
ENDBRANCH  36  44
ENDBRANCH  33  35
ENDBRANCH  24  25
ENDBRANCH  22  24
ENDBRANCH  19  22
ENDBRANCH  12  16
ENDBRANCH   9  12
ENDBRANCH   7   8
ENDBRANCH   6   7
ENDBRANCH   5   6
ENDBRANCH   4   5
ENDBRANCH   3   4
ENDBRANCH   2   3
TORSDOF 18
ENDMDL
MODEL       21
REMARK 921   NORMALIZED FREE ENERGY PREDICTED BY IDOCK:   -5.52 KCAL/MOL
REMARK 922        TOTAL FREE ENERGY PREDICTED BY IDOCK:  -14.53 KCAL/MOL
REMARK 923 INTER-LIGAND FREE ENERGY PREDICTED BY IDOCK:  -11.48 KCAL/MOL
REMARK 924 INTRA-LIGAND FREE ENERGY PREDICTED BY IDOCK:   -3.05 KCAL/MOL
REMARK 927      BINDING AFFINITY PREDICTED BY RF-SCORE:    0.00 PKD
ROOT
HETATM    1  C   UNL     1      -7.261  14.943  69.405  1.00  0.00    -0.182 C  
HETATM    2  C   UNL     1      -7.551  14.949  67.913  1.00  0.00    -0.146 C  
ENDROOT
BRANCH   2   3
HETATM    3  C   UNL     1      -6.605  15.902  67.201  1.00  0.00    -0.132 C  
BRANCH   3   4
HETATM    4  C   UNL     1      -6.921  17.361  67.507  1.00  0.00    -0.177 C  
BRANCH   4   5
HETATM    5  C   UNL     1      -6.845  18.151  66.209  1.00  0.00    -0.281 C  
BRANCH   5   6
HETATM    6  C   UNL     1      -7.667  19.416  66.254  1.00  0.00    -0.297 C  
BRANCH   6   7
HETATM    7  O   UNL     1      -9.034  19.055  65.999  1.00  0.00    -0.456 OA 
BRANCH   7   8
HETATM    8  C   UNL     1      -9.944  19.547  66.884  1.00  0.00    -0.386 C  
HETATM    9  N   UNL     1     -10.882  18.635  67.264  1.00  0.00    -0.394 N  
HETATM   10  O   UNL     1      -9.929  20.703  67.293  1.00  0.00    -0.448 OA 
HETATM   11  H   UNL     1     -11.867  18.900  67.233  1.00  0.00     0.000 HD 
BRANCH   9  12
HETATM   12  C   UNL     1     -10.566  17.436  67.664  1.00  0.00    -0.350 C  
HETATM   13  H1  UNL     1      -9.823  16.419  69.254  1.00  0.00     0.000 HD 
HETATM   14  N   UNL     1     -10.070  17.358  68.941  1.00  0.00    -0.331 NA 
HETATM   15  H2  UNL     1      -9.956  18.179  69.534  1.00  0.00     0.000 HD 
BRANCH  12  16
HETATM   16  C   UNL     1     -10.755  16.165  66.896  1.00  0.00    -0.247 A  
HETATM   17  C   UNL     1     -10.358  16.047  65.563  1.00  0.00    -0.415 A  
HETATM   18  C   UNL     1     -10.926  15.047  64.766  1.00  0.00    -0.389 A  
HETATM   19  C   UNL     1     -11.796  14.095  65.313  1.00  0.00    -0.367 A  
HETATM   20  C   UNL     1     -12.041  14.129  66.688  1.00  0.00    -0.480 A  
HETATM   21  C   UNL     1     -11.536  15.162  67.477  1.00  0.00    -0.306 A  
BRANCH  19  22
HETATM   22  N   UNL     1     -12.562  13.317  64.425  1.00  0.00    -0.649 NA 
HETATM   23  H   UNL     1     -13.559  13.488  64.293  1.00  0.00     0.000 HD 
BRANCH  22  24
HETATM   24  C   UNL     1     -11.867  12.255  63.702  1.00  0.00    -0.522 C  
BRANCH  24  25
HETATM   25  C   UNL     1     -10.914  11.363  64.474  1.00  0.00    -0.277 A  
HETATM   26  N   UNL     1     -11.030  10.883  65.706  1.00  0.00    -0.056 NA 
HETATM   27  C   UNL     1      -9.929  10.062  65.914  1.00  0.00    -0.269 A  
HETATM   28  C   UNL     1      -9.132  10.045  64.773  1.00  0.00    -0.224 A  
HETATM   29  N   UNL     1      -9.740  10.921  63.904  1.00  0.00    -0.274 NA 
HETATM   30  C   UNL     1      -7.995   9.245  64.657  1.00  0.00    -0.125 A  
HETATM   31  C   UNL     1      -7.645   8.459  65.761  1.00  0.00    -0.085 A  
HETATM   32  C   UNL     1      -9.257  11.295  62.594  1.00  0.00    -0.289 C  
HETATM   33  C   UNL     1      -8.361   8.498  66.966  1.00  0.00    -0.110 A  
HETATM   34  C   UNL     1      -9.538   9.283  67.040  1.00  0.00    -0.223 A  
BRANCH  33  35
HETATM   35  C   UNL     1      -7.801   7.626  68.071  1.00  0.00    -0.121 C  
HETATM   36  N   UNL     1      -8.021   6.240  68.118  1.00  0.00    -0.107 N  
HETATM   37  O   UNL     1      -7.184   8.205  68.970  1.00  0.00    -0.070 OA 
BRANCH  36  38
HETATM   38  C   UNL     1      -8.667   5.548  67.081  1.00  0.00    -0.107 A  
HETATM   39  C   UNL     1      -9.914   4.328  64.979  1.00  0.00    -0.199 A  
HETATM   40  N   UNL     1      -7.901   4.906  66.168  1.00  0.00    -0.098 NA 
HETATM   41  C   UNL     1     -10.681   4.949  65.956  1.00  0.00    -0.247 A  
HETATM   42  C   UNL     1      -8.539   4.326  65.128  1.00  0.00    -0.123 A  
HETATM   43  C   UNL     1     -10.055   5.567  67.022  1.00  0.00    -0.226 A  
ENDBRANCH  36  38
BRANCH  36  44
HETATM   44  C   UNL     1      -7.325   5.390  69.100  1.00  0.00    -0.066 C  
BRANCH  44  45
HETATM   45  C   UNL     1      -8.149   4.790  70.249  1.00  0.00    -0.072 C  
BRANCH  45  46
HETATM   46  C   UNL     1      -8.847   5.716  71.232  1.00  0.00    -0.135 C  
HETATM   47  O   UNL     1      -8.323   6.519  71.986  1.00  0.00    -0.108 OA 
BRANCH  46  48
HETATM   48  O   UNL     1     -10.196   5.471  71.146  1.00  0.00    -0.203 OA 
BRANCH  48  49
HETATM   49  C   UNL     1     -10.985   6.168  70.163  1.00  0.00    -0.358 C  
HETATM   50  C   UNL     1     -12.222   6.779  70.795  1.00  0.00    -0.353 C  
ENDBRANCH  48  49
ENDBRANCH  46  48
ENDBRANCH  45  46
ENDBRANCH  44  45
ENDBRANCH  36  44
ENDBRANCH  33  35
ENDBRANCH  24  25
ENDBRANCH  22  24
ENDBRANCH  19  22
ENDBRANCH  12  16
ENDBRANCH   9  12
ENDBRANCH   7   8
ENDBRANCH   6   7
ENDBRANCH   5   6
ENDBRANCH   4   5
ENDBRANCH   3   4
ENDBRANCH   2   3
TORSDOF 18
ENDMDL
MODEL       22
REMARK 921   NORMALIZED FREE ENERGY PREDICTED BY IDOCK:   -5.48 KCAL/MOL
REMARK 922        TOTAL FREE ENERGY PREDICTED BY IDOCK:  -14.44 KCAL/MOL
REMARK 923 INTER-LIGAND FREE ENERGY PREDICTED BY IDOCK:  -11.36 KCAL/MOL
REMARK 924 INTRA-LIGAND FREE ENERGY PREDICTED BY IDOCK:   -3.08 KCAL/MOL
REMARK 927      BINDING AFFINITY PREDICTED BY RF-SCORE:    0.00 PKD
ROOT
HETATM    1  C   UNL     1     -14.000   8.698  71.749  1.00  0.00    -0.492 C  
HETATM    2  C   UNL     1     -12.919   7.642  71.588  1.00  0.00    -0.385 C  
ENDROOT
BRANCH   2   3
HETATM    3  C   UNL     1     -11.602   8.155  72.149  1.00  0.00    -0.417 C  
BRANCH   3   4
HETATM    4  C   UNL     1     -10.972   7.171  73.127  1.00  0.00    -0.344 C  
BRANCH   4   5
HETATM    5  C   UNL     1     -11.564   5.794  72.872  1.00  0.00    -0.210 C  
BRANCH   5   6
HETATM    6  C   UNL     1     -10.643   4.680  73.306  1.00  0.00    -0.219 C  
BRANCH   6   7
HETATM    7  O   UNL     1     -10.251   3.957  72.128  1.00  0.00    -0.177 OA 
BRANCH   7   8
HETATM    8  C   UNL     1      -8.936   3.612  72.065  1.00  0.00    -0.105 C  
HETATM    9  N   UNL     1      -8.252   4.250  71.074  1.00  0.00    -0.075 N  
HETATM   10  O   UNL     1      -8.416   2.796  72.819  1.00  0.00    -0.069 OA 
HETATM   11  H   UNL     1      -7.667   3.698  70.445  1.00  0.00     0.000 HD 
BRANCH   9  12
HETATM   12  C   UNL     1      -8.319   5.540  70.900  1.00  0.00    -0.120 C  
HETATM   13  H1  UNL     1      -7.806   7.303  71.760  1.00  0.00     0.000 HD 
HETATM   14  N   UNL     1      -7.754   6.294  71.896  1.00  0.00    -0.096 NA 
HETATM   15  H2  UNL     1      -7.314   5.875  72.716  1.00  0.00     0.000 HD 
BRANCH  12  16
HETATM   16  C   UNL     1      -8.886   6.246  69.708  1.00  0.00    -0.140 A  
HETATM   17  C   UNL     1      -8.211   7.299  69.089  1.00  0.00    -0.122 A  
HETATM   18  C   UNL     1      -8.929   8.199  68.294  1.00  0.00    -0.136 A  
HETATM   19  C   UNL     1     -10.288   7.994  68.019  1.00  0.00    -0.206 A  
HETATM   20  C   UNL     1     -10.899   6.837  68.508  1.00  0.00    -0.280 A  
HETATM   21  C   UNL     1     -10.211   5.971  69.357  1.00  0.00    -0.269 A  
BRANCH  19  22
HETATM   22  N   UNL     1     -11.019   9.070  67.482  1.00  0.00    -0.447 NA 
HETATM   23  H   UNL     1     -11.947   9.310  67.831  1.00  0.00     0.000 HD 
BRANCH  22  24
HETATM   24  C   UNL     1     -10.391   9.827  66.401  1.00  0.00    -0.177 C  
BRANCH  24  25
HETATM   25  C   UNL     1     -10.417  11.342  66.474  1.00  0.00    -0.253 A  
HETATM   26  N   UNL     1     -10.196  12.133  67.516  1.00  0.00    -0.197 NA 
HETATM   27  C   UNL     1     -10.266  13.437  67.042  1.00  0.00    -0.249 A  
HETATM   28  C   UNL     1     -10.532  13.427  65.675  1.00  0.00    -0.290 A  
HETATM   29  N   UNL     1     -10.686  12.099  65.354  1.00  0.00    -0.274 NA 
HETATM   30  C   UNL     1     -10.582  14.591  64.908  1.00  0.00    -0.450 A  
HETATM   31  C   UNL     1     -10.384  15.809  65.568  1.00  0.00    -0.430 A  
HETATM   32  C   UNL     1     -11.034  11.572  64.054  1.00  0.00    -0.383 C  
HETATM   33  C   UNL     1     -10.195  15.886  66.956  1.00  0.00    -0.283 A  
HETATM   34  C   UNL     1     -10.102  14.687  67.704  1.00  0.00    -0.228 A  
BRANCH  33  35
HETATM   35  C   UNL     1     -10.058  17.292  67.505  1.00  0.00    -0.315 C  
HETATM   36  N   UNL     1      -8.888  17.739  68.139  1.00  0.00    -0.260 N  
HETATM   37  O   UNL     1     -11.054  18.015  67.420  1.00  0.00    -0.190 OA 
BRANCH  36  38
HETATM   38  C   UNL     1      -7.721  16.959  68.197  1.00  0.00    -0.187 A  
HETATM   39  C   UNL     1      -5.380  15.562  68.365  1.00  0.00    -0.106 A  
HETATM   40  N   UNL     1      -7.460  16.284  69.340  1.00  0.00    -0.212 NA 
HETATM   41  C   UNL     1      -5.695  16.220  67.184  1.00  0.00    -0.085 A  
HETATM   42  C   UNL     1      -6.288  15.616  69.407  1.00  0.00    -0.150 A  
HETATM   43  C   UNL     1      -6.879  16.927  67.092  1.00  0.00    -0.221 A  
ENDBRANCH  36  38
BRANCH  36  44
HETATM   44  C   UNL     1      -8.714  19.155  68.508  1.00  0.00    -0.365 C  
BRANCH  44  45
HETATM   45  C   UNL     1      -8.255  20.134  67.418  1.00  0.00    -0.385 C  
BRANCH  45  46
HETATM   46  C   UNL     1      -6.862  20.737  67.491  1.00  0.00    -0.354 C  
HETATM   47  O   UNL     1      -6.121  20.761  68.460  1.00  0.00    -0.329 OA 
BRANCH  46  48
HETATM   48  O   UNL     1      -6.583  21.284  66.263  1.00  0.00    -0.210 OA 
BRANCH  48  49
HETATM   49  C   UNL     1      -6.530  20.436  65.100  1.00  0.00    -0.284 C  
HETATM   50  C   UNL     1      -5.263  19.602  65.094  1.00  0.00    -0.185 C  
ENDBRANCH  48  49
ENDBRANCH  46  48
ENDBRANCH  45  46
ENDBRANCH  44  45
ENDBRANCH  36  44
ENDBRANCH  33  35
ENDBRANCH  24  25
ENDBRANCH  22  24
ENDBRANCH  19  22
ENDBRANCH  12  16
ENDBRANCH   9  12
ENDBRANCH   7   8
ENDBRANCH   6   7
ENDBRANCH   5   6
ENDBRANCH   4   5
ENDBRANCH   3   4
ENDBRANCH   2   3
TORSDOF 18
ENDMDL
MODEL       23
REMARK 921   NORMALIZED FREE ENERGY PREDICTED BY IDOCK:   -5.47 KCAL/MOL
REMARK 922        TOTAL FREE ENERGY PREDICTED BY IDOCK:  -14.43 KCAL/MOL
REMARK 923 INTER-LIGAND FREE ENERGY PREDICTED BY IDOCK:  -11.75 KCAL/MOL
REMARK 924 INTRA-LIGAND FREE ENERGY PREDICTED BY IDOCK:   -2.68 KCAL/MOL
REMARK 927      BINDING AFFINITY PREDICTED BY RF-SCORE:    0.00 PKD
ROOT
HETATM    1  C   UNL     1      -9.921   4.797  73.371  1.00  0.00    -0.184 C  
HETATM    2  C   UNL     1     -10.258   4.478  71.924  1.00  0.00    -0.241 C  
ENDROOT
BRANCH   2   3
HETATM    3  C   UNL     1      -9.502   3.239  71.473  1.00  0.00    -0.217 C  
BRANCH   3   4
HETATM    4  C   UNL     1      -8.718   3.478  70.189  1.00  0.00    -0.121 C  
BRANCH   4   5
HETATM    5  C   UNL     1      -9.558   2.997  69.016  1.00  0.00    -0.070 C  
BRANCH   5   6
HETATM    6  C   UNL     1      -8.938   1.815  68.309  1.00  0.00    -0.133 C  
BRANCH   6   7
HETATM    7  O   UNL     1      -9.104   2.019  66.897  1.00  0.00    -0.128 OA 
BRANCH   7   8
HETATM    8  C   UNL     1      -8.116   2.728  66.287  1.00  0.00    -0.083 C  
HETATM    9  N   UNL     1      -8.564   3.544  65.293  1.00  0.00    -0.109 N  
HETATM   10  O   UNL     1      -6.932   2.635  66.595  1.00  0.00    -0.047 OA 
HETATM   11  H   UNL     1      -8.094   3.521  64.387  1.00  0.00     0.000 HD 
BRANCH   9  12
HETATM   12  C   UNL     1      -9.572   4.354  65.457  1.00  0.00    -0.186 C  
HETATM   13  H1  UNL     1     -11.454   4.726  64.801  1.00  0.00     0.000 HD 
HETATM   14  N   UNL     1     -10.665   4.092  64.672  1.00  0.00    -0.595 NA 
HETATM   15  H2  UNL     1     -10.689   3.319  64.007  1.00  0.00     0.000 HD 
BRANCH  12  16
HETATM   16  C   UNL     1      -9.659   5.473  66.447  1.00  0.00    -0.174 A  
HETATM   17  C   UNL     1      -8.520   6.015  67.045  1.00  0.00    -0.108 A  
HETATM   18  C   UNL     1      -8.647   6.720  68.246  1.00  0.00    -0.124 A  
HETATM   19  C   UNL     1      -9.908   6.989  68.796  1.00  0.00    -0.152 A  
HETATM   20  C   UNL     1     -11.043   6.586  68.086  1.00  0.00    -0.332 A  
HETATM   21  C   UNL     1     -10.925   5.823  66.925  1.00  0.00    -0.242 A  
BRANCH  19  22
HETATM   22  N   UNL     1      -9.964   7.422  70.133  1.00  0.00    -0.184 NA 
HETATM   23  H   UNL     1      -9.219   7.204  70.795  1.00  0.00     0.000 HD 
BRANCH  22  24
HETATM   24  C   UNL     1     -11.136   8.199  70.532  1.00  0.00    -0.253 C  
BRANCH  24  25
HETATM   25  C   UNL     1     -11.153   9.685  70.228  1.00  0.00    -0.276 A  
HETATM   26  N   UNL     1     -10.413  10.371  69.366  1.00  0.00    -0.224 NA 
HETATM   27  C   UNL     1     -10.866  11.683  69.415  1.00  0.00    -0.096 A  
HETATM   28  C   UNL     1     -11.911  11.786  70.329  1.00  0.00    -0.343 A  
HETATM   29  N   UNL     1     -12.030  10.529  70.873  1.00  0.00    -0.357 NA 
HETATM   30  C   UNL     1     -12.620  12.970  70.536  1.00  0.00    -0.220 A  
HETATM   31  C   UNL     1     -12.224  14.095  69.803  1.00  0.00    -0.397 A  
HETATM   32  C   UNL     1     -12.945  10.138  71.922  1.00  0.00    -0.447 C  
HETATM   33  C   UNL     1     -11.125  14.072  68.931  1.00  0.00    -0.296 A  
HETATM   34  C   UNL     1     -10.454  12.846  68.704  1.00  0.00    -0.231 A  
BRANCH  33  35
HETATM   35  C   UNL     1     -10.807  15.398  68.270  1.00  0.00    -0.269 C  
HETATM   36  N   UNL     1     -10.744  15.546  66.876  1.00  0.00    -0.316 N  
HETATM   37  O   UNL     1     -10.545  16.339  69.024  1.00  0.00    -0.246 OA 
BRANCH  36  38
HETATM   38  C   UNL     1     -11.095  14.510  65.995  1.00  0.00    -0.329 A  
HETATM   39  C   UNL     1     -11.796  12.598  64.174  1.00  0.00    -0.483 A  
HETATM   40  N   UNL     1     -10.114  13.937  65.259  1.00  0.00    -0.326 NA 
HETATM   41  C   UNL     1     -12.778  13.163  64.978  1.00  0.00    -0.456 A  
HETATM   42  C   UNL     1     -10.487  13.008  64.352  1.00  0.00    -0.404 A  
HETATM   43  C   UNL     1     -12.428  14.130  65.902  1.00  0.00    -0.479 A  
ENDBRANCH  36  38
BRANCH  36  44
HETATM   44  C   UNL     1     -10.605  16.876  66.255  1.00  0.00    -0.191 C  
BRANCH  44  45
HETATM   45  C   UNL     1      -9.188  17.400  65.979  1.00  0.00    -0.093 C  
BRANCH  45  46
HETATM   46  C   UNL     1      -8.457  18.183  67.056  1.00  0.00    -0.245 C  
HETATM   47  O   UNL     1      -7.657  17.748  67.868  1.00  0.00    -0.204 OA 
BRANCH  46  48
HETATM   48  O   UNL     1      -8.877  19.488  66.976  1.00  0.00    -0.286 OA 
BRANCH  48  49
HETATM   49  C   UNL     1     -10.161  19.857  67.514  1.00  0.00    -0.422 C  
HETATM   50  C   UNL     1     -10.147  19.811  69.031  1.00  0.00    -0.427 C  
ENDBRANCH  48  49
ENDBRANCH  46  48
ENDBRANCH  45  46
ENDBRANCH  44  45
ENDBRANCH  36  44
ENDBRANCH  33  35
ENDBRANCH  24  25
ENDBRANCH  22  24
ENDBRANCH  19  22
ENDBRANCH  12  16
ENDBRANCH   9  12
ENDBRANCH   7   8
ENDBRANCH   6   7
ENDBRANCH   5   6
ENDBRANCH   4   5
ENDBRANCH   3   4
ENDBRANCH   2   3
TORSDOF 18
ENDMDL
MODEL       24
REMARK 921   NORMALIZED FREE ENERGY PREDICTED BY IDOCK:   -5.44 KCAL/MOL
REMARK 922        TOTAL FREE ENERGY PREDICTED BY IDOCK:  -14.38 KCAL/MOL
REMARK 923 INTER-LIGAND FREE ENERGY PREDICTED BY IDOCK:  -11.12 KCAL/MOL
REMARK 924 INTRA-LIGAND FREE ENERGY PREDICTED BY IDOCK:   -3.26 KCAL/MOL
REMARK 927      BINDING AFFINITY PREDICTED BY RF-SCORE:    0.00 PKD
ROOT
HETATM    1  C   UNL     1     -11.995  12.623  70.202  1.00  0.00    -0.375 C  
HETATM    2  C   UNL     1     -12.384  11.170  70.414  1.00  0.00    -0.430 C  
ENDROOT
BRANCH   2   3
HETATM    3  C   UNL     1     -11.137  10.309  70.539  1.00  0.00    -0.381 C  
BRANCH   3   4
HETATM    4  C   UNL     1     -11.405   8.853  70.179  1.00  0.00    -0.119 C  
BRANCH   4   5
HETATM    5  C   UNL     1     -12.356   8.269  71.212  1.00  0.00    -0.285 C  
BRANCH   5   6
HETATM    6  C   UNL     1     -11.664   7.941  72.513  1.00  0.00    -0.367 C  
BRANCH   6   7
HETATM    7  O   UNL     1     -11.439   6.522  72.540  1.00  0.00    -0.268 OA 
BRANCH   7   8
HETATM    8  C   UNL     1     -10.406   6.109  73.323  1.00  0.00    -0.227 C  
HETATM    9  N   UNL     1      -9.334   5.654  72.616  1.00  0.00    -0.141 N  
HETATM   10  O   UNL     1     -10.438   6.132  74.549  1.00  0.00    -0.265 OA 
HETATM   11  H   UNL     1      -8.920   4.757  72.872  1.00  0.00     0.000 HD 
BRANCH   9  12
HETATM   12  C   UNL     1      -8.819   6.323  71.623  1.00  0.00    -0.138 C  
HETATM   13  H1  UNL     1      -7.766   8.002  71.196  1.00  0.00     0.000 HD 
HETATM   14  N   UNL     1      -8.169   7.479  71.973  1.00  0.00    -0.100 NA 
HETATM   15  H2  UNL     1      -8.095   7.793  72.940  1.00  0.00     0.000 HD 
BRANCH  12  16
HETATM   16  C   UNL     1      -8.820   5.915  70.183  1.00  0.00    -0.144 A  
HETATM   17  C   UNL     1      -7.678   6.023  69.388  1.00  0.00    -0.098 A  
HETATM   18  C   UNL     1      -7.814   6.060  67.997  1.00  0.00    -0.106 A  
HETATM   19  C   UNL     1      -9.062   5.875  67.387  1.00  0.00    -0.110 A  
HETATM   20  C   UNL     1     -10.164   5.594  68.200  1.00  0.00    -0.236 A  
HETATM   21  C   UNL     1     -10.052   5.624  69.589  1.00  0.00    -0.289 A  
BRANCH  19  22
HETATM   22  N   UNL     1      -9.190   6.222  66.030  1.00  0.00    -0.300 NA 
HETATM   23  H   UNL     1      -9.791   5.692  65.399  1.00  0.00     0.000 HD 
BRANCH  22  24
HETATM   24  C   UNL     1      -8.421   7.374  65.563  1.00  0.00    -0.118 C  
BRANCH  24  25
HETATM   25  C   UNL     1      -9.063   8.746  65.640  1.00  0.00    -0.191 A  
HETATM   26  N   UNL     1      -9.634   9.346  66.677  1.00  0.00    -0.177 NA 
HETATM   27  C   UNL     1      -9.997  10.616  66.247  1.00  0.00    -0.222 A  
HETATM   28  C   UNL     1      -9.629  10.784  64.914  1.00  0.00    -0.256 A  
HETATM   29  N   UNL     1      -9.101   9.572  64.537  1.00  0.00    -0.223 NA 
HETATM   30  C   UNL     1      -9.797  11.989  64.231  1.00  0.00    -0.195 A  
HETATM   31  C   UNL     1     -10.390  13.048  64.928  1.00  0.00    -0.343 A  
HETATM   32  C   UNL     1      -8.627   9.223  63.217  1.00  0.00    -0.201 C  
HETATM   33  C   UNL     1     -10.856  12.912  66.244  1.00  0.00    -0.295 A  
HETATM   34  C   UNL     1     -10.631  11.693  66.928  1.00  0.00    -0.276 A  
BRANCH  33  35
HETATM   35  C   UNL     1     -11.524  14.146  66.816  1.00  0.00    -0.369 C  
HETATM   36  N   UNL     1     -10.823  15.097  67.573  1.00  0.00    -0.293 N  
HETATM   37  O   UNL     1     -12.741  14.247  66.633  1.00  0.00    -0.197 OA 
BRANCH  36  38
HETATM   38  C   UNL     1      -9.430  15.038  67.746  1.00  0.00    -0.195 A  
HETATM   39  C   UNL     1      -6.729  15.056  68.153  1.00  0.00    -0.134 A  
HETATM   40  N   UNL     1      -8.950  14.474  68.878  1.00  0.00    -0.152 NA 
HETATM   41  C   UNL     1      -7.241  15.582  66.975  1.00  0.00    -0.124 A  
HETATM   42  C   UNL     1      -7.613  14.512  69.067  1.00  0.00    -0.124 A  
HETATM   43  C   UNL     1      -8.607  15.575  66.763  1.00  0.00    -0.307 A  
ENDBRANCH  36  38
BRANCH  36  44
HETATM   44  C   UNL     1     -11.450  16.370  67.970  1.00  0.00    -0.059 C  
BRANCH  44  45
HETATM   45  C   UNL     1     -10.533  17.568  68.257  1.00  0.00    -0.383 C  
BRANCH  45  46
HETATM   46  C   UNL     1     -10.288  18.600  67.169  1.00  0.00    -0.401 C  
HETATM   47  O   UNL     1     -10.407  18.443  65.965  1.00  0.00    -0.468 OA 
BRANCH  46  48
HETATM   48  O   UNL     1      -9.875  19.758  67.783  1.00  0.00    -0.354 OA 
BRANCH  48  49
HETATM   49  C   UNL     1      -8.607  20.340  67.425  1.00  0.00    -0.343 C  
HETATM   50  C   UNL     1      -7.464  19.613  68.109  1.00  0.00    -0.339 C  
ENDBRANCH  48  49
ENDBRANCH  46  48
ENDBRANCH  45  46
ENDBRANCH  44  45
ENDBRANCH  36  44
ENDBRANCH  33  35
ENDBRANCH  24  25
ENDBRANCH  22  24
ENDBRANCH  19  22
ENDBRANCH  12  16
ENDBRANCH   9  12
ENDBRANCH   7   8
ENDBRANCH   6   7
ENDBRANCH   5   6
ENDBRANCH   4   5
ENDBRANCH   3   4
ENDBRANCH   2   3
TORSDOF 18
ENDMDL
MODEL       25
REMARK 921   NORMALIZED FREE ENERGY PREDICTED BY IDOCK:   -5.43 KCAL/MOL
REMARK 922        TOTAL FREE ENERGY PREDICTED BY IDOCK:  -14.36 KCAL/MOL
REMARK 923 INTER-LIGAND FREE ENERGY PREDICTED BY IDOCK:  -11.59 KCAL/MOL
REMARK 924 INTRA-LIGAND FREE ENERGY PREDICTED BY IDOCK:   -2.77 KCAL/MOL
REMARK 927      BINDING AFFINITY PREDICTED BY RF-SCORE:    0.00 PKD
ROOT
HETATM    1  C   UNL     1      -6.928  16.109  69.035  1.00  0.00    -0.178 C  
HETATM    2  C   UNL     1      -6.013  15.649  67.912  1.00  0.00    -0.163 C  
ENDROOT
BRANCH   2   3
HETATM    3  C   UNL     1      -5.642  16.826  67.025  1.00  0.00    -0.178 C  
BRANCH   3   4
HETATM    4  C   UNL     1      -6.532  18.038  67.274  1.00  0.00    -0.186 C  
BRANCH   4   5
HETATM    5  C   UNL     1      -7.168  18.445  65.955  1.00  0.00    -0.267 C  
BRANCH   5   6
HETATM    6  C   UNL     1      -7.749  19.838  66.000  1.00  0.00    -0.332 C  
BRANCH   6   7
HETATM    7  O   UNL     1      -9.165  19.726  65.782  1.00  0.00    -0.368 OA 
BRANCH   7   8
HETATM    8  C   UNL     1      -9.950  20.100  66.828  1.00  0.00    -0.469 C  
HETATM    9  N   UNL     1     -10.810  19.127  67.239  1.00  0.00    -0.480 N  
HETATM   10  O   UNL     1      -9.897  21.210  67.348  1.00  0.00    -0.312 OA 
HETATM   11  H   UNL     1     -11.794  19.364  67.372  1.00  0.00     0.000 HD 
BRANCH   9  12
HETATM   12  C   UNL     1     -10.422  17.904  67.468  1.00  0.00    -0.390 C  
HETATM   13  H1  UNL     1      -9.839  16.659  68.958  1.00  0.00     0.000 HD 
HETATM   14  N   UNL     1     -10.142  17.616  68.779  1.00  0.00    -0.366 NA 
HETATM   15  H2  UNL     1     -10.231  18.309  69.522  1.00  0.00     0.000 HD 
BRANCH  12  16
HETATM   16  C   UNL     1     -10.322  16.802  66.461  1.00  0.00    -0.301 A  
HETATM   17  C   UNL     1     -11.030  16.838  65.258  1.00  0.00    -0.084 A  
HETATM   18  C   UNL     1     -11.263  15.646  64.565  1.00  0.00    -0.337 A  
HETATM   19  C   UNL     1     -10.700  14.437  64.997  1.00  0.00    -0.423 A  
HETATM   20  C   UNL     1      -9.851  14.458  66.106  1.00  0.00    -0.340 A  
HETATM   21  C   UNL     1      -9.668  15.627  66.844  1.00  0.00    -0.240 A  
BRANCH  19  22
HETATM   22  N   UNL     1     -11.208  13.244  64.451  1.00  0.00    -0.365 NA 
HETATM   23  H   UNL     1     -12.209  13.101  64.322  1.00  0.00     0.000 HD 
BRANCH  22  24
HETATM   24  C   UNL     1     -10.236  12.217  64.079  1.00  0.00    -0.373 C  
BRANCH  24  25
HETATM   25  C   UNL     1     -10.033  11.044  65.018  1.00  0.00    -0.285 A  
HETATM   26  N   UNL     1     -10.594  10.810  66.198  1.00  0.00    -0.214 NA 
HETATM   27  C   UNL     1     -10.131   9.568  66.614  1.00  0.00    -0.252 A  
HETATM   28  C   UNL     1      -9.271   9.040  65.654  1.00  0.00    -0.225 A  
HETATM   29  N   UNL     1      -9.177  10.015  64.690  1.00  0.00    -0.238 NA 
HETATM   30  C   UNL     1      -8.710   7.767  65.762  1.00  0.00    -0.160 A  
HETATM   31  C   UNL     1      -9.016   7.022  66.906  1.00  0.00    -0.135 A  
HETATM   32  C   UNL     1      -8.349   9.965  63.505  1.00  0.00    -0.166 C  
HETATM   33  C   UNL     1      -9.808   7.535  67.944  1.00  0.00    -0.185 A  
HETATM   34  C   UNL     1     -10.402   8.810  67.788  1.00  0.00    -0.297 A  
BRANCH  33  35
HETATM   35  C   UNL     1      -9.982   6.609  69.132  1.00  0.00    -0.157 C  
HETATM   36  N   UNL     1      -9.041   6.535  70.170  1.00  0.00    -0.154 N  
HETATM   37  O   UNL     1     -10.972   5.872  69.113  1.00  0.00    -0.333 OA 
BRANCH  36  38
HETATM   38  C   UNL     1      -7.939   7.402  70.247  1.00  0.00    -0.107 A  
HETATM   39  C   UNL     1      -5.757   9.022  70.525  1.00  0.00    -0.031 A  
HETATM   40  N   UNL     1      -6.767   6.994  69.708  1.00  0.00    -0.048 NA 
HETATM   41  C   UNL     1      -6.983   9.443  71.024  1.00  0.00    -0.066 A  
HETATM   42  C   UNL     1      -5.698   7.803  69.875  1.00  0.00    -0.023 A  
HETATM   43  C   UNL     1      -8.091   8.627  70.885  1.00  0.00    -0.155 A  
ENDBRANCH  36  38
BRANCH  36  44
HETATM   44  C   UNL     1      -9.315   5.760  71.394  1.00  0.00    -0.146 C  
BRANCH  44  45
HETATM   45  C   UNL     1     -10.719   5.851  72.008  1.00  0.00    -0.282 C  
BRANCH  45  46
HETATM   46  C   UNL     1     -11.175   7.153  72.645  1.00  0.00    -0.293 C  
HETATM   47  O   UNL     1     -10.646   7.743  73.573  1.00  0.00    -0.294 OA 
BRANCH  46  48
HETATM   48  O   UNL     1     -12.322   7.549  72.002  1.00  0.00    -0.298 OA 
BRANCH  48  49
HETATM   49  C   UNL     1     -12.887   8.844  72.285  1.00  0.00    -0.411 C  
HETATM   50  C   UNL     1     -12.472   9.858  71.235  1.00  0.00    -0.479 C  
ENDBRANCH  48  49
ENDBRANCH  46  48
ENDBRANCH  45  46
ENDBRANCH  44  45
ENDBRANCH  36  44
ENDBRANCH  33  35
ENDBRANCH  24  25
ENDBRANCH  22  24
ENDBRANCH  19  22
ENDBRANCH  12  16
ENDBRANCH   9  12
ENDBRANCH   7   8
ENDBRANCH   6   7
ENDBRANCH   5   6
ENDBRANCH   4   5
ENDBRANCH   3   4
ENDBRANCH   2   3
TORSDOF 18
ENDMDL
MODEL       26
REMARK 921   NORMALIZED FREE ENERGY PREDICTED BY IDOCK:   -5.40 KCAL/MOL
REMARK 922        TOTAL FREE ENERGY PREDICTED BY IDOCK:  -14.28 KCAL/MOL
REMARK 923 INTER-LIGAND FREE ENERGY PREDICTED BY IDOCK:   -9.99 KCAL/MOL
REMARK 924 INTRA-LIGAND FREE ENERGY PREDICTED BY IDOCK:   -4.30 KCAL/MOL
REMARK 927      BINDING AFFINITY PREDICTED BY RF-SCORE:    0.00 PKD
ROOT
HETATM    1  C   UNL     1     -10.671   5.678  70.626  1.00  0.00    -0.333 C  
HETATM    2  C   UNL     1     -11.169   6.186  69.283  1.00  0.00    -0.438 C  
ENDROOT
BRANCH   2   3
HETATM    3  C   UNL     1     -10.033   6.852  68.524  1.00  0.00    -0.149 C  
BRANCH   3   4
HETATM    4  C   UNL     1     -10.315   6.943  67.030  1.00  0.00    -0.348 C  
BRANCH   4   5
HETATM    5  C   UNL     1     -10.561   5.539  66.501  1.00  0.00    -0.343 C  
BRANCH   5   6
HETATM    6  C   UNL     1      -9.301   4.710  66.455  1.00  0.00    -0.149 C  
BRANCH   6   7
HETATM    7  O   UNL     1      -9.548   3.503  67.194  1.00  0.00    -0.207 OA 
BRANCH   7   8
HETATM    8  C   UNL     1      -8.545   2.583  67.164  1.00  0.00    -0.109 C  
HETATM    9  N   UNL     1      -7.580   2.798  68.101  1.00  0.00    -0.056 N  
HETATM   10  O   UNL     1      -8.506   1.654  66.363  1.00  0.00    -0.089 OA 
HETATM   11  H   UNL     1      -6.601   2.788  67.812  1.00  0.00     0.000 HD 
BRANCH   9  12
HETATM   12  C   UNL     1      -7.862   3.018  69.354  1.00  0.00    -0.046 C  
HETATM   13  H1  UNL     1      -8.878   2.244  70.929  1.00  0.00     0.000 HD 
HETATM   14  N   UNL     1      -8.657   2.072  69.948  1.00  0.00    -0.048 NA 
HETATM   15  H2  UNL     1      -9.004   1.255  69.446  1.00  0.00     0.000 HD 
BRANCH  12  16
HETATM   16  C   UNL     1      -7.353   4.148  70.194  1.00  0.00    -0.045 A  
HETATM   17  C   UNL     1      -7.446   4.129  71.586  1.00  0.00    -0.060 A  
HETATM   18  C   UNL     1      -7.378   5.333  72.293  1.00  0.00    -0.093 A  
HETATM   19  C   UNL     1      -7.105   6.541  71.638  1.00  0.00    -0.081 A  
HETATM   20  C   UNL     1      -6.843   6.509  70.266  1.00  0.00    -0.058 A  
HETATM   21  C   UNL     1      -6.976   5.325  69.541  1.00  0.00    -0.055 A  
BRANCH  19  22
HETATM   22  N   UNL     1      -7.349   7.738  72.336  1.00  0.00    -0.078 NA 
HETATM   23  H   UNL     1      -6.591   8.270  72.764  1.00  0.00     0.000 HD 
BRANCH  22  24
HETATM   24  C   UNL     1      -8.738   8.187  72.421  1.00  0.00    -0.189 C  
BRANCH  24  25
HETATM   25  C   UNL     1      -9.279   9.067  71.311  1.00  0.00    -0.244 A  
HETATM   26  N   UNL     1      -8.629   9.644  70.308  1.00  0.00    -0.214 NA 
HETATM   27  C   UNL     1      -9.589  10.278  69.529  1.00  0.00    -0.202 A  
HETATM   28  C   UNL     1     -10.852  10.072  70.078  1.00  0.00    -0.302 A  
HETATM   29  N   UNL     1     -10.623   9.361  71.232  1.00  0.00    -0.333 NA 
HETATM   30  C   UNL     1     -12.022  10.526  69.470  1.00  0.00    -0.258 A  
HETATM   31  C   UNL     1     -11.893  11.242  68.275  1.00  0.00    -0.299 A  
HETATM   32  C   UNL     1     -11.624   8.951  72.193  1.00  0.00    -0.330 C  
HETATM   33  C   UNL     1     -10.642  11.553  67.720  1.00  0.00    -0.227 A  
HETATM   34  C   UNL     1      -9.473  11.040  68.332  1.00  0.00    -0.182 A  
BRANCH  33  35
HETATM   35  C   UNL     1     -10.694  12.388  66.456  1.00  0.00    -0.236 C  
HETATM   36  N   UNL     1     -10.166  13.686  66.392  1.00  0.00    -0.285 N  
HETATM   37  O   UNL     1     -11.281  11.889  65.492  1.00  0.00    -0.317 OA 
BRANCH  36  38
HETATM   38  C   UNL     1      -9.442  14.254  67.453  1.00  0.00    -0.211 A  
HETATM   39  C   UNL     1      -8.045  15.227  69.590  1.00  0.00    -0.125 A  
HETATM   40  N   UNL     1      -8.096  14.116  67.454  1.00  0.00    -0.185 NA 
HETATM   41  C   UNL     1      -9.422  15.403  69.541  1.00  0.00    -0.250 A  
HETATM   42  C   UNL     1      -7.428  14.588  68.529  1.00  0.00    -0.123 A  
HETATM   43  C   UNL     1     -10.134  14.914  68.462  1.00  0.00    -0.232 A  
ENDBRANCH  36  38
BRANCH  36  44
HETATM   44  C   UNL     1     -10.072  14.410  65.112  1.00  0.00    -0.326 C  
BRANCH  44  45
HETATM   45  C   UNL     1     -11.027  15.589  64.876  1.00  0.00    -0.452 C  
BRANCH  45  46
HETATM   46  C   UNL     1     -10.544  17.006  65.137  1.00  0.00    -0.015 C  
HETATM   47  O   UNL     1     -11.052  18.041  64.738  1.00  0.00    -0.708 OA 
BRANCH  46  48
HETATM   48  O   UNL     1      -9.399  16.921  65.891  1.00  0.00    -0.489 OA 
BRANCH  48  49
HETATM   49  C   UNL     1      -8.708  18.125  66.274  1.00  0.00    -0.172 C  
HETATM   50  C   UNL     1      -9.086  18.542  67.684  1.00  0.00    -0.293 C  
ENDBRANCH  48  49
ENDBRANCH  46  48
ENDBRANCH  45  46
ENDBRANCH  44  45
ENDBRANCH  36  44
ENDBRANCH  33  35
ENDBRANCH  24  25
ENDBRANCH  22  24
ENDBRANCH  19  22
ENDBRANCH  12  16
ENDBRANCH   9  12
ENDBRANCH   7   8
ENDBRANCH   6   7
ENDBRANCH   5   6
ENDBRANCH   4   5
ENDBRANCH   3   4
ENDBRANCH   2   3
TORSDOF 18
ENDMDL
MODEL       27
REMARK 921   NORMALIZED FREE ENERGY PREDICTED BY IDOCK:   -5.36 KCAL/MOL
REMARK 922        TOTAL FREE ENERGY PREDICTED BY IDOCK:  -14.21 KCAL/MOL
REMARK 923 INTER-LIGAND FREE ENERGY PREDICTED BY IDOCK:  -10.56 KCAL/MOL
REMARK 924 INTRA-LIGAND FREE ENERGY PREDICTED BY IDOCK:   -3.65 KCAL/MOL
REMARK 927      BINDING AFFINITY PREDICTED BY RF-SCORE:    0.00 PKD
ROOT
HETATM    1  C   UNL     1      -6.938  10.117  67.627  1.00  0.00    -0.085 C  
HETATM    2  C   UNL     1      -7.406   8.930  66.802  1.00  0.00    -0.082 C  
ENDROOT
BRANCH   2   3
HETATM    3  C   UNL     1      -8.824   9.166  66.306  1.00  0.00    -0.176 C  
BRANCH   3   4
HETATM    4  C   UNL     1      -8.941   9.004  64.796  1.00  0.00    -0.146 C  
BRANCH   4   5
HETATM    5  C   UNL     1      -7.590   8.559  64.255  1.00  0.00    -0.122 C  
BRANCH   5   6
HETATM    6  C   UNL     1      -7.682   7.287  63.448  1.00  0.00    -0.124 C  
BRANCH   6   7
HETATM    7  O   UNL     1      -7.991   6.218  64.356  1.00  0.00    -0.114 OA 
BRANCH   7   8
HETATM    8  C   UNL     1      -6.943   5.750  65.087  1.00  0.00    -0.059 C  
HETATM    9  N   UNL     1      -7.279   5.404  66.362  1.00  0.00    -0.076 N  
HETATM   10  O   UNL     1      -5.801   5.658  64.647  1.00  0.00    -0.020 OA 
HETATM   11  H   UNL     1      -6.708   5.752  67.133  1.00  0.00     0.000 HD 
BRANCH   9  12
HETATM   12  C   UNL     1      -8.303   4.646  66.631  1.00  0.00    -0.106 C  
HETATM   13  H1  UNL     1      -9.050   2.787  66.315  1.00  0.00     0.000 HD 
HETATM   14  N   UNL     1      -8.248   3.381  66.104  1.00  0.00    -0.096 NA 
HETATM   15  H2  UNL     1      -7.461   3.057  65.541  1.00  0.00     0.000 HD 
BRANCH  12  16
HETATM   16  C   UNL     1      -9.471   5.005  67.495  1.00  0.00    -0.152 A  
HETATM   17  C   UNL     1     -10.453   5.902  67.068  1.00  0.00    -0.341 A  
HETATM   18  C   UNL     1     -11.256   6.540  68.018  1.00  0.00    -0.251 A  
HETATM   19  C   UNL     1     -11.169   6.209  69.377  1.00  0.00    -0.396 A  
HETATM   20  C   UNL     1     -10.301   5.183  69.758  1.00  0.00    -0.332 A  
HETATM   21  C   UNL     1      -9.447   4.589  68.829  1.00  0.00    -0.221 A  
BRANCH  19  22
HETATM   22  N   UNL     1     -11.767   7.081  70.306  1.00  0.00    -0.529 NA 
HETATM   23  H   UNL     1     -12.756   7.007  70.546  1.00  0.00     0.000 HD 
BRANCH  22  24
HETATM   24  C   UNL     1     -10.909   8.097  70.911  1.00  0.00    -0.230 C  
BRANCH  24  25
HETATM   25  C   UNL     1     -10.894   9.484  70.297  1.00  0.00    -0.269 A  
HETATM   26  N   UNL     1     -10.132   9.958  69.319  1.00  0.00    -0.191 NA 
HETATM   27  C   UNL     1     -10.561  11.258  69.081  1.00  0.00    -0.187 A  
HETATM   28  C   UNL     1     -11.613  11.571  69.937  1.00  0.00    -0.308 A  
HETATM   29  N   UNL     1     -11.761  10.461  70.736  1.00  0.00    -0.347 NA 
HETATM   30  C   UNL     1     -12.300  12.784  69.877  1.00  0.00    -0.138 A  
HETATM   31  C   UNL     1     -11.875  13.719  68.928  1.00  0.00    -0.396 A  
HETATM   32  C   UNL     1     -12.694  10.318  71.831  1.00  0.00    -0.379 C  
HETATM   33  C   UNL     1     -10.768  13.492  68.095  1.00  0.00    -0.265 A  
HETATM   34  C   UNL     1     -10.119  12.235  68.145  1.00  0.00    -0.211 A  
BRANCH  33  35
HETATM   35  C   UNL     1     -10.417  14.642  67.171  1.00  0.00    -0.268 C  
HETATM   36  N   UNL     1      -9.173  15.289  67.218  1.00  0.00    -0.194 N  
HETATM   37  O   UNL     1     -11.308  15.024  66.407  1.00  0.00    -0.341 OA 
BRANCH  36  38
HETATM   38  C   UNL     1      -8.123  14.838  68.035  1.00  0.00    -0.139 A  
HETATM   39  C   UNL     1      -6.003  14.083  69.583  1.00  0.00    -0.115 A  
HETATM   40  N   UNL     1      -8.094  15.250  69.324  1.00  0.00    -0.223 NA 
HETATM   41  C   UNL     1      -6.082  13.631  68.273  1.00  0.00    -0.108 A  
HETATM   42  C   UNL     1      -7.027  14.880  70.064  1.00  0.00    -0.095 A  
HETATM   43  C   UNL     1      -7.153  14.009  67.485  1.00  0.00    -0.179 A  
ENDBRANCH  36  38
BRANCH  36  44
HETATM   44  C   UNL     1      -8.792  16.284  66.200  1.00  0.00    -0.327 C  
BRANCH  44  45
HETATM   45  C   UNL     1      -8.020  17.529  66.659  1.00  0.00    -0.288 C  
BRANCH  45  46
HETATM   46  C   UNL     1      -8.618  18.428  67.728  1.00  0.00    -0.267 C  
HETATM   47  O   UNL     1      -8.013  19.096  68.550  1.00  0.00    -0.324 OA 
BRANCH  46  48
HETATM   48  O   UNL     1      -9.985  18.339  67.627  1.00  0.00    -0.311 OA 
BRANCH  48  49
HETATM   49  C   UNL     1     -10.747  19.496  67.235  1.00  0.00    -0.484 C  
HETATM   50  C   UNL     1     -10.514  19.829  65.772  1.00  0.00    -0.545 C  
ENDBRANCH  48  49
ENDBRANCH  46  48
ENDBRANCH  45  46
ENDBRANCH  44  45
ENDBRANCH  36  44
ENDBRANCH  33  35
ENDBRANCH  24  25
ENDBRANCH  22  24
ENDBRANCH  19  22
ENDBRANCH  12  16
ENDBRANCH   9  12
ENDBRANCH   7   8
ENDBRANCH   6   7
ENDBRANCH   5   6
ENDBRANCH   4   5
ENDBRANCH   3   4
ENDBRANCH   2   3
TORSDOF 18
ENDMDL
MODEL       28
REMARK 921   NORMALIZED FREE ENERGY PREDICTED BY IDOCK:   -5.36 KCAL/MOL
REMARK 922        TOTAL FREE ENERGY PREDICTED BY IDOCK:  -14.21 KCAL/MOL
REMARK 923 INTER-LIGAND FREE ENERGY PREDICTED BY IDOCK:  -11.36 KCAL/MOL
REMARK 924 INTRA-LIGAND FREE ENERGY PREDICTED BY IDOCK:   -2.85 KCAL/MOL
REMARK 927      BINDING AFFINITY PREDICTED BY RF-SCORE:    0.00 PKD
ROOT
HETATM    1  C   UNL     1     -12.801  15.987  73.278  1.00  0.00    -0.649 C  
HETATM    2  C   UNL     1     -13.970  15.343  72.553  1.00  0.00    -0.640 C  
ENDROOT
BRANCH   2   3
HETATM    3  C   UNL     1     -13.551  14.928  71.151  1.00  0.00    -0.467 C  
BRANCH   3   4
HETATM    4  C   UNL     1     -12.042  14.757  71.029  1.00  0.00    -0.391 C  
BRANCH   4   5
HETATM    5  C   UNL     1     -11.584  15.435  69.746  1.00  0.00    -0.339 C  
BRANCH   5   6
HETATM    6  C   UNL     1     -10.992  16.801  69.995  1.00  0.00    -0.002 C  
BRANCH   6   7
HETATM    7  O   UNL     1     -10.769  17.417  68.716  1.00  0.00    -0.309 OA 
BRANCH   7   8
HETATM    8  C   UNL     1      -9.639  18.168  68.618  1.00  0.00    -0.331 C  
HETATM    9  N   UNL     1      -8.614  17.530  67.985  1.00  0.00    -0.243 N  
HETATM   10  O   UNL     1      -9.545  19.307  69.065  1.00  0.00    -0.399 OA 
HETATM   11  H   UNL     1      -7.691  17.529  68.421  1.00  0.00     0.000 HD 
BRANCH   9  12
HETATM   12  C   UNL     1      -8.771  16.921  66.844  1.00  0.00    -0.223 C  
HETATM   13  H1  UNL     1      -8.360  17.092  64.865  1.00  0.00     0.000 HD 
HETATM   14  N   UNL     1      -8.238  17.569  65.759  1.00  0.00    -0.522 NA 
HETATM   15  H2  UNL     1      -7.754  18.463  65.839  1.00  0.00     0.000 HD 
BRANCH  12  16
HETATM   16  C   UNL     1      -9.407  15.583  66.632  1.00  0.00    -0.291 A  
HETATM   17  C   UNL     1     -10.686  15.456  66.089  1.00  0.00    -0.316 A  
HETATM   18  C   UNL     1     -11.409  14.278  66.307  1.00  0.00    -0.347 A  
HETATM   19  C   UNL     1     -10.826  13.185  66.961  1.00  0.00    -0.264 A  
HETATM   20  C   UNL     1      -9.485  13.274  67.342  1.00  0.00    -0.218 A  
HETATM   21  C   UNL     1      -8.778  14.467  67.191  1.00  0.00    -0.243 A  
BRANCH  19  22
HETATM   22  N   UNL     1     -11.677  12.161  67.418  1.00  0.00    -0.509 NA 
HETATM   23  H   UNL     1     -12.164  11.544  66.768  1.00  0.00     0.000 HD 
BRANCH  22  24
HETATM   24  C   UNL     1     -11.835  12.023  68.864  1.00  0.00    -0.299 C  
BRANCH  24  25
HETATM   25  C   UNL     1     -11.205  10.823  69.545  1.00  0.00    -0.281 A  
HETATM   26  N   UNL     1     -10.134  10.125  69.188  1.00  0.00    -0.201 NA 
HETATM   27  C   UNL     1      -9.932   9.177  70.183  1.00  0.00    -0.200 A  
HETATM   28  C   UNL     1     -10.908   9.313  71.167  1.00  0.00    -0.337 A  
HETATM   29  N   UNL     1     -11.733  10.313  70.711  1.00  0.00    -0.334 NA 
HETATM   30  C   UNL     1     -10.916   8.546  72.333  1.00  0.00    -0.390 A  
HETATM   31  C   UNL     1      -9.909   7.586  72.481  1.00  0.00    -0.226 A  
HETATM   32  C   UNL     1     -12.937  10.786  71.358  1.00  0.00    -0.432 C  
HETATM   33  C   UNL     1      -8.950   7.347  71.485  1.00  0.00    -0.132 A  
HETATM   34  C   UNL     1      -8.936   8.171  70.334  1.00  0.00    -0.146 A  
BRANCH  33  35
HETATM   35  C   UNL     1      -7.974   6.229  71.793  1.00  0.00    -0.102 C  
HETATM   36  N   UNL     1      -7.741   5.170  70.903  1.00  0.00    -0.085 N  
HETATM   37  O   UNL     1      -7.431   6.263  72.901  1.00  0.00    -0.094 OA 
BRANCH  36  38
HETATM   38  C   UNL     1      -8.298   5.138  69.613  1.00  0.00    -0.093 A  
HETATM   39  C   UNL     1      -9.412   5.222  67.121  1.00  0.00    -0.132 A  
HETATM   40  N   UNL     1      -7.494   5.422  68.563  1.00  0.00    -0.075 NA 
HETATM   41  C   UNL     1     -10.206   4.882  68.208  1.00  0.00    -0.102 A  
HETATM   42  C   UNL     1      -8.071   5.477  67.343  1.00  0.00    -0.101 A  
HETATM   43  C   UNL     1      -9.647   4.836  69.472  1.00  0.00    -0.250 A  
ENDBRANCH  36  38
BRANCH  36  44
HETATM   44  C   UNL     1      -6.666   4.192  71.145  1.00  0.00    -0.034 C  
BRANCH  44  45
HETATM   45  C   UNL     1      -7.051   2.821  71.720  1.00  0.00    -0.035 C  
BRANCH  45  46
HETATM   46  C   UNL     1      -7.663   2.737  73.108  1.00  0.00    -0.051 C  
HETATM   47  O   UNL     1      -7.166   3.118  74.155  1.00  0.00    -0.044 OA 
BRANCH  46  48
HETATM   48  O   UNL     1      -8.885   2.123  72.986  1.00  0.00    -0.066 OA 
BRANCH  48  49
HETATM   49  C   UNL     1      -9.974   2.823  72.354  1.00  0.00    -0.165 C  
HETATM   50  C   UNL     1     -10.447   3.981  73.214  1.00  0.00    -0.253 C  
ENDBRANCH  48  49
ENDBRANCH  46  48
ENDBRANCH  45  46
ENDBRANCH  44  45
ENDBRANCH  36  44
ENDBRANCH  33  35
ENDBRANCH  24  25
ENDBRANCH  22  24
ENDBRANCH  19  22
ENDBRANCH  12  16
ENDBRANCH   9  12
ENDBRANCH   7   8
ENDBRANCH   6   7
ENDBRANCH   5   6
ENDBRANCH   4   5
ENDBRANCH   3   4
ENDBRANCH   2   3
TORSDOF 18
ENDMDL
MODEL       29
REMARK 921   NORMALIZED FREE ENERGY PREDICTED BY IDOCK:   -5.20 KCAL/MOL
REMARK 922        TOTAL FREE ENERGY PREDICTED BY IDOCK:  -13.88 KCAL/MOL
REMARK 923 INTER-LIGAND FREE ENERGY PREDICTED BY IDOCK:  -10.81 KCAL/MOL
REMARK 924 INTRA-LIGAND FREE ENERGY PREDICTED BY IDOCK:   -3.07 KCAL/MOL
REMARK 927      BINDING AFFINITY PREDICTED BY RF-SCORE:    0.00 PKD
ROOT
HETATM    1  C   UNL     1      -9.350   5.555  74.080  1.00  0.00    -0.135 C  
HETATM    2  C   UNL     1     -10.677   5.195  73.432  1.00  0.00    -0.331 C  
ENDROOT
BRANCH   2   3
HETATM    3  C   UNL     1     -10.444   4.277  72.242  1.00  0.00    -0.164 C  
BRANCH   3   4
HETATM    4  C   UNL     1      -9.309   4.766  71.352  1.00  0.00    -0.201 C  
BRANCH   4   5
HETATM    5  C   UNL     1      -9.634   4.396  69.913  1.00  0.00    -0.275 C  
BRANCH   5   6
HETATM    6  C   UNL     1      -9.357   2.943  69.613  1.00  0.00    -0.135 C  
BRANCH   6   7
HETATM    7  O   UNL     1      -9.504   2.755  68.197  1.00  0.00    -0.206 OA 
BRANCH   7   8
HETATM    8  C   UNL     1      -8.382   2.970  67.458  1.00  0.00    -0.083 C  
HETATM    9  N   UNL     1      -8.636   3.269  66.153  1.00  0.00    -0.115 N  
HETATM   10  O   UNL     1      -7.247   2.892  67.918  1.00  0.00    -0.049 OA 
HETATM   11  H   UNL     1      -8.129   2.766  65.425  1.00  0.00     0.000 HD 
BRANCH   9  12
HETATM   12  C   UNL     1      -9.505   4.174  65.803  1.00  0.00    -0.177 C  
HETATM   13  H1  UNL     1     -11.128   4.469  64.622  1.00  0.00     0.000 HD 
HETATM   14  N   UNL     1     -10.447   3.760  64.896  1.00  0.00    -0.458 NA 
HETATM   15  H2  UNL     1     -10.466   2.811  64.522  1.00  0.00     0.000 HD 
BRANCH  12  16
HETATM   16  C   UNL     1      -9.599   5.569  66.338  1.00  0.00    -0.174 A  
HETATM   17  C   UNL     1      -8.469   6.370  66.505  1.00  0.00    -0.118 A  
HETATM   18  C   UNL     1      -8.521   7.454  67.386  1.00  0.00    -0.119 A  
HETATM   19  C   UNL     1      -9.720   7.816  68.016  1.00  0.00    -0.154 A  
HETATM   20  C   UNL     1     -10.879   7.103  67.698  1.00  0.00    -0.279 A  
HETATM   21  C   UNL     1     -10.823   5.980  66.874  1.00  0.00    -0.396 A  
BRANCH  19  22
HETATM   22  N   UNL     1      -9.650   8.703  69.106  1.00  0.00    -0.161 NA 
HETATM   23  H   UNL     1      -8.880   8.665  69.773  1.00  0.00     0.000 HD 
BRANCH  22  24
HETATM   24  C   UNL     1     -10.729   9.679  69.239  1.00  0.00    -0.226 C  
BRANCH  24  25
HETATM   25  C   UNL     1     -10.472  11.102  68.781  1.00  0.00    -0.203 A  
HETATM   26  N   UNL     1      -9.615  11.546  67.869  1.00  0.00    -0.172 NA 
HETATM   27  C   UNL     1      -9.822  12.916  67.770  1.00  0.00    -0.221 A  
HETATM   28  C   UNL     1     -10.835  13.304  68.643  1.00  0.00    -0.259 A  
HETATM   29  N   UNL     1     -11.183  12.156  69.313  1.00  0.00    -0.245 NA 
HETATM   30  C   UNL     1     -11.316  14.613  68.707  1.00  0.00    -0.302 A  
HETATM   31  C   UNL     1     -10.718  15.562  67.871  1.00  0.00    -0.294 A  
HETATM   32  C   UNL     1     -12.160  12.051  70.375  1.00  0.00    -0.321 C  
HETATM   33  C   UNL     1      -9.638  15.247  67.032  1.00  0.00    -0.233 A  
HETATM   34  C   UNL     1      -9.201  13.903  66.952  1.00  0.00    -0.269 A  
BRANCH  33  35
HETATM   35  C   UNL     1      -9.079  16.415  66.244  1.00  0.00    -0.327 C  
HETATM   36  N   UNL     1      -7.842  17.002  66.549  1.00  0.00    -0.266 N  
HETATM   37  O   UNL     1      -9.798  16.868  65.349  1.00  0.00    -0.537 OA 
BRANCH  36  38
HETATM   38  C   UNL     1      -6.978  16.471  67.521  1.00  0.00    -0.147 A  
HETATM   39  C   UNL     1      -5.384  15.312  69.412  1.00  0.00    -0.093 A  
HETATM   40  N   UNL     1      -5.927  15.728  67.103  1.00  0.00    -0.320 NA 
HETATM   41  C   UNL     1      -6.438  16.121  69.816  1.00  0.00    -0.159 A  
HETATM   42  C   UNL     1      -5.164  15.149  68.057  1.00  0.00    -0.120 A  
HETATM   43  C   UNL     1      -7.247  16.711  68.863  1.00  0.00    -0.219 A  
ENDBRANCH  36  38
BRANCH  36  44
HETATM   44  C   UNL     1      -7.241  18.018  65.665  1.00  0.00    -0.050 C  
BRANCH  44  45
HETATM   45  C   UNL     1      -7.681  19.479  65.840  1.00  0.00    -0.288 C  
BRANCH  45  46
HETATM   46  C   UNL     1      -7.815  20.057  67.239  1.00  0.00    -0.298 C  
HETATM   47  O   UNL     1      -6.993  20.004  68.139  1.00  0.00    -0.279 OA 
BRANCH  46  48
HETATM   48  O   UNL     1      -9.055  20.640  67.329  1.00  0.00    -0.367 OA 
BRANCH  48  49
HETATM   49  C   UNL     1     -10.220  19.813  67.506  1.00  0.00    -0.436 C  
HETATM   50  C   UNL     1     -10.144  19.041  68.811  1.00  0.00    -0.429 C  
ENDBRANCH  48  49
ENDBRANCH  46  48
ENDBRANCH  45  46
ENDBRANCH  44  45
ENDBRANCH  36  44
ENDBRANCH  33  35
ENDBRANCH  24  25
ENDBRANCH  22  24
ENDBRANCH  19  22
ENDBRANCH  12  16
ENDBRANCH   9  12
ENDBRANCH   7   8
ENDBRANCH   6   7
ENDBRANCH   5   6
ENDBRANCH   4   5
ENDBRANCH   3   4
ENDBRANCH   2   3
TORSDOF 18
ENDMDL
MODEL       30
REMARK 921   NORMALIZED FREE ENERGY PREDICTED BY IDOCK:   -5.18 KCAL/MOL
REMARK 922        TOTAL FREE ENERGY PREDICTED BY IDOCK:  -13.83 KCAL/MOL
REMARK 923 INTER-LIGAND FREE ENERGY PREDICTED BY IDOCK:  -10.51 KCAL/MOL
REMARK 924 INTRA-LIGAND FREE ENERGY PREDICTED BY IDOCK:   -3.32 KCAL/MOL
REMARK 927      BINDING AFFINITY PREDICTED BY RF-SCORE:    0.00 PKD
ROOT
HETATM    1  C   UNL     1     -14.126   8.923  72.518  1.00  0.00    -0.441 C  
HETATM    2  C   UNL     1     -13.151   9.998  72.066  1.00  0.00    -0.541 C  
ENDROOT
BRANCH   2   3
HETATM    3  C   UNL     1     -12.110   9.400  71.134  1.00  0.00    -0.406 C  
BRANCH   3   4
HETATM    4  C   UNL     1     -10.773   9.179  71.830  1.00  0.00    -0.405 C  
BRANCH   4   5
HETATM    5  C   UNL     1     -10.487   7.685  71.856  1.00  0.00    -0.256 C  
BRANCH   5   6
HETATM    6  C   UNL     1      -9.048   7.367  71.529  1.00  0.00    -0.139 C  
BRANCH   6   7
HETATM    7  O   UNL     1      -8.453   6.793  72.704  1.00  0.00    -0.121 OA 
BRANCH   7   8
HETATM    8  C   UNL     1      -9.063   5.675  73.183  1.00  0.00    -0.126 C  
HETATM    9  N   UNL     1      -9.063   4.634  72.303  1.00  0.00    -0.125 N  
HETATM   10  O   UNL     1      -9.575   5.611  74.296  1.00  0.00    -0.141 OA 
HETATM   11  H   UNL     1      -9.938   4.141  72.124  1.00  0.00     0.000 HD 
BRANCH   9  12
HETATM   12  C   UNL     1      -7.985   4.247  71.683  1.00  0.00    -0.086 C  
HETATM   13  H1  UNL     1      -6.052   3.719  72.001  1.00  0.00     0.000 HD 
HETATM   14  N   UNL     1      -6.896   4.023  72.487  1.00  0.00    -0.044 NA 
HETATM   15  H2  UNL     1      -6.928   4.152  73.498  1.00  0.00     0.000 HD 
BRANCH  12  16
HETATM   16  C   UNL     1      -7.855   3.970  70.218  1.00  0.00    -0.048 A  
HETATM   17  C   UNL     1      -6.791   4.470  69.466  1.00  0.00    -0.045 A  
HETATM   18  C   UNL     1      -6.922   4.573  68.078  1.00  0.00    -0.056 A  
HETATM   19  C   UNL     1      -8.055   4.076  67.420  1.00  0.00    -0.091 A  
HETATM   20  C   UNL     1      -9.029   3.421  68.178  1.00  0.00    -0.182 A  
HETATM   21  C   UNL     1      -8.941   3.375  69.568  1.00  0.00    -0.177 A  
BRANCH  19  22
HETATM   22  N   UNL     1      -8.270   4.474  66.088  1.00  0.00    -0.106 NA 
HETATM   23  H   UNL     1      -7.620   4.218  65.345  1.00  0.00     0.000 HD 
BRANCH  22  24
HETATM   24  C   UNL     1      -9.465   5.270  65.816  1.00  0.00    -0.117 C  
BRANCH  24  25
HETATM   25  C   UNL     1      -9.489   6.713  66.281  1.00  0.00    -0.074 A  
HETATM   26  N   UNL     1      -8.812   7.755  65.813  1.00  0.00    -0.142 NA 
HETATM   27  C   UNL     1      -9.246   8.861  66.531  1.00  0.00    -0.183 A  
HETATM   28  C   UNL     1     -10.215   8.474  67.453  1.00  0.00    -0.261 A  
HETATM   29  N   UNL     1     -10.304   7.109  67.319  1.00  0.00    -0.240 NA 
HETATM   30  C   UNL     1     -10.892   9.385  68.264  1.00  0.00    -0.163 A  
HETATM   31  C   UNL     1     -10.543  10.735  68.149  1.00  0.00    -0.238 A  
HETATM   32  C   UNL     1     -11.139   6.228  68.107  1.00  0.00    -0.266 C  
HETATM   33  C   UNL     1      -9.517  11.174  67.299  1.00  0.00    -0.178 A  
HETATM   34  C   UNL     1      -8.879  10.235  66.453  1.00  0.00    -0.158 A  
BRANCH  33  35
HETATM   35  C   UNL     1      -9.237  12.662  67.350  1.00  0.00    -0.191 C  
HETATM   36  N   UNL     1      -9.777  13.560  66.417  1.00  0.00    -0.288 N  
HETATM   37  O   UNL     1      -8.456  13.045  68.226  1.00  0.00    -0.165 OA 
BRANCH  36  38
HETATM   38  C   UNL     1     -10.713  13.162  65.448  1.00  0.00    -0.294 A  
HETATM   39  C   UNL     1     -12.516  12.246  63.612  1.00  0.00    -0.647 A  
HETATM   40  N   UNL     1     -12.017  13.105  65.806  1.00  0.00    -0.400 NA 
HETATM   41  C   UNL     1     -11.180  12.363  63.252  1.00  0.00    -0.377 A  
HETATM   42  C   UNL     1     -12.887  12.631  64.888  1.00  0.00    -0.228 A  
HETATM   43  C   UNL     1     -10.263  12.827  64.177  1.00  0.00    -0.344 A  
ENDBRANCH  36  38
BRANCH  36  44
HETATM   44  C   UNL     1      -9.633  15.017  66.588  1.00  0.00    -0.263 C  
BRANCH  44  45
HETATM   45  C   UNL     1     -10.625  15.737  67.513  1.00  0.00    -0.309 C  
BRANCH  45  46
HETATM   46  C   UNL     1     -10.415  15.689  69.017  1.00  0.00    -0.229 C  
HETATM   47  O   UNL     1      -9.378  15.902  69.623  1.00  0.00    -0.249 OA 
BRANCH  46  48
HETATM   48  O   UNL     1     -11.611  15.331  69.591  1.00  0.00    -0.278 OA 
BRANCH  48  49
HETATM   49  C   UNL     1     -12.080  13.975  69.474  1.00  0.00    -0.347 C  
HETATM   50  C   UNL     1     -12.165  13.311  70.836  1.00  0.00    -0.346 C  
ENDBRANCH  48  49
ENDBRANCH  46  48
ENDBRANCH  45  46
ENDBRANCH  44  45
ENDBRANCH  36  44
ENDBRANCH  33  35
ENDBRANCH  24  25
ENDBRANCH  22  24
ENDBRANCH  19  22
ENDBRANCH  12  16
ENDBRANCH   9  12
ENDBRANCH   7   8
ENDBRANCH   6   7
ENDBRANCH   5   6
ENDBRANCH   4   5
ENDBRANCH   3   4
ENDBRANCH   2   3
TORSDOF 18
ENDMDL
MODEL       31
REMARK 921   NORMALIZED FREE ENERGY PREDICTED BY IDOCK:   -5.15 KCAL/MOL
REMARK 922        TOTAL FREE ENERGY PREDICTED BY IDOCK:  -13.78 KCAL/MOL
REMARK 923 INTER-LIGAND FREE ENERGY PREDICTED BY IDOCK:  -10.37 KCAL/MOL
REMARK 924 INTRA-LIGAND FREE ENERGY PREDICTED BY IDOCK:   -3.41 KCAL/MOL
REMARK 927      BINDING AFFINITY PREDICTED BY RF-SCORE:    0.00 PKD
ROOT
HETATM    1  C   UNL     1     -11.997  11.599  70.448  1.00  0.00    -0.448 C  
HETATM    2  C   UNL     1     -12.145  10.098  70.635  1.00  0.00    -0.411 C  
ENDROOT
BRANCH   2   3
HETATM    3  C   UNL     1     -10.792   9.473  70.933  1.00  0.00    -0.407 C  
BRANCH   3   4
HETATM    4  C   UNL     1     -10.593   8.153  70.199  1.00  0.00    -0.237 C  
BRANCH   4   5
HETATM    5  C   UNL     1     -11.591   7.144  70.746  1.00  0.00    -0.358 C  
BRANCH   5   6
HETATM    6  C   UNL     1     -11.338   6.811  72.196  1.00  0.00    -0.271 C  
BRANCH   6   7
HETATM    7  O   UNL     1     -11.086   5.399  72.280  1.00  0.00    -0.238 OA 
BRANCH   7   8
HETATM    8  C   UNL     1     -10.046   5.037  73.080  1.00  0.00    -0.164 C  
HETATM    9  N   UNL     1      -8.962   4.582  72.392  1.00  0.00    -0.123 N  
HETATM   10  O   UNL     1     -10.084   5.103  74.305  1.00  0.00    -0.192 OA 
HETATM   11  H   UNL     1      -8.528   3.704  72.681  1.00  0.00     0.000 HD 
BRANCH   9  12
HETATM   12  C   UNL     1      -8.459   5.227  71.378  1.00  0.00    -0.125 C  
HETATM   13  H1  UNL     1      -7.467   6.927  70.891  1.00  0.00     0.000 HD 
HETATM   14  N   UNL     1      -7.861   6.422  71.684  1.00  0.00    -0.100 NA 
HETATM   15  H2  UNL     1      -7.814   6.781  72.638  1.00  0.00     0.000 HD 
BRANCH  12  16
HETATM   16  C   UNL     1      -8.422   4.757  69.958  1.00  0.00    -0.087 A  
HETATM   17  C   UNL     1      -7.228   4.684  69.238  1.00  0.00    -0.052 A  
HETATM   18  C   UNL     1      -7.270   4.673  67.841  1.00  0.00    -0.066 A  
HETATM   19  C   UNL     1      -8.491   4.618  67.155  1.00  0.00    -0.105 A  
HETATM   20  C   UNL     1      -9.668   4.516  67.901  1.00  0.00    -0.195 A  
HETATM   21  C   UNL     1      -9.641   4.595  69.293  1.00  0.00    -0.251 A  
BRANCH  19  22
HETATM   22  N   UNL     1      -8.488   4.915  65.780  1.00  0.00    -0.118 NA 
HETATM   23  H   UNL     1      -8.961   4.316  65.105  1.00  0.00     0.000 HD 
BRANCH  22  24
HETATM   24  C   UNL     1      -7.775   6.121  65.362  1.00  0.00    -0.093 C  
BRANCH  24  25
HETATM   25  C   UNL     1      -8.486   7.455  65.480  1.00  0.00    -0.118 A  
HETATM   26  N   UNL     1      -9.158   7.958  66.508  1.00  0.00    -0.161 NA 
HETATM   27  C   UNL     1      -9.550   9.237  66.135  1.00  0.00    -0.260 A  
HETATM   28  C   UNL     1      -9.097   9.511  64.847  1.00  0.00    -0.223 A  
HETATM   29  N   UNL     1      -8.485   8.352  64.433  1.00  0.00    -0.097 NA 
HETATM   30  C   UNL     1      -9.274  10.752  64.233  1.00  0.00    -0.246 A  
HETATM   31  C   UNL     1      -9.965  11.734  64.951  1.00  0.00    -0.280 A  
HETATM   32  C   UNL     1      -7.901   8.114  63.132  1.00  0.00    -0.149 C  
HETATM   33  C   UNL     1     -10.517  11.488  66.217  1.00  0.00    -0.294 A  
HETATM   34  C   UNL     1     -10.283  10.236  66.836  1.00  0.00    -0.286 A  
BRANCH  33  35
HETATM   35  C   UNL     1     -11.284  12.650  66.816  1.00  0.00    -0.300 C  
HETATM   36  N   UNL     1     -10.666  13.622  67.617  1.00  0.00    -0.244 N  
HETATM   37  O   UNL     1     -12.501  12.668  66.613  1.00  0.00    -0.368 OA 
BRANCH  36  38
HETATM   38  C   UNL     1      -9.276  13.659  67.815  1.00  0.00    -0.214 A  
HETATM   39  C   UNL     1      -6.557  13.646  68.076  1.00  0.00    -0.136 A  
HETATM   40  N   UNL     1      -8.572  14.647  67.216  1.00  0.00    -0.201 NA 
HETATM   41  C   UNL     1      -7.306  12.672  68.724  1.00  0.00    -0.066 A  
HETATM   42  C   UNL     1      -7.227  14.608  67.343  1.00  0.00    -0.154 A  
HETATM   43  C   UNL     1      -8.683  12.675  68.597  1.00  0.00     0.049 A  
ENDBRANCH  36  38
BRANCH  36  44
HETATM   44  C   UNL     1     -11.392  14.832  68.044  1.00  0.00    -0.316 C  
BRANCH  44  45
HETATM   45  C   UNL     1     -11.072  15.417  69.427  1.00  0.00    -0.283 C  
BRANCH  45  46
HETATM   46  C   UNL     1     -12.140  15.409  70.508  1.00  0.00    -0.371 C  
HETATM   47  O   UNL     1     -13.300  15.771  70.399  1.00  0.00    -0.324 OA 
BRANCH  46  48
HETATM   48  O   UNL     1     -11.559  14.939  71.661  1.00  0.00    -0.352 OA 
BRANCH  48  49
HETATM   49  C   UNL     1     -12.381  14.659  72.810  1.00  0.00    -0.227 C  
HETATM   50  C   UNL     1     -12.562  15.901  73.663  1.00  0.00    -0.708 C  
ENDBRANCH  48  49
ENDBRANCH  46  48
ENDBRANCH  45  46
ENDBRANCH  44  45
ENDBRANCH  36  44
ENDBRANCH  33  35
ENDBRANCH  24  25
ENDBRANCH  22  24
ENDBRANCH  19  22
ENDBRANCH  12  16
ENDBRANCH   9  12
ENDBRANCH   7   8
ENDBRANCH   6   7
ENDBRANCH   5   6
ENDBRANCH   4   5
ENDBRANCH   3   4
ENDBRANCH   2   3
TORSDOF 18
ENDMDL
MODEL       32
REMARK 921   NORMALIZED FREE ENERGY PREDICTED BY IDOCK:   -5.03 KCAL/MOL
REMARK 922        TOTAL FREE ENERGY PREDICTED BY IDOCK:  -13.54 KCAL/MOL
REMARK 923 INTER-LIGAND FREE ENERGY PREDICTED BY IDOCK:  -10.91 KCAL/MOL
REMARK 924 INTRA-LIGAND FREE ENERGY PREDICTED BY IDOCK:   -2.63 KCAL/MOL
REMARK 927      BINDING AFFINITY PREDICTED BY RF-SCORE:    0.00 PKD
ROOT
HETATM    1  C   UNL     1     -12.693  11.709  71.050  1.00  0.00    -0.395 C  
HETATM    2  C   UNL     1     -12.819  10.213  71.284  1.00  0.00    -0.508 C  
ENDROOT
BRANCH   2   3
HETATM    3  C   UNL     1     -11.444   9.599  71.493  1.00  0.00    -0.439 C  
BRANCH   3   4
HETATM    4  C   UNL     1     -11.149   8.494  70.486  1.00  0.00    -0.265 C  
BRANCH   4   5
HETATM    5  C   UNL     1     -11.997   7.282  70.841  1.00  0.00    -0.342 C  
BRANCH   5   6
HETATM    6  C   UNL     1     -11.794   6.833  72.267  1.00  0.00    -0.242 C  
BRANCH   6   7
HETATM    7  O   UNL     1     -11.335   5.471  72.232  1.00  0.00    -0.255 OA 
BRANCH   7   8
HETATM    8  C   UNL     1     -10.290   5.185  73.055  1.00  0.00    -0.193 C  
HETATM    9  N   UNL     1      -9.174   4.768  72.394  1.00  0.00    -0.128 N  
HETATM   10  O   UNL     1     -10.348   5.282  74.277  1.00  0.00    -0.243 OA 
HETATM   11  H   UNL     1      -8.700   3.922  72.712  1.00  0.00     0.000 HD 
BRANCH   9  12
HETATM   12  C   UNL     1      -8.691   5.411  71.369  1.00  0.00    -0.131 C  
HETATM   13  H1  UNL     1      -7.853   7.179  70.833  1.00  0.00     0.000 HD 
HETATM   14  N   UNL     1      -8.232   6.676  71.635  1.00  0.00    -0.111 NA 
HETATM   15  H2  UNL     1      -8.267   7.084  72.569  1.00  0.00     0.000 HD 
BRANCH  12  16
HETATM   16  C   UNL     1      -8.538   4.878  69.978  1.00  0.00    -0.106 A  
HETATM   17  C   UNL     1      -7.283   4.621  69.423  1.00  0.00    -0.052 A  
HETATM   18  C   UNL     1      -7.150   4.554  68.033  1.00  0.00    -0.064 A  
HETATM   19  C   UNL     1      -8.272   4.626  67.196  1.00  0.00    -0.105 A  
HETATM   20  C   UNL     1      -9.537   4.708  67.784  1.00  0.00    -0.203 A  
HETATM   21  C   UNL     1      -9.674   4.844  69.165  1.00  0.00    -0.252 A  
BRANCH  19  22
HETATM   22  N   UNL     1      -8.056   4.859  65.825  1.00  0.00    -0.110 NA 
HETATM   23  H   UNL     1      -8.429   4.231  65.113  1.00  0.00     0.000 HD 
BRANCH  22  24
HETATM   24  C   UNL     1      -7.274   6.041  65.467  1.00  0.00    -0.074 C  
BRANCH  24  25
HETATM   25  C   UNL     1      -8.016   7.291  65.036  1.00  0.00    -0.129 A  
HETATM   26  N   UNL     1      -8.843   8.057  65.737  1.00  0.00    -0.158 NA 
HETATM   27  C   UNL     1      -9.194   9.117  64.910  1.00  0.00    -0.068 A  
HETATM   28  C   UNL     1      -8.557   8.985  63.680  1.00  0.00    -0.130 A  
HETATM   29  N   UNL     1      -7.872   7.796  63.762  1.00  0.00    -0.136 NA 
HETATM   30  C   UNL     1      -8.659   9.943  62.670  1.00  0.00    -0.194 A  
HETATM   31  C   UNL     1      -9.465  11.059  62.919  1.00  0.00    -0.378 A  
HETATM   32  C   UNL     1      -7.096   7.185  62.706  1.00  0.00    -0.064 C  
HETATM   33  C   UNL     1     -10.198  11.204  64.107  1.00  0.00    -0.405 A  
HETATM   34  C   UNL     1     -10.039  10.241  65.132  1.00  0.00    -0.355 A  
BRANCH  33  35
HETATM   35  C   UNL     1     -11.064  12.446  64.176  1.00  0.00    -0.372 C  
HETATM   36  N   UNL     1     -11.208  13.196  65.353  1.00  0.00    -0.289 N  
HETATM   37  O   UNL     1     -11.689  12.737  63.153  1.00  0.00    -0.472 OA 
BRANCH  36  38
HETATM   38  C   UNL     1     -10.464  12.922  66.512  1.00  0.00    -0.265 A  
HETATM   39  C   UNL     1      -8.970  12.262  68.702  1.00  0.00     0.016 A  
HETATM   40  N   UNL     1      -9.177  13.340  66.558  1.00  0.00    -0.215 NA 
HETATM   41  C   UNL     1     -10.307  11.890  68.655  1.00  0.00    -0.218 A  
HETATM   42  C   UNL     1      -8.453  12.985  67.642  1.00  0.00    -0.187 A  
HETATM   43  C   UNL     1     -11.068  12.222  67.550  1.00  0.00    -0.326 A  
ENDBRANCH  36  38
BRANCH  36  44
HETATM   44  C   UNL     1     -11.912  14.490  65.352  1.00  0.00    -0.332 C  
BRANCH  44  45
HETATM   45  C   UNL     1     -11.176  15.713  64.784  1.00  0.00    -0.391 C  
BRANCH  45  46
HETATM   46  C   UNL     1     -10.210  16.482  65.669  1.00  0.00    -0.292 C  
HETATM   47  O   UNL     1      -8.993  16.405  65.672  1.00  0.00    -0.427 OA 
BRANCH  46  48
HETATM   48  O   UNL     1     -10.958  17.278  66.503  1.00  0.00    -0.020 OA 
BRANCH  48  49
HETATM   49  C   UNL     1     -10.323  18.356  67.217  1.00  0.00    -0.392 C  
HETATM   50  C   UNL     1     -10.906  19.696  66.806  1.00  0.00    -0.489 C  
ENDBRANCH  48  49
ENDBRANCH  46  48
ENDBRANCH  45  46
ENDBRANCH  44  45
ENDBRANCH  36  44
ENDBRANCH  33  35
ENDBRANCH  24  25
ENDBRANCH  22  24
ENDBRANCH  19  22
ENDBRANCH  12  16
ENDBRANCH   9  12
ENDBRANCH   7   8
ENDBRANCH   6   7
ENDBRANCH   5   6
ENDBRANCH   4   5
ENDBRANCH   3   4
ENDBRANCH   2   3
TORSDOF 18
ENDMDL
MODEL       33
REMARK 921   NORMALIZED FREE ENERGY PREDICTED BY IDOCK:   -4.98 KCAL/MOL
REMARK 922        TOTAL FREE ENERGY PREDICTED BY IDOCK:  -13.43 KCAL/MOL
REMARK 923 INTER-LIGAND FREE ENERGY PREDICTED BY IDOCK:  -10.66 KCAL/MOL
REMARK 924 INTRA-LIGAND FREE ENERGY PREDICTED BY IDOCK:   -2.77 KCAL/MOL
REMARK 927      BINDING AFFINITY PREDICTED BY RF-SCORE:    0.00 PKD
ROOT
HETATM    1  C   UNL     1     -12.355  11.957  63.735  1.00  0.00    -0.541 C  
HETATM    2  C   UNL     1     -12.047  13.443  63.800  1.00  0.00    -0.516 C  
ENDROOT
BRANCH   2   3
HETATM    3  C   UNL     1     -10.785  13.679  64.615  1.00  0.00    -0.433 C  
BRANCH   3   4
HETATM    4  C   UNL     1     -11.019  14.639  65.774  1.00  0.00    -0.330 C  
BRANCH   4   5
HETATM    5  C   UNL     1     -12.247  14.174  66.542  1.00  0.00    -0.463 C  
BRANCH   5   6
HETATM    6  C   UNL     1     -12.076  14.299  68.036  1.00  0.00    -0.254 C  
BRANCH   6   7
HETATM    7  O   UNL     1     -11.350  15.513  68.290  1.00  0.00    -0.328 OA 
BRANCH   7   8
HETATM    8  C   UNL     1     -10.901  15.671  69.565  1.00  0.00    -0.271 C  
HETATM    9  N   UNL     1      -9.791  14.933  69.847  1.00  0.00    -0.456 N  
HETATM   10  O   UNL     1     -11.448  16.399  70.386  1.00  0.00    -0.313 OA 
HETATM   11  H   UNL     1      -9.778  14.367  70.696  1.00  0.00     0.000 HD 
BRANCH   9  12
HETATM   12  C   UNL     1      -8.744  14.922  69.070  1.00  0.00    -0.177 C  
HETATM   13  H1  UNL     1      -7.360  16.142  68.227  1.00  0.00     0.000 HD 
HETATM   14  N   UNL     1      -8.179  16.150  68.835  1.00  0.00    -0.217 NA 
HETATM   15  H2  UNL     1      -8.551  17.009  69.239  1.00  0.00     0.000 HD 
BRANCH  12  16
HETATM   16  C   UNL     1      -8.088  13.713  68.482  1.00  0.00    -0.118 A  
HETATM   17  C   UNL     1      -6.704  13.635  68.316  1.00  0.00    -0.108 A  
HETATM   18  C   UNL     1      -6.175  12.726  67.394  1.00  0.00    -0.133 A  
HETATM   19  C   UNL     1      -7.001  11.816  66.722  1.00  0.00    -0.047 A  
HETATM   20  C   UNL     1      -8.363  11.796  67.035  1.00  0.00    -0.172 A  
HETATM   21  C   UNL     1      -8.910  12.743  67.900  1.00  0.00    -0.186 A  
BRANCH  19  22
HETATM   22  N   UNL     1      -6.470  11.148  65.603  1.00  0.00    -0.366 NA 
HETATM   23  H   UNL     1      -6.377  11.614  64.700  1.00  0.00     0.000 HD 
BRANCH  22  24
HETATM   24  C   UNL     1      -6.060   9.758  65.791  1.00  0.00    -0.065 C  
BRANCH  24  25
HETATM   25  C   UNL     1      -6.975   8.837  66.575  1.00  0.00    -0.079 A  
HETATM   26  N   UNL     1      -6.763   8.241  67.742  1.00  0.00    -0.065 NA 
HETATM   27  C   UNL     1      -7.936   7.569  68.059  1.00  0.00    -0.123 A  
HETATM   28  C   UNL     1      -8.881   7.771  67.057  1.00  0.00    -0.127 A  
HETATM   29  N   UNL     1      -8.231   8.520  66.104  1.00  0.00    -0.110 NA 
HETATM   30  C   UNL     1     -10.184   7.281  67.138  1.00  0.00    -0.339 A  
HETATM   31  C   UNL     1     -10.523   6.531  68.270  1.00  0.00    -0.263 A  
HETATM   32  C   UNL     1      -8.776   8.941  64.833  1.00  0.00    -0.149 C  
HETATM   33  C   UNL     1      -9.589   6.225  69.271  1.00  0.00    -0.147 A  
HETATM   34  C   UNL     1      -8.287   6.774  69.187  1.00  0.00    -0.125 A  
BRANCH  33  35
HETATM   35  C   UNL     1     -10.118   5.352  70.392  1.00  0.00    -0.244 C  
HETATM   36  N   UNL     1     -10.867   5.873  71.459  1.00  0.00    -0.259 N  
HETATM   37  O   UNL     1      -9.806   4.159  70.354  1.00  0.00    -0.196 OA 
BRANCH  36  38
HETATM   38  C   UNL     1     -11.287   7.213  71.497  1.00  0.00    -0.255 A  
HETATM   39  C   UNL     1     -12.107   9.817  71.420  1.00  0.00    -0.486 A  
HETATM   40  N   UNL     1     -12.616   7.466  71.522  1.00  0.00    -0.352 NA 
HETATM   41  C   UNL     1     -10.748   9.534  71.448  1.00  0.00    -0.348 A  
HETATM   42  C   UNL     1     -12.998   8.760  71.464  1.00  0.00    -0.319 A  
HETATM   43  C   UNL     1     -10.327   8.218  71.488  1.00  0.00    -0.276 A  
ENDBRANCH  36  38
BRANCH  36  44
HETATM   44  C   UNL     1     -11.516   4.985  72.440  1.00  0.00     0.082 C  
BRANCH  44  45
HETATM   45  C   UNL     1     -10.875   4.852  73.829  1.00  0.00    -0.376 C  
BRANCH  45  46
HETATM   46  C   UNL     1      -9.482   4.259  73.956  1.00  0.00    -0.105 C  
HETATM   47  O   UNL     1      -9.147   3.110  73.719  1.00  0.00    -0.085 OA 
BRANCH  46  48
HETATM   48  O   UNL     1      -8.650   5.250  74.418  1.00  0.00    -0.109 OA 
BRANCH  48  49
HETATM   49  C   UNL     1      -7.964   6.100  73.480  1.00  0.00    -0.102 C  
HETATM   50  C   UNL     1      -8.192   7.564  73.807  1.00  0.00    -0.205 C  
ENDBRANCH  48  49
ENDBRANCH  46  48
ENDBRANCH  45  46
ENDBRANCH  44  45
ENDBRANCH  36  44
ENDBRANCH  33  35
ENDBRANCH  24  25
ENDBRANCH  22  24
ENDBRANCH  19  22
ENDBRANCH  12  16
ENDBRANCH   9  12
ENDBRANCH   7   8
ENDBRANCH   6   7
ENDBRANCH   5   6
ENDBRANCH   4   5
ENDBRANCH   3   4
ENDBRANCH   2   3
TORSDOF 18
ENDMDL
MODEL       34
REMARK 921   NORMALIZED FREE ENERGY PREDICTED BY IDOCK:   -4.94 KCAL/MOL
REMARK 922        TOTAL FREE ENERGY PREDICTED BY IDOCK:  -13.34 KCAL/MOL
REMARK 923 INTER-LIGAND FREE ENERGY PREDICTED BY IDOCK:   -9.20 KCAL/MOL
REMARK 924 INTRA-LIGAND FREE ENERGY PREDICTED BY IDOCK:   -4.14 KCAL/MOL
REMARK 927      BINDING AFFINITY PREDICTED BY RF-SCORE:    0.00 PKD
ROOT
HETATM    1  C   UNL     1     -10.860   8.400  71.877  1.00  0.00    -0.372 C  
HETATM    2  C   UNL     1      -9.389   8.631  71.570  1.00  0.00    -0.319 C  
ENDROOT
BRANCH   2   3
HETATM    3  C   UNL     1      -9.209   8.959  70.097  1.00  0.00    -0.195 C  
BRANCH   3   4
HETATM    4  C   UNL     1      -8.136  10.016  69.870  1.00  0.00    -0.180 C  
BRANCH   4   5
HETATM    5  C   UNL     1      -6.792   9.433  70.280  1.00  0.00    -0.080 C  
BRANCH   5   6
HETATM    6  C   UNL     1      -5.827  10.490  70.759  1.00  0.00    -0.093 C  
BRANCH   6   7
HETATM    7  O   UNL     1      -6.111  11.698  70.035  1.00  0.00    -0.134 OA 
BRANCH   7   8
HETATM    8  C   UNL     1      -5.688  12.848  70.628  1.00  0.00    -0.163 C  
HETATM    9  N   UNL     1      -5.135  13.738  69.758  1.00  0.00    -0.084 N  
HETATM   10  O   UNL     1      -5.786  13.061  71.832  1.00  0.00    -0.370 OA 
HETATM   11  H   UNL     1      -4.233  14.157  69.989  1.00  0.00     0.000 HD 
BRANCH   9  12
HETATM   12  C   UNL     1      -5.715  14.073  68.640  1.00  0.00    -0.086 C  
HETATM   13  H1  UNL     1      -5.850  13.554  66.684  1.00  0.00     0.000 HD 
HETATM   14  N   UNL     1      -5.396  13.292  67.559  1.00  0.00    -0.327 NA 
HETATM   15  H2  UNL     1      -4.750  12.505  67.625  1.00  0.00     0.000 HD 
BRANCH  12  16
HETATM   16  C   UNL     1      -6.721  15.166  68.455  1.00  0.00    -0.108 A  
HETATM   17  C   UNL     1      -7.612  15.524  69.468  1.00  0.00    -0.200 A  
HETATM   18  C   UNL     1      -8.786  16.207  69.137  1.00  0.00    -0.239 A  
HETATM   19  C   UNL     1      -9.026  16.637  67.825  1.00  0.00    -0.211 A  
HETATM   20  C   UNL     1      -8.037  16.420  66.862  1.00  0.00    -0.262 A  
HETATM   21  C   UNL     1      -6.895  15.680  67.167  1.00  0.00    -0.127 A  
BRANCH  19  22
HETATM   22  N   UNL     1     -10.333  17.038  67.493  1.00  0.00    -0.321 NA 
HETATM   23  H   UNL     1     -10.538  17.992  67.194  1.00  0.00     0.000 HD 
BRANCH  22  24
HETATM   24  C   UNL     1     -11.385  16.028  67.597  1.00  0.00    -0.109 C  
BRANCH  24  25
HETATM   25  C   UNL     1     -11.058  14.604  67.189  1.00  0.00    -0.326 A  
HETATM   26  N   UNL     1     -10.793  13.554  67.956  1.00  0.00    -0.244 NA 
HETATM   27  C   UNL     1     -10.635  12.472  67.101  1.00  0.00    -0.228 A  
HETATM   28  C   UNL     1     -10.815  12.883  65.783  1.00  0.00    -0.269 A  
HETATM   29  N   UNL     1     -11.017  14.241  65.861  1.00  0.00    -0.299 NA 
HETATM   30  C   UNL     1     -10.792  11.996  64.706  1.00  0.00    -0.354 A  
HETATM   31  C   UNL     1     -10.546  10.648  64.985  1.00  0.00    -0.187 A  
HETATM   32  C   UNL     1     -11.195  15.141  64.743  1.00  0.00    -0.388 C  
HETATM   33  C   UNL     1     -10.275  10.189  66.283  1.00  0.00    -0.288 A  
HETATM   34  C   UNL     1     -10.351  11.101  67.363  1.00  0.00    -0.231 A  
BRANCH  33  35
HETATM   35  C   UNL     1      -9.973   8.707  66.387  1.00  0.00    -0.260 C  
HETATM   36  N   UNL     1      -8.772   8.152  65.919  1.00  0.00    -0.150 N  
HETATM   37  O   UNL     1     -10.866   7.996  66.854  1.00  0.00    -0.267 OA 
BRANCH  36  38
HETATM   38  C   UNL     1      -7.716   8.944  65.439  1.00  0.00    -0.092 A  
HETATM   39  C   UNL     1      -5.573  10.365  64.519  1.00  0.00    -0.135 A  
HETATM   40  N   UNL     1      -7.476   8.949  64.107  1.00  0.00    -0.107 NA 
HETATM   41  C   UNL     1      -5.871  10.388  65.875  1.00  0.00    -0.099 A  
HETATM   42  C   UNL     1      -6.399   9.643  63.678  1.00  0.00    -0.109 A  
HETATM   43  C   UNL     1      -6.955   9.671  66.346  1.00  0.00    -0.088 A  
ENDBRANCH  36  38
BRANCH  36  44
HETATM   44  C   UNL     1      -8.427   6.744  66.186  1.00  0.00    -0.135 C  
BRANCH  44  45
HETATM   45  C   UNL     1      -8.065   6.350  67.625  1.00  0.00    -0.114 C  
BRANCH  45  46
HETATM   46  C   UNL     1      -8.398   4.954  68.125  1.00  0.00    -0.099 C  
HETATM   47  O   UNL     1      -7.612   4.058  68.384  1.00  0.00    -0.065 OA 
BRANCH  46  48
HETATM   48  O   UNL     1      -9.766   4.861  68.212  1.00  0.00    -0.138 OA 
BRANCH  48  49
HETATM   49  C   UNL     1     -10.462   5.570  69.255  1.00  0.00    -0.266 C  
HETATM   50  C   UNL     1     -10.201   4.937  70.609  1.00  0.00    -0.282 C  
ENDBRANCH  48  49
ENDBRANCH  46  48
ENDBRANCH  45  46
ENDBRANCH  44  45
ENDBRANCH  36  44
ENDBRANCH  33  35
ENDBRANCH  24  25
ENDBRANCH  22  24
ENDBRANCH  19  22
ENDBRANCH  12  16
ENDBRANCH   9  12
ENDBRANCH   7   8
ENDBRANCH   6   7
ENDBRANCH   5   6
ENDBRANCH   4   5
ENDBRANCH   3   4
ENDBRANCH   2   3
TORSDOF 18
ENDMDL
MODEL       35
REMARK 921   NORMALIZED FREE ENERGY PREDICTED BY IDOCK:   -4.88 KCAL/MOL
REMARK 922        TOTAL FREE ENERGY PREDICTED BY IDOCK:  -13.21 KCAL/MOL
REMARK 923 INTER-LIGAND FREE ENERGY PREDICTED BY IDOCK:  -11.29 KCAL/MOL
REMARK 924 INTRA-LIGAND FREE ENERGY PREDICTED BY IDOCK:   -1.92 KCAL/MOL
REMARK 927      BINDING AFFINITY PREDICTED BY RF-SCORE:    0.00 PKD
ROOT
HETATM    1  C   UNL     1     -10.245  19.907  68.533  1.00  0.00    -0.529 C  
HETATM    2  C   UNL     1     -10.101  20.007  67.024  1.00  0.00    -0.594 C  
ENDROOT
BRANCH   2   3
HETATM    3  C   UNL     1     -10.513  18.697  66.372  1.00  0.00    -0.463 C  
BRANCH   3   4
HETATM    4  C   UNL     1     -10.247  17.497  67.273  1.00  0.00    -0.335 C  
BRANCH   4   5
HETATM    5  C   UNL     1      -9.721  16.358  66.413  1.00  0.00    -0.308 C  
BRANCH   5   6
HETATM    6  C   UNL     1     -10.783  15.331  66.102  1.00  0.00    -0.320 C  
BRANCH   6   7
HETATM    7  O   UNL     1     -10.645  14.970  64.719  1.00  0.00    -0.402 OA 
BRANCH   7   8
HETATM    8  C   UNL     1     -11.787  15.035  63.981  1.00  0.00    -0.009 C  
HETATM    9  N   UNL     1     -12.066  13.885  63.306  1.00  0.00    -1.003 N  
HETATM   10  O   UNL     1     -12.493  16.037  63.919  1.00  0.00    -0.806 OA 
HETATM   11  H   UNL     1     -12.298  13.940  62.314  1.00  0.00     0.000 HD 
BRANCH   9  12
HETATM   12  C   UNL     1     -12.049  12.717  63.883  1.00  0.00    -0.487 C  
HETATM   13  H1  UNL     1     -13.255  11.341  64.759  1.00  0.00     0.000 HD 
HETATM   14  N   UNL     1     -13.269  12.255  64.307  1.00  0.00    -0.761 NA 
HETATM   15  H2  UNL     1     -14.129  12.789  64.180  1.00  0.00     0.000 HD 
BRANCH  12  16
HETATM   16  C   UNL     1     -10.854  11.832  64.060  1.00  0.00    -0.446 A  
HETATM   17  C   UNL     1     -10.068  11.434  62.978  1.00  0.00    -0.333 A  
HETATM   18  C   UNL     1      -9.262  10.298  63.098  1.00  0.00    -0.311 A  
HETATM   19  C   UNL     1      -9.144   9.622  64.320  1.00  0.00    -0.218 A  
HETATM   20  C   UNL     1      -9.806  10.143  65.435  1.00  0.00    -0.375 A  
HETATM   21  C   UNL     1     -10.665  11.234  65.309  1.00  0.00    -0.302 A  
BRANCH  19  22
HETATM   22  N   UNL     1      -8.577   8.334  64.308  1.00  0.00    -0.396 NA 
HETATM   23  H   UNL     1      -9.038   7.554  63.840  1.00  0.00     0.000 HD 
BRANCH  22  24
HETATM   24  C   UNL     1      -7.298   8.165  64.995  1.00  0.00    -0.082 C  
BRANCH  24  25
HETATM   25  C   UNL     1      -7.315   7.870  66.483  1.00  0.00    -0.087 A  
HETATM   26  N   UNL     1      -8.232   7.231  67.199  1.00  0.00    -0.117 NA 
HETATM   27  C   UNL     1      -7.740   7.162  68.496  1.00  0.00    -0.120 A  
HETATM   28  C   UNL     1      -6.490   7.772  68.559  1.00  0.00    -0.052 A  
HETATM   29  N   UNL     1      -6.274   8.265  67.294  1.00  0.00    -0.055 NA 
HETATM   30  C   UNL     1      -5.716   7.789  69.720  1.00  0.00    -0.023 A  
HETATM   31  C   UNL     1      -6.253   7.187  70.863  1.00  0.00    -0.036 A  
HETATM   32  C   UNL     1      -5.130   9.039  66.865  1.00  0.00    -0.035 C  
HETATM   33  C   UNL     1      -7.541   6.631  70.881  1.00  0.00    -0.089 A  
HETATM   34  C   UNL     1      -8.286   6.585  69.678  1.00  0.00    -0.126 A  
BRANCH  33  35
HETATM   35  C   UNL     1      -7.979   6.078  72.223  1.00  0.00    -0.102 C  
HETATM   36  N   UNL     1      -8.434   4.760  72.379  1.00  0.00    -0.115 N  
HETATM   37  O   UNL     1      -7.971   6.867  73.171  1.00  0.00    -0.102 OA 
BRANCH  36  38
HETATM   38  C   UNL     1      -8.397   3.825  71.331  1.00  0.00    -0.072 A  
HETATM   39  C   UNL     1      -8.279   2.117  69.202  1.00  0.00    -0.068 A  
HETATM   40  N   UNL     1      -7.233   3.176  71.096  1.00  0.00    -0.033 NA 
HETATM   41  C   UNL     1      -9.477   2.755  69.496  1.00  0.00    -0.147 A  
HETATM   42  C   UNL     1      -7.193   2.351  70.026  1.00  0.00    -0.033 A  
HETATM   43  C   UNL     1      -9.543   3.619  70.572  1.00  0.00    -0.256 A  
ENDBRANCH  36  38
BRANCH  36  44
HETATM   44  C   UNL     1      -8.688   4.193  73.715  1.00  0.00    -0.094 C  
BRANCH  44  45
HETATM   45  C   UNL     1     -10.026   4.518  74.396  1.00  0.00    -0.222 C  
BRANCH  45  46
HETATM   46  C   UNL     1     -11.314   4.426  73.595  1.00  0.00    -0.202 C  
HETATM   47  O   UNL     1     -11.899   3.411  73.256  1.00  0.00     0.043 OA 
BRANCH  46  48
HETATM   48  O   UNL     1     -11.703   5.707  73.288  1.00  0.00    -0.047 OA 
BRANCH  48  49
HETATM   49  C   UNL     1     -11.829   6.102  71.908  1.00  0.00    -0.257 C  
HETATM   50  C   UNL     1     -12.507   7.455  71.791  1.00  0.00    -0.367 C  
ENDBRANCH  48  49
ENDBRANCH  46  48
ENDBRANCH  45  46
ENDBRANCH  44  45
ENDBRANCH  36  44
ENDBRANCH  33  35
ENDBRANCH  24  25
ENDBRANCH  22  24
ENDBRANCH  19  22
ENDBRANCH  12  16
ENDBRANCH   9  12
ENDBRANCH   7   8
ENDBRANCH   6   7
ENDBRANCH   5   6
ENDBRANCH   4   5
ENDBRANCH   3   4
ENDBRANCH   2   3
TORSDOF 18
ENDMDL
MODEL       36
REMARK 921   NORMALIZED FREE ENERGY PREDICTED BY IDOCK:   -4.81 KCAL/MOL
REMARK 922        TOTAL FREE ENERGY PREDICTED BY IDOCK:  -13.08 KCAL/MOL
REMARK 923 INTER-LIGAND FREE ENERGY PREDICTED BY IDOCK:  -10.12 KCAL/MOL
REMARK 924 INTRA-LIGAND FREE ENERGY PREDICTED BY IDOCK:   -2.96 KCAL/MOL
REMARK 927      BINDING AFFINITY PREDICTED BY RF-SCORE:    0.00 PKD
ROOT
HETATM    1  C   UNL     1     -12.690  12.788  71.556  1.00  0.00    -0.330 C  
HETATM    2  C   UNL     1     -13.435  11.558  72.045  1.00  0.00    -0.298 C  
ENDROOT
BRANCH   2   3
HETATM    3  C   UNL     1     -12.856  10.308  71.402  1.00  0.00    -0.544 C  
BRANCH   3   4
HETATM    4  C   UNL     1     -13.751   9.091  71.602  1.00  0.00    -0.442 C  
BRANCH   4   5
HETATM    5  C   UNL     1     -12.912   7.969  72.194  1.00  0.00    -0.246 C  
BRANCH   5   6
HETATM    6  C   UNL     1     -11.486   8.391  72.454  1.00  0.00    -0.380 C  
BRANCH   6   7
HETATM    7  O   UNL     1     -10.676   7.863  71.392  1.00  0.00    -0.221 OA 
BRANCH   7   8
HETATM    8  C   UNL     1     -10.201   6.602  71.589  1.00  0.00    -0.192 C  
HETATM    9  N   UNL     1     -10.706   5.687  70.715  1.00  0.00    -0.264 N  
HETATM   10  O   UNL     1      -9.404   6.314  72.475  1.00  0.00    -0.147 OA 
HETATM   11  H   UNL     1     -11.079   4.810  71.081  1.00  0.00     0.000 HD 
BRANCH   9  12
HETATM   12  C   UNL     1     -10.730   5.891  69.428  1.00  0.00    -0.336 C  
HETATM   13  H1  UNL     1     -11.798   6.808  67.969  1.00  0.00     0.000 HD 
HETATM   14  N   UNL     1     -11.780   6.648  68.976  1.00  0.00    -0.525 NA 
HETATM   15  H2  UNL     1     -12.492   7.024  69.602  1.00  0.00     0.000 HD 
BRANCH  12  16
HETATM   16  C   UNL     1      -9.702   5.437  68.439  1.00  0.00    -0.179 A  
HETATM   17  C   UNL     1      -8.338   5.648  68.647  1.00  0.00    -0.106 A  
HETATM   18  C   UNL     1      -7.467   5.621  67.553  1.00  0.00    -0.081 A  
HETATM   19  C   UNL     1      -7.923   5.274  66.274  1.00  0.00    -0.104 A  
HETATM   20  C   UNL     1      -9.260   4.896  66.125  1.00  0.00    -0.146 A  
HETATM   21  C   UNL     1     -10.151   4.986  67.194  1.00  0.00    -0.239 A  
BRANCH  19  22
HETATM   22  N   UNL     1      -7.088   5.557  65.178  1.00  0.00    -0.064 NA 
HETATM   23  H   UNL     1      -6.278   4.976  64.962  1.00  0.00     0.000 HD 
BRANCH  22  24
HETATM   24  C   UNL     1      -7.431   6.721  64.364  1.00  0.00    -0.100 C  
BRANCH  24  25
HETATM   25  C   UNL     1      -7.835   8.001  65.071  1.00  0.00    -0.123 A  
HETATM   26  N   UNL     1      -8.957   8.277  65.725  1.00  0.00    -0.164 NA 
HETATM   27  C   UNL     1      -8.802   9.553  66.251  1.00  0.00    -0.149 A  
HETATM   28  C   UNL     1      -7.549  10.055  65.907  1.00  0.00    -0.114 A  
HETATM   29  N   UNL     1      -6.986   9.085  65.112  1.00  0.00    -0.079 NA 
HETATM   30  C   UNL     1      -7.079  11.288  66.360  1.00  0.00    -0.053 A  
HETATM   31  C   UNL     1      -7.934  12.047  67.167  1.00  0.00    -0.175 A  
HETATM   32  C   UNL     1      -5.701   9.163  64.454  1.00  0.00    -0.068 C  
HETATM   33  C   UNL     1      -9.238  11.630  67.477  1.00  0.00    -0.172 A  
HETATM   34  C   UNL     1      -9.671  10.355  67.044  1.00  0.00    -0.216 A  
BRANCH  33  35
HETATM   35  C   UNL     1     -10.039  12.608  68.313  1.00  0.00    -0.233 C  
HETATM   36  N   UNL     1     -10.954  13.507  67.744  1.00  0.00    -0.261 N  
HETATM   37  O   UNL     1      -9.803  12.618  69.524  1.00  0.00     0.749 OA 
BRANCH  36  38
HETATM   38  C   UNL     1     -11.285  13.478  66.380  1.00  0.00    -0.307 A  
HETATM   39  C   UNL     1     -12.046  13.510  63.756  1.00  0.00    -0.482 A  
HETATM   40  N   UNL     1     -10.779  14.444  65.579  1.00  0.00    -0.317 NA 
HETATM   41  C   UNL     1     -12.511  12.498  64.586  1.00  0.00    -0.539 A  
HETATM   42  C   UNL     1     -11.184  14.451  64.290  1.00  0.00    -0.094 A  
HETATM   43  C   UNL     1     -12.129  12.476  65.914  1.00  0.00    -0.420 A  
ENDBRANCH  36  38
BRANCH  36  44
HETATM   44  C   UNL     1     -11.845  14.324  68.587  1.00  0.00    -0.344 C  
BRANCH  44  45
HETATM   45  C   UNL     1     -11.247  15.548  69.296  1.00  0.00    -0.312 C  
BRANCH  45  46
HETATM   46  C   UNL     1     -10.428  16.549  68.499  1.00  0.00    -0.302 C  
HETATM   47  O   UNL     1     -10.773  17.146  67.492  1.00  0.00    -0.342 OA 
BRANCH  46  48
HETATM   48  O   UNL     1      -9.198  16.650  69.100  1.00  0.00    -0.249 OA 
BRANCH  48  49
HETATM   49  C   UNL     1      -8.027  16.877  68.293  1.00  0.00    -0.211 C  
HETATM   50  C   UNL     1      -7.627  15.615  67.550  1.00  0.00    -0.200 C  
ENDBRANCH  48  49
ENDBRANCH  46  48
ENDBRANCH  45  46
ENDBRANCH  44  45
ENDBRANCH  36  44
ENDBRANCH  33  35
ENDBRANCH  24  25
ENDBRANCH  22  24
ENDBRANCH  19  22
ENDBRANCH  12  16
ENDBRANCH   9  12
ENDBRANCH   7   8
ENDBRANCH   6   7
ENDBRANCH   5   6
ENDBRANCH   4   5
ENDBRANCH   3   4
ENDBRANCH   2   3
TORSDOF 18
ENDMDL
MODEL       37
REMARK 921   NORMALIZED FREE ENERGY PREDICTED BY IDOCK:   -4.78 KCAL/MOL
REMARK 922        TOTAL FREE ENERGY PREDICTED BY IDOCK:  -13.02 KCAL/MOL
REMARK 923 INTER-LIGAND FREE ENERGY PREDICTED BY IDOCK:  -10.08 KCAL/MOL
REMARK 924 INTRA-LIGAND FREE ENERGY PREDICTED BY IDOCK:   -2.94 KCAL/MOL
REMARK 927      BINDING AFFINITY PREDICTED BY RF-SCORE:    0.00 PKD
ROOT
HETATM    1  C   UNL     1      -9.868   4.184  71.422  1.00  0.00    -0.254 C  
HETATM    2  C   UNL     1     -10.830   5.184  70.804  1.00  0.00    -0.029 C  
ENDROOT
BRANCH   2   3
HETATM    3  C   UNL     1     -10.269   5.705  69.490  1.00  0.00    -0.320 C  
BRANCH   3   4
HETATM    4  C   UNL     1     -11.244   6.631  68.775  1.00  0.00    -0.256 C  
BRANCH   4   5
HETATM    5  C   UNL     1     -10.859   6.690  67.304  1.00  0.00    -0.456 C  
BRANCH   5   6
HETATM    6  C   UNL     1      -9.364   6.714  67.100  1.00  0.00    -0.134 C  
BRANCH   6   7
HETATM    7  O   UNL     1      -9.042   5.704  66.131  1.00  0.00    -0.146 OA 
BRANCH   7   8
HETATM    8  C   UNL     1      -8.042   6.021  65.265  1.00  0.00    -0.134 C  
HETATM    9  N   UNL     1      -6.845   6.249  65.875  1.00  0.00    -0.055 N  
HETATM   10  O   UNL     1      -8.202   6.106  64.051  1.00  0.00    -0.107 OA 
HETATM   11  H   UNL     1      -6.322   7.092  65.633  1.00  0.00     0.000 HD 
BRANCH   9  12
HETATM   12  C   UNL     1      -6.344   5.429  66.755  1.00  0.00    -0.039 C  
HETATM   13  H1  UNL     1      -5.611   3.550  66.963  1.00  0.00     0.000 HD 
HETATM   14  N   UNL     1      -6.003   4.191  66.274  1.00  0.00    -0.026 NA 
HETATM   15  H2  UNL     1      -6.133   3.930  65.296  1.00  0.00     0.000 HD 
BRANCH  12  16
HETATM   16  C   UNL     1      -6.057   5.737  68.192  1.00  0.00    -0.018 A  
HETATM   17  C   UNL     1      -6.507   4.913  69.224  1.00  0.00    -0.036 A  
HETATM   18  C   UNL     1      -6.612   5.431  70.518  1.00  0.00    -0.042 A  
HETATM   19  C   UNL     1      -6.165   6.726  70.816  1.00  0.00    -0.035 A  
HETATM   20  C   UNL     1      -5.557   7.470  69.801  1.00  0.00    -0.023 A  
HETATM   21  C   UNL     1      -5.511   6.988  68.493  1.00  0.00    -0.017 A  
BRANCH  19  22
HETATM   22  N   UNL     1      -6.568   7.296  72.037  1.00  0.00    -0.054 NA 
HETATM   23  H   UNL     1      -5.888   7.650  72.710  1.00  0.00     0.000 HD 
BRANCH  22  24
HETATM   24  C   UNL     1      -8.005   7.360  72.299  1.00  0.00    -0.100 C  
BRANCH  24  25
HETATM   25  C   UNL     1      -8.825   8.403  71.565  1.00  0.00    -0.185 A  
HETATM   26  N   UNL     1      -8.445   9.252  70.618  1.00  0.00    -0.209 NA 
HETATM   27  C   UNL     1      -9.586   9.940  70.226  1.00  0.00    -0.127 A  
HETATM   28  C   UNL     1     -10.683   9.488  70.955  1.00  0.00    -0.340 A  
HETATM   29  N   UNL     1     -10.166   8.567  71.835  1.00  0.00    -0.270 NA 
HETATM   30  C   UNL     1     -11.982   9.943  70.725  1.00  0.00    -0.410 A  
HETATM   31  C   UNL     1     -12.159  10.915  69.735  1.00  0.00    -0.409 A  
HETATM   32  C   UNL     1     -10.906   7.854  72.853  1.00  0.00    -0.386 C  
HETATM   33  C   UNL     1     -11.081  11.468  69.026  1.00  0.00    -0.302 A  
HETATM   34  C   UNL     1      -9.780  10.956  69.247  1.00  0.00    -0.087 A  
BRANCH  33  35
HETATM   35  C   UNL     1     -11.457  12.552  68.036  1.00  0.00    -0.317 C  
HETATM   36  N   UNL     1     -10.839  12.669  66.781  1.00  0.00    -0.246 N  
HETATM   37  O   UNL     1     -12.299  13.372  68.412  1.00  0.00    -0.193 OA 
BRANCH  36  38
HETATM   38  C   UNL     1      -9.923  11.716  66.304  1.00  0.00    -0.217 A  
HETATM   39  C   UNL     1      -8.143   9.935  65.245  1.00  0.00    -0.139 A  
HETATM   40  N   UNL     1      -8.603  11.988  66.418  1.00  0.00    -0.099 NA 
HETATM   41  C   UNL     1      -9.502   9.653  65.187  1.00  0.00    -0.332 A  
HETATM   42  C   UNL     1      -7.742  11.103  65.870  1.00  0.00     0.062 A  
HETATM   43  C   UNL     1     -10.407  10.550  65.723  1.00  0.00    -0.270 A  
ENDBRANCH  36  38
BRANCH  36  44
HETATM   44  C   UNL     1     -11.339  13.618  65.770  1.00  0.00    -0.306 C  
BRANCH  44  45
HETATM   45  C   UNL     1     -10.356  14.651  65.202  1.00  0.00    -0.431 C  
BRANCH  45  46
HETATM   46  C   UNL     1     -10.747  16.120  65.175  1.00  0.00    -0.371 C  
HETATM   47  O   UNL     1     -11.162  16.753  64.219  1.00  0.00    -1.163 OA 
BRANCH  46  48
HETATM   48  O   UNL     1     -10.523  16.630  66.430  1.00  0.00    -0.305 OA 
BRANCH  48  49
HETATM   49  C   UNL     1      -9.734  17.825  66.583  1.00  0.00    -0.313 C  
HETATM   50  C   UNL     1     -10.372  18.994  65.854  1.00  0.00    -0.435 C  
ENDBRANCH  48  49
ENDBRANCH  46  48
ENDBRANCH  45  46
ENDBRANCH  44  45
ENDBRANCH  36  44
ENDBRANCH  33  35
ENDBRANCH  24  25
ENDBRANCH  22  24
ENDBRANCH  19  22
ENDBRANCH  12  16
ENDBRANCH   9  12
ENDBRANCH   7   8
ENDBRANCH   6   7
ENDBRANCH   5   6
ENDBRANCH   4   5
ENDBRANCH   3   4
ENDBRANCH   2   3
TORSDOF 18
ENDMDL
MODEL       38
REMARK 921   NORMALIZED FREE ENERGY PREDICTED BY IDOCK:   -4.78 KCAL/MOL
REMARK 922        TOTAL FREE ENERGY PREDICTED BY IDOCK:  -13.02 KCAL/MOL
REMARK 923 INTER-LIGAND FREE ENERGY PREDICTED BY IDOCK:  -10.57 KCAL/MOL
REMARK 924 INTRA-LIGAND FREE ENERGY PREDICTED BY IDOCK:   -2.45 KCAL/MOL
REMARK 927      BINDING AFFINITY PREDICTED BY RF-SCORE:    0.00 PKD
ROOT
HETATM    1  C   UNL     1      -6.956  15.703  69.571  1.00  0.00    -0.193 C  
HETATM    2  C   UNL     1      -6.360  15.044  68.338  1.00  0.00    -0.107 C  
ENDROOT
BRANCH   2   3
HETATM    3  C   UNL     1      -5.961  16.102  67.322  1.00  0.00    -0.145 C  
BRANCH   3   4
HETATM    4  C   UNL     1      -6.682  17.424  67.554  1.00  0.00    -0.170 C  
BRANCH   4   5
HETATM    5  C   UNL     1      -6.872  18.110  66.210  1.00  0.00    -0.281 C  
BRANCH   5   6
HETATM    6  C   UNL     1      -7.557  19.449  66.337  1.00  0.00    -0.271 C  
BRANCH   6   7
HETATM    7  O   UNL     1      -8.926  19.276  65.937  1.00  0.00    -0.434 OA 
BRANCH   7   8
HETATM    8  C   UNL     1      -9.856  19.737  66.817  1.00  0.00    -0.411 C  
HETATM    9  N   UNL     1     -10.740  18.784  67.225  1.00  0.00    -0.446 N  
HETATM   10  O   UNL     1      -9.903  20.902  67.199  1.00  0.00    -0.416 OA 
HETATM   11  H   UNL     1     -11.738  18.993  67.197  1.00  0.00     0.000 HD 
BRANCH   9  12
HETATM   12  C   UNL     1     -10.355  17.614  67.651  1.00  0.00    -0.368 C  
HETATM   13  H1  UNL     1      -9.841  16.609  69.336  1.00  0.00     0.000 HD 
HETATM   14  N   UNL     1     -10.141  17.525  69.003  1.00  0.00    -0.319 NA 
HETATM   15  H2  UNL     1     -10.273  18.318  69.630  1.00  0.00     0.000 HD 
BRANCH  12  16
HETATM   16  C   UNL     1     -10.195  16.377  66.823  1.00  0.00    -0.285 A  
HETATM   17  C   UNL     1     -10.607  16.326  65.490  1.00  0.00    -0.369 A  
HETATM   18  C   UNL     1     -10.851  15.084  64.896  1.00  0.00    -0.430 A  
HETATM   19  C   UNL     1     -10.580  13.891  65.579  1.00  0.00    -0.311 A  
HETATM   20  C   UNL     1     -10.003  13.968  66.849  1.00  0.00    -0.263 A  
HETATM   21  C   UNL     1      -9.821  15.199  67.477  1.00  0.00    -0.220 A  
BRANCH  19  22
HETATM   22  N   UNL     1     -11.122  12.700  65.062  1.00  0.00    -0.284 NA 
HETATM   23  H   UNL     1     -12.125  12.516  65.086  1.00  0.00     0.000 HD 
BRANCH  22  24
HETATM   24  C   UNL     1     -10.184  11.736  64.489  1.00  0.00    -0.284 C  
BRANCH  24  25
HETATM   25  C   UNL     1      -9.927  10.446  65.243  1.00  0.00    -0.309 A  
HETATM   26  N   UNL     1     -10.656   9.872  66.192  1.00  0.00    -0.058 NA 
HETATM   27  C   UNL     1     -10.028   8.672  66.500  1.00  0.00    -0.282 A  
HETATM   28  C   UNL     1      -8.891   8.520  65.710  1.00  0.00    -0.190 A  
HETATM   29  N   UNL     1      -8.815   9.678  64.974  1.00  0.00    -0.173 NA 
HETATM   30  C   UNL     1      -8.097   7.373  65.743  1.00  0.00    -0.129 A  
HETATM   31  C   UNL     1      -8.463   6.360  66.637  1.00  0.00    -0.115 A  
HETATM   32  C   UNL     1      -7.767  10.027  64.040  1.00  0.00    -0.143 C  
HETATM   33  C   UNL     1      -9.548   6.493  67.516  1.00  0.00    -0.137 A  
HETATM   34  C   UNL     1     -10.364   7.647  67.429  1.00  0.00    -0.347 A  
BRANCH  33  35
HETATM   35  C   UNL     1      -9.758   5.321  68.454  1.00  0.00    -0.141 C  
HETATM   36  N   UNL     1      -9.879   5.483  69.842  1.00  0.00    -0.178 N  
HETATM   37  O   UNL     1      -9.759   4.199  67.939  1.00  0.00    -0.160 OA 
BRANCH  36  38
HETATM   38  C   UNL     1      -9.941   6.750  70.447  1.00  0.00    -0.179 A  
HETATM   39  C   UNL     1     -10.106   9.269  71.489  1.00  0.00    -0.306 A  
HETATM   40  N   UNL     1     -11.119   7.143  70.986  1.00  0.00    -0.253 NA 
HETATM   41  C   UNL     1      -8.894   8.824  70.977  1.00  0.00    -0.260 A  
HETATM   42  C   UNL     1     -11.182   8.400  71.478  1.00  0.00    -0.267 A  
HETATM   43  C   UNL     1      -8.805   7.550  70.449  1.00  0.00    -0.145 A  
ENDBRANCH  36  38
BRANCH  36  44
HETATM   44  C   UNL     1     -10.255   4.355  70.712  1.00  0.00    -0.036 C  
BRANCH  44  45
HETATM   45  C   UNL     1      -9.533   4.211  72.061  1.00  0.00    -0.195 C  
BRANCH  45  46
HETATM   46  C   UNL     1     -10.276   3.618  73.246  1.00  0.00    -0.151 C  
HETATM   47  O   UNL     1     -11.392   3.914  73.639  1.00  0.00    -0.238 OA 
BRANCH  46  48
HETATM   48  O   UNL     1      -9.448   2.690  73.831  1.00  0.00    -0.083 OA 
BRANCH  48  49
HETATM   49  C   UNL     1      -8.035   2.954  73.923  1.00  0.00    -0.064 C  
HETATM   50  C   UNL     1      -7.229   1.718  73.568  1.00  0.00    -0.028 C  
ENDBRANCH  48  49
ENDBRANCH  46  48
ENDBRANCH  45  46
ENDBRANCH  44  45
ENDBRANCH  36  44
ENDBRANCH  33  35
ENDBRANCH  24  25
ENDBRANCH  22  24
ENDBRANCH  19  22
ENDBRANCH  12  16
ENDBRANCH   9  12
ENDBRANCH   7   8
ENDBRANCH   6   7
ENDBRANCH   5   6
ENDBRANCH   4   5
ENDBRANCH   3   4
ENDBRANCH   2   3
TORSDOF 18
ENDMDL
MODEL       39
REMARK 921   NORMALIZED FREE ENERGY PREDICTED BY IDOCK:   -4.78 KCAL/MOL
REMARK 922        TOTAL FREE ENERGY PREDICTED BY IDOCK:  -13.01 KCAL/MOL
REMARK 923 INTER-LIGAND FREE ENERGY PREDICTED BY IDOCK:   -9.06 KCAL/MOL
REMARK 924 INTRA-LIGAND FREE ENERGY PREDICTED BY IDOCK:   -3.94 KCAL/MOL
REMARK 927      BINDING AFFINITY PREDICTED BY RF-SCORE:    0.00 PKD
ROOT
HETATM    1  C   UNL     1      -7.644   4.232  71.510  1.00  0.00    -0.068 C  
HETATM    2  C   UNL     1      -8.736   3.671  72.406  1.00  0.00    -0.103 C  
ENDROOT
BRANCH   2   3
HETATM    3  C   UNL     1     -10.068   4.326  72.078  1.00  0.00    -0.244 C  
BRANCH   3   4
HETATM    4  C   UNL     1     -10.514   5.298  73.163  1.00  0.00    -0.251 C  
BRANCH   4   5
HETATM    5  C   UNL     1     -10.916   6.607  72.500  1.00  0.00    -0.280 C  
BRANCH   5   6
HETATM    6  C   UNL     1     -12.328   6.575  71.969  1.00  0.00    -0.260 C  
BRANCH   6   7
HETATM    7  O   UNL     1     -12.486   7.698  71.087  1.00  0.00    -0.307 OA 
BRANCH   7   8
HETATM    8  C   UNL     1     -13.151   8.764  71.610  1.00  0.00    -0.352 C  
HETATM    9  N   UNL     1     -12.367   9.865  71.781  1.00  0.00    -0.390 N  
HETATM   10  O   UNL     1     -14.341   8.736  71.910  1.00  0.00    -0.403 OA 
HETATM   11  H   UNL     1     -12.388  10.350  72.679  1.00  0.00     0.000 HD 
BRANCH   9  12
HETATM   12  C   UNL     1     -11.591  10.322  70.839  1.00  0.00    -0.365 C  
HETATM   13  H1  UNL     1      -9.738  10.110  70.043  1.00  0.00     0.000 HD 
HETATM   14  N   UNL     1     -10.345   9.753  70.781  1.00  0.00    -0.331 NA 
HETATM   15  H2  UNL     1     -10.046   9.024  71.430  1.00  0.00     0.000 HD 
BRANCH  12  16
HETATM   16  C   UNL     1     -11.957  11.339  69.804  1.00  0.00    -0.431 A  
HETATM   17  C   UNL     1     -12.119  10.995  68.461  1.00  0.00    -0.066 A  
HETATM   18  C   UNL     1     -12.022  11.990  67.483  1.00  0.00    -0.144 A  
HETATM   19  C   UNL     1     -11.880  13.339  67.836  1.00  0.00    -0.349 A  
HETATM   20  C   UNL     1     -11.895  13.676  69.192  1.00  0.00    -0.394 A  
HETATM   21  C   UNL     1     -11.922  12.687  70.173  1.00  0.00    -0.375 A  
BRANCH  19  22
HETATM   22  N   UNL     1     -11.486  14.243  66.833  1.00  0.00    -0.346 NA 
HETATM   23  H   UNL     1     -12.138  14.924  66.443  1.00  0.00     0.000 HD 
BRANCH  22  24
HETATM   24  C   UNL     1     -10.100  14.164  66.374  1.00  0.00    -0.293 C  
BRANCH  24  25
HETATM   25  C   UNL     1      -9.425  12.806  66.355  1.00  0.00    -0.229 A  
HETATM   26  N   UNL     1      -9.562  11.815  65.483  1.00  0.00    -0.224 NA 
HETATM   27  C   UNL     1      -8.671  10.823  65.871  1.00  0.00    -0.181 A  
HETATM   28  C   UNL     1      -7.976  11.232  67.006  1.00  0.00    -0.150 A  
HETATM   29  N   UNL     1      -8.514  12.456  67.328  1.00  0.00    -0.176 NA 
HETATM   30  C   UNL     1      -6.957  10.473  67.582  1.00  0.00    -0.079 A  
HETATM   31  C   UNL     1      -6.660   9.239  66.993  1.00  0.00    -0.068 A  
HETATM   32  C   UNL     1      -8.162  13.267  68.473  1.00  0.00    -0.084 C  
HETATM   33  C   UNL     1      -7.382   8.738  65.899  1.00  0.00    -0.085 A  
HETATM   34  C   UNL     1      -8.380   9.549  65.306  1.00  0.00    -0.144 A  
BRANCH  33  35
HETATM   35  C   UNL     1      -6.960   7.359  65.433  1.00  0.00    -0.059 C  
HETATM   36  N   UNL     1      -7.551   6.186  65.927  1.00  0.00    -0.085 N  
HETATM   37  O   UNL     1      -6.022   7.313  64.633  1.00  0.00    -0.036 OA 
BRANCH  36  38
HETATM   38  C   UNL     1      -8.659   6.211  66.790  1.00  0.00    -0.111 A  
HETATM   39  C   UNL     1     -10.807   6.409  68.466  1.00  0.00    -0.382 A  
HETATM   40  N   UNL     1      -9.895   6.257  66.243  1.00  0.00    -0.071 NA 
HETATM   41  C   UNL     1      -9.531   6.308  69.006  1.00  0.00    -0.133 A  
HETATM   42  C   UNL     1     -10.941   6.374  67.090  1.00  0.00    -0.399 A  
HETATM   43  C   UNL     1      -8.441   6.207  68.163  1.00  0.00    -0.116 A  
ENDBRANCH  36  38
BRANCH  36  44
HETATM   44  C   UNL     1      -7.248   4.871  65.334  1.00  0.00    -0.068 C  
BRANCH  44  45
HETATM   45  C   UNL     1      -6.138   4.028  65.978  1.00  0.00    -0.031 C  
BRANCH  45  46
HETATM   46  C   UNL     1      -6.472   2.659  66.547  1.00  0.00    -0.031 C  
HETATM   47  O   UNL     1      -6.056   1.579  66.160  1.00  0.00    -0.018 OA 
BRANCH  46  48
HETATM   48  O   UNL     1      -7.363   2.845  67.576  1.00  0.00    -0.053 OA 
BRANCH  48  49
HETATM   49  C   UNL     1      -8.703   2.332  67.459  1.00  0.00    -0.116 C  
HETATM   50  C   UNL     1      -9.482   2.550  68.744  1.00  0.00    -0.182 C  
ENDBRANCH  48  49
ENDBRANCH  46  48
ENDBRANCH  45  46
ENDBRANCH  44  45
ENDBRANCH  36  44
ENDBRANCH  33  35
ENDBRANCH  24  25
ENDBRANCH  22  24
ENDBRANCH  19  22
ENDBRANCH  12  16
ENDBRANCH   9  12
ENDBRANCH   7   8
ENDBRANCH   6   7
ENDBRANCH   5   6
ENDBRANCH   4   5
ENDBRANCH   3   4
ENDBRANCH   2   3
TORSDOF 18
ENDMDL
MODEL       40
REMARK 921   NORMALIZED FREE ENERGY PREDICTED BY IDOCK:   -4.75 KCAL/MOL
REMARK 922        TOTAL FREE ENERGY PREDICTED BY IDOCK:  -12.95 KCAL/MOL
REMARK 923 INTER-LIGAND FREE ENERGY PREDICTED BY IDOCK:  -10.33 KCAL/MOL
REMARK 924 INTRA-LIGAND FREE ENERGY PREDICTED BY IDOCK:   -2.62 KCAL/MOL
REMARK 927      BINDING AFFINITY PREDICTED BY RF-SCORE:    0.00 PKD
ROOT
HETATM    1  C   UNL     1      -6.812   9.474  67.302  1.00  0.00    -0.084 C  
HETATM    2  C   UNL     1      -6.336   8.269  66.507  1.00  0.00    -0.054 C  
ENDROOT
BRANCH   2   3
HETATM    3  C   UNL     1      -7.412   7.196  66.491  1.00  0.00    -0.088 C  
BRANCH   3   4
HETATM    4  C   UNL     1      -8.182   7.173  65.176  1.00  0.00    -0.114 C  
BRANCH   4   5
HETATM    5  C   UNL     1      -7.181   7.063  64.036  1.00  0.00    -0.069 C  
BRANCH   5   6
HETATM    6  C   UNL     1      -7.533   5.964  63.063  1.00  0.00    -0.067 C  
BRANCH   6   7
HETATM    7  O   UNL     1      -8.156   4.906  63.809  1.00  0.00    -0.098 OA 
BRANCH   7   8
HETATM    8  C   UNL     1      -7.305   4.001  64.363  1.00  0.00    -0.067 C  
HETATM    9  N   UNL     1      -7.630   3.658  65.641  1.00  0.00    -0.077 N  
HETATM   10  O   UNL     1      -6.330   3.544  63.774  1.00  0.00    -0.021 OA 
HETATM   11  H   UNL     1      -6.902   3.676  66.356  1.00  0.00     0.000 HD 
BRANCH   9  12
HETATM   12  C   UNL     1      -8.838   3.308  65.983  1.00  0.00    -0.138 C  
HETATM   13  H1  UNL     1     -10.379   2.112  65.428  1.00  0.00     0.000 HD 
HETATM   14  N   UNL     1      -9.434   2.386  65.161  1.00  0.00    -0.324 NA 
HETATM   15  H2  UNL     1      -8.965   2.002  64.340  1.00  0.00     0.000 HD 
BRANCH  12  16
HETATM   16  C   UNL     1      -9.584   3.765  67.197  1.00  0.00    -0.218 A  
HETATM   17  C   UNL     1     -10.397   4.899  67.177  1.00  0.00    -0.181 A  
HETATM   18  C   UNL     1     -10.713   5.537  68.381  1.00  0.00    -0.156 A  
HETATM   19  C   UNL     1     -10.323   4.990  69.611  1.00  0.00    -0.190 A  
HETATM   20  C   UNL     1      -9.660   3.760  69.613  1.00  0.00    -0.242 A  
HETATM   21  C   UNL     1      -9.281   3.153  68.417  1.00  0.00    -0.235 A  
BRANCH  19  22
HETATM   22  N   UNL     1     -10.398   5.814  70.750  1.00  0.00    -0.224 NA 
HETATM   23  H   UNL     1     -11.102   5.662  71.472  1.00  0.00     0.000 HD 
BRANCH  22  24
HETATM   24  C   UNL     1      -9.421   6.897  70.852  1.00  0.00    -0.157 C  
BRANCH  24  25
HETATM   25  C   UNL     1      -9.875   8.307  70.528  1.00  0.00    -0.183 A  
HETATM   26  N   UNL     1      -9.288   9.221  69.764  1.00  0.00    -0.175 NA 
HETATM   27  C   UNL     1     -10.142  10.316  69.733  1.00  0.00    -0.203 A  
HETATM   28  C   UNL     1     -11.276  10.050  70.496  1.00  0.00    -0.336 A  
HETATM   29  N   UNL     1     -11.055   8.806  71.037  1.00  0.00    -0.256 NA 
HETATM   30  C   UNL     1     -12.348  10.938  70.588  1.00  0.00    -0.470 A  
HETATM   31  C   UNL     1     -12.242  12.152  69.901  1.00  0.00    -0.240 A  
HETATM   32  C   UNL     1     -11.926   8.109  71.957  1.00  0.00    -0.340 C  
HETATM   33  C   UNL     1     -11.089  12.509  69.185  1.00  0.00    -0.254 A  
HETATM   34  C   UNL     1     -10.036  11.571  69.069  1.00  0.00    -0.040 A  
BRANCH  33  35
HETATM   35  C   UNL     1     -11.130  13.887  68.555  1.00  0.00    -0.265 C  
HETATM   36  N   UNL     1     -10.926  14.091  67.182  1.00  0.00    -0.292 N  
HETATM   37  O   UNL     1     -11.294  14.838  69.324  1.00  0.00    -0.263 OA 
BRANCH  36  38
HETATM   38  C   UNL     1     -10.797  13.024  66.277  1.00  0.00    -0.278 A  
HETATM   39  C   UNL     1     -10.518  11.052  64.408  1.00  0.00    -0.422 A  
HETATM   40  N   UNL     1      -9.566  12.498  66.082  1.00  0.00    -0.247 NA 
HETATM   41  C   UNL     1     -11.780  11.572  64.663  1.00  0.00    -0.049 A  
HETATM   42  C   UNL     1      -9.449  11.537  65.140  1.00  0.00    -0.168 A  
HETATM   43  C   UNL     1     -11.927  12.569  65.609  1.00  0.00    -0.492 A  
ENDBRANCH  36  38
BRANCH  36  44
HETATM   44  C   UNL     1     -11.142  15.412  66.566  1.00  0.00    -0.227 C  
BRANCH  44  45
HETATM   45  C   UNL     1     -10.015  16.000  65.705  1.00  0.00    -0.382 C  
BRANCH  45  46
HETATM   46  C   UNL     1      -9.151  17.119  66.265  1.00  0.00    -0.228 C  
HETATM   47  O   UNL     1      -8.137  17.583  65.771  1.00  0.00    -0.551 OA 
BRANCH  46  48
HETATM   48  O   UNL     1      -9.704  17.510  67.460  1.00  0.00    -0.267 OA 
BRANCH  48  49
HETATM   49  C   UNL     1      -9.636  18.893  67.857  1.00  0.00    -0.316 C  
HETATM   50  C   UNL     1     -10.687  19.717  67.136  1.00  0.00    -0.587 C  
ENDBRANCH  48  49
ENDBRANCH  46  48
ENDBRANCH  45  46
ENDBRANCH  44  45
ENDBRANCH  36  44
ENDBRANCH  33  35
ENDBRANCH  24  25
ENDBRANCH  22  24
ENDBRANCH  19  22
ENDBRANCH  12  16
ENDBRANCH   9  12
ENDBRANCH   7   8
ENDBRANCH   6   7
ENDBRANCH   5   6
ENDBRANCH   4   5
ENDBRANCH   3   4
ENDBRANCH   2   3
TORSDOF 18
ENDMDL
MODEL       41
REMARK 921   NORMALIZED FREE ENERGY PREDICTED BY IDOCK:   -4.72 KCAL/MOL
REMARK 922        TOTAL FREE ENERGY PREDICTED BY IDOCK:  -12.89 KCAL/MOL
REMARK 923 INTER-LIGAND FREE ENERGY PREDICTED BY IDOCK:   -8.87 KCAL/MOL
REMARK 924 INTRA-LIGAND FREE ENERGY PREDICTED BY IDOCK:   -4.01 KCAL/MOL
REMARK 927      BINDING AFFINITY PREDICTED BY RF-SCORE:    0.00 PKD
ROOT
HETATM    1  C   UNL     1     -11.062   8.832  71.282  1.00  0.00    -0.348 C  
HETATM    2  C   UNL     1      -9.557   8.825  71.498  1.00  0.00    -0.354 C  
ENDROOT
BRANCH   2   3
HETATM    3  C   UNL     1      -8.838   8.893  70.160  1.00  0.00    -0.172 C  
BRANCH   3   4
HETATM    4  C   UNL     1      -7.864  10.062  70.089  1.00  0.00    -0.141 C  
BRANCH   4   5
HETATM    5  C   UNL     1      -6.489   9.568  70.514  1.00  0.00    -0.086 C  
BRANCH   5   6
HETATM    6  C   UNL     1      -5.427  10.632  70.381  1.00  0.00    -0.074 C  
BRANCH   6   7
HETATM    7  O   UNL     1      -6.066  11.826  69.903  1.00  0.00    -0.124 OA 
BRANCH   7   8
HETATM    8  C   UNL     1      -5.670  12.982  70.503  1.00  0.00    -0.173 C  
HETATM    9  N   UNL     1      -5.161  13.900  69.634  1.00  0.00    -0.084 N  
HETATM   10  O   UNL     1      -5.752  13.177  71.711  1.00  0.00    -0.394 OA 
HETATM   11  H   UNL     1      -4.269  14.345  69.855  1.00  0.00     0.000 HD 
BRANCH   9  12
HETATM   12  C   UNL     1      -5.771  14.230  68.531  1.00  0.00    -0.096 C  
HETATM   13  H1  UNL     1      -5.870  13.780  66.556  1.00  0.00     0.000 HD 
HETATM   14  N   UNL     1      -5.392  13.522  67.419  1.00  0.00    -0.344 NA 
HETATM   15  H2  UNL     1      -4.683  12.789  67.453  1.00  0.00     0.000 HD 
BRANCH  12  16
HETATM   16  C   UNL     1      -6.865  15.241  68.391  1.00  0.00    -0.112 A  
HETATM   17  C   UNL     1      -7.664  15.615  69.473  1.00  0.00    -0.185 A  
HETATM   18  C   UNL     1      -8.912  16.197  69.234  1.00  0.00    -0.200 A  
HETATM   19  C   UNL     1      -9.323  16.516  67.932  1.00  0.00    -0.216 A  
HETATM   20  C   UNL     1      -8.432  16.292  66.880  1.00  0.00    -0.257 A  
HETATM   21  C   UNL     1      -7.214  15.649  67.100  1.00  0.00    -0.230 A  
BRANCH  19  22
HETATM   22  N   UNL     1     -10.683  16.809  67.725  1.00  0.00    -0.338 NA 
HETATM   23  H   UNL     1     -10.992  17.745  67.461  1.00  0.00     0.000 HD 
BRANCH  22  24
HETATM   24  C   UNL     1     -11.634  15.714  67.905  1.00  0.00    -0.190 C  
BRANCH  24  25
HETATM   25  C   UNL     1     -11.230  14.327  67.446  1.00  0.00    -0.316 A  
HETATM   26  N   UNL     1     -10.886  13.271  68.174  1.00  0.00    -0.243 NA 
HETATM   27  C   UNL     1     -10.680  12.228  67.281  1.00  0.00    -0.231 A  
HETATM   28  C   UNL     1     -10.911  12.668  65.980  1.00  0.00    -0.282 A  
HETATM   29  N   UNL     1     -11.194  14.008  66.106  1.00  0.00    -0.313 NA 
HETATM   30  C   UNL     1     -10.857  11.819  64.874  1.00  0.00    -0.353 A  
HETATM   31  C   UNL     1     -10.524  10.480  65.106  1.00  0.00    -0.225 A  
HETATM   32  C   UNL     1     -11.449  14.930  65.021  1.00  0.00    -0.379 C  
HETATM   33  C   UNL     1     -10.199   9.998  66.383  1.00  0.00    -0.290 A  
HETATM   34  C   UNL     1     -10.308  10.870  67.493  1.00  0.00    -0.237 A  
BRANCH  33  35
HETATM   35  C   UNL     1      -9.805   8.535  66.433  1.00  0.00    -0.257 C  
HETATM   36  N   UNL     1      -8.527   8.089  66.062  1.00  0.00    -0.128 N  
HETATM   37  O   UNL     1     -10.688   7.739  66.763  1.00  0.00    -0.311 OA 
BRANCH  36  38
HETATM   38  C   UNL     1      -7.487   8.977  65.740  1.00  0.00    -0.090 A  
HETATM   39  C   UNL     1      -5.374  10.583  65.095  1.00  0.00    -0.141 A  
HETATM   40  N   UNL     1      -7.303   9.299  64.438  1.00  0.00    -0.103 NA 
HETATM   41  C   UNL     1      -5.615  10.280  66.429  1.00  0.00    -0.055 A  
HETATM   42  C   UNL     1      -6.240  10.079  64.142  1.00  0.00    -0.132 A  
HETATM   43  C   UNL     1      -6.683   9.469  66.761  1.00  0.00    -0.072 A  
ENDBRANCH  36  38
BRANCH  36  44
HETATM   44  C   UNL     1      -8.113   6.692  66.283  1.00  0.00    -0.115 C  
BRANCH  44  45
HETATM   45  C   UNL     1      -8.427   5.663  65.187  1.00  0.00    -0.144 C  
BRANCH  45  46
HETATM   46  C   UNL     1      -7.583   5.635  63.923  1.00  0.00    -0.074 C  
HETATM   47  O   UNL     1      -6.446   6.057  63.788  1.00  0.00    -0.028 OA 
BRANCH  46  48
HETATM   48  O   UNL     1      -8.342   5.065  62.931  1.00  0.00    -0.099 OA 
BRANCH  48  49
HETATM   49  C   UNL     1      -8.611   3.650  62.963  1.00  0.00    -0.090 C  
HETATM   50  C   UNL     1      -7.433   2.862  62.419  1.00  0.00    -0.045 C  
ENDBRANCH  48  49
ENDBRANCH  46  48
ENDBRANCH  45  46
ENDBRANCH  44  45
ENDBRANCH  36  44
ENDBRANCH  33  35
ENDBRANCH  24  25
ENDBRANCH  22  24
ENDBRANCH  19  22
ENDBRANCH  12  16
ENDBRANCH   9  12
ENDBRANCH   7   8
ENDBRANCH   6   7
ENDBRANCH   5   6
ENDBRANCH   4   5
ENDBRANCH   3   4
ENDBRANCH   2   3
TORSDOF 18
ENDMDL
MODEL       42
REMARK 921   NORMALIZED FREE ENERGY PREDICTED BY IDOCK:   -4.67 KCAL/MOL
REMARK 922        TOTAL FREE ENERGY PREDICTED BY IDOCK:  -12.79 KCAL/MOL
REMARK 923 INTER-LIGAND FREE ENERGY PREDICTED BY IDOCK:  -10.30 KCAL/MOL
REMARK 924 INTRA-LIGAND FREE ENERGY PREDICTED BY IDOCK:   -2.49 KCAL/MOL
REMARK 927      BINDING AFFINITY PREDICTED BY RF-SCORE:    0.00 PKD
ROOT
HETATM    1  C   UNL     1      -7.368   5.072  73.045  1.00  0.00    -0.087 C  
HETATM    2  C   UNL     1      -8.283   4.211  72.191  1.00  0.00    -0.101 C  
ENDROOT
BRANCH   2   3
HETATM    3  C   UNL     1      -7.482   3.113  71.510  1.00  0.00    -0.040 C  
BRANCH   3   4
HETATM    4  C   UNL     1      -7.587   3.182  69.992  1.00  0.00    -0.044 C  
BRANCH   4   5
HETATM    5  C   UNL     1      -8.950   2.646  69.580  1.00  0.00    -0.168 C  
BRANCH   5   6
HETATM    6  C   UNL     1      -8.855   1.582  68.515  1.00  0.00    -0.083 C  
BRANCH   6   7
HETATM    7  O   UNL     1      -9.620   2.029  67.384  1.00  0.00    -0.034 OA 
BRANCH   7   8
HETATM    8  C   UNL     1      -8.914   2.206  66.233  1.00  0.00    -0.099 C  
HETATM    9  N   UNL     1      -9.588   2.914  65.284  1.00  0.00    -0.344 N  
HETATM   10  O   UNL     1      -7.784   1.761  66.060  1.00  0.00    -0.065 OA 
HETATM   11  H   UNL     1      -9.631   2.547  64.333  1.00  0.00     0.000 HD 
BRANCH   9  12
HETATM   12  C   UNL     1     -10.181   4.044  65.548  1.00  0.00    -0.088 C  
HETATM   13  H1  UNL     1     -11.860   5.107  65.146  1.00  0.00     0.000 HD 
HETATM   14  N   UNL     1     -11.396   4.223  64.939  1.00  0.00    -1.051 NA 
HETATM   15  H2  UNL     1     -11.808   3.521  64.324  1.00  0.00     0.000 HD 
BRANCH  12  16
HETATM   16  C   UNL     1      -9.691   5.106  66.483  1.00  0.00    -0.184 A  
HETATM   17  C   UNL     1      -8.376   5.573  66.441  1.00  0.00    -0.111 A  
HETATM   18  C   UNL     1      -7.840   6.210  67.565  1.00  0.00    -0.102 A  
HETATM   19  C   UNL     1      -8.635   6.488  68.685  1.00  0.00    -0.124 A  
HETATM   20  C   UNL     1      -9.994   6.167  68.634  1.00  0.00    -0.176 A  
HETATM   21  C   UNL     1     -10.521   5.470  67.547  1.00  0.00    -0.269 A  
BRANCH  19  22
HETATM   22  N   UNL     1      -7.984   6.844  69.881  1.00  0.00    -0.118 NA 
HETATM   23  H   UNL     1      -7.038   6.525  70.088  1.00  0.00     0.000 HD 
BRANCH  22  24
HETATM   24  C   UNL     1      -8.725   7.691  70.814  1.00  0.00    -0.139 C  
BRANCH  24  25
HETATM   25  C   UNL     1      -9.310   8.991  70.297  1.00  0.00    -0.198 A  
HETATM   26  N   UNL     1      -8.707   9.982  69.651  1.00  0.00    -0.198 NA 
HETATM   27  C   UNL     1      -9.696  10.904  69.334  1.00  0.00     0.009 A  
HETATM   28  C   UNL     1     -10.928  10.452  69.799  1.00  0.00    -0.293 A  
HETATM   29  N   UNL     1     -10.649   9.277  70.456  1.00  0.00    -0.231 NA 
HETATM   30  C   UNL     1     -12.122  11.133  69.559  1.00  0.00    -0.396 A  
HETATM   31  C   UNL     1     -12.047  12.335  68.846  1.00  0.00    -0.177 A  
HETATM   32  C   UNL     1     -11.599   8.451  71.167  1.00  0.00    -0.279 C  
HETATM   33  C   UNL     1     -10.825  12.881  68.426  1.00  0.00    -0.276 A  
HETATM   34  C   UNL     1      -9.634  12.146  68.641  1.00  0.00    -0.068 A  
BRANCH  33  35
HETATM   35  C   UNL     1     -10.932  14.219  67.720  1.00  0.00    -0.264 C  
HETATM   36  N   UNL     1     -11.441  15.363  68.354  1.00  0.00    -0.342 N  
HETATM   37  O   UNL     1     -10.602  14.241  66.531  1.00  0.00    -0.281 OA 
BRANCH  36  38
HETATM   38  C   UNL     1     -11.767  15.381  69.720  1.00  0.00    -0.333 A  
HETATM   39  C   UNL     1     -12.392  15.266  72.376  1.00  0.00    -0.458 A  
HETATM   40  N   UNL     1     -10.756  15.436  70.617  1.00  0.00    -0.286 NA 
HETATM   41  C   UNL     1     -13.415  15.264  71.438  1.00  0.00    -0.588 A  
HETATM   42  C   UNL     1     -11.088  15.358  71.925  1.00  0.00    -0.160 A  
HETATM   43  C   UNL     1     -13.105  15.323  70.092  1.00  0.00    -0.030 A  
ENDBRANCH  36  38
BRANCH  36  44
HETATM   44  C   UNL     1     -11.375  16.686  67.708  1.00  0.00     0.058 C  
BRANCH  44  45
HETATM   45  C   UNL     1      -9.993  17.330  67.520  1.00  0.00    -0.296 C  
BRANCH  45  46
HETATM   46  C   UNL     1      -9.880  18.658  66.792  1.00  0.00    -0.341 C  
HETATM   47  O   UNL     1     -10.421  18.972  65.744  1.00  0.00    -0.530 OA 
BRANCH  46  48
HETATM   48  O   UNL     1      -9.026  19.455  67.515  1.00  0.00    -0.293 OA 
BRANCH  48  49
HETATM   49  C   UNL     1      -7.655  19.050  67.695  1.00  0.00    -0.237 C  
HETATM   50  C   UNL     1      -7.159  19.418  69.082  1.00  0.00    -0.384 C  
ENDBRANCH  48  49
ENDBRANCH  46  48
ENDBRANCH  45  46
ENDBRANCH  44  45
ENDBRANCH  36  44
ENDBRANCH  33  35
ENDBRANCH  24  25
ENDBRANCH  22  24
ENDBRANCH  19  22
ENDBRANCH  12  16
ENDBRANCH   9  12
ENDBRANCH   7   8
ENDBRANCH   6   7
ENDBRANCH   5   6
ENDBRANCH   4   5
ENDBRANCH   3   4
ENDBRANCH   2   3
TORSDOF 18
ENDMDL
MODEL       43
REMARK 921   NORMALIZED FREE ENERGY PREDICTED BY IDOCK:   -4.65 KCAL/MOL
REMARK 922        TOTAL FREE ENERGY PREDICTED BY IDOCK:  -12.75 KCAL/MOL
REMARK 923 INTER-LIGAND FREE ENERGY PREDICTED BY IDOCK:  -10.17 KCAL/MOL
REMARK 924 INTRA-LIGAND FREE ENERGY PREDICTED BY IDOCK:   -2.58 KCAL/MOL
REMARK 927      BINDING AFFINITY PREDICTED BY RF-SCORE:    0.00 PKD
ROOT
HETATM    1  C   UNL     1     -11.648   1.507  62.611  1.00  0.00    -0.226 C  
HETATM    2  C   UNL     1     -10.427   2.133  63.263  1.00  0.00    -0.165 C  
ENDROOT
BRANCH   2   3
HETATM    3  C   UNL     1     -10.749   3.545  63.727  1.00  0.00    -0.263 C  
BRANCH   3   4
HETATM    4  C   UNL     1      -9.630   4.143  64.570  1.00  0.00    -0.168 C  
BRANCH   4   5
HETATM    5  C   UNL     1      -9.588   3.410  65.902  1.00  0.00    -0.067 C  
BRANCH   5   6
HETATM    6  C   UNL     1      -9.845   4.327  67.073  1.00  0.00    -0.179 C  
BRANCH   6   7
HETATM    7  O   UNL     1      -8.729   4.209  67.971  1.00  0.00    -0.094 OA 
BRANCH   7   8
HETATM    8  C   UNL     1      -9.035   3.811  69.236  1.00  0.00    -0.113 C  
HETATM    9  N   UNL     1      -8.425   4.552  70.202  1.00  0.00    -0.073 N  
HETATM   10  O   UNL     1      -9.780   2.868  69.484  1.00  0.00    -0.072 OA 
HETATM   11  H   UNL     1      -7.938   4.070  70.959  1.00  0.00     0.000 HD 
BRANCH   9  12
HETATM   12  C   UNL     1      -8.440   5.855  70.196  1.00  0.00    -0.126 C  
HETATM   13  H1  UNL     1      -7.522   7.466  69.375  1.00  0.00     0.000 HD 
HETATM   14  N   UNL     1      -7.510   6.446  69.381  1.00  0.00    -0.091 NA 
HETATM   15  H2  UNL     1      -6.851   5.905  68.820  1.00  0.00     0.000 HD 
BRANCH  12  16
HETATM   16  C   UNL     1      -9.403   6.735  70.931  1.00  0.00    -0.157 A  
HETATM   17  C   UNL     1     -10.782   6.534  70.862  1.00  0.00    -0.289 A  
HETATM   18  C   UNL     1     -11.644   7.589  71.176  1.00  0.00    -0.304 A  
HETATM   19  C   UNL     1     -11.149   8.804  71.668  1.00  0.00    -0.327 A  
HETATM   20  C   UNL     1      -9.775   8.920  71.894  1.00  0.00    -0.349 A  
HETATM   21  C   UNL     1      -8.902   7.899  71.519  1.00  0.00    -0.160 A  
BRANCH  19  22
HETATM   22  N   UNL     1     -12.015   9.913  71.676  1.00  0.00    -0.388 NA 
HETATM   23  H   UNL     1     -12.199  10.439  72.530  1.00  0.00     0.000 HD 
BRANCH  22  24
HETATM   24  C   UNL     1     -12.639  10.277  70.405  1.00  0.00    -0.204 C  
BRANCH  24  25
HETATM   25  C   UNL     1     -11.906  11.241  69.493  1.00  0.00    -0.357 A  
HETATM   26  N   UNL     1     -11.965  12.567  69.456  1.00  0.00    -0.293 NA 
HETATM   27  C   UNL     1     -11.048  12.975  68.495  1.00  0.00    -0.266 A  
HETATM   28  C   UNL     1     -10.418  11.862  67.943  1.00  0.00    -0.204 A  
HETATM   29  N   UNL     1     -11.021  10.781  68.543  1.00  0.00    -0.223 NA 
HETATM   30  C   UNL     1      -9.391  11.964  67.004  1.00  0.00    -0.188 A  
HETATM   31  C   UNL     1      -9.018  13.249  66.594  1.00  0.00    -0.137 A  
HETATM   32  C   UNL     1     -10.751   9.389  68.258  1.00  0.00    -0.171 C  
HETATM   33  C   UNL     1      -9.674  14.402  67.052  1.00  0.00    -0.256 A  
HETATM   34  C   UNL     1     -10.680  14.272  68.039  1.00  0.00    -0.242 A  
BRANCH  33  35
HETATM   35  C   UNL     1      -9.174  15.701  66.453  1.00  0.00    -0.311 C  
HETATM   36  N   UNL     1      -8.034  16.361  66.937  1.00  0.00    -0.207 N  
HETATM   37  O   UNL     1      -9.857  16.188  65.548  1.00  0.00    -0.458 OA 
BRANCH  36  38
HETATM   38  C   UNL     1      -7.205  15.801  67.923  1.00  0.00    -0.139 A  
HETATM   39  C   UNL     1      -5.513  14.840  69.840  1.00  0.00    -0.100 A  
HETATM   40  N   UNL     1      -7.514  16.029  69.221  1.00  0.00    -0.225 NA 
HETATM   41  C   UNL     1      -5.246  14.575  68.504  1.00  0.00    -0.103 A  
HETATM   42  C   UNL     1      -6.652  15.561  70.150  1.00  0.00    -0.007 A  
HETATM   43  C   UNL     1      -6.099  15.058  67.529  1.00  0.00    -0.024 A  
ENDBRANCH  36  38
BRANCH  36  44
HETATM   44  C   UNL     1      -7.469  17.525  66.231  1.00  0.00    -0.319 C  
BRANCH  44  45
HETATM   45  C   UNL     1      -6.856  18.653  67.073  1.00  0.00    -0.207 C  
BRANCH  45  46
HETATM   46  C   UNL     1      -7.763  19.537  67.914  1.00  0.00    -0.289 C  
HETATM   47  O   UNL     1      -7.925  19.488  69.122  1.00  0.00    -0.336 OA 
BRANCH  46  48
HETATM   48  O   UNL     1      -8.404  20.402  67.061  1.00  0.00    -0.322 OA 
BRANCH  48  49
HETATM   49  C   UNL     1      -9.838  20.526  67.117  1.00  0.00    -0.426 C  
HETATM   50  C   UNL     1     -10.512  19.244  66.662  1.00  0.00    -0.541 C  
ENDBRANCH  48  49
ENDBRANCH  46  48
ENDBRANCH  45  46
ENDBRANCH  44  45
ENDBRANCH  36  44
ENDBRANCH  33  35
ENDBRANCH  24  25
ENDBRANCH  22  24
ENDBRANCH  19  22
ENDBRANCH  12  16
ENDBRANCH   9  12
ENDBRANCH   7   8
ENDBRANCH   6   7
ENDBRANCH   5   6
ENDBRANCH   4   5
ENDBRANCH   3   4
ENDBRANCH   2   3
TORSDOF 18
ENDMDL
MODEL       44
REMARK 921   NORMALIZED FREE ENERGY PREDICTED BY IDOCK:   -4.62 KCAL/MOL
REMARK 922        TOTAL FREE ENERGY PREDICTED BY IDOCK:  -12.68 KCAL/MOL
REMARK 923 INTER-LIGAND FREE ENERGY PREDICTED BY IDOCK:   -9.64 KCAL/MOL
REMARK 924 INTRA-LIGAND FREE ENERGY PREDICTED BY IDOCK:   -3.04 KCAL/MOL
REMARK 927      BINDING AFFINITY PREDICTED BY RF-SCORE:    0.00 PKD
ROOT
HETATM    1  C   UNL     1     -10.741   2.859  62.912  1.00  0.00    -0.197 C  
HETATM    2  C   UNL     1      -9.931   3.566  63.987  1.00  0.00    -0.186 C  
ENDROOT
BRANCH   2   3
HETATM    3  C   UNL     1     -10.858   4.314  64.932  1.00  0.00    -0.108 C  
BRANCH   3   4
HETATM    4  C   UNL     1     -10.102   4.966  66.082  1.00  0.00    -0.280 C  
BRANCH   4   5
HETATM    5  C   UNL     1      -9.287   3.894  66.791  1.00  0.00    -0.203 C  
BRANCH   5   6
HETATM    6  C   UNL     1      -8.759   4.359  68.126  1.00  0.00    -0.101 C  
BRANCH   6   7
HETATM    7  O   UNL     1      -7.713   3.455  68.518  1.00  0.00    -0.056 OA 
BRANCH   7   8
HETATM    8  C   UNL     1      -7.952   2.741  69.652  1.00  0.00    -0.041 C  
HETATM    9  N   UNL     1      -6.969   2.861  70.588  1.00  0.00    -0.033 N  
HETATM   10  O   UNL     1      -8.950   2.047  69.813  1.00  0.00    -0.069 OA 
HETATM   11  H   UNL     1      -6.592   2.016  71.017  1.00  0.00     0.000 HD 
BRANCH   9  12
HETATM   12  C   UNL     1      -6.494   4.018  70.955  1.00  0.00    -0.026 C  
HETATM   13  H1  UNL     1      -5.028   5.356  70.538  1.00  0.00     0.000 HD 
HETATM   14  N   UNL     1      -5.400   4.450  70.250  1.00  0.00    -0.004 NA 
HETATM   15  H2  UNL     1      -4.987   3.906  69.493  1.00  0.00     0.000 HD 
BRANCH  12  16
HETATM   16  C   UNL     1      -7.064   4.918  72.007  1.00  0.00    -0.067 A  
HETATM   17  C   UNL     1      -8.018   4.468  72.920  1.00  0.00    -0.092 A  
HETATM   18  C   UNL     1      -8.831   5.399  73.575  1.00  0.00    -0.119 A  
HETATM   19  C   UNL     1      -8.625   6.776  73.415  1.00  0.00    -0.122 A  
HETATM   20  C   UNL     1      -7.550   7.202  72.631  1.00  0.00    -0.087 A  
HETATM   21  C   UNL     1      -6.778   6.283  71.920  1.00  0.00    -0.064 A  
BRANCH  19  22
HETATM   22  N   UNL     1      -9.644   7.647  73.843  1.00  0.00    -0.385 NA 
HETATM   23  H   UNL     1      -9.506   8.283  74.629  1.00  0.00     0.000 HD 
BRANCH  22  24
HETATM   24  C   UNL     1     -10.909   7.601  73.113  1.00  0.00    -0.382 C  
BRANCH  24  25
HETATM   25  C   UNL     1     -10.999   8.326  71.784  1.00  0.00    -0.278 A  
HETATM   26  N   UNL     1     -11.203   9.616  71.546  1.00  0.00    -0.362 NA 
HETATM   27  C   UNL     1     -11.125   9.780  70.169  1.00  0.00    -0.285 A  
HETATM   28  C   UNL     1     -10.861   8.554  69.563  1.00  0.00    -0.125 A  
HETATM   29  N   UNL     1     -10.850   7.645  70.595  1.00  0.00    -0.233 NA 
HETATM   30  C   UNL     1     -10.652   8.421  68.190  1.00  0.00    -0.175 A  
HETATM   31  C   UNL     1     -10.746   9.576  67.408  1.00  0.00    -0.297 A  
HETATM   32  C   UNL     1     -10.674   6.216  70.469  1.00  0.00    -0.278 C  
HETATM   33  C   UNL     1     -11.091  10.823  67.951  1.00  0.00    -0.369 A  
HETATM   34  C   UNL     1     -11.252  10.940  69.353  1.00  0.00    -0.335 A  
BRANCH  33  35
HETATM   35  C   UNL     1     -11.204  11.950  66.944  1.00  0.00    -0.325 C  
HETATM   36  N   UNL     1     -10.124  12.789  66.631  1.00  0.00    -0.239 N  
HETATM   37  O   UNL     1     -12.320  12.134  66.449  1.00  0.00    -0.489 OA 
BRANCH  36  38
HETATM   38  C   UNL     1      -8.831  12.565  67.133  1.00  0.00    -0.202 A  
HETATM   39  C   UNL     1      -6.269  12.244  68.024  1.00  0.00    -0.073 A  
HETATM   40  N   UNL     1      -8.448  13.248  68.237  1.00  0.00    -0.165 NA 
HETATM   41  C   UNL     1      -6.701  11.515  66.924  1.00  0.00    -0.139 A  
HETATM   42  C   UNL     1      -7.170  13.088  68.647  1.00  0.00    -0.101 A  
HETATM   43  C   UNL     1      -7.997  11.673  66.470  1.00  0.00    -0.053 A  
ENDBRANCH  36  38
BRANCH  36  44
HETATM   44  C   UNL     1     -10.207  13.761  65.527  1.00  0.00    -0.316 C  
BRANCH  44  45
HETATM   45  C   UNL     1      -9.873  15.229  65.830  1.00  0.00    -0.385 C  
BRANCH  45  46
HETATM   46  C   UNL     1     -10.532  15.918  67.013  1.00  0.00    -0.306 C  
HETATM   47  O   UNL     1     -11.529  15.554  67.614  1.00  0.00    -0.307 OA 
BRANCH  46  48
HETATM   48  O   UNL     1      -9.816  17.059  67.280  1.00  0.00    -0.249 OA 
BRANCH  48  49
HETATM   49  C   UNL     1     -10.267  17.959  68.310  1.00  0.00    -0.388 C  
HETATM   50  C   UNL     1     -10.394  19.374  67.777  1.00  0.00    -0.547 C  
ENDBRANCH  48  49
ENDBRANCH  46  48
ENDBRANCH  45  46
ENDBRANCH  44  45
ENDBRANCH  36  44
ENDBRANCH  33  35
ENDBRANCH  24  25
ENDBRANCH  22  24
ENDBRANCH  19  22
ENDBRANCH  12  16
ENDBRANCH   9  12
ENDBRANCH   7   8
ENDBRANCH   6   7
ENDBRANCH   5   6
ENDBRANCH   4   5
ENDBRANCH   3   4
ENDBRANCH   2   3
TORSDOF 18
ENDMDL
MODEL       45
REMARK 921   NORMALIZED FREE ENERGY PREDICTED BY IDOCK:   -4.62 KCAL/MOL
REMARK 922        TOTAL FREE ENERGY PREDICTED BY IDOCK:  -12.68 KCAL/MOL
REMARK 923 INTER-LIGAND FREE ENERGY PREDICTED BY IDOCK:  -11.45 KCAL/MOL
REMARK 924 INTRA-LIGAND FREE ENERGY PREDICTED BY IDOCK:   -1.23 KCAL/MOL
REMARK 927      BINDING AFFINITY PREDICTED BY RF-SCORE:    0.00 PKD
ROOT
HETATM    1  C   UNL     1      -6.503   5.548  73.865  1.00  0.00    -0.073 C  
HETATM    2  C   UNL     1      -7.787   4.807  73.528  1.00  0.00    -0.095 C  
ENDROOT
BRANCH   2   3
HETATM    3  C   UNL     1      -8.885   5.799  73.179  1.00  0.00    -0.122 C  
BRANCH   3   4
HETATM    4  C   UNL     1      -8.358   6.983  72.378  1.00  0.00    -0.120 C  
BRANCH   4   5
HETATM    5  C   UNL     1      -9.247   8.186  72.658  1.00  0.00    -0.332 C  
BRANCH   5   6
HETATM    6  C   UNL     1     -10.668   7.791  72.977  1.00  0.00    -0.384 C  
BRANCH   6   7
HETATM    7  O   UNL     1     -11.485   8.165  71.855  1.00  0.00    -0.266 OA 
BRANCH   7   8
HETATM    8  C   UNL     1     -12.372   7.221  71.438  1.00  0.00    -0.368 C  
HETATM    9  N   UNL     1     -12.242   6.897  70.121  1.00  0.00    -0.623 N  
HETATM   10  O   UNL     1     -13.216   6.717  72.172  1.00  0.00    -0.146 OA 
HETATM   11  H   UNL     1     -13.076   6.882  69.533  1.00  0.00     0.000 HD 
BRANCH   9  12
HETATM   12  C   UNL     1     -11.091   6.605  69.585  1.00  0.00    -0.334 C  
HETATM   13  H1  UNL     1      -9.785   5.075  69.322  1.00  0.00     0.000 HD 
HETATM   14  N   UNL     1     -10.686   5.304  69.742  1.00  0.00    -0.222 NA 
HETATM   15  H2  UNL     1     -11.246   4.614  70.243  1.00  0.00     0.000 HD 
BRANCH  12  16
HETATM   16  C   UNL     1     -10.228   7.526  68.780  1.00  0.00    -0.206 A  
HETATM   17  C   UNL     1     -10.495   8.893  68.691  1.00  0.00    -0.223 A  
HETATM   18  C   UNL     1      -9.968   9.625  67.623  1.00  0.00    -0.218 A  
HETATM   19  C   UNL     1      -9.086   9.035  66.708  1.00  0.00    -0.145 A  
HETATM   20  C   UNL     1      -8.696   7.710  66.919  1.00  0.00    -0.132 A  
HETATM   21  C   UNL     1      -9.269   6.952  67.940  1.00  0.00    -0.124 A  
BRANCH  19  22
HETATM   22  N   UNL     1      -8.834   9.717  65.503  1.00  0.00    -0.160 NA 
HETATM   23  H   UNL     1      -7.897   9.766  65.104  1.00  0.00     0.000 HD 
BRANCH  22  24
HETATM   24  C   UNL     1      -9.976  10.352  64.848  1.00  0.00    -0.339 C  
BRANCH  24  25
HETATM   25  C   UNL     1     -10.204  11.834  65.076  1.00  0.00    -0.272 A  
HETATM   26  N   UNL     1      -9.513  12.680  65.831  1.00  0.00    -0.154 NA 
HETATM   27  C   UNL     1     -10.082  13.933  65.639  1.00  0.00    -0.313 A  
HETATM   28  C   UNL     1     -11.141  13.836  64.741  1.00  0.00    -0.377 A  
HETATM   29  N   UNL     1     -11.238  12.496  64.451  1.00  0.00    -0.319 NA 
HETATM   30  C   UNL     1     -11.857  14.948  64.295  1.00  0.00    -0.312 A  
HETATM   31  C   UNL     1     -11.494  16.197  64.810  1.00  0.00    -0.168 A  
HETATM   32  C   UNL     1     -12.231  11.877  63.601  1.00  0.00    -0.479 C  
HETATM   33  C   UNL     1     -10.491  16.345  65.780  1.00  0.00    -0.369 A  
HETATM   34  C   UNL     1      -9.750  15.208  66.180  1.00  0.00    -0.338 A  
BRANCH  33  35
HETATM   35  C   UNL     1     -10.277  17.765  66.265  1.00  0.00    -0.364 C  
HETATM   36  N   UNL     1      -9.500  18.063  67.395  1.00  0.00    -0.260 N  
HETATM   37  O   UNL     1     -10.872  18.653  65.648  1.00  0.00    -0.430 OA 
BRANCH  36  38
HETATM   38  C   UNL     1      -8.765  17.080  68.080  1.00  0.00    -0.218 A  
HETATM   39  C   UNL     1      -7.293  15.277  69.509  1.00  0.00    -0.210 A  
HETATM   40  N   UNL     1      -9.375  16.413  69.087  1.00  0.00    -0.250 NA 
HETATM   41  C   UNL     1      -6.705  15.937  68.438  1.00  0.00    -0.116 A  
HETATM   42  C   UNL     1      -8.622  15.540  69.791  1.00  0.00     0.013 A  
HETATM   43  C   UNL     1      -7.445  16.850  67.711  1.00  0.00    -0.176 A  
ENDBRANCH  36  38
BRANCH  36  44
HETATM   44  C   UNL     1      -9.164  19.454  67.746  1.00  0.00    -0.318 C  
BRANCH  44  45
HETATM   45  C   UNL     1      -8.351  20.277  66.735  1.00  0.00    -0.317 C  
BRANCH  45  46
HETATM   46  C   UNL     1      -6.848  20.409  66.915  1.00  0.00    -0.258 C  
HETATM   47  O   UNL     1      -6.196  20.118  67.904  1.00  0.00    -0.214 OA 
BRANCH  46  48
HETATM   48  O   UNL     1      -6.339  20.947  65.758  1.00  0.00    -0.242 OA 
BRANCH  48  49
HETATM   49  C   UNL     1      -6.859  20.520  64.485  1.00  0.00    -0.021 C  
HETATM   50  C   UNL     1      -6.025  21.075  63.344  1.00  0.00    -0.338 C  
ENDBRANCH  48  49
ENDBRANCH  46  48
ENDBRANCH  45  46
ENDBRANCH  44  45
ENDBRANCH  36  44
ENDBRANCH  33  35
ENDBRANCH  24  25
ENDBRANCH  22  24
ENDBRANCH  19  22
ENDBRANCH  12  16
ENDBRANCH   9  12
ENDBRANCH   7   8
ENDBRANCH   6   7
ENDBRANCH   5   6
ENDBRANCH   4   5
ENDBRANCH   3   4
ENDBRANCH   2   3
TORSDOF 18
ENDMDL
MODEL       46
REMARK 921   NORMALIZED FREE ENERGY PREDICTED BY IDOCK:   -4.57 KCAL/MOL
REMARK 922        TOTAL FREE ENERGY PREDICTED BY IDOCK:  -12.58 KCAL/MOL
REMARK 923 INTER-LIGAND FREE ENERGY PREDICTED BY IDOCK:  -10.07 KCAL/MOL
REMARK 924 INTRA-LIGAND FREE ENERGY PREDICTED BY IDOCK:   -2.51 KCAL/MOL
REMARK 927      BINDING AFFINITY PREDICTED BY RF-SCORE:    0.00 PKD
ROOT
HETATM    1  C   UNL     1      -5.970  18.900  64.778  1.00  0.00    -0.301 C  
HETATM    2  C   UNL     1      -6.417  20.349  64.885  1.00  0.00    -0.340 C  
ENDROOT
BRANCH   2   3
HETATM    3  C   UNL     1      -5.676  21.041  66.018  1.00  0.00    -0.277 C  
BRANCH   3   4
HETATM    4  C   UNL     1      -5.321  20.080  67.146  1.00  0.00    -0.165 C  
BRANCH   4   5
HETATM    5  C   UNL     1      -6.291  20.310  68.295  1.00  0.00    -0.333 C  
BRANCH   5   6
HETATM    6  C   UNL     1      -7.365  19.251  68.363  1.00  0.00    -0.305 C  
BRANCH   6   7
HETATM    7  O   UNL     1      -8.544  19.789  67.742  1.00  0.00    -0.313 OA 
BRANCH   7   8
HETATM    8  C   UNL     1      -9.713  19.542  68.394  1.00  0.00    -0.410 C  
HETATM    9  N   UNL     1     -10.739  19.204  67.563  1.00  0.00    -0.473 N  
HETATM   10  O   UNL     1      -9.837  19.625  69.611  1.00  0.00    -0.248 OA 
HETATM   11  H   UNL     1     -11.636  19.679  67.669  1.00  0.00     0.000 HD 
BRANCH   9  12
HETATM   12  C   UNL     1     -10.616  18.294  66.638  1.00  0.00    -0.298 C  
HETATM   13  H1  UNL     1     -10.294  18.063  64.649  1.00  0.00     0.000 HD 
HETATM   14  N   UNL     1     -10.390  18.775  65.373  1.00  0.00    -0.337 NA 
HETATM   15  H2  UNL     1     -10.324  19.772  65.171  1.00  0.00     0.000 HD 
BRANCH  12  16
HETATM   16  C   UNL     1     -10.635  16.812  66.842  1.00  0.00    -0.219 A  
HETATM   17  C   UNL     1     -10.225  15.927  65.844  1.00  0.00    -0.373 A  
HETATM   18  C   UNL     1     -10.656  14.597  65.888  1.00  0.00    -0.319 A  
HETATM   19  C   UNL     1     -11.394  14.113  66.977  1.00  0.00    -0.332 A  
HETATM   20  C   UNL     1     -11.643  14.975  68.048  1.00  0.00    -0.356 A  
HETATM   21  C   UNL     1     -11.278  16.320  67.982  1.00  0.00    -0.260 A  
BRANCH  19  22
HETATM   22  N   UNL     1     -12.051  12.878  66.829  1.00  0.00    -0.444 NA 
HETATM   23  H   UNL     1     -13.001  12.735  67.171  1.00  0.00     0.000 HD 
BRANCH  22  24
HETATM   24  C   UNL     1     -11.311  11.807  66.163  1.00  0.00    -0.280 C  
BRANCH  24  25
HETATM   25  C   UNL     1     -10.359  10.967  66.992  1.00  0.00    -0.231 A  
HETATM   26  N   UNL     1     -10.166  10.970  68.305  1.00  0.00    -0.169 NA 
HETATM   27  C   UNL     1      -9.244   9.966  68.571  1.00  0.00    -0.136 A  
HETATM   28  C   UNL     1      -8.877   9.339  67.383  1.00  0.00    -0.117 A  
HETATM   29  N   UNL     1      -9.543  10.028  66.398  1.00  0.00    -0.185 NA 
HETATM   30  C   UNL     1      -8.021   8.238  67.345  1.00  0.00    -0.106 A  
HETATM   31  C   UNL     1      -7.499   7.783  68.561  1.00  0.00    -0.103 A  
HETATM   32  C   UNL     1      -9.442   9.792  64.975  1.00  0.00    -0.272 C  
HETATM   33  C   UNL     1      -7.768   8.427  69.778  1.00  0.00    -0.093 A  
HETATM   34  C   UNL     1      -8.676   9.512  69.795  1.00  0.00    -0.204 A  
BRANCH  33  35
HETATM   35  C   UNL     1      -7.068   7.831  70.984  1.00  0.00    -0.053 C  
HETATM   36  N   UNL     1      -7.771   7.210  72.028  1.00  0.00    -0.090 N  
HETATM   37  O   UNL     1      -5.843   7.970  71.032  1.00  0.00    -0.033 OA 
BRANCH  36  38
HETATM   38  C   UNL     1      -9.156   6.985  71.970  1.00  0.00    -0.131 A  
HETATM   39  C   UNL     1     -11.834   6.447  71.969  1.00  0.00    -0.382 A  
HETATM   40  N   UNL     1      -9.956   7.718  72.779  1.00  0.00    -0.235 NA 
HETATM   41  C   UNL     1     -11.000   5.744  71.110  1.00  0.00    -0.295 A  
HETATM   42  C   UNL     1     -11.274   7.421  72.776  1.00  0.00    -0.332 A  
HETATM   43  C   UNL     1      -9.644   6.013  71.105  1.00  0.00    -0.195 A  
ENDBRANCH  36  38
BRANCH  36  44
HETATM   44  C   UNL     1      -7.063   6.487  73.100  1.00  0.00    -0.078 C  
BRANCH  44  45
HETATM   45  C   UNL     1      -6.230   5.257  72.713  1.00  0.00    -0.039 C  
BRANCH  45  46
HETATM   46  C   UNL     1      -6.844   4.185  71.829  1.00  0.00    -0.030 C  
HETATM   47  O   UNL     1      -7.679   3.356  72.149  1.00  0.00    -0.056 OA 
BRANCH  46  48
HETATM   48  O   UNL     1      -6.269   4.294  70.586  1.00  0.00    -0.017 OA 
BRANCH  48  49
HETATM   49  C   UNL     1      -6.740   3.464  69.508  1.00  0.00    -0.034 C  
HETATM   50  C   UNL     1      -7.795   4.185  68.690  1.00  0.00    -0.072 C  
ENDBRANCH  48  49
ENDBRANCH  46  48
ENDBRANCH  45  46
ENDBRANCH  44  45
ENDBRANCH  36  44
ENDBRANCH  33  35
ENDBRANCH  24  25
ENDBRANCH  22  24
ENDBRANCH  19  22
ENDBRANCH  12  16
ENDBRANCH   9  12
ENDBRANCH   7   8
ENDBRANCH   6   7
ENDBRANCH   5   6
ENDBRANCH   4   5
ENDBRANCH   3   4
ENDBRANCH   2   3
TORSDOF 18
ENDMDL
MODEL       47
REMARK 921   NORMALIZED FREE ENERGY PREDICTED BY IDOCK:   -4.46 KCAL/MOL
REMARK 922        TOTAL FREE ENERGY PREDICTED BY IDOCK:  -12.35 KCAL/MOL
REMARK 923 INTER-LIGAND FREE ENERGY PREDICTED BY IDOCK:  -10.04 KCAL/MOL
REMARK 924 INTRA-LIGAND FREE ENERGY PREDICTED BY IDOCK:   -2.31 KCAL/MOL
REMARK 927      BINDING AFFINITY PREDICTED BY RF-SCORE:    0.00 PKD
ROOT
HETATM    1  C   UNL     1      -6.085  18.998  64.840  1.00  0.00    -0.307 C  
HETATM    2  C   UNL     1      -6.531  20.447  64.944  1.00  0.00    -0.340 C  
ENDROOT
BRANCH   2   3
HETATM    3  C   UNL     1      -5.813  21.133  66.095  1.00  0.00    -0.310 C  
BRANCH   3   4
HETATM    4  C   UNL     1      -5.502  20.170  67.235  1.00  0.00    -0.181 C  
BRANCH   4   5
HETATM    5  C   UNL     1      -6.554  20.353  68.318  1.00  0.00    -0.327 C  
BRANCH   5   6
HETATM    6  C   UNL     1      -7.517  19.192  68.389  1.00  0.00    -0.307 C  
BRANCH   6   7
HETATM    7  O   UNL     1      -8.649  19.516  67.566  1.00  0.00    -0.292 OA 
BRANCH   7   8
HETATM    8  C   UNL     1      -9.865  19.370  68.160  1.00  0.00    -0.393 C  
HETATM    9  N   UNL     1     -10.748  18.642  67.420  1.00  0.00    -0.435 N  
HETATM   10  O   UNL     1     -10.145  19.855  69.251  1.00  0.00    -0.389 OA 
HETATM   11  H   UNL     1     -11.688  19.012  67.272  1.00  0.00     0.000 HD 
BRANCH   9  12
HETATM   12  C   UNL     1     -10.436  17.491  66.896  1.00  0.00    -0.285 C  
HETATM   13  H1  UNL     1      -9.715  16.643  65.201  1.00  0.00     0.000 HD 
HETATM   14  N   UNL     1      -9.960  17.544  65.611  1.00  0.00    -0.565 NA 
HETATM   15  H2  UNL     1      -9.857  18.422  65.102  1.00  0.00     0.000 HD 
BRANCH  12  16
HETATM   16  C   UNL     1     -10.491  16.160  67.580  1.00  0.00    -0.302 A  
HETATM   17  C   UNL     1     -11.014  15.031  66.948  1.00  0.00    -0.324 A  
HETATM   18  C   UNL     1     -11.450  13.953  67.725  1.00  0.00    -0.354 A  
HETATM   19  C   UNL     1     -11.265  13.942  69.114  1.00  0.00    -0.269 A  
HETATM   20  C   UNL     1     -10.582  15.009  69.702  1.00  0.00    -0.252 A  
HETATM   21  C   UNL     1     -10.205  16.118  68.947  1.00  0.00    -0.245 A  
BRANCH  19  22
HETATM   22  N   UNL     1     -11.984  12.994  69.865  1.00  0.00    -0.345 NA 
HETATM   23  H   UNL     1     -12.425  13.241  70.752  1.00  0.00     0.000 HD 
BRANCH  22  24
HETATM   24  C   UNL     1     -12.070  11.640  69.321  1.00  0.00    -0.259 C  
BRANCH  24  25
HETATM   25  C   UNL     1     -10.944  10.670  69.622  1.00  0.00    -0.278 A  
HETATM   26  N   UNL     1     -10.539  10.196  70.794  1.00  0.00    -0.148 NA 
HETATM   27  C   UNL     1      -9.524   9.287  70.521  1.00  0.00    -0.264 A  
HETATM   28  C   UNL     1      -9.318   9.210  69.146  1.00  0.00    -0.152 A  
HETATM   29  N   UNL     1     -10.180  10.136  68.607  1.00  0.00    -0.168 NA 
HETATM   30  C   UNL     1      -8.413   8.321  68.567  1.00  0.00    -0.126 A  
HETATM   31  C   UNL     1      -7.671   7.504  69.428  1.00  0.00    -0.111 A  
HETATM   32  C   UNL     1     -10.299  10.475  67.206  1.00  0.00    -0.228 C  
HETATM   33  C   UNL     1      -7.776   7.597  70.824  1.00  0.00    -0.085 A  
HETATM   34  C   UNL     1      -8.736   8.474  71.383  1.00  0.00    -0.237 A  
BRANCH  33  35
HETATM   35  C   UNL     1      -6.852   6.676  71.596  1.00  0.00    -0.066 C  
HETATM   36  N   UNL     1      -7.331   5.725  72.509  1.00  0.00    -0.093 N  
HETATM   37  O   UNL     1      -5.641   6.844  71.426  1.00  0.00    -0.027 OA 
BRANCH  36  38
HETATM   38  C   UNL     1      -8.703   5.472  72.677  1.00  0.00    -0.123 A  
HETATM   39  C   UNL     1     -11.396   5.125  72.970  1.00  0.00    -0.381 A  
HETATM   40  N   UNL     1      -9.421   5.096  71.594  1.00  0.00    -0.147 NA 
HETATM   41  C   UNL     1     -10.631   5.460  74.079  1.00  0.00    -0.305 A  
HETATM   42  C   UNL     1     -10.753   4.949  71.758  1.00  0.00    -0.026 A  
HETATM   43  C   UNL     1      -9.267   5.636  73.937  1.00  0.00    -0.126 A  
ENDBRANCH  36  38
BRANCH  36  44
HETATM   44  C   UNL     1      -6.432   4.728  73.116  1.00  0.00    -0.051 C  
BRANCH  44  45
HETATM   45  C   UNL     1      -6.866   3.255  73.095  1.00  0.00    -0.038 C  
BRANCH  45  46
HETATM   46  C   UNL     1      -7.070   2.554  71.762  1.00  0.00    -0.035 C  
HETATM   47  O   UNL     1      -6.338   2.599  70.787  1.00  0.00    -0.022 OA 
BRANCH  46  48
HETATM   48  O   UNL     1      -8.258   1.868  71.832  1.00  0.00    -0.047 OA 
BRANCH  48  49
HETATM   49  C   UNL     1      -8.965   1.795  73.085  1.00  0.00    -0.066 C  
HETATM   50  C   UNL     1     -10.444   1.542  72.859  1.00  0.00    -0.213 C  
ENDBRANCH  48  49
ENDBRANCH  46  48
ENDBRANCH  45  46
ENDBRANCH  44  45
ENDBRANCH  36  44
ENDBRANCH  33  35
ENDBRANCH  24  25
ENDBRANCH  22  24
ENDBRANCH  19  22
ENDBRANCH  12  16
ENDBRANCH   9  12
ENDBRANCH   7   8
ENDBRANCH   6   7
ENDBRANCH   5   6
ENDBRANCH   4   5
ENDBRANCH   3   4
ENDBRANCH   2   3
TORSDOF 18
ENDMDL
MODEL       48
REMARK 921   NORMALIZED FREE ENERGY PREDICTED BY IDOCK:   -4.43 KCAL/MOL
REMARK 922        TOTAL FREE ENERGY PREDICTED BY IDOCK:  -12.29 KCAL/MOL
REMARK 923 INTER-LIGAND FREE ENERGY PREDICTED BY IDOCK:  -10.04 KCAL/MOL
REMARK 924 INTRA-LIGAND FREE ENERGY PREDICTED BY IDOCK:   -2.25 KCAL/MOL
REMARK 927      BINDING AFFINITY PREDICTED BY RF-SCORE:    0.00 PKD
ROOT
HETATM    1  C   UNL     1     -14.333  14.470  71.862  1.00  0.00    -0.647 C  
HETATM    2  C   UNL     1     -14.004  15.713  72.671  1.00  0.00    -0.608 C  
ENDROOT
BRANCH   2   3
HETATM    3  C   UNL     1     -12.518  16.019  72.577  1.00  0.00    -0.558 C  
BRANCH   3   4
HETATM    4  C   UNL     1     -11.724  14.850  72.007  1.00  0.00    -0.368 C  
BRANCH   4   5
HETATM    5  C   UNL     1     -11.158  15.267  70.658  1.00  0.00    -0.341 C  
BRANCH   5   6
HETATM    6  C   UNL     1     -11.008  16.763  70.532  1.00  0.00     0.224 C  
BRANCH   6   7
HETATM    7  O   UNL     1     -11.036  17.087  69.133  1.00  0.00    -0.234 OA 
BRANCH   7   8
HETATM    8  C   UNL     1     -10.193  18.082  68.746  1.00  0.00    -0.354 C  
HETATM    9  N   UNL     1      -8.878  17.725  68.774  1.00  0.00    -0.249 N  
HETATM   10  O   UNL     1     -10.577  19.199  68.413  1.00  0.00    -0.287 OA 
HETATM   11  H   UNL     1      -8.210  18.343  69.236  1.00  0.00     0.000 HD 
BRANCH   9  12
HETATM   12  C   UNL     1      -8.444  16.622  68.233  1.00  0.00    -0.203 C  
HETATM   13  H1  UNL     1      -7.178  15.070  68.550  1.00  0.00     0.000 HD 
HETATM   14  N   UNL     1      -7.518  15.933  68.973  1.00  0.00    -0.180 NA 
HETATM   15  H2  UNL     1      -7.192  16.261  69.883  1.00  0.00     0.000 HD 
BRANCH  12  16
HETATM   16  C   UNL     1      -8.904  16.028  66.938  1.00  0.00    -0.258 A  
HETATM   17  C   UNL     1      -9.684  16.750  66.034  1.00  0.00    -0.287 A  
HETATM   18  C   UNL     1     -10.445  16.062  65.084  1.00  0.00    -0.331 A  
HETATM   19  C   UNL     1     -10.348  14.670  64.952  1.00  0.00    -0.350 A  
HETATM   20  C   UNL     1      -9.428  13.988  65.753  1.00  0.00    -0.043 A  
HETATM   21  C   UNL     1      -8.717  14.656  66.749  1.00  0.00    -0.233 A  
BRANCH  19  22
HETATM   22  N   UNL     1     -11.342  14.009  64.207  1.00  0.00    -0.590 NA 
HETATM   23  H   UNL     1     -11.331  14.008  63.187  1.00  0.00     0.000 HD 
BRANCH  22  24
HETATM   24  C   UNL     1     -12.392  13.325  64.960  1.00  0.00    -0.448 C  
BRANCH  24  25
HETATM   25  C   UNL     1     -11.980  12.370  66.064  1.00  0.00    -0.350 A  
HETATM   26  N   UNL     1     -11.539  11.122  65.969  1.00  0.00     0.009 NA 
HETATM   27  C   UNL     1     -11.230  10.714  67.261  1.00  0.00    -0.161 A  
HETATM   28  C   UNL     1     -11.490  11.749  68.155  1.00  0.00    -0.316 A  
HETATM   29  N   UNL     1     -12.020  12.757  67.385  1.00  0.00    -0.393 NA 
HETATM   30  C   UNL     1     -11.203  11.659  69.518  1.00  0.00    -0.282 A  
HETATM   31  C   UNL     1     -10.661  10.456  69.985  1.00  0.00    -0.321 A  
HETATM   32  C   UNL     1     -12.507  14.031  67.867  1.00  0.00     0.246 C  
HETATM   33  C   UNL     1     -10.457   9.351  69.145  1.00  0.00    -0.230 A  
HETATM   34  C   UNL     1     -10.712   9.486  67.759  1.00  0.00    -0.302 A  
BRANCH  33  35
HETATM   35  C   UNL     1      -9.919   8.114  69.837  1.00  0.00    -0.190 C  
HETATM   36  N   UNL     1      -8.550   7.806  69.866  1.00  0.00    -0.136 N  
HETATM   37  O   UNL     1     -10.756   7.352  70.329  1.00  0.00    -0.227 OA 
BRANCH  36  38
HETATM   38  C   UNL     1      -7.573   8.684  69.368  1.00  0.00    -0.092 A  
HETATM   39  C   UNL     1      -5.568  10.289  68.439  1.00  0.00    -0.037 A  
HETATM   40  N   UNL     1      -7.190   8.546  68.077  1.00  0.00    -0.086 NA 
HETATM   41  C   UNL     1      -6.015  10.447  69.744  1.00  0.00    -0.053 A  
HETATM   42  C   UNL     1      -6.184   9.338  67.646  1.00  0.00    -0.058 A  
HETATM   43  C   UNL     1      -7.030   9.638  70.219  1.00  0.00    -0.119 A  
ENDBRANCH  36  38
BRANCH  36  44
HETATM   44  C   UNL     1      -8.035   6.697  70.689  1.00  0.00    -0.111 C  
BRANCH  44  45
HETATM   45  C   UNL     1      -8.280   5.262  70.201  1.00  0.00    -0.091 C  
BRANCH  45  46
HETATM   46  C   UNL     1      -7.416   4.692  69.088  1.00  0.00    -0.056 C  
HETATM   47  O   UNL     1      -6.210   4.818  68.955  1.00  0.00    -0.029 OA 
BRANCH  46  48
HETATM   48  O   UNL     1      -8.245   4.020  68.223  1.00  0.00    -0.089 OA 
BRANCH  48  49
HETATM   49  C   UNL     1      -8.158   4.276  66.809  1.00  0.00    -0.101 C  
HETATM   50  C   UNL     1      -8.766   5.623  66.463  1.00  0.00    -0.121 C  
ENDBRANCH  48  49
ENDBRANCH  46  48
ENDBRANCH  45  46
ENDBRANCH  44  45
ENDBRANCH  36  44
ENDBRANCH  33  35
ENDBRANCH  24  25
ENDBRANCH  22  24
ENDBRANCH  19  22
ENDBRANCH  12  16
ENDBRANCH   9  12
ENDBRANCH   7   8
ENDBRANCH   6   7
ENDBRANCH   5   6
ENDBRANCH   4   5
ENDBRANCH   3   4
ENDBRANCH   2   3
TORSDOF 18
ENDMDL
MODEL       49
REMARK 921   NORMALIZED FREE ENERGY PREDICTED BY IDOCK:   -4.42 KCAL/MOL
REMARK 922        TOTAL FREE ENERGY PREDICTED BY IDOCK:  -12.28 KCAL/MOL
REMARK 923 INTER-LIGAND FREE ENERGY PREDICTED BY IDOCK:   -8.83 KCAL/MOL
REMARK 924 INTRA-LIGAND FREE ENERGY PREDICTED BY IDOCK:   -3.44 KCAL/MOL
REMARK 927      BINDING AFFINITY PREDICTED BY RF-SCORE:    0.00 PKD
ROOT
HETATM    1  C   UNL     1      -9.897   3.855  64.664  1.00  0.00    -0.193 C  
HETATM    2  C   UNL     1      -9.573   4.929  65.688  1.00  0.00    -0.168 C  
ENDROOT
BRANCH   2   3
HETATM    3  C   UNL     1     -10.850   5.416  66.354  1.00  0.00    -0.202 C  
BRANCH   3   4
HETATM    4  C   UNL     1     -10.576   6.459  67.431  1.00  0.00    -0.363 C  
BRANCH   4   5
HETATM    5  C   UNL     1     -10.843   5.829  68.789  1.00  0.00    -0.285 C  
BRANCH   5   6
HETATM    6  C   UNL     1      -9.597   5.250  69.412  1.00  0.00    -0.156 C  
BRANCH   6   7
HETATM    7  O   UNL     1      -9.858   3.866  69.700  1.00  0.00    -0.194 OA 
BRANCH   7   8
HETATM    8  C   UNL     1      -9.693   3.497  70.999  1.00  0.00    -0.155 C  
HETATM    9  N   UNL     1      -8.620   2.682  71.202  1.00  0.00    -0.062 N  
HETATM   10  O   UNL     1     -10.443   3.855  71.902  1.00  0.00    -0.057 OA 
HETATM   11  H   UNL     1      -8.747   1.827  71.745  1.00  0.00     0.000 HD 
BRANCH   9  12
HETATM   12  C   UNL     1      -7.438   2.955  70.728  1.00  0.00    -0.036 C  
HETATM   13  H1  UNL     1      -6.133   2.425  69.268  1.00  0.00     0.000 HD 
HETATM   14  N   UNL     1      -7.059   2.211  69.639  1.00  0.00    -0.033 NA 
HETATM   15  H2  UNL     1      -7.660   1.496  69.230  1.00  0.00     0.000 HD 
BRANCH  12  16
HETATM   16  C   UNL     1      -6.511   4.024  71.216  1.00  0.00    -0.018 A  
HETATM   17  C   UNL     1      -6.411   4.349  72.569  1.00  0.00    -0.022 A  
HETATM   18  C   UNL     1      -5.899   5.597  72.938  1.00  0.00    -0.035 A  
HETATM   19  C   UNL     1      -5.379   6.476  71.979  1.00  0.00    -0.031 A  
HETATM   20  C   UNL     1      -5.330   6.055  70.648  1.00  0.00    -0.013 A  
HETATM   21  C   UNL     1      -5.901   4.843  70.261  1.00  0.00    -0.017 A  
BRANCH  19  22
HETATM   22  N   UNL     1      -5.165   7.814  72.360  1.00  0.00    -0.036 NA 
HETATM   23  H   UNL     1      -4.247   8.250  72.278  1.00  0.00     0.000 HD 
BRANCH  22  24
HETATM   24  C   UNL     1      -6.316   8.549  72.879  1.00  0.00    -0.084 C  
BRANCH  24  25
HETATM   25  C   UNL     1      -7.377   9.012  71.898  1.00  0.00     0.155 A  
HETATM   26  N   UNL     1      -7.229   9.680  70.760  1.00  0.00    -0.282 NA 
HETATM   27  C   UNL     1      -8.497   9.792  70.203  1.00  0.00    -0.174 A  
HETATM   28  C   UNL     1      -9.430   9.170  71.028  1.00  0.00    -0.274 A  
HETATM   29  N   UNL     1      -8.710   8.743  72.118  1.00  0.00    -0.391 NA 
HETATM   30  C   UNL     1     -10.779   9.054  70.689  1.00  0.00    -0.292 A  
HETATM   31  C   UNL     1     -11.190   9.622  69.478  1.00  0.00    -0.144 A  
HETATM   32  C   UNL     1      -9.246   8.086  73.289  1.00  0.00    -0.278 C  
HETATM   33  C   UNL     1     -10.312  10.333  68.647  1.00  0.00    -0.203 A  
HETATM   34  C   UNL     1      -8.940  10.395  68.992  1.00  0.00    -0.184 A  
BRANCH  33  35
HETATM   35  C   UNL     1     -10.947  10.930  67.407  1.00  0.00    -0.293 C  
HETATM   36  N   UNL     1     -10.300  10.936  66.161  1.00  0.00    -0.248 N  
HETATM   37  O   UNL     1     -12.047  11.468  67.558  1.00  0.00    -0.614 OA 
BRANCH  36  38
HETATM   38  C   UNL     1      -9.077  10.279  65.948  1.00  0.00    -0.163 A  
HETATM   39  C   UNL     1      -6.713   9.032  65.386  1.00  0.00    -0.072 A  
HETATM   40  N   UNL     1      -7.944  11.020  65.962  1.00  0.00    -0.133 NA 
HETATM   41  C   UNL     1      -7.882   8.283  65.430  1.00  0.00    -0.113 A  
HETATM   42  C   UNL     1      -6.790  10.385  65.662  1.00  0.00    -0.133 A  
HETATM   43  C   UNL     1      -9.081   8.909  65.715  1.00  0.00    -0.276 A  
ENDBRANCH  36  38
BRANCH  36  44
HETATM   44  C   UNL     1     -11.004  11.362  64.939  1.00  0.00    -0.216 C  
BRANCH  44  45
HETATM   45  C   UNL     1     -10.791  12.801  64.447  1.00  0.00    -0.395 C  
BRANCH  45  46
HETATM   46  C   UNL     1     -11.989  13.628  64.012  1.00  0.00    -0.431 C  
HETATM   47  O   UNL     1     -12.709  13.430  63.046  1.00  0.00    -0.631 OA 
BRANCH  46  48
HETATM   48  O   UNL     1     -12.113  14.674  64.894  1.00  0.00    -0.401 OA 
BRANCH  48  49
HETATM   49  C   UNL     1     -11.211  14.773  66.012  1.00  0.00    -0.341 C  
HETATM   50  C   UNL     1     -11.975  14.844  67.321  1.00  0.00    -0.149 C  
ENDBRANCH  48  49
ENDBRANCH  46  48
ENDBRANCH  45  46
ENDBRANCH  44  45
ENDBRANCH  36  44
ENDBRANCH  33  35
ENDBRANCH  24  25
ENDBRANCH  22  24
ENDBRANCH  19  22
ENDBRANCH  12  16
ENDBRANCH   9  12
ENDBRANCH   7   8
ENDBRANCH   6   7
ENDBRANCH   5   6
ENDBRANCH   4   5
ENDBRANCH   3   4
ENDBRANCH   2   3
TORSDOF 18
ENDMDL
MODEL       50
REMARK 921   NORMALIZED FREE ENERGY PREDICTED BY IDOCK:   -4.35 KCAL/MOL
REMARK 922        TOTAL FREE ENERGY PREDICTED BY IDOCK:  -12.13 KCAL/MOL
REMARK 923 INTER-LIGAND FREE ENERGY PREDICTED BY IDOCK:   -9.77 KCAL/MOL
REMARK 924 INTRA-LIGAND FREE ENERGY PREDICTED BY IDOCK:   -2.36 KCAL/MOL
REMARK 927      BINDING AFFINITY PREDICTED BY RF-SCORE:    0.00 PKD
ROOT
HETATM    1  C   UNL     1     -14.268   8.726  72.116  1.00  0.00    -0.504 C  
HETATM    2  C   UNL     1     -13.792   7.354  71.670  1.00  0.00    -0.490 C  
ENDROOT
BRANCH   2   3
HETATM    3  C   UNL     1     -12.314   7.186  71.986  1.00  0.00    -0.298 C  
BRANCH   3   4
HETATM    4  C   UNL     1     -11.481   6.947  70.734  1.00  0.00    -0.381 C  
BRANCH   4   5
HETATM    5  C   UNL     1     -11.010   5.500  70.739  1.00  0.00    -0.193 C  
BRANCH   5   6
HETATM    6  C   UNL     1     -10.098   5.195  71.903  1.00  0.00    -0.197 C  
BRANCH   6   7
HETATM    7  O   UNL     1      -8.750   5.177  71.405  1.00  0.00    -0.125 OA 
BRANCH   7   8
HETATM    8  C   UNL     1      -7.873   5.981  72.065  1.00  0.00    -0.106 C  
HETATM    9  N   UNL     1      -7.088   6.726  71.236  1.00  0.00    -0.074 N  
HETATM   10  O   UNL     1      -7.787   6.026  73.288  1.00  0.00    -0.104 OA 
HETATM   11  H   UNL     1      -6.080   6.739  71.394  1.00  0.00     0.000 HD 
BRANCH   9  12
HETATM   12  C   UNL     1      -7.579   7.421  70.249  1.00  0.00    -0.088 C  
HETATM   13  H1  UNL     1      -8.331   9.248  69.792  1.00  0.00     0.000 HD 
HETATM   14  N   UNL     1      -7.947   8.704  70.564  1.00  0.00    -0.096 NA 
HETATM   15  H2  UNL     1      -7.844   9.087  71.504  1.00  0.00     0.000 HD 
BRANCH  12  16
HETATM   16  C   UNL     1      -7.711   6.972  68.828  1.00  0.00    -0.110 A  
HETATM   17  C   UNL     1      -6.603   6.858  67.987  1.00  0.00    -0.059 A  
HETATM   18  C   UNL     1      -6.791   6.871  66.601  1.00  0.00    -0.064 A  
HETATM   19  C   UNL     1      -8.078   6.881  66.047  1.00  0.00    -0.119 A  
HETATM   20  C   UNL     1      -9.174   6.819  66.910  1.00  0.00    -0.162 A  
HETATM   21  C   UNL     1      -8.999   6.875  68.292  1.00  0.00    -0.124 A  
BRANCH  19  22
HETATM   22  N   UNL     1      -8.203   7.200  64.682  1.00  0.00    -0.297 NA 
HETATM   23  H   UNL     1      -8.607   6.540  64.016  1.00  0.00     0.000 HD 
BRANCH  22  24
HETATM   24  C   UNL     1      -7.730   8.516  64.260  1.00  0.00    -0.130 C  
BRANCH  24  25
HETATM   25  C   UNL     1      -8.537   9.735  64.664  1.00  0.00    -0.184 A  
HETATM   26  N   UNL     1      -8.618  10.330  65.848  1.00  0.00    -0.146 NA 
HETATM   27  C   UNL     1      -9.429  11.444  65.674  1.00  0.00    -0.230 A  
HETATM   28  C   UNL     1      -9.842  11.523  64.347  1.00  0.00    -0.241 A  
HETATM   29  N   UNL     1      -9.320  10.402  63.747  1.00  0.00    -0.265 NA 
HETATM   30  C   UNL     1     -10.605  12.583  63.856  1.00  0.00    -0.472 A  
HETATM   31  C   UNL     1     -10.984  13.579  64.761  1.00  0.00    -0.382 A  
HETATM   32  C   UNL     1      -9.520   9.999  62.373  1.00  0.00    -0.188 C  
HETATM   33  C   UNL     1     -10.668  13.510  66.127  1.00  0.00    -0.289 A  
HETATM   34  C   UNL     1      -9.853  12.449  66.589  1.00  0.00    -0.231 A  
BRANCH  33  35
HETATM   35  C   UNL     1     -11.213  14.648  66.967  1.00  0.00    -0.344 C  
HETATM   36  N   UNL     1     -10.390  15.438  67.784  1.00  0.00    -0.249 N  
HETATM   37  O   UNL     1     -12.436  14.812  66.944  1.00  0.00    -0.027 OA 
BRANCH  36  38
HETATM   38  C   UNL     1      -8.991  15.313  67.784  1.00  0.00    -0.177 A  
HETATM   39  C   UNL     1      -6.262  15.200  67.860  1.00  0.00    -0.172 A  
HETATM   40  N   UNL     1      -8.405  14.688  68.832  1.00  0.00    -0.161 NA 
HETATM   41  C   UNL     1      -6.887  15.790  66.769  1.00  0.00     0.251 A  
HETATM   42  C   UNL     1      -7.055  14.661  68.857  1.00  0.00    -0.117 A  
HETATM   43  C   UNL     1      -8.268  15.849  66.725  1.00  0.00    -0.307 A  
ENDBRANCH  36  38
BRANCH  36  44
HETATM   44  C   UNL     1     -10.911  16.643  68.454  1.00  0.00    -0.361 C  
BRANCH  44  45
HETATM   45  C   UNL     1     -10.703  18.000  67.765  1.00  0.00    -0.350 C  
BRANCH  45  46
HETATM   46  C   UNL     1      -9.937  19.096  68.486  1.00  0.00    -0.425 C  
HETATM   47  O   UNL     1     -10.081  19.455  69.643  1.00  0.00    -0.168 OA 
BRANCH  46  48
HETATM   48  O   UNL     1      -9.054  19.643  67.588  1.00  0.00    -0.312 OA 
BRANCH  48  49
HETATM   49  C   UNL     1      -7.657  19.736  67.929  1.00  0.00    -0.296 C  
HETATM   50  C   UNL     1      -6.790  19.670  66.685  1.00  0.00    -0.210 C  
ENDBRANCH  48  49
ENDBRANCH  46  48
ENDBRANCH  45  46
ENDBRANCH  44  45
ENDBRANCH  36  44
ENDBRANCH  33  35
ENDBRANCH  24  25
ENDBRANCH  22  24
ENDBRANCH  19  22
ENDBRANCH  12  16
ENDBRANCH   9  12
ENDBRANCH   7   8
ENDBRANCH   6   7
ENDBRANCH   5   6
ENDBRANCH   4   5
ENDBRANCH   3   4
ENDBRANCH   2   3
TORSDOF 18
ENDMDL
MODEL       51
REMARK 921   NORMALIZED FREE ENERGY PREDICTED BY IDOCK:   -4.30 KCAL/MOL
REMARK 922        TOTAL FREE ENERGY PREDICTED BY IDOCK:  -12.03 KCAL/MOL
REMARK 923 INTER-LIGAND FREE ENERGY PREDICTED BY IDOCK:   -9.08 KCAL/MOL
REMARK 924 INTRA-LIGAND FREE ENERGY PREDICTED BY IDOCK:   -2.95 KCAL/MOL
REMARK 927      BINDING AFFINITY PREDICTED BY RF-SCORE:    0.00 PKD
ROOT
HETATM    1  C   UNL     1     -12.222  12.730  64.072  1.00  0.00    -0.518 C  
HETATM    2  C   UNL     1     -10.876  12.130  63.702  1.00  0.00    -0.523 C  
ENDROOT
BRANCH   2   3
HETATM    3  C   UNL     1     -10.550  10.969  64.628  1.00  0.00    -0.369 C  
BRANCH   3   4
HETATM    4  C   UNL     1      -9.439  10.085  64.074  1.00  0.00    -0.299 C  
BRANCH   4   5
HETATM    5  C   UNL     1      -8.703   9.450  65.243  1.00  0.00    -0.204 C  
BRANCH   5   6
HETATM    6  C   UNL     1      -8.651   7.945  65.144  1.00  0.00    -0.027 C  
BRANCH   6   7
HETATM    7  O   UNL     1      -8.949   7.414  66.446  1.00  0.00    -0.151 OA 
BRANCH   7   8
HETATM    8  C   UNL     1     -10.272   7.325  66.753  1.00  0.00    -0.235 C  
HETATM    9  N   UNL     1     -10.871   6.203  66.264  1.00  0.00    -0.571 N  
HETATM   10  O   UNL     1     -10.873   8.178  67.398  1.00  0.00    -0.226 OA 
HETATM   11  H   UNL     1     -11.751   6.296  65.756  1.00  0.00     0.000 HD 
BRANCH   9  12
HETATM   12  C   UNL     1     -10.359   5.015  66.423  1.00  0.00    -0.294 C  
HETATM   13  H1  UNL     1     -10.220   3.197  65.536  1.00  0.00     0.000 HD 
HETATM   14  N   UNL     1     -10.620   4.126  65.412  1.00  0.00    -0.505 NA 
HETATM   15  H2  UNL     1     -11.175   4.377  64.593  1.00  0.00     0.000 HD 
BRANCH  12  16
HETATM   16  C   UNL     1      -9.483   4.570  67.552  1.00  0.00    -0.193 A  
HETATM   17  C   UNL     1      -9.958   4.485  68.862  1.00  0.00    -0.131 A  
HETATM   18  C   UNL     1      -9.047   4.501  69.923  1.00  0.00    -0.165 A  
HETATM   19  C   UNL     1      -7.666   4.483  69.689  1.00  0.00    -0.054 A  
HETATM   20  C   UNL     1      -7.216   4.391  68.369  1.00  0.00    -0.060 A  
HETATM   21  C   UNL     1      -8.113   4.445  67.304  1.00  0.00    -0.101 A  
BRANCH  19  22
HETATM   22  N   UNL     1      -6.813   4.805  70.761  1.00  0.00    -0.035 NA 
HETATM   23  H   UNL     1      -6.628   4.140  71.512  1.00  0.00     0.000 HD 
BRANCH  22  24
HETATM   24  C   UNL     1      -6.205   6.134  70.751  1.00  0.00    -0.039 C  
BRANCH  24  25
HETATM   25  C   UNL     1      -7.084   7.325  70.422  1.00  0.00    -0.065 A  
HETATM   26  N   UNL     1      -7.019   8.152  69.386  1.00  0.00    -0.050 NA 
HETATM   27  C   UNL     1      -8.093   9.025  69.511  1.00  0.00    -0.105 A  
HETATM   28  C   UNL     1      -8.825   8.709  70.652  1.00  0.00    -0.167 A  
HETATM   29  N   UNL     1      -8.134   7.678  71.242  1.00  0.00    -0.094 NA 
HETATM   30  C   UNL     1     -10.006   9.367  70.997  1.00  0.00    -0.334 A  
HETATM   31  C   UNL     1     -10.435  10.403  70.160  1.00  0.00    -0.185 A  
HETATM   32  C   UNL     1      -8.466   7.036  72.495  1.00  0.00    -0.112 C  
HETATM   33  C   UNL     1      -9.695  10.820  69.044  1.00  0.00    -0.201 A  
HETATM   34  C   UNL     1      -8.525  10.105  68.691  1.00  0.00    -0.122 A  
BRANCH  33  35
HETATM   35  C   UNL     1     -10.283  11.997  68.290  1.00  0.00    -0.206 C  
HETATM   36  N   UNL     1      -9.500  13.079  67.861  1.00  0.00    -0.211 N  
HETATM   37  O   UNL     1     -11.505  11.985  68.121  1.00  0.00    -0.274 OA 
BRANCH  36  38
HETATM   38  C   UNL     1      -8.101  13.090  67.986  1.00  0.00    -0.157 A  
HETATM   39  C   UNL     1      -5.390  12.978  68.302  1.00  0.00    -0.082 A  
HETATM   40  N   UNL     1      -7.368  12.503  67.012  1.00  0.00    -0.049 NA 
HETATM   41  C   UNL     1      -6.159  13.621  69.262  1.00  0.00    -0.095 A  
HETATM   42  C   UNL     1      -6.031  12.442  67.199  1.00  0.00    -0.076 A  
HETATM   43  C   UNL     1      -7.532  13.682  69.108  1.00  0.00     0.098 A  
ENDBRANCH  36  38
BRANCH  36  44
HETATM   44  C   UNL     1     -10.058  14.123  66.983  1.00  0.00    -0.261 C  
BRANCH  44  45
HETATM   45  C   UNL     1     -10.885  15.244  67.628  1.00  0.00    -0.295 C  
BRANCH  45  46
HETATM   46  C   UNL     1     -10.272  16.625  67.794  1.00  0.00    -0.292 C  
HETATM   47  O   UNL     1     -10.734  17.686  67.409  1.00  0.00    -0.340 OA 
BRANCH  46  48
HETATM   48  O   UNL     1      -9.072  16.470  68.444  1.00  0.00    -0.208 OA 
BRANCH  48  49
HETATM   49  C   UNL     1      -7.939  17.263  68.045  1.00  0.00    -0.215 C  
HETATM   50  C   UNL     1      -7.335  16.737  66.756  1.00  0.00    -0.275 C  
ENDBRANCH  48  49
ENDBRANCH  46  48
ENDBRANCH  45  46
ENDBRANCH  44  45
ENDBRANCH  36  44
ENDBRANCH  33  35
ENDBRANCH  24  25
ENDBRANCH  22  24
ENDBRANCH  19  22
ENDBRANCH  12  16
ENDBRANCH   9  12
ENDBRANCH   7   8
ENDBRANCH   6   7
ENDBRANCH   5   6
ENDBRANCH   4   5
ENDBRANCH   3   4
ENDBRANCH   2   3
TORSDOF 18
ENDMDL
MODEL       52
REMARK 921   NORMALIZED FREE ENERGY PREDICTED BY IDOCK:   -4.18 KCAL/MOL
REMARK 922        TOTAL FREE ENERGY PREDICTED BY IDOCK:  -11.78 KCAL/MOL
REMARK 923 INTER-LIGAND FREE ENERGY PREDICTED BY IDOCK:   -9.70 KCAL/MOL
REMARK 924 INTRA-LIGAND FREE ENERGY PREDICTED BY IDOCK:   -2.08 KCAL/MOL
REMARK 927      BINDING AFFINITY PREDICTED BY RF-SCORE:    0.00 PKD
ROOT
HETATM    1  C   UNL     1     -14.396   8.371  71.761  1.00  0.00    -0.558 C  
HETATM    2  C   UNL     1     -13.715   7.049  71.451  1.00  0.00    -0.307 C  
ENDROOT
BRANCH   2   3
HETATM    3  C   UNL     1     -12.244   7.118  71.832  1.00  0.00    -0.358 C  
BRANCH   3   4
HETATM    4  C   UNL     1     -11.332   7.072  70.613  1.00  0.00    -0.349 C  
BRANCH   4   5
HETATM    5  C   UNL     1     -10.738   5.675  70.510  1.00  0.00    -0.344 C  
BRANCH   5   6
HETATM    6  C   UNL     1     -10.068   5.237  71.790  1.00  0.00    -0.200 C  
BRANCH   6   7
HETATM    7  O   UNL     1      -8.725   4.844  71.465  1.00  0.00    -0.125 OA 
BRANCH   7   8
HETATM    8  C   UNL     1      -7.744   5.634  71.981  1.00  0.00    -0.102 C  
HETATM    9  N   UNL     1      -6.856   6.079  71.048  1.00  0.00    -0.064 N  
HETATM   10  O   UNL     1      -7.659   5.912  73.173  1.00  0.00    -0.097 OA 
HETATM   11  H   UNL     1      -5.857   5.982  71.234  1.00  0.00     0.000 HD 
BRANCH   9  12
HETATM   12  C   UNL     1      -7.236   6.623  69.927  1.00  0.00    -0.080 C  
HETATM   13  H1  UNL     1      -8.219   8.229  69.175  1.00  0.00     0.000 HD 
HETATM   14  N   UNL     1      -7.922   7.803  70.053  1.00  0.00    -0.111 NA 
HETATM   15  H2  UNL     1      -8.120   8.226  70.960  1.00  0.00     0.000 HD 
BRANCH  12  16
HETATM   16  C   UNL     1      -6.940   6.116  68.550  1.00  0.00    -0.076 A  
HETATM   17  C   UNL     1      -5.646   6.118  68.028  1.00  0.00    -0.008 A  
HETATM   18  C   UNL     1      -5.466   6.064  66.642  1.00  0.00    -0.009 A  
HETATM   19  C   UNL     1      -6.556   5.891  65.779  1.00  0.00    -0.047 A  
HETATM   20  C   UNL     1      -7.825   5.716  66.336  1.00  0.00    -0.101 A  
HETATM   21  C   UNL     1      -8.024   5.838  67.711  1.00  0.00    -0.098 A  
BRANCH  19  22
HETATM   22  N   UNL     1      -6.358   6.147  64.410  1.00  0.00    -0.030 NA 
HETATM   23  H   UNL     1      -6.447   5.409  63.711  1.00  0.00     0.000 HD 
BRANCH  22  24
HETATM   24  C   UNL     1      -6.018   7.518  64.032  1.00  0.00    -0.048 C  
BRANCH  24  25
HETATM   25  C   UNL     1      -7.034   8.611  64.301  1.00  0.00    -0.081 A  
HETATM   26  N   UNL     1      -7.050   9.519  65.270  1.00  0.00    -0.095 NA 
HETATM   27  C   UNL     1      -8.149  10.333  65.029  1.00  0.00    -0.146 A  
HETATM   28  C   UNL     1      -8.808   9.905  63.880  1.00  0.00    -0.227 A  
HETATM   29  N   UNL     1      -8.124   8.782  63.477  1.00  0.00    -0.163 NA 
HETATM   30  C   UNL     1      -9.907  10.578  63.345  1.00  0.00    -0.323 A  
HETATM   31  C   UNL     1     -10.364  11.711  64.027  1.00  0.00    -0.405 A  
HETATM   32  C   UNL     1      -8.462   7.936  62.354  1.00  0.00    -0.035 C  
HETATM   33  C   UNL     1      -9.792  12.140  65.234  1.00  0.00    -0.216 A  
HETATM   34  C   UNL     1      -8.650  11.467  65.730  1.00  0.00    -0.010 A  
BRANCH  33  35
HETATM   35  C   UNL     1     -10.457  13.349  65.862  1.00  0.00    -0.287 C  
HETATM   36  N   UNL     1     -11.053  13.303  67.131  1.00  0.00    -0.279 N  
HETATM   37  O   UNL     1     -10.500  14.372  65.173  1.00  0.00    -0.363 OA 
BRANCH  36  38
HETATM   38  C   UNL     1     -10.967  12.172  67.960  1.00  0.00    -0.229 A  
HETATM   39  C   UNL     1     -10.816  10.064  69.691  1.00  0.00    -0.292 A  
HETATM   40  N   UNL     1     -12.113  11.533  68.291  1.00  0.00    -0.575 NA 
HETATM   41  C   UNL     1      -9.648  10.703  69.295  1.00  0.00    -0.164 A  
HETATM   42  C   UNL     1     -12.016  10.506  69.163  1.00  0.00    -0.077 A  
HETATM   43  C   UNL     1      -9.718  11.769  68.419  1.00  0.00    -0.197 A  
ENDBRANCH  36  38
BRANCH  36  44
HETATM   44  C   UNL     1     -11.537  14.528  67.792  1.00  0.00    -0.365 C  
BRANCH  44  45
HETATM   45  C   UNL     1     -10.620  15.204  68.822  1.00  0.00    -0.236 C  
BRANCH  45  46
HETATM   46  C   UNL     1      -9.924  16.506  68.464  1.00  0.00    -0.251 C  
HETATM   47  O   UNL     1      -8.818  16.872  68.825  1.00  0.00    -0.261 OA 
BRANCH  46  48
HETATM   48  O   UNL     1     -10.780  17.228  67.669  1.00  0.00    -0.359 OA 
BRANCH  48  49
HETATM   49  C   UNL     1     -10.273  18.331  66.894  1.00  0.00    -0.375 C  
HETATM   50  C   UNL     1     -10.522  19.650  67.602  1.00  0.00    -0.579 C  
ENDBRANCH  48  49
ENDBRANCH  46  48
ENDBRANCH  45  46
ENDBRANCH  44  45
ENDBRANCH  36  44
ENDBRANCH  33  35
ENDBRANCH  24  25
ENDBRANCH  22  24
ENDBRANCH  19  22
ENDBRANCH  12  16
ENDBRANCH   9  12
ENDBRANCH   7   8
ENDBRANCH   6   7
ENDBRANCH   5   6
ENDBRANCH   4   5
ENDBRANCH   3   4
ENDBRANCH   2   3
TORSDOF 18
ENDMDL
MODEL       53
REMARK 921   NORMALIZED FREE ENERGY PREDICTED BY IDOCK:   -4.16 KCAL/MOL
REMARK 922        TOTAL FREE ENERGY PREDICTED BY IDOCK:  -11.74 KCAL/MOL
REMARK 923 INTER-LIGAND FREE ENERGY PREDICTED BY IDOCK:   -9.20 KCAL/MOL
REMARK 924 INTRA-LIGAND FREE ENERGY PREDICTED BY IDOCK:   -2.54 KCAL/MOL
REMARK 927      BINDING AFFINITY PREDICTED BY RF-SCORE:    0.00 PKD
ROOT
HETATM    1  C   UNL     1     -12.281   9.393  71.279  1.00  0.00    -0.425 C  
HETATM    2  C   UNL     1     -10.821   9.298  71.688  1.00  0.00    -0.418 C  
ENDROOT
BRANCH   2   3
HETATM    3  C   UNL     1     -10.427   7.842  71.884  1.00  0.00    -0.284 C  
BRANCH   3   4
HETATM    4  C   UNL     1     -11.283   7.152  72.939  1.00  0.00    -0.302 C  
BRANCH   4   5
HETATM    5  C   UNL     1     -11.397   5.679  72.576  1.00  0.00    -0.349 C  
BRANCH   5   6
HETATM    6  C   UNL     1     -10.138   5.141  71.943  1.00  0.00    -0.197 C  
BRANCH   6   7
HETATM    7  O   UNL     1      -9.496   4.290  72.907  1.00  0.00    -0.121 OA 
BRANCH   7   8
HETATM    8  C   UNL     1      -9.992   3.026  72.993  1.00  0.00    -0.125 C  
HETATM    9  N   UNL     1      -9.780   2.281  71.872  1.00  0.00    -0.132 N  
HETATM   10  O   UNL     1     -10.582   2.599  73.980  1.00  0.00    -0.144 OA 
HETATM   11  H   UNL     1     -10.564   1.769  71.465  1.00  0.00     0.000 HD 
BRANCH   9  12
HETATM   12  C   UNL     1      -8.611   2.197  71.301  1.00  0.00    -0.058 C  
HETATM   13  H1  UNL     1      -6.697   1.619  71.640  1.00  0.00     0.000 HD 
HETATM   14  N   UNL     1      -7.612   1.684  72.087  1.00  0.00    -0.039 NA 
HETATM   15  H2  UNL     1      -7.771   1.389  73.051  1.00  0.00     0.000 HD 
BRANCH  12  16
HETATM   16  C   UNL     1      -8.291   2.544  69.881  1.00  0.00    -0.077 A  
HETATM   17  C   UNL     1      -7.056   3.080  69.515  1.00  0.00    -0.041 A  
HETATM   18  C   UNL     1      -6.943   3.783  68.312  1.00  0.00    -0.051 A  
HETATM   19  C   UNL     1      -8.019   3.860  67.417  1.00  0.00    -0.091 A  
HETATM   20  C   UNL     1      -9.192   3.166  67.726  1.00  0.00    -0.241 A  
HETATM   21  C   UNL     1      -9.337   2.521  68.953  1.00  0.00    -0.218 A  
BRANCH  19  22
HETATM   22  N   UNL     1      -7.952   4.817  66.388  1.00  0.00    -0.103 NA 
HETATM   23  H   UNL     1      -7.223   4.783  65.676  1.00  0.00     0.000 HD 
BRANCH  22  24
HETATM   24  C   UNL     1      -8.973   5.863  66.387  1.00  0.00    -0.140 C  
BRANCH  24  25
HETATM   25  C   UNL     1      -8.562   7.271  66.774  1.00  0.00    -0.127 A  
HETATM   26  N   UNL     1      -8.229   8.291  65.993  1.00  0.00    -0.112 NA 
HETATM   27  C   UNL     1      -8.010   9.375  66.832  1.00  0.00    -0.109 A  
HETATM   28  C   UNL     1      -8.221   8.996  68.155  1.00  0.00    -0.113 A  
HETATM   29  N   UNL     1      -8.505   7.653  68.097  1.00  0.00    -0.124 NA 
HETATM   30  C   UNL     1      -8.149   9.897  69.219  1.00  0.00    -0.128 A  
HETATM   31  C   UNL     1      -7.820  11.223  68.920  1.00  0.00    -0.114 A  
HETATM   32  C   UNL     1      -8.744   6.782  69.227  1.00  0.00    -0.135 C  
HETATM   33  C   UNL     1      -7.515  11.644  67.617  1.00  0.00    -0.116 A  
HETATM   34  C   UNL     1      -7.641  10.721  66.551  1.00  0.00    -0.139 A  
BRANCH  33  35
HETATM   35  C   UNL     1      -7.122  13.103  67.492  1.00  0.00    -0.150 C  
HETATM   36  N   UNL     1      -8.063  14.115  67.247  1.00  0.00    -0.188 N  
HETATM   37  O   UNL     1      -5.916  13.355  67.559  1.00  0.00    -0.277 OA 
BRANCH  36  38
HETATM   38  C   UNL     1      -9.445  13.865  67.226  1.00  0.00    -0.239 A  
HETATM   39  C   UNL     1     -12.103  13.235  67.218  1.00  0.00    -0.341 A  
HETATM   40  N   UNL     1     -10.130  13.967  68.389  1.00  0.00    -0.232 NA 
HETATM   41  C   UNL     1     -11.390  13.189  66.027  1.00  0.00    -0.337 A  
HETATM   42  C   UNL     1     -11.438  13.632  68.364  1.00  0.00    -0.311 A  
HETATM   43  C   UNL     1     -10.045  13.507  66.025  1.00  0.00    -0.316 A  
ENDBRANCH  36  38
BRANCH  36  44
HETATM   44  C   UNL     1      -7.684  15.538  67.303  1.00  0.00    -0.212 C  
BRANCH  44  45
HETATM   45  C   UNL     1      -8.479  16.531  66.442  1.00  0.00    -0.357 C  
BRANCH  45  46
HETATM   46  C   UNL     1      -8.080  17.998  66.431  1.00  0.00    -0.260 C  
HETATM   47  O   UNL     1      -7.831  18.685  65.455  1.00  0.00    -0.419 OA 
BRANCH  46  48
HETATM   48  O   UNL     1      -8.020  18.420  67.737  1.00  0.00    -0.242 OA 
BRANCH  48  49
HETATM   49  C   UNL     1      -7.439  19.702  68.045  1.00  0.00    -0.295 C  
HETATM   50  C   UNL     1      -5.970  19.560  68.400  1.00  0.00    -0.252 C  
ENDBRANCH  48  49
ENDBRANCH  46  48
ENDBRANCH  45  46
ENDBRANCH  44  45
ENDBRANCH  36  44
ENDBRANCH  33  35
ENDBRANCH  24  25
ENDBRANCH  22  24
ENDBRANCH  19  22
ENDBRANCH  12  16
ENDBRANCH   9  12
ENDBRANCH   7   8
ENDBRANCH   6   7
ENDBRANCH   5   6
ENDBRANCH   4   5
ENDBRANCH   3   4
ENDBRANCH   2   3
TORSDOF 18
ENDMDL
MODEL       54
REMARK 921   NORMALIZED FREE ENERGY PREDICTED BY IDOCK:   -4.13 KCAL/MOL
REMARK 922        TOTAL FREE ENERGY PREDICTED BY IDOCK:  -11.69 KCAL/MOL
REMARK 923 INTER-LIGAND FREE ENERGY PREDICTED BY IDOCK:   -8.98 KCAL/MOL
REMARK 924 INTRA-LIGAND FREE ENERGY PREDICTED BY IDOCK:   -2.71 KCAL/MOL
REMARK 927      BINDING AFFINITY PREDICTED BY RF-SCORE:    0.00 PKD
ROOT
HETATM    1  C   UNL     1     -10.131   3.036  72.381  1.00  0.00    -0.229 C  
HETATM    2  C   UNL     1     -10.987   4.253  72.686  1.00  0.00    -0.070 C  
ENDROOT
BRANCH   2   3
HETATM    3  C   UNL     1     -10.503   5.447  71.879  1.00  0.00    -0.283 C  
BRANCH   3   4
HETATM    4  C   UNL     1     -11.653   6.205  71.227  1.00  0.00    -0.271 C  
BRANCH   4   5
HETATM    5  C   UNL     1     -11.427   6.221  69.723  1.00  0.00    -0.449 C  
BRANCH   5   6
HETATM    6  C   UNL     1     -10.034   5.782  69.344  1.00  0.00    -0.187 C  
BRANCH   6   7
HETATM    7  O   UNL     1     -10.156   4.612  68.519  1.00  0.00    -0.110 OA 
BRANCH   7   8
HETATM    8  C   UNL     1      -9.822   4.781  67.211  1.00  0.00    -0.184 C  
HETATM    9  N   UNL     1      -8.505   5.073  67.019  1.00  0.00    -0.107 N  
HETATM   10  O   UNL     1     -10.629   4.690  66.292  1.00  0.00    -0.278 OA 
HETATM   11  H   UNL     1      -8.258   5.862  66.420  1.00  0.00     0.000 HD 
BRANCH   9  12
HETATM   12  C   UNL     1      -7.549   4.382  67.573  1.00  0.00    -0.077 C  
HETATM   13  H1  UNL     1      -6.569   2.611  67.446  1.00  0.00     0.000 HD 
HETATM   14  N   UNL     1      -7.317   3.152  67.012  1.00  0.00    -0.062 NA 
HETATM   15  H2  UNL     1      -7.854   2.803  66.219  1.00  0.00     0.000 HD 
BRANCH  12  16
HETATM   16  C   UNL     1      -6.666   4.830  68.695  1.00  0.00    -0.050 A  
HETATM   17  C   UNL     1      -6.867   4.396  70.007  1.00  0.00    -0.041 A  
HETATM   18  C   UNL     1      -6.337   5.142  71.064  1.00  0.00    -0.023 A  
HETATM   19  C   UNL     1      -5.514   6.251  70.824  1.00  0.00    -0.018 A  
HETATM   20  C   UNL     1      -5.185   6.562  69.502  1.00  0.00    -0.013 A  
HETATM   21  C   UNL     1      -5.764   5.867  68.440  1.00  0.00    -0.012 A  
BRANCH  19  22
HETATM   22  N   UNL     1      -5.266   7.130  71.894  1.00  0.00    -0.035 NA 
HETATM   23  H   UNL     1      -4.316   7.370  72.177  1.00  0.00     0.000 HD 
BRANCH  22  24
HETATM   24  C   UNL     1      -6.430   7.685  72.582  1.00  0.00    -0.061 C  
BRANCH  24  25
HETATM   25  C   UNL     1      -7.460   8.437  71.762  1.00  0.00    -0.103 A  
HETATM   26  N   UNL     1      -7.327   9.010  70.572  1.00  0.00    -0.073 NA 
HETATM   27  C   UNL     1      -8.580   9.498  70.227  1.00  0.00    -0.226 A  
HETATM   28  C   UNL     1      -9.494   9.205  71.237  1.00  0.00    -0.243 A  
HETATM   29  N   UNL     1      -8.751   8.594  72.219  1.00  0.00    -0.369 NA 
HETATM   30  C   UNL     1     -10.853   9.505  71.136  1.00  0.00    -0.425 A  
HETATM   31  C   UNL     1     -11.285  10.154  69.974  1.00  0.00    -0.361 A  
HETATM   32  C   UNL     1      -9.240   8.151  73.506  1.00  0.00    -0.186 C  
HETATM   33  C   UNL     1     -10.398  10.548  68.961  1.00  0.00    -0.232 A  
HETATM   34  C   UNL     1      -9.033  10.190  69.068  1.00  0.00    -0.168 A  
BRANCH  33  35
HETATM   35  C   UNL     1     -11.037  11.293  67.806  1.00  0.00    -0.271 C  
HETATM   36  N   UNL     1     -10.498  11.273  66.511  1.00  0.00    -0.244 N  
HETATM   37  O   UNL     1     -12.032  11.973  68.074  1.00  0.00    -0.495 OA 
BRANCH  36  38
HETATM   38  C   UNL     1      -9.405  10.462  66.166  1.00  0.00    -0.172 A  
HETATM   39  C   UNL     1      -7.271   8.840  65.639  1.00  0.00    -0.084 A  
HETATM   40  N   UNL     1      -9.649   9.183  65.796  1.00  0.00    -0.268 NA 
HETATM   41  C   UNL     1      -7.047  10.170  65.970  1.00  0.00    -0.118 A  
HETATM   42  C   UNL     1      -8.578   8.395  65.559  1.00  0.00    -0.176 A  
HETATM   43  C   UNL     1      -8.124  10.996  66.236  1.00  0.00    -0.159 A  
ENDBRANCH  36  38
BRANCH  36  44
HETATM   44  C   UNL     1     -11.228  11.858  65.372  1.00  0.00    -0.295 C  
BRANCH  44  45
HETATM   45  C   UNL     1     -10.656  13.126  64.722  1.00  0.00    -0.390 C  
BRANCH  45  46
HETATM   46  C   UNL     1     -10.457  14.375  65.565  1.00  0.00    -0.350 C  
HETATM   47  O   UNL     1     -11.031  15.444  65.442  1.00  0.00    -0.346 OA 
BRANCH  46  48
HETATM   48  O   UNL     1      -9.482  14.097  66.492  1.00  0.00    -0.276 OA 
BRANCH  48  49
HETATM   49  C   UNL     1      -8.751  15.177  67.101  1.00  0.00    -0.216 C  
HETATM   50  C   UNL     1      -8.653  14.986  68.604  1.00  0.00    -0.174 C  
ENDBRANCH  48  49
ENDBRANCH  46  48
ENDBRANCH  45  46
ENDBRANCH  44  45
ENDBRANCH  36  44
ENDBRANCH  33  35
ENDBRANCH  24  25
ENDBRANCH  22  24
ENDBRANCH  19  22
ENDBRANCH  12  16
ENDBRANCH   9  12
ENDBRANCH   7   8
ENDBRANCH   6   7
ENDBRANCH   5   6
ENDBRANCH   4   5
ENDBRANCH   3   4
ENDBRANCH   2   3
TORSDOF 18
ENDMDL
MODEL       55
REMARK 921   NORMALIZED FREE ENERGY PREDICTED BY IDOCK:   -4.10 KCAL/MOL
REMARK 922        TOTAL FREE ENERGY PREDICTED BY IDOCK:  -11.62 KCAL/MOL
REMARK 923 INTER-LIGAND FREE ENERGY PREDICTED BY IDOCK:   -9.50 KCAL/MOL
REMARK 924 INTRA-LIGAND FREE ENERGY PREDICTED BY IDOCK:   -2.13 KCAL/MOL
REMARK 927      BINDING AFFINITY PREDICTED BY RF-SCORE:    0.00 PKD
ROOT
HETATM    1  C   UNL     1     -12.484  12.844  70.830  1.00  0.00    -0.383 C  
HETATM    2  C   UNL     1     -13.288  12.058  71.852  1.00  0.00    -0.408 C  
ENDROOT
BRANCH   2   3
HETATM    3  C   UNL     1     -13.143  10.567  71.594  1.00  0.00    -0.551 C  
BRANCH   3   4
HETATM    4  C   UNL     1     -11.777  10.211  71.023  1.00  0.00    -0.470 C  
BRANCH   4   5
HETATM    5  C   UNL     1     -11.270   8.964  71.731  1.00  0.00    -0.432 C  
BRANCH   5   6
HETATM    6  C   UNL     1     -10.042   8.384  71.071  1.00  0.00    -0.196 C  
BRANCH   6   7
HETATM    7  O   UNL     1      -8.955   8.493  72.004  1.00  0.00    -0.198 OA 
BRANCH   7   8
HETATM    8  C   UNL     1      -7.738   8.760  71.456  1.00  0.00    -0.101 C  
HETATM    9  N   UNL     1      -6.766   7.884  71.834  1.00  0.00    -0.055 N  
HETATM   10  O   UNL     1      -7.532   9.706  70.702  1.00  0.00    -0.190 OA 
HETATM   11  H   UNL     1      -5.874   8.252  72.168  1.00  0.00     0.000 HD 
BRANCH   9  12
HETATM   12  C   UNL     1      -6.934   6.593  71.785  1.00  0.00    -0.071 C  
HETATM   13  H1  UNL     1      -6.892   4.925  72.938  1.00  0.00     0.000 HD 
HETATM   14  N   UNL     1      -6.761   5.935  72.976  1.00  0.00    -0.073 NA 
HETATM   15  H2  UNL     1      -6.518   6.422  73.839  1.00  0.00     0.000 HD 
BRANCH  12  16
HETATM   16  C   UNL     1      -7.351   5.797  70.588  1.00  0.00    -0.084 A  
HETATM   17  C   UNL     1      -6.629   5.833  69.394  1.00  0.00    -0.054 A  
HETATM   18  C   UNL     1      -7.256   5.454  68.203  1.00  0.00    -0.071 A  
HETATM   19  C   UNL     1      -8.556   4.931  68.206  1.00  0.00    -0.101 A  
HETATM   20  C   UNL     1      -9.194   4.742  69.434  1.00  0.00    -0.169 A  
HETATM   21  C   UNL     1      -8.605   5.181  70.620  1.00  0.00    -0.126 A  
BRANCH  19  22
HETATM   22  N   UNL     1      -9.238   4.857  66.977  1.00  0.00    -0.119 NA 
HETATM   23  H   UNL     1      -9.878   4.090  66.769  1.00  0.00     0.000 HD 
BRANCH  22  24
HETATM   24  C   UNL     1      -8.990   5.927  66.013  1.00  0.00    -0.151 C  
BRANCH  24  25
HETATM   25  C   UNL     1      -9.193   7.361  66.462  1.00  0.00    -0.165 A  
HETATM   26  N   UNL     1      -8.391   8.408  66.306  1.00  0.00    -0.117 NA 
HETATM   27  C   UNL     1      -9.069   9.503  66.826  1.00  0.00    -0.146 A  
HETATM   28  C   UNL     1     -10.314   9.103  67.304  1.00  0.00    -0.270 A  
HETATM   29  N   UNL     1     -10.342   7.741  67.121  1.00  0.00    -0.290 NA 
HETATM   30  C   UNL     1     -11.251  10.002  67.815  1.00  0.00    -0.137 A  
HETATM   31  C   UNL     1     -10.888  11.352  67.867  1.00  0.00    -0.274 A  
HETATM   32  C   UNL     1     -11.410   6.850  67.515  1.00  0.00     0.064 C  
HETATM   33  C   UNL     1      -9.617  11.802  67.479  1.00  0.00    -0.179 A  
HETATM   34  C   UNL     1      -8.703  10.876  66.920  1.00  0.00    -0.144 A  
BRANCH  33  35
HETATM   35  C   UNL     1      -9.381  13.288  67.661  1.00  0.00    -0.212 C  
HETATM   36  N   UNL     1      -9.802  14.236  66.716  1.00  0.00    -0.261 N  
HETATM   37  O   UNL     1      -8.744  13.624  68.663  1.00  0.00    -0.134 OA 
BRANCH  36  38
HETATM   38  C   UNL     1     -10.580  13.888  65.600  1.00  0.00    -0.301 A  
HETATM   39  C   UNL     1     -12.025  13.321  63.352  1.00  0.00    -0.491 A  
HETATM   40  N   UNL     1     -10.072  12.992  64.722  1.00  0.00    -0.259 NA 
HETATM   41  C   UNL     1     -12.549  14.198  64.293  1.00  0.00    -0.162 A  
HETATM   42  C   UNL     1     -10.796  12.742  63.608  1.00  0.00    -0.320 A  
HETATM   43  C   UNL     1     -11.823  14.487  65.433  1.00  0.00    -0.344 A  
ENDBRANCH  36  38
BRANCH  36  44
HETATM   44  C   UNL     1      -9.718  15.681  66.995  1.00  0.00    -0.227 C  
BRANCH  44  45
HETATM   45  C   UNL     1      -8.380  16.389  66.740  1.00  0.00    -0.285 C  
BRANCH  45  46
HETATM   46  C   UNL     1      -7.256  16.253  67.754  1.00  0.00    -0.134 C  
HETATM   47  O   UNL     1      -7.249  16.661  68.903  1.00  0.00    -0.194 OA 
BRANCH  46  48
HETATM   48  O   UNL     1      -6.218  15.601  67.135  1.00  0.00    -0.317 OA 
BRANCH  48  49
HETATM   49  C   UNL     1      -5.330  14.776  67.914  1.00  0.00    -0.082 C  
HETATM   50  C   UNL     1      -5.647  13.304  67.718  1.00  0.00    -0.109 C  
ENDBRANCH  48  49
ENDBRANCH  46  48
ENDBRANCH  45  46
ENDBRANCH  44  45
ENDBRANCH  36  44
ENDBRANCH  33  35
ENDBRANCH  24  25
ENDBRANCH  22  24
ENDBRANCH  19  22
ENDBRANCH  12  16
ENDBRANCH   9  12
ENDBRANCH   7   8
ENDBRANCH   6   7
ENDBRANCH   5   6
ENDBRANCH   4   5
ENDBRANCH   3   4
ENDBRANCH   2   3
TORSDOF 18
ENDMDL
MODEL       56
REMARK 921   NORMALIZED FREE ENERGY PREDICTED BY IDOCK:   -4.07 KCAL/MOL
REMARK 922        TOTAL FREE ENERGY PREDICTED BY IDOCK:  -11.55 KCAL/MOL
REMARK 923 INTER-LIGAND FREE ENERGY PREDICTED BY IDOCK:   -9.33 KCAL/MOL
REMARK 924 INTRA-LIGAND FREE ENERGY PREDICTED BY IDOCK:   -2.22 KCAL/MOL
REMARK 927      BINDING AFFINITY PREDICTED BY RF-SCORE:    0.00 PKD
ROOT
HETATM    1  C   UNL     1     -12.368   9.364  71.259  1.00  0.00    -0.422 C  
HETATM    2  C   UNL     1     -10.873   9.565  71.441  1.00  0.00    -0.382 C  
ENDROOT
BRANCH   2   3
HETATM    3  C   UNL     1     -10.140   8.248  71.239  1.00  0.00    -0.249 C  
BRANCH   3   4
HETATM    4  C   UNL     1     -10.713   7.133  72.105  1.00  0.00    -0.245 C  
BRANCH   4   5
HETATM    5  C   UNL     1     -10.829   5.876  71.256  1.00  0.00    -0.333 C  
BRANCH   5   6
HETATM    6  C   UNL     1      -9.575   5.599  70.461  1.00  0.00    -0.174 C  
BRANCH   6   7
HETATM    7  O   UNL     1      -8.908   4.486  71.078  1.00  0.00    -0.109 OA 
BRANCH   7   8
HETATM    8  C   UNL     1      -9.493   3.273  70.885  1.00  0.00    -0.164 C  
HETATM    9  N   UNL     1      -9.654   2.947  69.572  1.00  0.00    -0.075 N  
HETATM   10  O   UNL     1      -9.853   2.544  71.805  1.00  0.00    -0.151 OA 
HETATM   11  H   UNL     1     -10.565   2.613  69.255  1.00  0.00     0.000 HD 
BRANCH   9  12
HETATM   12  C   UNL     1      -8.685   3.048  68.706  1.00  0.00    -0.092 C  
HETATM   13  H1  UNL     1      -6.882   2.259  68.216  1.00  0.00     0.000 HD 
HETATM   14  N   UNL     1      -7.640   2.180  68.894  1.00  0.00    -0.043 NA 
HETATM   15  H2  UNL     1      -7.622   1.505  69.658  1.00  0.00     0.000 HD 
BRANCH  12  16
HETATM   16  C   UNL     1      -8.648   3.959  67.519  1.00  0.00    -0.111 A  
HETATM   17  C   UNL     1      -7.470   4.588  67.113  1.00  0.00    -0.081 A  
HETATM   18  C   UNL     1      -7.546   5.733  66.314  1.00  0.00    -0.091 A  
HETATM   19  C   UNL     1      -8.776   6.190  65.821  1.00  0.00    -0.145 A  
HETATM   20  C   UNL     1      -9.923   5.442  66.098  1.00  0.00    -0.164 A  
HETATM   21  C   UNL     1      -9.867   4.339  66.950  1.00  0.00    -0.224 A  
BRANCH  19  22
HETATM   22  N   UNL     1      -8.830   7.492  65.291  1.00  0.00    -0.371 NA 
HETATM   23  H   UNL     1      -8.292   7.753  64.464  1.00  0.00     0.000 HD 
BRANCH  22  24
HETATM   24  C   UNL     1      -9.690   8.455  65.976  1.00  0.00    -0.076 C  
BRANCH  24  25
HETATM   25  C   UNL     1      -9.061   9.724  66.518  1.00  0.00    -0.153 A  
HETATM   26  N   UNL     1      -9.185  10.971  66.083  1.00  0.00    -0.183 NA 
HETATM   27  C   UNL     1      -8.471  11.770  66.966  1.00  0.00    -0.175 A  
HETATM   28  C   UNL     1      -7.906  10.979  67.964  1.00  0.00    -0.112 A  
HETATM   29  N   UNL     1      -8.239   9.690  67.624  1.00  0.00    -0.114 NA 
HETATM   30  C   UNL     1      -7.194  11.514  69.038  1.00  0.00    -0.106 A  
HETATM   31  C   UNL     1      -7.029  12.903  69.075  1.00  0.00    -0.058 A  
HETATM   32  C   UNL     1      -7.832   8.492  68.324  1.00  0.00    -0.106 C  
HETATM   33  C   UNL     1      -7.504  13.741  68.055  1.00  0.00    -0.139 A  
HETATM   34  C   UNL     1      -8.263  13.178  67.002  1.00  0.00    -0.062 A  
BRANCH  33  35
HETATM   35  C   UNL     1      -7.180  15.211  68.235  1.00  0.00    -0.110 C  
HETATM   36  N   UNL     1      -8.162  16.163  68.551  1.00  0.00    -0.176 N  
HETATM   37  O   UNL     1      -6.010  15.545  68.029  1.00  0.00    -0.117 OA 
BRANCH  36  38
HETATM   38  C   UNL     1      -9.487  15.802  68.849  1.00  0.00    -0.229 A  
HETATM   39  C   UNL     1     -12.025  14.958  69.402  1.00  0.00    -0.336 A  
HETATM   40  N   UNL     1      -9.791  15.488  70.129  1.00  0.00    -0.135 NA 
HETATM   41  C   UNL     1     -11.703  15.336  68.106  1.00  0.00    -0.297 A  
HETATM   42  C   UNL     1     -11.047  15.055  70.375  1.00  0.00    -0.229 A  
HETATM   43  C   UNL     1     -10.420  15.765  67.820  1.00  0.00    -0.283 A  
ENDBRANCH  36  38
BRANCH  36  44
HETATM   44  C   UNL     1      -7.799  17.550  68.891  1.00  0.00    -0.197 C  
BRANCH  44  45
HETATM   45  C   UNL     1      -7.460  18.510  67.741  1.00  0.00    -0.240 C  
BRANCH  45  46
HETATM   46  C   UNL     1      -8.332  18.523  66.496  1.00  0.00    -0.281 C  
HETATM   47  O   UNL     1      -8.612  17.573  65.784  1.00  0.00    -0.521 OA 
BRANCH  46  48
HETATM   48  O   UNL     1      -8.738  19.819  66.289  1.00  0.00    -0.353 OA 
BRANCH  48  49
HETATM   49  C   UNL     1      -9.739  20.397  67.149  1.00  0.00    -0.460 C  
HETATM   50  C   UNL     1     -10.914  19.453  67.325  1.00  0.00    -0.454 C  
ENDBRANCH  48  49
ENDBRANCH  46  48
ENDBRANCH  45  46
ENDBRANCH  44  45
ENDBRANCH  36  44
ENDBRANCH  33  35
ENDBRANCH  24  25
ENDBRANCH  22  24
ENDBRANCH  19  22
ENDBRANCH  12  16
ENDBRANCH   9  12
ENDBRANCH   7   8
ENDBRANCH   6   7
ENDBRANCH   5   6
ENDBRANCH   4   5
ENDBRANCH   3   4
ENDBRANCH   2   3
TORSDOF 18
ENDMDL
MODEL       57
REMARK 921   NORMALIZED FREE ENERGY PREDICTED BY IDOCK:   -4.03 KCAL/MOL
REMARK 922        TOTAL FREE ENERGY PREDICTED BY IDOCK:  -11.47 KCAL/MOL
REMARK 923 INTER-LIGAND FREE ENERGY PREDICTED BY IDOCK:   -8.70 KCAL/MOL
REMARK 924 INTRA-LIGAND FREE ENERGY PREDICTED BY IDOCK:   -2.77 KCAL/MOL
REMARK 927      BINDING AFFINITY PREDICTED BY RF-SCORE:    0.00 PKD
ROOT
HETATM    1  C   UNL     1     -14.338   8.102  71.486  1.00  0.00    -0.534 C  
HETATM    2  C   UNL     1     -13.680   6.737  71.603  1.00  0.00    -0.173 C  
ENDROOT
BRANCH   2   3
HETATM    3  C   UNL     1     -12.187   6.896  71.838  1.00  0.00    -0.370 C  
BRANCH   3   4
HETATM    4  C   UNL     1     -11.379   6.712  70.560  1.00  0.00    -0.413 C  
BRANCH   4   5
HETATM    5  C   UNL     1     -10.840   5.290  70.533  1.00  0.00    -0.119 C  
BRANCH   5   6
HETATM    6  C   UNL     1      -9.977   4.977  71.731  1.00  0.00    -0.191 C  
BRANCH   6   7
HETATM    7  O   UNL     1      -8.704   4.523  71.243  1.00  0.00    -0.108 OA 
BRANCH   7   8
HETATM    8  C   UNL     1      -7.625   5.231  71.676  1.00  0.00    -0.103 C  
HETATM    9  N   UNL     1      -6.859   5.729  70.665  1.00  0.00    -0.052 N  
HETATM   10  O   UNL     1      -7.360   5.398  72.862  1.00  0.00    -0.088 OA 
HETATM   11  H   UNL     1      -5.849   5.584  70.696  1.00  0.00     0.000 HD 
BRANCH   9  12
HETATM   12  C   UNL     1      -7.369   6.383  69.660  1.00  0.00    -0.080 C  
HETATM   13  H1  UNL     1      -8.076   8.207  69.126  1.00  0.00     0.000 HD 
HETATM   14  N   UNL     1      -7.677   7.695  69.913  1.00  0.00    -0.095 NA 
HETATM   15  H2  UNL     1      -7.517   8.129  70.823  1.00  0.00     0.000 HD 
BRANCH  12  16
HETATM   16  C   UNL     1      -7.583   5.857  68.276  1.00  0.00    -0.090 A  
HETATM   17  C   UNL     1      -6.524   5.384  67.498  1.00  0.00    -0.051 A  
HETATM   18  C   UNL     1      -6.671   5.319  66.109  1.00  0.00    -0.057 A  
HETATM   19  C   UNL     1      -7.898   5.612  65.498  1.00  0.00    -0.100 A  
HETATM   20  C   UNL     1      -8.991   5.914  66.312  1.00  0.00    -0.153 A  
HETATM   21  C   UNL     1      -8.838   6.048  67.692  1.00  0.00    -0.106 A  
BRANCH  19  22
HETATM   22  N   UNL     1      -7.905   5.827  64.107  1.00  0.00    -0.111 NA 
HETATM   23  H   UNL     1      -8.340   5.161  63.468  1.00  0.00     0.000 HD 
BRANCH  22  24
HETATM   24  C   UNL     1      -7.261   7.045  63.619  1.00  0.00    -0.071 C  
BRANCH  24  25
HETATM   25  C   UNL     1      -7.668   8.370  64.235  1.00  0.00    -0.136 A  
HETATM   26  N   UNL     1      -8.850   8.974  64.216  1.00  0.00    -0.117 NA 
HETATM   27  C   UNL     1      -8.717  10.122  64.986  1.00  0.00    -0.173 A  
HETATM   28  C   UNL     1      -7.420  10.207  65.486  1.00  0.00    -0.146 A  
HETATM   29  N   UNL     1      -6.763   9.126  64.947  1.00  0.00    -0.073 NA 
HETATM   30  C   UNL     1      -7.012  11.216  66.358  1.00  0.00    -0.093 A  
HETATM   31  C   UNL     1      -7.955  12.189  66.707  1.00  0.00    -0.023 A  
HETATM   32  C   UNL     1      -5.363   8.806  65.122  1.00  0.00    -0.038 C  
HETATM   33  C   UNL     1      -9.251  12.202  66.169  1.00  0.00    -0.155 A  
HETATM   34  C   UNL     1      -9.654  11.140  65.324  1.00  0.00    -0.268 A  
BRANCH  33  35
HETATM   35  C   UNL     1     -10.116  13.365  66.614  1.00  0.00    -0.275 C  
HETATM   36  N   UNL     1     -10.971  13.282  67.723  1.00  0.00    -0.252 N  
HETATM   37  O   UNL     1     -10.075  14.379  65.913  1.00  0.00    -0.296 OA 
BRANCH  36  38
HETATM   38  C   UNL     1     -10.993  12.164  68.573  1.00  0.00    -0.238 A  
HETATM   39  C   UNL     1     -11.066  10.081  70.339  1.00  0.00    -0.393 A  
HETATM   40  N   UNL     1     -12.175  11.537  68.774  1.00  0.00    -0.443 NA 
HETATM   41  C   UNL     1      -9.855  10.706  70.076  1.00  0.00     0.334 A  
HETATM   42  C   UNL     1     -12.191  10.523  69.666  1.00  0.00    -0.137 A  
HETATM   43  C   UNL     1      -9.811  11.760  69.183  1.00  0.00     0.198 A  
ENDBRANCH  36  38
BRANCH  36  44
HETATM   44  C   UNL     1     -11.668  14.474  68.239  1.00  0.00    -0.335 C  
BRANCH  44  45
HETATM   45  C   UNL     1     -11.214  15.049  69.589  1.00  0.00    -0.296 C  
BRANCH  45  46
HETATM   46  C   UNL     1     -12.005  14.725  70.845  1.00  0.00    -0.324 C  
HETATM   47  O   UNL     1     -12.268  13.617  71.283  1.00  0.00    -0.318 OA 
BRANCH  46  48
HETATM   48  O   UNL     1     -12.404  15.915  71.402  1.00  0.00    -0.423 OA 
BRANCH  48  49
HETATM   49  C   UNL     1     -12.008  16.240  72.747  1.00  0.00    -0.537 C  
HETATM   50  C   UNL     1     -12.908  15.555  73.759  1.00  0.00    -0.680 C  
ENDBRANCH  48  49
ENDBRANCH  46  48
ENDBRANCH  45  46
ENDBRANCH  44  45
ENDBRANCH  36  44
ENDBRANCH  33  35
ENDBRANCH  24  25
ENDBRANCH  22  24
ENDBRANCH  19  22
ENDBRANCH  12  16
ENDBRANCH   9  12
ENDBRANCH   7   8
ENDBRANCH   6   7
ENDBRANCH   5   6
ENDBRANCH   4   5
ENDBRANCH   3   4
ENDBRANCH   2   3
TORSDOF 18
ENDMDL
MODEL       58
REMARK 921   NORMALIZED FREE ENERGY PREDICTED BY IDOCK:   -4.01 KCAL/MOL
REMARK 922        TOTAL FREE ENERGY PREDICTED BY IDOCK:  -11.43 KCAL/MOL
REMARK 923 INTER-LIGAND FREE ENERGY PREDICTED BY IDOCK:   -8.67 KCAL/MOL
REMARK 924 INTRA-LIGAND FREE ENERGY PREDICTED BY IDOCK:   -2.77 KCAL/MOL
REMARK 927      BINDING AFFINITY PREDICTED BY RF-SCORE:    0.00 PKD
ROOT
HETATM    1  C   UNL     1     -12.046  11.607  63.449  1.00  0.00    -0.319 C  
HETATM    2  C   UNL     1     -12.208  13.111  63.598  1.00  0.00    -0.553 C  
ENDROOT
BRANCH   2   3
HETATM    3  C   UNL     1     -11.036  13.686  64.378  1.00  0.00    -0.378 C  
BRANCH   3   4
HETATM    4  C   UNL     1     -11.467  14.799  65.325  1.00  0.00    -0.352 C  
BRANCH   4   5
HETATM    5  C   UNL     1     -12.331  14.192  66.419  1.00  0.00    -0.431 C  
BRANCH   5   6
HETATM    6  C   UNL     1     -11.601  14.076  67.734  1.00  0.00    -0.345 C  
BRANCH   6   7
HETATM    7  O   UNL     1     -10.254  14.529  67.525  1.00  0.00    -0.232 OA 
BRANCH   7   8
HETATM    8  C   UNL     1      -9.434  14.450  68.608  1.00  0.00    -0.193 C  
HETATM    9  N   UNL     1      -8.648  13.337  68.617  1.00  0.00    -0.358 N  
HETATM   10  O   UNL     1      -9.411  15.294  69.499  1.00  0.00    -0.239 OA 
HETATM   11  H   UNL     1      -8.605  12.772  69.466  1.00  0.00     0.000 HD 
BRANCH   9  12
HETATM   12  C   UNL     1      -7.950  12.969  67.580  1.00  0.00    -0.169 C  
HETATM   13  H1  UNL     1      -6.485  13.598  66.327  1.00  0.00     0.000 HD 
HETATM   14  N   UNL     1      -7.032  13.886  67.138  1.00  0.00    -0.403 NA 
HETATM   15  H2  UNL     1      -6.905  14.793  67.588  1.00  0.00     0.000 HD 
BRANCH  12  16
HETATM   16  C   UNL     1      -8.018  11.642  66.891  1.00  0.00    -0.161 A  
HETATM   17  C   UNL     1      -6.879  11.025  66.371  1.00  0.00    -0.118 A  
HETATM   18  C   UNL     1      -7.022  10.047  65.381  1.00  0.00    -0.127 A  
HETATM   19  C   UNL     1      -8.290   9.597  64.988  1.00  0.00    -0.141 A  
HETATM   20  C   UNL     1      -9.411  10.106  65.649  1.00  0.00    -0.250 A  
HETATM   21  C   UNL     1      -9.283  11.130  66.587  1.00  0.00    -0.188 A  
BRANCH  19  22
HETATM   22  N   UNL     1      -8.383   8.853  63.797  1.00  0.00    -0.234 NA 
HETATM   23  H   UNL     1      -8.900   9.203  62.990  1.00  0.00     0.000 HD 
BRANCH  22  24
HETATM   24  C   UNL     1      -7.708   7.557  63.769  1.00  0.00    -0.126 C  
BRANCH  24  25
HETATM   25  C   UNL     1      -7.876   6.632  64.959  1.00  0.00    -0.113 A  
HETATM   26  N   UNL     1      -7.562   6.840  66.231  1.00  0.00    -0.084 NA 
HETATM   27  C   UNL     1      -7.983   5.716  66.930  1.00  0.00    -0.102 A  
HETATM   28  C   UNL     1      -8.571   4.809  66.052  1.00  0.00    -0.117 A  
HETATM   29  N   UNL     1      -8.434   5.381  64.809  1.00  0.00    -0.145 NA 
HETATM   30  C   UNL     1      -9.158   3.617  66.478  1.00  0.00    -0.168 A  
HETATM   31  C   UNL     1      -9.115   3.331  67.847  1.00  0.00    -0.213 A  
HETATM   32  C   UNL     1      -8.839   4.793  63.551  1.00  0.00    -0.104 C  
HETATM   33  C   UNL     1      -8.463   4.166  68.767  1.00  0.00    -0.098 A  
HETATM   34  C   UNL     1      -7.916   5.391  68.314  1.00  0.00    -0.088 A  
BRANCH  33  35
HETATM   35  C   UNL     1      -8.465   3.665  70.198  1.00  0.00    -0.059 C  
HETATM   36  N   UNL     1      -8.944   4.441  71.264  1.00  0.00    -0.118 N  
HETATM   37  O   UNL     1      -7.967   2.553  70.391  1.00  0.00    -0.042 OA 
BRANCH  36  38
HETATM   38  C   UNL     1      -9.570   5.683  71.065  1.00  0.00    -0.169 A  
HETATM   39  C   UNL     1     -10.753   8.086  70.533  1.00  0.00    -0.231 A  
HETATM   40  N   UNL     1     -10.884   5.691  70.743  1.00  0.00    -0.253 NA 
HETATM   41  C   UNL     1      -9.419   8.057  70.916  1.00  0.00    -0.178 A  
HETATM   42  C   UNL     1     -11.443   6.889  70.465  1.00  0.00    -0.342 A  
HETATM   43  C   UNL     1      -8.816   6.843  71.188  1.00  0.00    -0.142 A  
ENDBRANCH  36  38
BRANCH  36  44
HETATM   44  C   UNL     1      -9.097   3.871  72.614  1.00  0.00    -0.108 C  
BRANCH  44  45
HETATM   45  C   UNL     1      -8.227   4.443  73.743  1.00  0.00    -0.097 C  
BRANCH  45  46
HETATM   46  C   UNL     1      -6.738   4.637  73.514  1.00  0.00    -0.067 C  
HETATM   47  O   UNL     1      -6.004   3.950  72.823  1.00  0.00    -0.010 OA 
BRANCH  46  48
HETATM   48  O   UNL     1      -6.343   5.725  74.254  1.00  0.00    -0.067 OA 
BRANCH  48  49
HETATM   49  C   UNL     1      -7.228   6.854  74.387  1.00  0.00    -0.097 C  
HETATM   50  C   UNL     1      -6.571   8.121  73.869  1.00  0.00    -0.138 C  
ENDBRANCH  48  49
ENDBRANCH  46  48
ENDBRANCH  45  46
ENDBRANCH  44  45
ENDBRANCH  36  44
ENDBRANCH  33  35
ENDBRANCH  24  25
ENDBRANCH  22  24
ENDBRANCH  19  22
ENDBRANCH  12  16
ENDBRANCH   9  12
ENDBRANCH   7   8
ENDBRANCH   6   7
ENDBRANCH   5   6
ENDBRANCH   4   5
ENDBRANCH   3   4
ENDBRANCH   2   3
TORSDOF 18
ENDMDL
MODEL       59
REMARK 921   NORMALIZED FREE ENERGY PREDICTED BY IDOCK:   -4.00 KCAL/MOL
REMARK 922        TOTAL FREE ENERGY PREDICTED BY IDOCK:  -11.41 KCAL/MOL
REMARK 923 INTER-LIGAND FREE ENERGY PREDICTED BY IDOCK:   -9.60 KCAL/MOL
REMARK 924 INTRA-LIGAND FREE ENERGY PREDICTED BY IDOCK:   -1.81 KCAL/MOL
REMARK 927      BINDING AFFINITY PREDICTED BY RF-SCORE:    0.00 PKD
ROOT
HETATM    1  C   UNL     1      -6.176  18.859  65.055  1.00  0.00    -0.294 C  
HETATM    2  C   UNL     1      -6.021  20.329  64.701  1.00  0.00    -0.299 C  
ENDROOT
BRANCH   2   3
HETATM    3  C   UNL     1      -5.585  21.118  65.926  1.00  0.00    -0.273 C  
BRANCH   3   4
HETATM    4  C   UNL     1      -5.328  20.219  67.128  1.00  0.00    -0.182 C  
BRANCH   4   5
HETATM    5  C   UNL     1      -6.278  20.626  68.244  1.00  0.00    -0.363 C  
BRANCH   5   6
HETATM    6  C   UNL     1      -7.390  19.628  68.449  1.00  0.00    -0.319 C  
BRANCH   6   7
HETATM    7  O   UNL     1      -8.511  20.058  67.660  1.00  0.00    -0.320 OA 
BRANCH   7   8
HETATM    8  C   UNL     1      -9.724  19.977  68.273  1.00  0.00    -0.317 C  
HETATM    9  N   UNL     1     -10.684  19.389  67.506  1.00  0.00    -0.474 N  
HETATM   10  O   UNL     1      -9.937  20.402  69.404  1.00  0.00     0.044 OA 
HETATM   11  H   UNL     1     -11.589  19.852  67.409  1.00  0.00     0.000 HD 
BRANCH   9  12
HETATM   12  C   UNL     1     -10.488  18.257  66.892  1.00  0.00    -0.373 C  
HETATM   13  H1  UNL     1     -10.230  17.457  65.046  1.00  0.00     0.000 HD 
HETATM   14  N   UNL     1     -10.383  18.343  65.527  1.00  0.00    -0.521 NA 
HETATM   15  H2  UNL     1     -10.454  19.230  65.028  1.00  0.00     0.000 HD 
BRANCH  12  16
HETATM   16  C   UNL     1     -10.309  16.917  67.535  1.00  0.00    -0.318 A  
HETATM   17  C   UNL     1     -10.394  15.732  66.802  1.00  0.00    -0.293 A  
HETATM   18  C   UNL     1     -10.660  14.532  67.469  1.00  0.00    -0.262 A  
HETATM   19  C   UNL     1     -10.727  14.483  68.868  1.00  0.00    -0.254 A  
HETATM   20  C   UNL     1     -10.465  15.651  69.588  1.00  0.00    -0.283 A  
HETATM   21  C   UNL     1     -10.268  16.866  68.931  1.00  0.00    -0.314 A  
BRANCH  19  22
HETATM   22  N   UNL     1     -11.290  13.338  69.460  1.00  0.00    -0.431 NA 
HETATM   23  H   UNL     1     -11.355  13.238  70.473  1.00  0.00     0.000 HD 
BRANCH  22  24
HETATM   24  C   UNL     1     -11.778  12.296  68.558  1.00  0.00    -0.331 C  
BRANCH  24  25
HETATM   25  C   UNL     1     -10.881  11.105  68.281  1.00  0.00    -0.212 A  
HETATM   26  N   UNL     1     -10.144  10.398  69.129  1.00  0.00    -0.211 NA 
HETATM   27  C   UNL     1      -9.570   9.371  68.390  1.00  0.00    -0.146 A  
HETATM   28  C   UNL     1      -9.978   9.463  67.062  1.00  0.00    -0.221 A  
HETATM   29  N   UNL     1     -10.751  10.598  67.007  1.00  0.00    -0.266 NA 
HETATM   30  C   UNL     1      -9.623   8.520  66.097  1.00  0.00    -0.276 A  
HETATM   31  C   UNL     1      -8.796   7.465  66.499  1.00  0.00    -0.165 A  
HETATM   32  C   UNL     1     -11.362  11.156  65.821  1.00  0.00     0.192 C  
HETATM   33  C   UNL     1      -8.287   7.367  67.802  1.00  0.00    -0.118 A  
HETATM   34  C   UNL     1      -8.701   8.311  68.773  1.00  0.00    -0.137 A  
BRANCH  33  35
HETATM   35  C   UNL     1      -7.360   6.191  68.040  1.00  0.00    -0.088 C  
HETATM   36  N   UNL     1      -7.482   5.353  69.158  1.00  0.00    -0.076 N  
HETATM   37  O   UNL     1      -6.446   6.039  67.224  1.00  0.00    -0.043 OA 
BRANCH  36  38
HETATM   38  C   UNL     1      -8.547   5.468  70.068  1.00  0.00    -0.120 A  
HETATM   39  C   UNL     1     -10.623   5.837  71.804  1.00  0.00    -0.293 A  
HETATM   40  N   UNL     1      -9.807   5.317  69.599  1.00  0.00    -0.184 NA 
HETATM   41  C   UNL     1      -9.320   5.935  72.273  1.00  0.00    -0.152 A  
HETATM   42  C   UNL     1     -10.818   5.523  70.471  1.00  0.00    -0.196 A  
HETATM   43  C   UNL     1      -8.265   5.748  71.400  1.00  0.00    -0.126 A  
ENDBRANCH  36  38
BRANCH  36  44
HETATM   44  C   UNL     1      -6.685   4.120  69.278  1.00  0.00    -0.045 C  
BRANCH  44  45
HETATM   45  C   UNL     1      -7.414   2.774  69.153  1.00  0.00    -0.044 C  
BRANCH  45  46
HETATM   46  C   UNL     1      -8.389   2.554  68.008  1.00  0.00    -0.071 C  
HETATM   47  O   UNL     1      -9.587   2.343  68.092  1.00  0.00    -0.207 OA 
BRANCH  46  48
HETATM   48  O   UNL     1      -7.672   2.610  66.838  1.00  0.00    -0.070 OA 
BRANCH  48  49
HETATM   49  C   UNL     1      -8.134   3.443  65.758  1.00  0.00    -0.093 C  
HETATM   50  C   UNL     1      -6.999   3.779  64.808  1.00  0.00    -0.050 C  
ENDBRANCH  48  49
ENDBRANCH  46  48
ENDBRANCH  45  46
ENDBRANCH  44  45
ENDBRANCH  36  44
ENDBRANCH  33  35
ENDBRANCH  24  25
ENDBRANCH  22  24
ENDBRANCH  19  22
ENDBRANCH  12  16
ENDBRANCH   9  12
ENDBRANCH   7   8
ENDBRANCH   6   7
ENDBRANCH   5   6
ENDBRANCH   4   5
ENDBRANCH   3   4
ENDBRANCH   2   3
TORSDOF 18
ENDMDL
MODEL       60
REMARK 921   NORMALIZED FREE ENERGY PREDICTED BY IDOCK:   -3.89 KCAL/MOL
REMARK 922        TOTAL FREE ENERGY PREDICTED BY IDOCK:  -11.18 KCAL/MOL
REMARK 923 INTER-LIGAND FREE ENERGY PREDICTED BY IDOCK:   -8.23 KCAL/MOL
REMARK 924 INTRA-LIGAND FREE ENERGY PREDICTED BY IDOCK:   -2.95 KCAL/MOL
REMARK 927      BINDING AFFINITY PREDICTED BY RF-SCORE:    0.00 PKD
ROOT
HETATM    1  C   UNL     1     -10.477  13.989  68.728  1.00  0.00    -0.238 C  
HETATM    2  C   UNL     1      -9.289  13.077  68.477  1.00  0.00    -0.078 C  
ENDROOT
BRANCH   2   3
HETATM    3  C   UNL     1      -7.998  13.879  68.512  1.00  0.00    -0.137 C  
BRANCH   3   4
HETATM    4  C   UNL     1      -8.160  15.197  69.259  1.00  0.00    -0.217 C  
BRANCH   4   5
HETATM    5  C   UNL     1      -6.878  16.000  69.101  1.00  0.00    -0.180 C  
BRANCH   5   6
HETATM    6  C   UNL     1      -7.140  17.470  68.884  1.00  0.00    -0.253 C  
BRANCH   6   7
HETATM    7  O   UNL     1      -7.368  17.668  67.479  1.00  0.00    -0.184 OA 
BRANCH   7   8
HETATM    8  C   UNL     1      -8.059  18.794  67.151  1.00  0.00    -0.250 C  
HETATM    9  N   UNL     1      -9.100  18.566  66.302  1.00  0.00    -0.256 N  
HETATM   10  O   UNL     1      -7.768  19.909  67.570  1.00  0.00    -0.268 OA 
HETATM   11  H   UNL     1      -9.197  19.153  65.473  1.00  0.00     0.000 HD 
BRANCH   9  12
HETATM   12  C   UNL     1      -9.976  17.624  66.510  1.00  0.00    -0.332 C  
HETATM   13  H1  UNL     1     -11.374  16.999  67.841  1.00  0.00     0.000 HD 
HETATM   14  N   UNL     1     -10.688  17.736  67.677  1.00  0.00    -0.371 NA 
HETATM   15  H2  UNL     1     -10.541  18.501  68.336  1.00  0.00     0.000 HD 
BRANCH  12  16
HETATM   16  C   UNL     1     -10.308  16.499  65.581  1.00  0.00    -0.342 A  
HETATM   17  C   UNL     1     -11.510  16.462  64.871  1.00  0.00     0.030 A  
HETATM   18  C   UNL     1     -11.976  15.240  64.377  1.00  0.00    -0.285 A  
HETATM   19  C   UNL     1     -11.203  14.076  64.484  1.00  0.00    -0.350 A  
HETATM   20  C   UNL     1      -9.926  14.174  65.043  1.00  0.00    -0.216 A  
HETATM   21  C   UNL     1      -9.481  15.372  65.600  1.00  0.00    -0.255 A  
BRANCH  19  22
HETATM   22  N   UNL     1     -11.837  12.841  64.252  1.00  0.00    -0.368 NA 
HETATM   23  H   UNL     1     -12.811  12.686  64.512  1.00  0.00     0.000 HD 
BRANCH  22  24
HETATM   24  C   UNL     1     -11.039  11.791  63.624  1.00  0.00    -0.439 C  
BRANCH  24  25
HETATM   25  C   UNL     1     -10.099  10.981  64.496  1.00  0.00    -0.321 A  
HETATM   26  N   UNL     1     -10.105  10.828  65.815  1.00  0.00    -0.250 NA 
HETATM   27  C   UNL     1      -9.086   9.932  66.111  1.00  0.00    -0.158 A  
HETATM   28  C   UNL     1      -8.455   9.532  64.937  1.00  0.00    -0.158 A  
HETATM   29  N   UNL     1      -9.069  10.254  63.941  1.00  0.00    -0.231 NA 
HETATM   30  C   UNL     1      -7.440   8.574  64.914  1.00  0.00    -0.094 A  
HETATM   31  C   UNL     1      -7.039   8.030  66.139  1.00  0.00    -0.062 A  
HETATM   32  C   UNL     1      -8.723  10.234  62.537  1.00  0.00    -0.219 C  
HETATM   33  C   UNL     1      -7.581   8.455  67.361  1.00  0.00    -0.098 A  
HETATM   34  C   UNL     1      -8.641   9.394  67.352  1.00  0.00    -0.125 A  
BRANCH  33  35
HETATM   35  C   UNL     1      -6.982   7.798  68.589  1.00  0.00    -0.067 C  
HETATM   36  N   UNL     1      -7.378   6.526  69.028  1.00  0.00    -0.091 N  
HETATM   37  O   UNL     1      -6.162   8.467  69.225  1.00  0.00    -0.037 OA 
BRANCH  36  38
HETATM   38  C   UNL     1      -8.263   5.721  68.292  1.00  0.00    -0.108 A  
HETATM   39  C   UNL     1      -9.965   4.248  66.744  1.00  0.00    -0.191 A  
HETATM   40  N   UNL     1      -7.745   4.713  67.552  1.00  0.00    -0.089 NA 
HETATM   41  C   UNL     1     -10.480   5.253  67.552  1.00  0.00    -0.193 A  
HETATM   42  C   UNL     1      -8.603   4.012  66.780  1.00  0.00    -0.106 A  
HETATM   43  C   UNL     1      -9.624   6.001  68.338  1.00  0.00    -0.130 A  
ENDBRANCH  36  38
BRANCH  36  44
HETATM   44  C   UNL     1      -6.663   5.837  70.117  1.00  0.00    -0.048 C  
BRANCH  44  45
HETATM   45  C   UNL     1      -7.421   5.572  71.426  1.00  0.00    -0.098 C  
BRANCH  45  46
HETATM   46  C   UNL     1      -8.584   4.595  71.432  1.00  0.00    -0.111 C  
HETATM   47  O   UNL     1      -9.633   4.703  72.046  1.00  0.00    -0.140 OA 
BRANCH  46  48
HETATM   48  O   UNL     1      -8.237   3.533  70.633  1.00  0.00    -0.056 OA 
BRANCH  48  49
HETATM   49  C   UNL     1      -7.695   2.340  71.230  1.00  0.00    -0.040 C  
HETATM   50  C   UNL     1      -6.384   1.951  70.571  1.00  0.00    -0.024 C  
ENDBRANCH  48  49
ENDBRANCH  46  48
ENDBRANCH  45  46
ENDBRANCH  44  45
ENDBRANCH  36  44
ENDBRANCH  33  35
ENDBRANCH  24  25
ENDBRANCH  22  24
ENDBRANCH  19  22
ENDBRANCH  12  16
ENDBRANCH   9  12
ENDBRANCH   7   8
ENDBRANCH   6   7
ENDBRANCH   5   6
ENDBRANCH   4   5
ENDBRANCH   3   4
ENDBRANCH   2   3
TORSDOF 18
ENDMDL
MODEL       61
REMARK 921   NORMALIZED FREE ENERGY PREDICTED BY IDOCK:   -3.75 KCAL/MOL
REMARK 922        TOTAL FREE ENERGY PREDICTED BY IDOCK:  -10.90 KCAL/MOL
REMARK 923 INTER-LIGAND FREE ENERGY PREDICTED BY IDOCK:   -8.77 KCAL/MOL
REMARK 924 INTRA-LIGAND FREE ENERGY PREDICTED BY IDOCK:   -2.13 KCAL/MOL
REMARK 927      BINDING AFFINITY PREDICTED BY RF-SCORE:    0.00 PKD
ROOT
HETATM    1  C   UNL     1     -11.103  12.487  63.800  1.00  0.00    -0.503 C  
HETATM    2  C   UNL     1     -10.257  11.347  63.256  1.00  0.00    -0.430 C  
ENDROOT
BRANCH   2   3
HETATM    3  C   UNL     1      -9.478  10.691  64.384  1.00  0.00    -0.317 C  
BRANCH   3   4
HETATM    4  C   UNL     1      -8.500   9.641  63.873  1.00  0.00    -0.190 C  
BRANCH   4   5
HETATM    5  C   UNL     1      -8.238   8.644  64.992  1.00  0.00    -0.159 C  
BRANCH   5   6
HETATM    6  C   UNL     1      -8.230   7.216  64.502  1.00  0.00     0.000 C  
BRANCH   6   7
HETATM    7  O   UNL     1      -8.250   6.361  65.657  1.00  0.00    -0.127 OA 
BRANCH   7   8
HETATM    8  C   UNL     1      -9.464   5.835  65.974  1.00  0.00    -0.086 C  
HETATM    9  N   UNL     1      -9.751   4.684  65.305  1.00  0.00    -0.261 N  
HETATM   10  O   UNL     1     -10.233   6.352  66.778  1.00  0.00    -0.188 OA 
HETATM   11  H   UNL     1     -10.657   4.595  64.843  1.00  0.00     0.000 HD 
BRANCH   9  12
HETATM   12  C   UNL     1      -8.910   3.691  65.233  1.00  0.00    -0.122 C  
HETATM   13  H1  UNL     1      -7.655   2.741  63.954  1.00  0.00     0.000 HD 
HETATM   14  N   UNL     1      -8.313   3.518  64.010  1.00  0.00    -0.090 NA 
HETATM   15  H2  UNL     1      -8.514   4.123  63.214  1.00  0.00     0.000 HD 
BRANCH  12  16
HETATM   16  C   UNL     1      -8.503   2.789  66.356  1.00  0.00    -0.103 A  
HETATM   17  C   UNL     1      -9.421   1.956  66.999  1.00  0.00     0.118 A  
HETATM   18  C   UNL     1      -9.130   1.478  68.280  1.00  0.00    -0.187 A  
HETATM   19  C   UNL     1      -7.888   1.727  68.879  1.00  0.00    -0.045 A  
HETATM   20  C   UNL     1      -6.920   2.416  68.144  1.00  0.00    -0.047 A  
HETATM   21  C   UNL     1      -7.224   2.956  66.895  1.00  0.00    -0.058 A  
BRANCH  19  22
HETATM   22  N   UNL     1      -7.765   1.491  70.261  1.00  0.00    -0.035 NA 
HETATM   23  H   UNL     1      -7.941   0.570  70.662  1.00  0.00     0.000 HD 
BRANCH  22  24
HETATM   24  C   UNL     1      -7.376   2.625  71.097  1.00  0.00    -0.033 C  
BRANCH  24  25
HETATM   25  C   UNL     1      -8.377   3.746  71.302  1.00  0.00    -0.072 A  
HETATM   26  N   UNL     1      -8.582   4.831  70.565  1.00  0.00    -0.094 NA 
HETATM   27  C   UNL     1      -9.658   5.497  71.137  1.00  0.00    -0.162 A  
HETATM   28  C   UNL     1     -10.116   4.789  72.245  1.00  0.00    -0.187 A  
HETATM   29  N   UNL     1      -9.253   3.725  72.366  1.00  0.00    -0.112 NA 
HETATM   30  C   UNL     1     -11.238   5.176  72.978  1.00  0.00    -0.390 A  
HETATM   31  C   UNL     1     -11.897   6.345  72.580  1.00  0.00    -0.174 A  
HETATM   32  C   UNL     1      -9.276   2.724  73.409  1.00  0.00    -0.084 C  
HETATM   33  C   UNL     1     -11.433   7.143  71.523  1.00  0.00    -0.298 A  
HETATM   34  C   UNL     1     -10.320   6.703  70.768  1.00  0.00    -0.232 A  
BRANCH  33  35
HETATM   35  C   UNL     1     -12.238   8.403  71.274  1.00  0.00    -0.277 C  
HETATM   36  N   UNL     1     -11.686   9.536  70.656  1.00  0.00    -0.273 N  
HETATM   37  O   UNL     1     -13.397   8.407  71.696  1.00  0.00    -0.337 OA 
BRANCH  36  38
HETATM   38  C   UNL     1     -10.391   9.538  70.112  1.00  0.00    -0.255 A  
HETATM   39  C   UNL     1      -7.868   9.691  69.077  1.00  0.00    -0.079 A  
HETATM   40  N   UNL     1      -9.343   9.403  70.958  1.00  0.00    -0.211 NA 
HETATM   41  C   UNL     1      -8.959   9.774  68.222  1.00  0.00    -0.119 A  
HETATM   42  C   UNL     1      -8.105   9.502  70.426  1.00  0.00    -0.183 A  
HETATM   43  C   UNL     1     -10.238   9.696  68.740  1.00  0.00    -0.213 A  
ENDBRANCH  36  38
BRANCH  36  44
HETATM   44  C   UNL     1     -12.530  10.680  70.268  1.00  0.00    -0.304 C  
BRANCH  44  45
HETATM   45  C   UNL     1     -12.696  11.829  71.273  1.00  0.00    -0.420 C  
BRANCH  45  46
HETATM   46  C   UNL     1     -12.352  13.248  70.851  1.00  0.00    -0.329 C  
HETATM   47  O   UNL     1     -12.029  14.174  71.577  1.00  0.00    -0.272 OA 
BRANCH  46  48
HETATM   48  O   UNL     1     -12.495  13.320  69.487  1.00  0.00    -0.138 OA 
BRANCH  48  49
HETATM   49  C   UNL     1     -11.410  13.821  68.683  1.00  0.00    -0.287 C  
HETATM   50  C   UNL     1     -11.575  13.409  67.231  1.00  0.00    -0.400 C  
ENDBRANCH  48  49
ENDBRANCH  46  48
ENDBRANCH  45  46
ENDBRANCH  44  45
ENDBRANCH  36  44
ENDBRANCH  33  35
ENDBRANCH  24  25
ENDBRANCH  22  24
ENDBRANCH  19  22
ENDBRANCH  12  16
ENDBRANCH   9  12
ENDBRANCH   7   8
ENDBRANCH   6   7
ENDBRANCH   5   6
ENDBRANCH   4   5
ENDBRANCH   3   4
ENDBRANCH   2   3
TORSDOF 18
ENDMDL
MODEL       62
REMARK 921   NORMALIZED FREE ENERGY PREDICTED BY IDOCK:   -3.71 KCAL/MOL
REMARK 922        TOTAL FREE ENERGY PREDICTED BY IDOCK:  -10.83 KCAL/MOL
REMARK 923 INTER-LIGAND FREE ENERGY PREDICTED BY IDOCK:   -8.37 KCAL/MOL
REMARK 924 INTRA-LIGAND FREE ENERGY PREDICTED BY IDOCK:   -2.46 KCAL/MOL
REMARK 927      BINDING AFFINITY PREDICTED BY RF-SCORE:    0.00 PKD
ROOT
HETATM    1  C   UNL     1     -11.413   7.237  69.928  1.00  0.00    -0.085 C  
HETATM    2  C   UNL     1     -12.285   7.417  71.159  1.00  0.00    -0.357 C  
ENDROOT
BRANCH   2   3
HETATM    3  C   UNL     1     -11.488   7.101  72.415  1.00  0.00    -0.303 C  
BRANCH   3   4
HETATM    4  C   UNL     1     -10.694   5.808  72.282  1.00  0.00    -0.282 C  
BRANCH   4   5
HETATM    5  C   UNL     1     -11.402   4.726  73.083  1.00  0.00    -0.380 C  
BRANCH   5   6
HETATM    6  C   UNL     1     -10.461   3.638  73.542  1.00  0.00    -0.179 C  
BRANCH   6   7
HETATM    7  O   UNL     1      -9.881   3.043  72.370  1.00  0.00    -0.137 OA 
BRANCH   7   8
HETATM    8  C   UNL     1      -8.697   2.400  72.565  1.00  0.00    -0.066 C  
HETATM    9  N   UNL     1      -7.770   2.662  71.601  1.00  0.00    -0.044 N  
HETATM   10  O   UNL     1      -8.487   1.648  73.511  1.00  0.00    -0.052 OA 
HETATM   11  H   UNL     1      -7.278   1.881  71.167  1.00  0.00     0.000 HD 
BRANCH   9  12
HETATM   12  C   UNL     1      -7.489   3.875  71.215  1.00  0.00    -0.044 C  
HETATM   13  H1  UNL     1      -6.855   5.673  71.907  1.00  0.00     0.000 HD 
HETATM   14  N   UNL     1      -7.075   4.724  72.210  1.00  0.00    -0.075 NA 
HETATM   15  H2  UNL     1      -6.993   4.427  73.182  1.00  0.00     0.000 HD 
BRANCH  12  16
HETATM   16  C   UNL     1      -7.518   4.387  69.809  1.00  0.00    -0.050 A  
HETATM   17  C   UNL     1      -8.714   4.723  69.173  1.00  0.00    -0.109 A  
HETATM   18  C   UNL     1      -8.757   4.768  67.776  1.00  0.00    -0.107 A  
HETATM   19  C   UNL     1      -7.595   4.597  67.012  1.00  0.00    -0.086 A  
HETATM   20  C   UNL     1      -6.378   4.436  67.679  1.00  0.00    -0.037 A  
HETATM   21  C   UNL     1      -6.335   4.320  69.067  1.00  0.00    -0.032 A  
BRANCH  19  22
HETATM   22  N   UNL     1      -7.744   4.350  65.635  1.00  0.00    -0.089 NA 
HETATM   23  H   UNL     1      -8.116   3.465  65.289  1.00  0.00     0.000 HD 
BRANCH  22  24
HETATM   24  C   UNL     1      -7.343   5.418  64.721  1.00  0.00    -0.067 C  
BRANCH  24  25
HETATM   25  C   UNL     1      -8.050   6.756  64.821  1.00  0.00    -0.098 A  
HETATM   26  N   UNL     1      -8.823   7.222  65.795  1.00  0.00    -0.114 NA 
HETATM   27  C   UNL     1      -9.162   8.522  65.439  1.00  0.00     0.026 A  
HETATM   28  C   UNL     1      -8.572   8.845  64.220  1.00  0.00    -0.109 A  
HETATM   29  N   UNL     1      -7.930   7.697  63.822  1.00  0.00    -0.121 NA 
HETATM   30  C   UNL     1      -8.671  10.114  63.647  1.00  0.00    -0.218 A  
HETATM   31  C   UNL     1      -9.425  11.073  64.330  1.00  0.00    -0.273 A  
HETATM   32  C   UNL     1      -7.214   7.507  62.580  1.00  0.00    -0.085 C  
HETATM   33  C   UNL     1     -10.111  10.780  65.519  1.00  0.00    -0.335 A  
HETATM   34  C   UNL     1      -9.955   9.500  66.103  1.00  0.00    -0.342 A  
BRANCH  33  35
HETATM   35  C   UNL     1     -10.926  11.926  66.085  1.00  0.00    -0.308 C  
HETATM   36  N   UNL     1     -10.449  12.747  67.118  1.00  0.00    -0.232 N  
HETATM   37  O   UNL     1     -12.065  12.067  65.630  1.00  0.00    -0.508 OA 
BRANCH  36  38
HETATM   38  C   UNL     1      -9.138  12.647  67.611  1.00  0.00    -0.192 A  
HETATM   39  C   UNL     1      -6.627  12.547  68.681  1.00  0.00    -0.083 A  
HETATM   40  N   UNL     1      -8.878  11.703  68.545  1.00  0.00    -0.157 NA 
HETATM   41  C   UNL     1      -6.904  13.473  67.684  1.00  0.00    -0.178 A  
HETATM   42  C   UNL     1      -7.634  11.685  69.073  1.00  0.00    -0.027 A  
HETATM   43  C   UNL     1      -8.173  13.527  67.138  1.00  0.00    -0.126 A  
ENDBRANCH  36  38
BRANCH  36  44
HETATM   44  C   UNL     1     -11.183  13.956  67.531  1.00  0.00    -0.303 C  
BRANCH  44  45
HETATM   45  C   UNL     1     -11.275  14.268  69.032  1.00  0.00    -0.294 C  
BRANCH  45  46
HETATM   46  C   UNL     1     -11.317  15.715  69.495  1.00  0.00    -0.327 C  
HETATM   47  O   UNL     1     -11.613  16.692  68.828  1.00  0.00    -0.178 OA 
BRANCH  46  48
HETATM   48  O   UNL     1     -10.931  15.739  70.813  1.00  0.00    -0.326 OA 
BRANCH  48  49
HETATM   49  C   UNL     1     -11.813  16.301  71.803  1.00  0.00    -0.439 C  
HETATM   50  C   UNL     1     -12.625  15.215  72.485  1.00  0.00    -0.439 C  
ENDBRANCH  48  49
ENDBRANCH  46  48
ENDBRANCH  45  46
ENDBRANCH  44  45
ENDBRANCH  36  44
ENDBRANCH  33  35
ENDBRANCH  24  25
ENDBRANCH  22  24
ENDBRANCH  19  22
ENDBRANCH  12  16
ENDBRANCH   9  12
ENDBRANCH   7   8
ENDBRANCH   6   7
ENDBRANCH   5   6
ENDBRANCH   4   5
ENDBRANCH   3   4
ENDBRANCH   2   3
TORSDOF 18
ENDMDL
MODEL       63
REMARK 921   NORMALIZED FREE ENERGY PREDICTED BY IDOCK:   -3.62 KCAL/MOL
REMARK 922        TOTAL FREE ENERGY PREDICTED BY IDOCK:  -10.64 KCAL/MOL
REMARK 923 INTER-LIGAND FREE ENERGY PREDICTED BY IDOCK:  -10.49 KCAL/MOL
REMARK 924 INTRA-LIGAND FREE ENERGY PREDICTED BY IDOCK:   -0.15 KCAL/MOL
REMARK 927      BINDING AFFINITY PREDICTED BY RF-SCORE:    0.00 PKD
ROOT
HETATM    1  C   UNL     1     -13.414  13.682  71.448  1.00  0.00    -0.266 C  
HETATM    2  C   UNL     1     -13.452  15.029  72.150  1.00  0.00    -0.508 C  
ENDROOT
BRANCH   2   3
HETATM    3  C   UNL     1     -12.119  15.741  71.986  1.00  0.00    -0.562 C  
BRANCH   3   4
HETATM    4  C   UNL     1     -11.292  15.159  70.848  1.00  0.00    -0.345 C  
BRANCH   4   5
HETATM    5  C   UNL     1     -11.481  16.036  69.619  1.00  0.00    -0.326 C  
BRANCH   5   6
HETATM    6  C   UNL     1     -10.517  17.197  69.585  1.00  0.00    -0.022 C  
BRANCH   6   7
HETATM    7  O   UNL     1     -10.922  18.066  68.515  1.00  0.00    -0.011 OA 
BRANCH   7   8
HETATM    8  C   UNL     1      -9.919  18.767  67.919  1.00  0.00    -0.354 C  
HETATM    9  N   UNL     1      -8.745  18.081  67.843  1.00  0.00    -0.252 N  
HETATM   10  O   UNL     1     -10.054  19.912  67.500  1.00  0.00    -0.379 OA 
HETATM   11  H   UNL     1      -7.886  18.539  68.151  1.00  0.00     0.000 HD 
BRANCH   9  12
HETATM   12  C   UNL     1      -8.679  16.860  67.393  1.00  0.00    -0.203 C  
HETATM   13  H1  UNL     1      -7.847  15.051  67.778  1.00  0.00     0.000 HD 
HETATM   14  N   UNL     1      -7.899  16.007  68.130  1.00  0.00    -0.138 NA 
HETATM   15  H2  UNL     1      -7.405  16.306  68.971  1.00  0.00     0.000 HD 
BRANCH  12  16
HETATM   16  C   UNL     1      -9.412  16.310  66.210  1.00  0.00    -0.347 A  
HETATM   17  C   UNL     1     -10.451  17.013  65.597  1.00  0.00    -0.229 A  
HETATM   18  C   UNL     1     -11.378  16.319  64.814  1.00  0.00    -0.214 A  
HETATM   19  C   UNL     1     -11.216  14.954  64.542  1.00  0.00    -0.264 A  
HETATM   20  C   UNL     1     -10.073  14.311  65.023  1.00  0.00    -0.324 A  
HETATM   21  C   UNL     1      -9.180  14.976  65.862  1.00  0.00    -0.158 A  
BRANCH  19  22
HETATM   22  N   UNL     1     -12.317  14.252  64.017  1.00  0.00    -0.878 NA 
HETATM   23  H   UNL     1     -12.699  14.472  63.097  1.00  0.00     0.000 HD 
BRANCH  22  24
HETATM   24  C   UNL     1     -12.890  13.196  64.849  1.00  0.00    -0.280 C  
BRANCH  24  25
HETATM   25  C   UNL     1     -11.950  12.182  65.473  1.00  0.00    -0.220 A  
HETATM   26  N   UNL     1     -11.280  11.194  64.893  1.00  0.00    -0.052 NA 
HETATM   27  C   UNL     1     -10.506  10.607  65.886  1.00  0.00    -0.174 A  
HETATM   28  C   UNL     1     -10.714  11.265  67.096  1.00  0.00    -0.253 A  
HETATM   29  N   UNL     1     -11.674  12.211  66.823  1.00  0.00    -0.557 NA 
HETATM   30  C   UNL     1     -10.013  10.946  68.259  1.00  0.00    -0.187 A  
HETATM   31  C   UNL     1      -9.090   9.897  68.189  1.00  0.00    -0.121 A  
HETATM   32  C   UNL     1     -12.274  13.116  67.778  1.00  0.00    -0.076 C  
HETATM   33  C   UNL     1      -8.899   9.144  67.020  1.00  0.00    -0.135 A  
HETATM   34  C   UNL     1      -9.589   9.519  65.842  1.00  0.00    -0.327 A  
BRANCH  33  35
HETATM   35  C   UNL     1      -7.903   8.009  67.147  1.00  0.00    -0.105 C  
HETATM   36  N   UNL     1      -8.049   6.985  68.095  1.00  0.00    -0.118 N  
HETATM   37  O   UNL     1      -6.916   8.059  66.409  1.00  0.00    -0.068 OA 
BRANCH  36  38
HETATM   38  C   UNL     1      -9.191   6.871  68.906  1.00  0.00    -0.132 A  
HETATM   39  C   UNL     1     -11.383   6.500  70.493  1.00  0.00    -0.426 A  
HETATM   40  N   UNL     1      -9.037   6.985  70.245  1.00  0.00    -0.156 NA 
HETATM   41  C   UNL     1     -11.526   6.440  69.113  1.00  0.00    -0.265 A  
HETATM   42  C   UNL     1     -10.131   6.778  71.011  1.00  0.00    -0.189 A  
HETATM   43  C   UNL     1     -10.420   6.628  68.305  1.00  0.00    -0.249 A  
ENDBRANCH  36  38
BRANCH  36  44
HETATM   44  C   UNL     1      -7.167   5.804  68.085  1.00  0.00    -0.076 C  
BRANCH  44  45
HETATM   45  C   UNL     1      -7.587   4.597  67.235  1.00  0.00    -0.086 C  
BRANCH  45  46
HETATM   46  C   UNL     1      -7.441   4.659  65.723  1.00  0.00    -0.081 C  
HETATM   47  O   UNL     1      -6.549   5.202  65.092  1.00  0.00    -0.038 OA 
BRANCH  46  48
HETATM   48  O   UNL     1      -8.519   4.008  65.176  1.00  0.00    -0.110 OA 
BRANCH  48  49
HETATM   49  C   UNL     1      -9.785   4.025  65.863  1.00  0.00    -0.188 C  
HETATM   50  C   UNL     1     -10.913   4.382  64.913  1.00  0.00    -0.040 C  
ENDBRANCH  48  49
ENDBRANCH  46  48
ENDBRANCH  45  46
ENDBRANCH  44  45
ENDBRANCH  36  44
ENDBRANCH  33  35
ENDBRANCH  24  25
ENDBRANCH  22  24
ENDBRANCH  19  22
ENDBRANCH  12  16
ENDBRANCH   9  12
ENDBRANCH   7   8
ENDBRANCH   6   7
ENDBRANCH   5   6
ENDBRANCH   4   5
ENDBRANCH   3   4
ENDBRANCH   2   3
TORSDOF 18
ENDMDL
MODEL       64
REMARK 921   NORMALIZED FREE ENERGY PREDICTED BY IDOCK:   -3.60 KCAL/MOL
REMARK 922        TOTAL FREE ENERGY PREDICTED BY IDOCK:  -10.60 KCAL/MOL
REMARK 923 INTER-LIGAND FREE ENERGY PREDICTED BY IDOCK:   -9.55 KCAL/MOL
REMARK 924 INTRA-LIGAND FREE ENERGY PREDICTED BY IDOCK:   -1.05 KCAL/MOL
REMARK 927      BINDING AFFINITY PREDICTED BY RF-SCORE:    0.00 PKD
ROOT
HETATM    1  C   UNL     1      -9.763   3.454  71.054  1.00  0.00    -0.216 C  
HETATM    2  C   UNL     1     -10.293   3.509  72.477  1.00  0.00    -0.196 C  
ENDROOT
BRANCH   2   3
HETATM    3  C   UNL     1     -10.858   4.889  72.771  1.00  0.00    -0.293 C  
BRANCH   3   4
HETATM    4  C   UNL     1     -10.367   5.441  74.103  1.00  0.00    -0.307 C  
BRANCH   4   5
HETATM    5  C   UNL     1     -10.240   6.952  73.979  1.00  0.00    -0.384 C  
BRANCH   5   6
HETATM    6  C   UNL     1      -9.878   7.388  72.581  1.00  0.00    -0.178 C  
BRANCH   6   7
HETATM    7  O   UNL     1     -10.656   8.557  72.275  1.00  0.00    -0.319 OA 
BRANCH   7   8
HETATM    8  C   UNL     1     -11.718   8.353  71.449  1.00  0.00    -0.287 C  
HETATM    9  N   UNL     1     -12.215   9.500  70.906  1.00  0.00    -0.397 N  
HETATM   10  O   UNL     1     -12.192   7.244  71.221  1.00  0.00    -0.321 OA 
HETATM   11  H   UNL     1     -13.220   9.669  70.947  1.00  0.00     0.000 HD 
BRANCH   9  12
HETATM   12  C   UNL     1     -11.451  10.390  70.337  1.00  0.00    -0.337 C  
HETATM   13  H1  UNL     1      -9.516  10.786  69.879  1.00  0.00     0.000 HD 
HETATM   14  N   UNL     1     -10.113  10.089  70.325  1.00  0.00    -0.392 NA 
HETATM   15  H2  UNL     1      -9.742   9.231  70.733  1.00  0.00     0.000 HD 
BRANCH  12  16
HETATM   16  C   UNL     1     -11.905  11.644  69.658  1.00  0.00    -0.419 A  
HETATM   17  C   UNL     1     -12.014  11.730  68.269  1.00  0.00    -0.236 A  
HETATM   18  C   UNL     1     -12.005  12.987  67.658  1.00  0.00    -0.353 A  
HETATM   19  C   UNL     1     -12.005  14.162  68.423  1.00  0.00    -0.331 A  
HETATM   20  C   UNL     1     -12.072  14.050  69.814  1.00  0.00    -0.405 A  
HETATM   21  C   UNL     1     -12.011  12.802  70.433  1.00  0.00    -0.331 A  
BRANCH  19  22
HETATM   22  N   UNL     1     -11.691  15.370  67.773  1.00  0.00    -0.313 NA 
HETATM   23  H   UNL     1     -12.357  16.142  67.733  1.00  0.00     0.000 HD 
BRANCH  22  24
HETATM   24  C   UNL     1     -10.370  15.469  67.157  1.00  0.00    -0.272 C  
BRANCH  24  25
HETATM   25  C   UNL     1      -9.573  14.195  66.953  1.00  0.00    -0.270 A  
HETATM   26  N   UNL     1      -9.720  13.255  66.028  1.00  0.00    -0.256 NA 
HETATM   27  C   UNL     1      -8.695  12.340  66.230  1.00  0.00     0.062 A  
HETATM   28  C   UNL     1      -7.908  12.744  67.305  1.00  0.00    -0.146 A  
HETATM   29  N   UNL     1      -8.518  13.880  67.783  1.00  0.00    -0.169 NA 
HETATM   30  C   UNL     1      -6.756  12.061  67.697  1.00  0.00    -0.109 A  
HETATM   31  C   UNL     1      -6.416  10.907  66.982  1.00  0.00    -0.085 A  
HETATM   32  C   UNL     1      -8.108  14.646  68.938  1.00  0.00    -0.147 C  
HETATM   33  C   UNL     1      -7.216  10.406  65.944  1.00  0.00    -0.135 A  
HETATM   34  C   UNL     1      -8.354  11.144  65.537  1.00  0.00     0.052 A  
BRANCH  33  35
HETATM   35  C   UNL     1      -6.723   9.113  65.325  1.00  0.00    -0.069 C  
HETATM   36  N   UNL     1      -7.156   7.855  65.769  1.00  0.00    -0.060 N  
HETATM   37  O   UNL     1      -5.869   9.219  64.440  1.00  0.00    -0.068 OA 
BRANCH  36  38
HETATM   38  C   UNL     1      -8.170   7.707  66.731  1.00  0.00    -0.124 A  
HETATM   39  C   UNL     1     -10.129   7.270  68.584  1.00  0.00    -0.182 A  
HETATM   40  N   UNL     1      -7.805   7.569  68.027  1.00  0.00    -0.119 NA 
HETATM   41  C   UNL     1     -10.482   7.467  67.255  1.00  0.00    -0.385 A  
HETATM   42  C   UNL     1      -8.789   7.335  68.922  1.00  0.00    -0.127 A  
HETATM   43  C   UNL     1      -9.495   7.689  66.314  1.00  0.00    -0.176 A  
ENDBRANCH  36  38
BRANCH  36  44
HETATM   44  C   UNL     1      -6.799   6.624  65.042  1.00  0.00    -0.050 C  
BRANCH  44  45
HETATM   45  C   UNL     1      -7.897   5.920  64.231  1.00  0.00    -0.116 C  
BRANCH  45  46
HETATM   46  C   UNL     1      -7.784   4.429  63.956  1.00  0.00    -0.079 C  
HETATM   47  O   UNL     1      -7.119   3.889  63.087  1.00  0.00    -0.043 OA 
BRANCH  46  48
HETATM   48  O   UNL     1      -8.596   3.781  64.854  1.00  0.00    -0.110 OA 
BRANCH  48  49
HETATM   49  C   UNL     1     -10.008   4.062  64.870  1.00  0.00    -0.205 C  
HETATM   50  C   UNL     1     -10.742   3.213  63.848  1.00  0.00    -0.151 C  
ENDBRANCH  48  49
ENDBRANCH  46  48
ENDBRANCH  45  46
ENDBRANCH  44  45
ENDBRANCH  36  44
ENDBRANCH  33  35
ENDBRANCH  24  25
ENDBRANCH  22  24
ENDBRANCH  19  22
ENDBRANCH  12  16
ENDBRANCH   9  12
ENDBRANCH   7   8
ENDBRANCH   6   7
ENDBRANCH   5   6
ENDBRANCH   4   5
ENDBRANCH   3   4
ENDBRANCH   2   3
TORSDOF 18
ENDMDL
MODEL       65
REMARK 921   NORMALIZED FREE ENERGY PREDICTED BY IDOCK:   -3.58 KCAL/MOL
REMARK 922        TOTAL FREE ENERGY PREDICTED BY IDOCK:  -10.55 KCAL/MOL
REMARK 923 INTER-LIGAND FREE ENERGY PREDICTED BY IDOCK:   -8.70 KCAL/MOL
REMARK 924 INTRA-LIGAND FREE ENERGY PREDICTED BY IDOCK:   -1.86 KCAL/MOL
REMARK 927      BINDING AFFINITY PREDICTED BY RF-SCORE:    0.00 PKD
ROOT
HETATM    1  C   UNL     1     -12.057  13.157  70.449  1.00  0.00    -0.392 C  
HETATM    2  C   UNL     1     -12.998  12.584  71.496  1.00  0.00    -0.379 C  
ENDROOT
BRANCH   2   3
HETATM    3  C   UNL     1     -12.921  11.065  71.490  1.00  0.00    -0.553 C  
BRANCH   3   4
HETATM    4  C   UNL     1     -11.603  10.558  70.920  1.00  0.00    -0.385 C  
BRANCH   4   5
HETATM    5  C   UNL     1     -11.783   9.102  70.516  1.00  0.00    -0.193 C  
BRANCH   5   6
HETATM    6  C   UNL     1     -10.482   8.448  70.121  1.00  0.00    -0.228 C  
BRANCH   6   7
HETATM    7  O   UNL     1      -9.714   8.250  71.319  1.00  0.00    -0.161 OA 
BRANCH   7   8
HETATM    8  C   UNL     1      -8.378   8.480  71.203  1.00  0.00    -0.150 C  
HETATM    9  N   UNL     1      -7.610   7.394  71.497  1.00  0.00    -0.084 N  
HETATM   10  O   UNL     1      -7.907   9.565  70.875  1.00  0.00    -0.299 OA 
HETATM   11  H   UNL     1      -6.825   7.505  72.139  1.00  0.00     0.000 HD 
BRANCH   9  12
HETATM   12  C   UNL     1      -7.843   6.217  70.987  1.00  0.00    -0.111 C  
HETATM   13  H1  UNL     1      -8.205   4.289  71.501  1.00  0.00     0.000 HD 
HETATM   14  N   UNL     1      -8.022   5.210  71.900  1.00  0.00    -0.110 NA 
HETATM   15  H2  UNL     1      -7.976   5.370  72.906  1.00  0.00     0.000 HD 
BRANCH  12  16
HETATM   16  C   UNL     1      -7.991   5.894  69.533  1.00  0.00    -0.105 A  
HETATM   17  C   UNL     1      -7.001   6.218  68.604  1.00  0.00    -0.080 A  
HETATM   18  C   UNL     1      -7.338   6.309  67.249  1.00  0.00    -0.083 A  
HETATM   19  C   UNL     1      -8.621   5.970  66.799  1.00  0.00    -0.110 A  
HETATM   20  C   UNL     1      -9.543   5.480  67.727  1.00  0.00    -0.138 A  
HETATM   21  C   UNL     1      -9.240   5.451  69.088  1.00  0.00    -0.147 A  
BRANCH  19  22
HETATM   22  N   UNL     1      -8.989   6.367  65.501  1.00  0.00    -0.360 NA 
HETATM   23  H   UNL     1      -9.675   5.842  64.958  1.00  0.00     0.000 HD 
BRANCH  22  24
HETATM   24  C   UNL     1      -8.344   7.563  64.963  1.00  0.00    -0.061 C  
BRANCH  24  25
HETATM   25  C   UNL     1      -8.208   8.775  65.865  1.00  0.00    -0.118 A  
HETATM   26  N   UNL     1      -7.140   9.526  66.102  1.00  0.00    -0.091 NA 
HETATM   27  C   UNL     1      -7.558  10.551  66.941  1.00  0.00    -0.110 A  
HETATM   28  C   UNL     1      -8.917  10.414  67.211  1.00  0.00    -0.135 A  
HETATM   29  N   UNL     1      -9.289   9.253  66.574  1.00  0.00    -0.165 NA 
HETATM   30  C   UNL     1      -9.635  11.343  67.965  1.00  0.00    -0.184 A  
HETATM   31  C   UNL     1      -8.930  12.434  68.485  1.00  0.00    -0.058 A  
HETATM   32  C   UNL     1     -10.601   8.646  66.605  1.00  0.00    -0.060 C  
HETATM   33  C   UNL     1      -7.545  12.580  68.316  1.00  0.00    -0.129 A  
HETATM   34  C   UNL     1      -6.850  11.649  67.508  1.00  0.00    -0.104 A  
BRANCH  33  35
HETATM   35  C   UNL     1      -6.943  13.791  69.001  1.00  0.00    -0.104 C  
HETATM   36  N   UNL     1      -7.369  15.099  68.725  1.00  0.00    -0.123 N  
HETATM   37  O   UNL     1      -6.009  13.574  69.779  1.00  0.00    -0.109 OA 
BRANCH  36  38
HETATM   38  C   UNL     1      -8.466  15.370  67.892  1.00  0.00    -0.147 A  
HETATM   39  C   UNL     1     -10.554  16.040  66.263  1.00  0.00    -0.288 A  
HETATM   40  N   UNL     1      -8.296  15.255  66.554  1.00  0.00    -0.180 NA 
HETATM   41  C   UNL     1     -10.721  16.100  67.640  1.00  0.00    -0.318 A  
HETATM   42  C   UNL     1      -9.336  15.610  65.768  1.00  0.00    -0.268 A  
HETATM   43  C   UNL     1      -9.668  15.761  68.469  1.00  0.00    -0.206 A  
ENDBRANCH  36  38
BRANCH  36  44
HETATM   44  C   UNL     1      -6.893  16.241  69.525  1.00  0.00    -0.188 C  
BRANCH  44  45
HETATM   45  C   UNL     1      -6.035  17.306  68.826  1.00  0.00    -0.167 C  
BRANCH  45  46
HETATM   46  C   UNL     1      -6.671  18.619  68.403  1.00  0.00    -0.241 C  
HETATM   47  O   UNL     1      -7.655  18.767  67.698  1.00  0.00    -0.228 OA 
BRANCH  46  48
HETATM   48  O   UNL     1      -5.917  19.635  68.939  1.00  0.00    -0.225 OA 
BRANCH  48  49
HETATM   49  C   UNL     1      -6.344  20.272  70.158  1.00  0.00    -0.266 C  
HETATM   50  C   UNL     1      -5.540  19.768  71.343  1.00  0.00    -0.355 C  
ENDBRANCH  48  49
ENDBRANCH  46  48
ENDBRANCH  45  46
ENDBRANCH  44  45
ENDBRANCH  36  44
ENDBRANCH  33  35
ENDBRANCH  24  25
ENDBRANCH  22  24
ENDBRANCH  19  22
ENDBRANCH  12  16
ENDBRANCH   9  12
ENDBRANCH   7   8
ENDBRANCH   6   7
ENDBRANCH   5   6
ENDBRANCH   4   5
ENDBRANCH   3   4
ENDBRANCH   2   3
TORSDOF 18
ENDMDL
MODEL       66
REMARK 921   NORMALIZED FREE ENERGY PREDICTED BY IDOCK:   -3.51 KCAL/MOL
REMARK 922        TOTAL FREE ENERGY PREDICTED BY IDOCK:  -10.42 KCAL/MOL
REMARK 923 INTER-LIGAND FREE ENERGY PREDICTED BY IDOCK:   -8.36 KCAL/MOL
REMARK 924 INTRA-LIGAND FREE ENERGY PREDICTED BY IDOCK:   -2.06 KCAL/MOL
REMARK 927      BINDING AFFINITY PREDICTED BY RF-SCORE:    0.00 PKD
ROOT
HETATM    1  C   UNL     1     -12.995  12.764  64.741  1.00  0.00    -0.228 C  
HETATM    2  C   UNL     1     -11.738  12.768  63.887  1.00  0.00    -0.530 C  
ENDROOT
BRANCH   2   3
HETATM    3  C   UNL     1     -10.714  13.728  64.470  1.00  0.00    -0.405 C  
BRANCH   3   4
HETATM    4  C   UNL     1     -11.195  15.173  64.437  1.00  0.00    -0.181 C  
BRANCH   4   5
HETATM    5  C   UNL     1     -10.858  15.822  65.771  1.00  0.00    -0.286 C  
BRANCH   5   6
HETATM    6  C   UNL     1     -10.718  17.321  65.664  1.00  0.00    -0.120 C  
BRANCH   6   7
HETATM    7  O   UNL     1      -9.319  17.634  65.760  1.00  0.00    -0.511 OA 
BRANCH   7   8
HETATM    8  C   UNL     1      -9.004  18.659  66.599  1.00  0.00    -0.306 C  
HETATM    9  N   UNL     1      -9.446  18.473  67.874  1.00  0.00    -0.289 N  
HETATM   10  O   UNL     1      -8.391  19.659  66.241  1.00  0.00    -0.331 OA 
HETATM   11  H   UNL     1      -9.956  19.229  68.334  1.00  0.00     0.000 HD 
BRANCH   9  12
HETATM   12  C   UNL     1      -9.243  17.365  68.529  1.00  0.00    -0.277 C  
HETATM   13  H1  UNL     1     -10.147  16.055  69.785  1.00  0.00     0.000 HD 
HETATM   14  N   UNL     1     -10.306  16.922  69.273  1.00  0.00    -0.314 NA 
HETATM   15  H2  UNL     1     -11.193  17.425  69.313  1.00  0.00     0.000 HD 
BRANCH  12  16
HETATM   16  C   UNL     1      -8.005  16.524  68.487  1.00  0.00    -0.216 A  
HETATM   17  C   UNL     1      -7.908  15.400  67.665  1.00  0.00    -0.175 A  
HETATM   18  C   UNL     1      -6.959  14.417  67.961  1.00  0.00    -0.149 A  
HETATM   19  C   UNL     1      -6.031  14.595  68.996  1.00  0.00    -0.089 A  
HETATM   20  C   UNL     1      -6.037  15.807  69.692  1.00  0.00    -0.159 A  
HETATM   21  C   UNL     1      -7.022  16.764  69.451  1.00  0.00    -0.176 A  
BRANCH  19  22
HETATM   22  N   UNL     1      -5.316  13.468  69.441  1.00  0.00    -0.082 NA 
HETATM   23  H   UNL     1      -4.341  13.321  69.183  1.00  0.00     0.000 HD 
BRANCH  22  24
HETATM   24  C   UNL     1      -6.033  12.518  70.288  1.00  0.00    -0.126 C  
BRANCH  24  25
HETATM   25  C   UNL     1      -6.491  11.209  69.674  1.00  0.00    -0.128 A  
HETATM   26  N   UNL     1      -7.300  11.006  68.642  1.00  0.00    -0.096 NA 
HETATM   27  C   UNL     1      -7.339   9.633  68.435  1.00  0.00    -0.075 A  
HETATM   28  C   UNL     1      -6.525   8.994  69.367  1.00  0.00    -0.044 A  
HETATM   29  N   UNL     1      -6.054  10.001  70.175  1.00  0.00    -0.059 NA 
HETATM   30  C   UNL     1      -6.304   7.616  69.357  1.00  0.00    -0.035 A  
HETATM   31  C   UNL     1      -6.963   6.865  68.377  1.00  0.00    -0.080 A  
HETATM   32  C   UNL     1      -5.208   9.837  71.336  1.00  0.00    -0.072 C  
HETATM   33  C   UNL     1      -7.859   7.443  67.466  1.00  0.00    -0.112 A  
HETATM   34  C   UNL     1      -8.028   8.848  67.468  1.00  0.00    -0.101 A  
BRANCH  33  35
HETATM   35  C   UNL     1      -8.525   6.466  66.517  1.00  0.00    -0.118 C  
HETATM   36  N   UNL     1      -9.481   5.534  66.950  1.00  0.00    -0.129 N  
HETATM   37  O   UNL     1      -8.141   6.489  65.345  1.00  0.00    -0.117 OA 
BRANCH  36  38
HETATM   38  C   UNL     1      -9.979   5.525  68.263  1.00  0.00    -0.154 A  
HETATM   39  C   UNL     1     -10.842   5.608  70.854  1.00  0.00    -0.294 A  
HETATM   40  N   UNL     1     -10.926   6.434  68.593  1.00  0.00    -0.321 NA 
HETATM   41  C   UNL     1      -9.909   4.650  70.479  1.00  0.00    -0.301 A  
HETATM   42  C   UNL     1     -11.323   6.469  69.884  1.00  0.00    -0.406 A  
HETATM   43  C   UNL     1      -9.470   4.602  69.169  1.00  0.00    -0.224 A  
ENDBRANCH  36  38
BRANCH  36  44
HETATM   44  C   UNL     1     -10.239   4.716  65.987  1.00  0.00    -0.277 C  
BRANCH  44  45
HETATM   45  C   UNL     1      -9.764   3.279  65.727  1.00  0.00     0.049 C  
BRANCH  45  46
HETATM   46  C   UNL     1      -8.527   3.042  64.876  1.00  0.00    -0.096 C  
HETATM   47  O   UNL     1      -8.165   3.690  63.909  1.00  0.00    -0.088 OA 
BRANCH  46  48
HETATM   48  O   UNL     1      -7.887   1.934  65.376  1.00  0.00    -0.071 OA 
BRANCH  48  49
HETATM   49  C   UNL     1      -6.548   2.057  65.891  1.00  0.00    -0.024 C  
HETATM   50  C   UNL     1      -6.418   3.283  66.776  1.00  0.00    -0.037 C  
ENDBRANCH  48  49
ENDBRANCH  46  48
ENDBRANCH  45  46
ENDBRANCH  44  45
ENDBRANCH  36  44
ENDBRANCH  33  35
ENDBRANCH  24  25
ENDBRANCH  22  24
ENDBRANCH  19  22
ENDBRANCH  12  16
ENDBRANCH   9  12
ENDBRANCH   7   8
ENDBRANCH   6   7
ENDBRANCH   5   6
ENDBRANCH   4   5
ENDBRANCH   3   4
ENDBRANCH   2   3
TORSDOF 18
ENDMDL
MODEL       67
REMARK 921   NORMALIZED FREE ENERGY PREDICTED BY IDOCK:   -3.49 KCAL/MOL
REMARK 922        TOTAL FREE ENERGY PREDICTED BY IDOCK:  -10.38 KCAL/MOL
REMARK 923 INTER-LIGAND FREE ENERGY PREDICTED BY IDOCK:   -7.13 KCAL/MOL
REMARK 924 INTRA-LIGAND FREE ENERGY PREDICTED BY IDOCK:   -3.25 KCAL/MOL
REMARK 927      BINDING AFFINITY PREDICTED BY RF-SCORE:    0.00 PKD
ROOT
HETATM    1  C   UNL     1     -11.284   6.340  69.569  1.00  0.00    -0.500 C  
HETATM    2  C   UNL     1     -12.135   6.987  70.649  1.00  0.00    -0.332 C  
ENDROOT
BRANCH   2   3
HETATM    3  C   UNL     1     -11.394   6.972  71.976  1.00  0.00    -0.300 C  
BRANCH   3   4
HETATM    4  C   UNL     1     -10.713   5.636  72.240  1.00  0.00    -0.281 C  
BRANCH   4   5
HETATM    5  C   UNL     1     -11.522   4.882  73.284  1.00  0.00    -0.359 C  
BRANCH   5   6
HETATM    6  C   UNL     1     -10.736   3.765  73.928  1.00  0.00    -0.228 C  
BRANCH   6   7
HETATM    7  O   UNL     1     -10.168   2.971  72.874  1.00  0.00    -0.140 OA 
BRANCH   7   8
HETATM    8  C   UNL     1      -9.116   2.187  73.234  1.00  0.00    -0.072 C  
HETATM    9  N   UNL     1      -8.117   2.157  72.308  1.00  0.00    -0.053 N  
HETATM   10  O   UNL     1      -9.073   1.558  74.287  1.00  0.00    -0.060 OA 
HETATM   11  H   UNL     1      -7.741   1.253  72.019  1.00  0.00     0.000 HD 
BRANCH   9  12
HETATM   12  C   UNL     1      -7.624   3.241  71.779  1.00  0.00    -0.052 C  
HETATM   13  H1  UNL     1      -6.731   4.997  72.257  1.00  0.00     0.000 HD 
HETATM   14  N   UNL     1      -7.117   4.149  72.672  1.00  0.00    -0.059 NA 
HETATM   15  H2  UNL     1      -7.124   3.988  73.679  1.00  0.00     0.000 HD 
BRANCH  12  16
HETATM   16  C   UNL     1      -7.510   3.541  70.317  1.00  0.00    -0.041 A  
HETATM   17  C   UNL     1      -8.539   4.169  69.613  1.00  0.00    -0.106 A  
HETATM   18  C   UNL     1      -8.595   4.040  68.222  1.00  0.00    -0.112 A  
HETATM   19  C   UNL     1      -7.574   3.390  67.515  1.00  0.00    -0.069 A  
HETATM   20  C   UNL     1      -6.466   2.922  68.227  1.00  0.00    -0.033 A  
HETATM   21  C   UNL     1      -6.434   2.984  69.619  1.00  0.00    -0.033 A  
BRANCH  19  22
HETATM   22  N   UNL     1      -7.827   3.027  66.180  1.00  0.00    -0.080 NA 
HETATM   23  H   UNL     1      -8.392   2.210  65.948  1.00  0.00     0.000 HD 
BRANCH  22  24
HETATM   24  C   UNL     1      -7.243   3.870  65.139  1.00  0.00    -0.067 C  
BRANCH  24  25
HETATM   25  C   UNL     1      -7.581   5.349  65.137  1.00  0.00    -0.079 A  
HETATM   26  N   UNL     1      -8.721   5.947  65.460  1.00  0.00    -0.150 NA 
HETATM   27  C   UNL     1      -8.491   7.313  65.363  1.00  0.00    -0.087 A  
HETATM   28  C   UNL     1      -7.174   7.541  64.975  1.00  0.00    -0.066 A  
HETATM   29  N   UNL     1      -6.641   6.290  64.777  1.00  0.00    -0.038 NA 
HETATM   30  C   UNL     1      -6.629   8.822  64.869  1.00  0.00    -0.069 A  
HETATM   31  C   UNL     1      -7.472   9.905  65.140  1.00  0.00    -0.133 A  
HETATM   32  C   UNL     1      -5.305   5.996  64.308  1.00  0.00    -0.017 C  
HETATM   33  C   UNL     1      -8.829   9.739  65.453  1.00  0.00    -0.199 A  
HETATM   34  C   UNL     1      -9.343   8.428  65.600  1.00  0.00    -0.065 A  
BRANCH  33  35
HETATM   35  C   UNL     1      -9.601  11.028  65.656  1.00  0.00    -0.226 C  
HETATM   36  N   UNL     1      -9.824  11.576  66.928  1.00  0.00    -0.195 N  
HETATM   37  O   UNL     1     -10.078  11.547  64.644  1.00  0.00    -0.245 OA 
BRANCH  36  38
HETATM   38  C   UNL     1      -9.242  11.040  68.089  1.00  0.00    -0.165 A  
HETATM   39  C   UNL     1      -8.053   9.887  70.261  1.00  0.00    -0.115 A  
HETATM   40  N   UNL     1      -7.990  11.434  68.416  1.00  0.00    -0.135 NA 
HETATM   41  C   UNL     1      -9.357   9.538  69.936  1.00  0.00    -0.247 A  
HETATM   42  C   UNL     1      -7.415  10.836  69.482  1.00  0.00    -0.110 A  
HETATM   43  C   UNL     1      -9.964  10.119  68.838  1.00  0.00    -0.207 A  
ENDBRANCH  36  38
BRANCH  36  44
HETATM   44  C   UNL     1     -10.423  12.913  67.088  1.00  0.00    -0.238 C  
BRANCH  44  45
HETATM   45  C   UNL     1     -10.247  13.628  68.436  1.00  0.00    -0.245 C  
BRANCH  45  46
HETATM   46  C   UNL     1      -9.388  14.879  68.513  1.00  0.00    -0.196 C  
HETATM   47  O   UNL     1      -9.177  15.567  69.498  1.00  0.00    -0.269 OA 
BRANCH  46  48
HETATM   48  O   UNL     1      -8.899  15.124  67.253  1.00  0.00    -0.179 OA 
BRANCH  48  49
HETATM   49  C   UNL     1      -8.290  16.395  66.961  1.00  0.00    -0.199 C  
HETATM   50  C   UNL     1      -9.341  17.433  66.611  1.00  0.00    -0.279 C  
ENDBRANCH  48  49
ENDBRANCH  46  48
ENDBRANCH  45  46
ENDBRANCH  44  45
ENDBRANCH  36  44
ENDBRANCH  33  35
ENDBRANCH  24  25
ENDBRANCH  22  24
ENDBRANCH  19  22
ENDBRANCH  12  16
ENDBRANCH   9  12
ENDBRANCH   7   8
ENDBRANCH   6   7
ENDBRANCH   5   6
ENDBRANCH   4   5
ENDBRANCH   3   4
ENDBRANCH   2   3
TORSDOF 18
ENDMDL
MODEL       68
REMARK 921   NORMALIZED FREE ENERGY PREDICTED BY IDOCK:   -3.29 KCAL/MOL
REMARK 922        TOTAL FREE ENERGY PREDICTED BY IDOCK:   -9.95 KCAL/MOL
REMARK 923 INTER-LIGAND FREE ENERGY PREDICTED BY IDOCK:   -9.23 KCAL/MOL
REMARK 924 INTRA-LIGAND FREE ENERGY PREDICTED BY IDOCK:   -0.73 KCAL/MOL
REMARK 927      BINDING AFFINITY PREDICTED BY RF-SCORE:    0.00 PKD
ROOT
HETATM    1  C   UNL     1      -5.217  18.573  71.207  1.00  0.00    -0.267 C  
HETATM    2  C   UNL     1      -5.189  19.023  69.756  1.00  0.00    -0.207 C  
ENDROOT
BRANCH   2   3
HETATM    3  C   UNL     1      -6.024  18.083  68.902  1.00  0.00    -0.206 C  
BRANCH   3   4
HETATM    4  C   UNL     1      -6.139  16.694  69.517  1.00  0.00    -0.214 C  
BRANCH   4   5
HETATM    5  C   UNL     1      -6.485  15.707  68.414  1.00  0.00    -0.113 C  
BRANCH   5   6
HETATM    6  C   UNL     1      -7.930  15.275  68.459  1.00  0.00    -0.141 C  
BRANCH   6   7
HETATM    7  O   UNL     1      -8.655  16.083  67.518  1.00  0.00    -0.172 OA 
BRANCH   7   8
HETATM    8  C   UNL     1      -9.719  16.762  68.028  1.00  0.00    -0.243 C  
HETATM    9  N   UNL     1     -10.911  16.401  67.475  1.00  0.00    -0.290 N  
HETATM   10  O   UNL     1      -9.616  17.625  68.894  1.00  0.00    -0.277 OA 
HETATM   11  H   UNL     1     -11.542  17.132  67.145  1.00  0.00     0.000 HD 
BRANCH   9  12
HETATM   12  C   UNL     1     -11.273  15.155  67.352  1.00  0.00    -0.323 C  
HETATM   13  H1  UNL     1     -12.581  13.786  68.079  1.00  0.00     0.000 HD 
HETATM   14  N   UNL     1     -12.297  14.761  68.176  1.00  0.00    -0.572 NA 
HETATM   15  H2  UNL     1     -12.742  15.396  68.838  1.00  0.00     0.000 HD 
BRANCH  12  16
HETATM   16  C   UNL     1     -10.728  14.165  66.372  1.00  0.00    -0.288 A  
HETATM   17  C   UNL     1     -10.625  14.458  65.011  1.00  0.00    -0.452 A  
HETATM   18  C   UNL     1     -10.538  13.410  64.090  1.00  0.00    -0.257 A  
HETATM   19  C   UNL     1     -10.438  12.079  64.517  1.00  0.00    -0.299 A  
HETATM   20  C   UNL     1     -10.367  11.824  65.889  1.00  0.00    -0.280 A  
HETATM   21  C   UNL     1     -10.522  12.855  66.815  1.00  0.00    -0.262 A  
BRANCH  19  22
HETATM   22  N   UNL     1     -10.660  11.065  63.568  1.00  0.00    -0.557 NA 
HETATM   23  H   UNL     1     -11.400  11.141  62.871  1.00  0.00     0.000 HD 
BRANCH  22  24
HETATM   24  C   UNL     1      -9.783   9.897  63.625  1.00  0.00     0.212 C  
BRANCH  24  25
HETATM   25  C   UNL     1      -9.228   9.478  64.973  1.00  0.00    -0.236 A  
HETATM   26  N   UNL     1      -9.881   9.156  66.083  1.00  0.00    -0.287 NA 
HETATM   27  C   UNL     1      -8.919   8.777  67.010  1.00  0.00    -0.131 A  
HETATM   28  C   UNL     1      -7.653   8.869  66.438  1.00  0.00    -0.092 A  
HETATM   29  N   UNL     1      -7.870   9.373  65.177  1.00  0.00    -0.107 NA 
HETATM   30  C   UNL     1      -6.492   8.478  67.107  1.00  0.00    -0.058 A  
HETATM   31  C   UNL     1      -6.631   8.005  68.416  1.00  0.00    -0.059 A  
HETATM   32  C   UNL     1      -6.852   9.705  64.206  1.00  0.00    -0.112 C  
HETATM   33  C   UNL     1      -7.870   7.969  69.073  1.00  0.00    -0.109 A  
HETATM   34  C   UNL     1      -9.037   8.327  68.356  1.00  0.00    -0.136 A  
BRANCH  33  35
HETATM   35  C   UNL     1      -7.819   7.485  70.508  1.00  0.00    -0.096 C  
HETATM   36  N   UNL     1      -8.147   6.168  70.868  1.00  0.00    -0.119 N  
HETATM   37  O   UNL     1      -7.529   8.326  71.362  1.00  0.00    -0.070 OA 
BRANCH  36  38
HETATM   38  C   UNL     1      -8.422   5.176  69.912  1.00  0.00    -0.096 A  
HETATM   39  C   UNL     1      -8.889   3.333  67.951  1.00  0.00    -0.156 A  
HETATM   40  N   UNL     1      -7.493   4.215  69.704  1.00  0.00    -0.053 NA 
HETATM   41  C   UNL     1      -9.851   4.298  68.218  1.00  0.00    -0.106 A  
HETATM   42  C   UNL     1      -7.737   3.326  68.716  1.00  0.00    -0.051 A  
HETATM   43  C   UNL     1      -9.620   5.233  69.210  1.00  0.00    -0.214 A  
ENDBRANCH  36  38
BRANCH  36  44
HETATM   44  C   UNL     1      -7.924   5.674  72.238  1.00  0.00    -0.107 C  
BRANCH  44  45
HETATM   45  C   UNL     1      -9.089   5.758  73.235  1.00  0.00    -0.133 C  
BRANCH  45  46
HETATM   46  C   UNL     1      -9.483   7.108  73.812  1.00  0.00    -0.245 C  
HETATM   47  O   UNL     1      -8.783   7.860  74.470  1.00  0.00    -0.158 OA 
BRANCH  46  48
HETATM   48  O   UNL     1     -10.798   7.330  73.484  1.00  0.00    -0.375 OA 
BRANCH  48  49
HETATM   49  C   UNL     1     -11.162   7.543  72.106  1.00  0.00    -0.270 C  
HETATM   50  C   UNL     1     -10.989   9.001  71.719  1.00  0.00    -0.443 C  
ENDBRANCH  48  49
ENDBRANCH  46  48
ENDBRANCH  45  46
ENDBRANCH  44  45
ENDBRANCH  36  44
ENDBRANCH  33  35
ENDBRANCH  24  25
ENDBRANCH  22  24
ENDBRANCH  19  22
ENDBRANCH  12  16
ENDBRANCH   9  12
ENDBRANCH   7   8
ENDBRANCH   6   7
ENDBRANCH   5   6
ENDBRANCH   4   5
ENDBRANCH   3   4
ENDBRANCH   2   3
TORSDOF 18
ENDMDL
MODEL       69
REMARK 921   NORMALIZED FREE ENERGY PREDICTED BY IDOCK:   -3.26 KCAL/MOL
REMARK 922        TOTAL FREE ENERGY PREDICTED BY IDOCK:   -9.89 KCAL/MOL
REMARK 923 INTER-LIGAND FREE ENERGY PREDICTED BY IDOCK:   -8.20 KCAL/MOL
REMARK 924 INTRA-LIGAND FREE ENERGY PREDICTED BY IDOCK:   -1.69 KCAL/MOL
REMARK 927      BINDING AFFINITY PREDICTED BY RF-SCORE:    0.00 PKD
ROOT
HETATM    1  C   UNL     1     -11.116   6.443  67.676  1.00  0.00    -0.388 C  
HETATM    2  C   UNL     1      -9.879   7.109  67.099  1.00  0.00    -0.235 C  
ENDROOT
BRANCH   2   3
HETATM    3  C   UNL     1      -9.416   6.364  65.857  1.00  0.00     0.074 C  
BRANCH   3   4
HETATM    4  C   UNL     1     -10.176   5.060  65.652  1.00  0.00    -0.088 C  
BRANCH   4   5
HETATM    5  C   UNL     1      -9.275   4.091  64.902  1.00  0.00    -0.152 C  
BRANCH   5   6
HETATM    6  C   UNL     1      -8.761   2.979  65.785  1.00  0.00    -0.130 C  
BRANCH   6   7
HETATM    7  O   UNL     1      -7.477   3.382  66.287  1.00  0.00    -0.074 OA 
BRANCH   7   8
HETATM    8  C   UNL     1      -6.681   2.372  66.733  1.00  0.00    -0.040 C  
HETATM    9  N   UNL     1      -6.377   2.462  68.059  1.00  0.00    -0.028 N  
HETATM   10  O   UNL     1      -6.266   1.471  66.011  1.00  0.00    -0.021 OA 
HETATM   11  H   UNL     1      -5.403   2.368  68.348  1.00  0.00     0.000 HD 
BRANCH   9  12
HETATM   12  C   UNL     1      -7.287   2.665  68.970  1.00  0.00    -0.044 C  
HETATM   13  H1  UNL     1      -8.897   1.801  69.850  1.00  0.00     0.000 HD 
HETATM   14  N   UNL     1      -8.185   1.643  69.137  1.00  0.00    -0.044 NA 
HETATM   15  H2  UNL     1      -8.145   0.784  68.587  1.00  0.00     0.000 HD 
BRANCH  12  16
HETATM   16  C   UNL     1      -7.392   3.858  69.868  1.00  0.00    -0.045 A  
HETATM   17  C   UNL     1      -6.551   4.962  69.725  1.00  0.00    -0.036 A  
HETATM   18  C   UNL     1      -6.373   5.832  70.805  1.00  0.00    -0.035 A  
HETATM   19  C   UNL     1      -7.111   5.677  71.987  1.00  0.00    -0.086 A  
HETATM   20  C   UNL     1      -8.074   4.666  72.041  1.00  0.00    -0.101 A  
HETATM   21  C   UNL     1      -8.210   3.753  70.997  1.00  0.00    -0.077 A  
BRANCH  19  22
HETATM   22  N   UNL     1      -6.679   6.376  73.129  1.00  0.00    -0.073 NA 
HETATM   23  H   UNL     1      -5.847   6.090  73.645  1.00  0.00     0.000 HD 
BRANCH  22  24
HETATM   24  C   UNL     1      -7.475   7.530  73.543  1.00  0.00    -0.104 C  
BRANCH  24  25
HETATM   25  C   UNL     1      -8.279   8.265  72.488  1.00  0.00    -0.164 A  
HETATM   26  N   UNL     1      -7.850   9.026  71.488  1.00  0.00    -0.330 NA 
HETATM   27  C   UNL     1      -8.977   9.402  70.769  1.00  0.00    -0.191 A  
HETATM   28  C   UNL     1     -10.114   8.847  71.351  1.00  0.00    -0.309 A  
HETATM   29  N   UNL     1      -9.655   8.188  72.467  1.00  0.00    -0.247 NA 
HETATM   30  C   UNL     1     -11.389   8.987  70.801  1.00  0.00    -0.329 A  
HETATM   31  C   UNL     1     -11.507   9.748  69.632  1.00  0.00    -0.103 A  
HETATM   32  C   UNL     1     -10.467   7.496  73.442  1.00  0.00    -0.348 C  
HETATM   33  C   UNL     1     -10.410  10.400  69.049  1.00  0.00    -0.232 A  
HETATM   34  C   UNL     1      -9.122  10.202  69.600  1.00  0.00    -0.195 A  
BRANCH  33  35
HETATM   35  C   UNL     1     -10.738  11.228  67.822  1.00  0.00    -0.220 C  
HETATM   36  N   UNL     1      -9.811  12.106  67.240  1.00  0.00    -0.195 N  
HETATM   37  O   UNL     1     -11.890  11.137  67.390  1.00  0.00    -0.570 OA 
BRANCH  36  38
HETATM   38  C   UNL     1      -8.477  12.184  67.674  1.00  0.00    -0.163 A  
HETATM   39  C   UNL     1      -5.856  12.430  68.403  1.00  0.00    -0.056 A  
HETATM   40  N   UNL     1      -8.143  13.174  68.534  1.00  0.00    -0.124 NA 
HETATM   41  C   UNL     1      -6.233  11.391  67.562  1.00  0.00    -0.069 A  
HETATM   42  C   UNL     1      -6.838  13.287  68.865  1.00  0.00    -0.103 A  
HETATM   43  C   UNL     1      -7.558  11.261  67.191  1.00  0.00    -0.137 A  
ENDBRANCH  36  38
BRANCH  36  44
HETATM   44  C   UNL     1     -10.091  12.766  65.952  1.00  0.00    -0.276 C  
BRANCH  44  45
HETATM   45  C   UNL     1     -11.236  13.788  65.898  1.00  0.00    -0.305 C  
BRANCH  45  46
HETATM   46  C   UNL     1     -10.916  15.261  65.704  1.00  0.00    -0.344 C  
HETATM   47  O   UNL     1     -10.937  15.887  64.657  1.00  0.00    -0.528 OA 
BRANCH  46  48
HETATM   48  O   UNL     1     -10.565  15.774  66.929  1.00  0.00    -0.312 OA 
BRANCH  48  49
HETATM   49  C   UNL     1      -9.581  16.822  67.007  1.00  0.00    -0.239 C  
HETATM   50  C   UNL     1     -10.217  18.181  66.783  1.00  0.00    -0.379 C  
ENDBRANCH  48  49
ENDBRANCH  46  48
ENDBRANCH  45  46
ENDBRANCH  44  45
ENDBRANCH  36  44
ENDBRANCH  33  35
ENDBRANCH  24  25
ENDBRANCH  22  24
ENDBRANCH  19  22
ENDBRANCH  12  16
ENDBRANCH   9  12
ENDBRANCH   7   8
ENDBRANCH   6   7
ENDBRANCH   5   6
ENDBRANCH   4   5
ENDBRANCH   3   4
ENDBRANCH   2   3
TORSDOF 18
ENDMDL
MODEL       70
REMARK 921   NORMALIZED FREE ENERGY PREDICTED BY IDOCK:   -3.12 KCAL/MOL
REMARK 922        TOTAL FREE ENERGY PREDICTED BY IDOCK:   -9.60 KCAL/MOL
REMARK 923 INTER-LIGAND FREE ENERGY PREDICTED BY IDOCK:   -6.45 KCAL/MOL
REMARK 924 INTRA-LIGAND FREE ENERGY PREDICTED BY IDOCK:   -3.15 KCAL/MOL
REMARK 927      BINDING AFFINITY PREDICTED BY RF-SCORE:    0.00 PKD
ROOT
HETATM    1  C   UNL     1     -10.053   3.790  63.483  1.00  0.00    -0.193 C  
HETATM    2  C   UNL     1      -9.710   4.113  64.927  1.00  0.00    -0.194 C  
ENDROOT
BRANCH   2   3
HETATM    3  C   UNL     1     -10.910   4.736  65.622  1.00  0.00    -0.117 C  
BRANCH   3   4
HETATM    4  C   UNL     1     -10.532   5.398  66.941  1.00  0.00    -0.337 C  
BRANCH   4   5
HETATM    5  C   UNL     1     -10.233   4.306  67.957  1.00  0.00     0.184 C  
BRANCH   5   6
HETATM    6  C   UNL     1      -8.906   4.509  68.649  1.00  0.00    -0.102 C  
BRANCH   6   7
HETATM    7  O   UNL     1      -8.341   3.210  68.892  1.00  0.00    -0.059 OA 
BRANCH   7   8
HETATM    8  C   UNL     1      -8.527   2.717  70.147  1.00  0.00    -0.046 C  
HETATM    9  N   UNL     1      -7.369   2.360  70.770  1.00  0.00    -0.033 N  
HETATM   10  O   UNL     1      -9.632   2.594  70.665  1.00  0.00    -0.149 OA 
HETATM   11  H   UNL     1      -7.311   1.444  71.214  1.00  0.00     0.000 HD 
BRANCH   9  12
HETATM   12  C   UNL     1      -6.332   3.148  70.817  1.00  0.00    -0.023 C  
HETATM   13  H1  UNL     1      -4.708   3.728  69.750  1.00  0.00     0.000 HD 
HETATM   14  N   UNL     1      -5.519   3.112  69.713  1.00  0.00    -0.015 NA 
HETATM   15  H2  UNL     1      -5.712   2.511  68.912  1.00  0.00     0.000 HD 
BRANCH  12  16
HETATM   16  C   UNL     1      -5.997   4.109  71.915  1.00  0.00    -0.016 A  
HETATM   17  C   UNL     1      -6.428   3.905  73.227  1.00  0.00    -0.036 A  
HETATM   18  C   UNL     1      -6.485   4.992  74.105  1.00  0.00    -0.068 A  
HETATM   19  C   UNL     1      -6.011   6.254  73.724  1.00  0.00    -0.063 A  
HETATM   20  C   UNL     1      -5.424   6.392  72.464  1.00  0.00    -0.036 A  
HETATM   21  C   UNL     1      -5.424   5.333  71.557  1.00  0.00    -0.009 A  
BRANCH  19  22
HETATM   22  N   UNL     1      -6.369   7.359  74.519  1.00  0.00    -0.082 NA 
HETATM   23  H   UNL     1      -5.672   7.883  75.048  1.00  0.00     0.000 HD 
BRANCH  22  24
HETATM   24  C   UNL     1      -7.784   7.721  74.555  1.00  0.00    -0.194 C  
BRANCH  24  25
HETATM   25  C   UNL     1      -8.478   8.044  73.245  1.00  0.00    -0.224 A  
HETATM   26  N   UNL     1      -8.124   8.907  72.301  1.00  0.00    -0.363 NA 
HETATM   27  C   UNL     1      -9.050   8.770  71.275  1.00  0.00    -0.234 A  
HETATM   28  C   UNL     1      -9.985   7.794  71.612  1.00  0.00    -0.174 A  
HETATM   29  N   UNL     1      -9.640   7.398  72.882  1.00  0.00    -0.161 NA 
HETATM   30  C   UNL     1     -10.994   7.384  70.741  1.00  0.00    -0.272 A  
HETATM   31  C   UNL     1     -11.068   8.016  69.495  1.00  0.00     0.026 A  
HETATM   32  C   UNL     1     -10.349   6.436  73.697  1.00  0.00    -0.286 C  
HETATM   33  C   UNL     1     -10.207   9.063  69.134  1.00  0.00    -0.213 A  
HETATM   34  C   UNL     1      -9.162   9.427  70.017  1.00  0.00    -0.245 A  
BRANCH  33  35
HETATM   35  C   UNL     1     -10.473   9.668  67.770  1.00  0.00    -0.256 C  
HETATM   36  N   UNL     1      -9.523   9.638  66.737  1.00  0.00    -0.154 N  
HETATM   37  O   UNL     1     -11.554  10.246  67.627  1.00  0.00    -0.299 OA 
BRANCH  36  38
HETATM   38  C   UNL     1      -8.312   8.936  66.853  1.00  0.00    -0.112 A  
HETATM   39  C   UNL     1      -6.007   7.515  67.207  1.00  0.00    -0.046 A  
HETATM   40  N   UNL     1      -8.249   7.683  66.346  1.00  0.00    -0.119 NA 
HETATM   41  C   UNL     1      -6.077   8.821  67.673  1.00  0.00    -0.048 A  
HETATM   42  C   UNL     1      -7.106   6.993  66.550  1.00  0.00    -0.077 A  
HETATM   43  C   UNL     1      -7.241   9.545  67.495  1.00  0.00    -0.090 A  
ENDBRANCH  36  38
BRANCH  36  44
HETATM   44  C   UNL     1      -9.866  10.075  65.372  1.00  0.00    -0.314 C  
BRANCH  44  45
HETATM   45  C   UNL     1      -9.535  11.520  64.972  1.00  0.00    -0.174 C  
BRANCH  45  46
HETATM   46  C   UNL     1     -10.030  12.668  65.836  1.00  0.00    -0.264 C  
HETATM   47  O   UNL     1     -10.857  13.513  65.535  1.00  0.00    -0.280 OA 
BRANCH  46  48
HETATM   48  O   UNL     1      -9.355  12.608  67.031  1.00  0.00    -0.205 OA 
BRANCH  48  49
HETATM   49  C   UNL     1      -8.731  13.794  67.557  1.00  0.00    -0.194 C  
HETATM   50  C   UNL     1      -7.682  13.441  68.595  1.00  0.00    -0.088 C  
ENDBRANCH  48  49
ENDBRANCH  46  48
ENDBRANCH  45  46
ENDBRANCH  44  45
ENDBRANCH  36  44
ENDBRANCH  33  35
ENDBRANCH  24  25
ENDBRANCH  22  24
ENDBRANCH  19  22
ENDBRANCH  12  16
ENDBRANCH   9  12
ENDBRANCH   7   8
ENDBRANCH   6   7
ENDBRANCH   5   6
ENDBRANCH   4   5
ENDBRANCH   3   4
ENDBRANCH   2   3
TORSDOF 18
ENDMDL
MODEL       71
REMARK 921   NORMALIZED FREE ENERGY PREDICTED BY IDOCK:   -2.99 KCAL/MOL
REMARK 922        TOTAL FREE ENERGY PREDICTED BY IDOCK:   -9.35 KCAL/MOL
REMARK 923 INTER-LIGAND FREE ENERGY PREDICTED BY IDOCK:   -6.37 KCAL/MOL
REMARK 924 INTRA-LIGAND FREE ENERGY PREDICTED BY IDOCK:   -2.98 KCAL/MOL
REMARK 927      BINDING AFFINITY PREDICTED BY RF-SCORE:    0.00 PKD
ROOT
HETATM    1  C   UNL     1     -11.871  11.143  63.663  1.00  0.00     0.545 C  
HETATM    2  C   UNL     1     -12.138  12.628  63.480  1.00  0.00    -0.648 C  
ENDROOT
BRANCH   2   3
HETATM    3  C   UNL     1     -10.880  13.426  63.783  1.00  0.00     0.087 C  
BRANCH   3   4
HETATM    4  C   UNL     1     -11.133  14.541  64.789  1.00  0.00    -0.400 C  
BRANCH   4   5
HETATM    5  C   UNL     1     -12.497  14.314  65.424  1.00  0.00    -0.434 C  
BRANCH   5   6
HETATM    6  C   UNL     1     -12.397  13.764  66.826  1.00  0.00    -0.321 C  
BRANCH   6   7
HETATM    7  O   UNL     1     -11.037  13.927  67.260  1.00  0.00    -0.288 OA 
BRANCH   7   8
HETATM    8  C   UNL     1     -10.806  13.650  68.573  1.00  0.00    -0.257 C  
HETATM    9  N   UNL     1      -9.870  12.679  68.768  1.00  0.00    -0.421 N  
HETATM   10  O   UNL     1     -11.389  14.213  69.493  1.00  0.00    -0.257 OA 
HETATM   11  H   UNL     1     -10.083  11.912  69.406  1.00  0.00     0.000 HD 
BRANCH   9  12
HETATM   12  C   UNL     1      -8.713  12.695  68.169  1.00  0.00    -0.190 C  
HETATM   13  H1  UNL     1      -7.042  13.821  67.936  1.00  0.00     0.000 HD 
HETATM   14  N   UNL     1      -7.948  13.809  68.405  1.00  0.00    -0.140 NA 
HETATM   15  H2  UNL     1      -8.262  14.570  69.006  1.00  0.00     0.000 HD 
BRANCH  12  16
HETATM   16  C   UNL     1      -8.137  11.604  67.321  1.00  0.00    -0.160 A  
HETATM   17  C   UNL     1      -6.778  11.290  67.351  1.00  0.00    -0.085 A  
HETATM   18  C   UNL     1      -6.210  10.604  66.273  1.00  0.00    -0.119 A  
HETATM   19  C   UNL     1      -7.003  10.128  65.220  1.00  0.00    -0.137 A  
HETATM   20  C   UNL     1      -8.387  10.303  65.299  1.00  0.00    -0.165 A  
HETATM   21  C   UNL     1      -8.955  11.045  66.335  1.00  0.00    -0.190 A  
BRANCH  19  22
HETATM   22  N   UNL     1      -6.356   9.726  64.038  1.00  0.00    -0.111 NA 
HETATM   23  H   UNL     1      -6.352  10.315  63.206  1.00  0.00     0.000 HD 
BRANCH  22  24
HETATM   24  C   UNL     1      -5.689   8.426  64.055  1.00  0.00    -0.065 C  
BRANCH  24  25
HETATM   25  C   UNL     1      -6.177   7.379  65.039  1.00  0.00    -0.038 A  
HETATM   26  N   UNL     1      -5.689   7.060  66.232  1.00  0.00    -0.029 NA 
HETATM   27  C   UNL     1      -6.538   6.095  66.758  1.00  0.00    -0.059 A  
HETATM   28  C   UNL     1      -7.566   5.831  65.858  1.00  0.00    -0.086 A  
HETATM   29  N   UNL     1      -7.281   6.605  64.758  1.00  0.00    -0.067 NA 
HETATM   30  C   UNL     1      -8.616   4.958  66.146  1.00  0.00    -0.116 A  
HETATM   31  C   UNL     1      -8.596   4.311  67.386  1.00  0.00    -0.107 A  
HETATM   32  C   UNL     1      -8.030   6.637  63.521  1.00  0.00    -0.070 C  
HETATM   33  C   UNL     1      -7.542   4.474  68.299  1.00  0.00    -0.072 A  
HETATM   34  C   UNL     1      -6.514   5.401  68.001  1.00  0.00    -0.048 A  
BRANCH  33  35
HETATM   35  C   UNL     1      -7.660   3.648  69.564  1.00  0.00    -0.052 C  
HETATM   36  N   UNL     1      -7.879   4.230  70.822  1.00  0.00    -0.059 N  
HETATM   37  O   UNL     1      -7.493   2.431  69.443  1.00  0.00    -0.044 OA 
BRANCH  36  38
HETATM   38  C   UNL     1      -8.131   5.602  70.980  1.00  0.00    -0.119 A  
HETATM   39  C   UNL     1      -8.534   8.298  71.167  1.00  0.00    -0.164 A  
HETATM   40  N   UNL     1      -9.179   6.140  70.314  1.00  0.00    -0.155 NA 
HETATM   41  C   UNL     1      -7.497   7.715  71.883  1.00  0.00    -0.083 A  
HETATM   42  C   UNL     1      -9.347   7.477  70.406  1.00  0.00    -0.161 A  
HETATM   43  C   UNL     1      -7.289   6.351  71.793  1.00  0.00    -0.088 A  
ENDBRANCH  36  38
BRANCH  36  44
HETATM   44  C   UNL     1      -8.162   3.400  72.007  1.00  0.00    -0.067 C  
BRANCH  44  45
HETATM   45  C   UNL     1      -9.630   3.118  72.358  1.00  0.00    -0.195 C  
BRANCH  45  46
HETATM   46  C   UNL     1     -10.267   3.828  73.541  1.00  0.00    -0.144 C  
HETATM   47  O   UNL     1     -10.092   4.985  73.886  1.00  0.00    -0.165 OA 
BRANCH  46  48
HETATM   48  O   UNL     1     -11.069   2.920  74.186  1.00  0.00    -0.152 OA 
BRANCH  48  49
HETATM   49  C   UNL     1     -11.400   1.676  73.540  1.00  0.00    -0.190 C  
HETATM   50  C   UNL     1     -12.898   1.554  73.331  1.00  0.00    -0.089 C  
ENDBRANCH  48  49
ENDBRANCH  46  48
ENDBRANCH  45  46
ENDBRANCH  44  45
ENDBRANCH  36  44
ENDBRANCH  33  35
ENDBRANCH  24  25
ENDBRANCH  22  24
ENDBRANCH  19  22
ENDBRANCH  12  16
ENDBRANCH   9  12
ENDBRANCH   7   8
ENDBRANCH   6   7
ENDBRANCH   5   6
ENDBRANCH   4   5
ENDBRANCH   3   4
ENDBRANCH   2   3
TORSDOF 18
ENDMDL
MODEL       72
REMARK 921   NORMALIZED FREE ENERGY PREDICTED BY IDOCK:   -2.89 KCAL/MOL
REMARK 922        TOTAL FREE ENERGY PREDICTED BY IDOCK:   -9.14 KCAL/MOL
REMARK 923 INTER-LIGAND FREE ENERGY PREDICTED BY IDOCK:   -8.17 KCAL/MOL
REMARK 924 INTRA-LIGAND FREE ENERGY PREDICTED BY IDOCK:   -0.97 KCAL/MOL
REMARK 927      BINDING AFFINITY PREDICTED BY RF-SCORE:    0.00 PKD
ROOT
HETATM    1  C   UNL     1     -11.542   8.989  70.859  1.00  0.00    -0.344 C  
HETATM    2  C   UNL     1     -10.240   8.696  71.585  1.00  0.00    -0.366 C  
ENDROOT
BRANCH   2   3
HETATM    3  C   UNL     1      -9.905   7.217  71.480  1.00  0.00    -0.176 C  
BRANCH   3   4
HETATM    4  C   UNL     1     -11.107   6.384  71.052  1.00  0.00    -0.349 C  
BRANCH   4   5
HETATM    5  C   UNL     1     -10.784   5.723  69.721  1.00  0.00    -0.418 C  
BRANCH   5   6
HETATM    6  C   UNL     1      -9.362   5.222  69.655  1.00  0.00    -0.126 C  
BRANCH   6   7
HETATM    7  O   UNL     1      -9.385   3.812  69.933  1.00  0.00    -0.143 OA 
BRANCH   7   8
HETATM    8  C   UNL     1      -9.114   3.002  68.874  1.00  0.00    -0.149 C  
HETATM    9  N   UNL     1      -8.047   3.414  68.132  1.00  0.00    -0.074 N  
HETATM   10  O   UNL     1      -9.772   2.003  68.604  1.00  0.00    -0.131 OA 
HETATM   11  H   UNL     1      -8.146   3.473  67.118  1.00  0.00     0.000 HD 
BRANCH   9  12
HETATM   12  C   UNL     1      -6.905   3.735  68.672  1.00  0.00    -0.046 C  
HETATM   13  H1  UNL     1      -5.506   3.070  69.981  1.00  0.00     0.000 HD 
HETATM   14  N   UNL     1      -6.400   2.818  69.558  1.00  0.00    -0.028 NA 
HETATM   15  H2  UNL     1      -6.883   1.948  69.780  1.00  0.00     0.000 HD 
BRANCH  12  16
HETATM   16  C   UNL     1      -6.091   4.953  68.367  1.00  0.00    -0.030 A  
HETATM   17  C   UNL     1      -5.523   5.730  69.378  1.00  0.00    -0.004 A  
HETATM   18  C   UNL     1      -5.163   7.053  69.104  1.00  0.00    -0.014 A  
HETATM   19  C   UNL     1      -5.255   7.573  67.806  1.00  0.00    -0.029 A  
HETATM   20  C   UNL     1      -5.661   6.721  66.776  1.00  0.00    -0.018 A  
HETATM   21  C   UNL     1      -6.089   5.422  67.050  1.00  0.00    -0.030 A  
BRANCH  19  22
HETATM   22  N   UNL     1      -5.174   8.968  67.649  1.00  0.00    -0.034 NA 
HETATM   23  H   UNL     1      -4.290   9.466  67.758  1.00  0.00     0.000 HD 
BRANCH  22  24
HETATM   24  C   UNL     1      -6.412   9.674  67.324  1.00  0.00    -0.069 C  
BRANCH  24  25
HETATM   25  C   UNL     1      -6.511  11.149  67.663  1.00  0.00    -0.065 A  
HETATM   26  N   UNL     1      -6.937  12.154  66.908  1.00  0.00    -0.058 NA 
HETATM   27  C   UNL     1      -6.899  13.289  67.707  1.00  0.00    -0.153 A  
HETATM   28  C   UNL     1      -6.442  12.955  68.979  1.00  0.00    -0.103 A  
HETATM   29  N   UNL     1      -6.144  11.615  68.907  1.00  0.00    -0.050 NA 
HETATM   30  C   UNL     1      -6.371  13.878  70.023  1.00  0.00    -0.099 A  
HETATM   31  C   UNL     1      -6.753  15.195  69.746  1.00  0.00    -0.180 A  
HETATM   32  C   UNL     1      -5.576  10.809  69.965  1.00  0.00    -0.064 C  
HETATM   33  C   UNL     1      -7.141  15.609  68.463  1.00  0.00    -0.116 A  
HETATM   34  C   UNL     1      -7.249  14.642  67.434  1.00  0.00    -0.182 A  
BRANCH  33  35
HETATM   35  C   UNL     1      -7.461  17.085  68.337  1.00  0.00    -0.213 C  
HETATM   36  N   UNL     1      -8.564  17.554  67.607  1.00  0.00    -0.217 N  
HETATM   37  O   UNL     1      -6.665  17.867  68.863  1.00  0.00    -0.227 OA 
BRANCH  36  38
HETATM   38  C   UNL     1      -9.518  16.687  67.049  1.00  0.00    -0.230 A  
HETATM   39  C   UNL     1     -11.468  15.118  65.955  1.00  0.00    -0.157 A  
HETATM   40  N   UNL     1      -9.558  16.562  65.703  1.00  0.00    -0.516 NA 
HETATM   41  C   UNL     1     -11.375  15.220  67.337  1.00  0.00    -0.285 A  
HETATM   42  C   UNL     1     -10.542  15.796  65.184  1.00  0.00    -0.411 A  
HETATM   43  C   UNL     1     -10.390  16.012  67.896  1.00  0.00    -0.269 A  
ENDBRANCH  36  38
BRANCH  36  44
HETATM   44  C   UNL     1      -8.954  18.975  67.642  1.00  0.00    -0.289 C  
BRANCH  44  45
HETATM   45  C   UNL     1      -8.268  19.937  66.661  1.00  0.00    -0.359 C  
BRANCH  45  46
HETATM   46  C   UNL     1      -7.035  20.705  67.105  1.00  0.00    -0.322 C  
HETATM   47  O   UNL     1      -6.654  20.888  68.249  1.00  0.00    -0.275 OA 
BRANCH  46  48
HETATM   48  O   UNL     1      -6.422  21.191  65.976  1.00  0.00    -0.225 OA 
BRANCH  48  49
HETATM   49  C   UNL     1      -6.355  20.373  64.793  1.00  0.00    -0.298 C  
HETATM   50  C   UNL     1      -6.523  21.215  63.541  1.00  0.00    -0.232 C  
ENDBRANCH  48  49
ENDBRANCH  46  48
ENDBRANCH  45  46
ENDBRANCH  44  45
ENDBRANCH  36  44
ENDBRANCH  33  35
ENDBRANCH  24  25
ENDBRANCH  22  24
ENDBRANCH  19  22
ENDBRANCH  12  16
ENDBRANCH   9  12
ENDBRANCH   7   8
ENDBRANCH   6   7
ENDBRANCH   5   6
ENDBRANCH   4   5
ENDBRANCH   3   4
ENDBRANCH   2   3
TORSDOF 18
ENDMDL
MODEL       73
REMARK 921   NORMALIZED FREE ENERGY PREDICTED BY IDOCK:   -2.89 KCAL/MOL
REMARK 922        TOTAL FREE ENERGY PREDICTED BY IDOCK:   -9.13 KCAL/MOL
REMARK 923 INTER-LIGAND FREE ENERGY PREDICTED BY IDOCK:   -8.84 KCAL/MOL
REMARK 924 INTRA-LIGAND FREE ENERGY PREDICTED BY IDOCK:   -0.30 KCAL/MOL
REMARK 927      BINDING AFFINITY PREDICTED BY RF-SCORE:    0.00 PKD
ROOT
HETATM    1  C   UNL     1     -13.133  13.857  71.325  1.00  0.00    -0.385 C  
HETATM    2  C   UNL     1     -13.051  15.016  72.305  1.00  0.00    -0.448 C  
ENDROOT
BRANCH   2   3
HETATM    3  C   UNL     1     -11.989  16.006  71.855  1.00  0.00    -0.606 C  
BRANCH   3   4
HETATM    4  C   UNL     1     -11.341  15.596  70.539  1.00  0.00    -0.386 C  
BRANCH   4   5
HETATM    5  C   UNL     1     -11.365  16.792  69.599  1.00  0.00     0.235 C  
BRANCH   5   6
HETATM    6  C   UNL     1     -10.132  17.653  69.729  1.00  0.00     0.420 C  
BRANCH   6   7
HETATM    7  O   UNL     1      -9.788  18.120  68.415  1.00  0.00    -0.329 OA 
BRANCH   7   8
HETATM    8  C   UNL     1      -8.461  18.092  68.113  1.00  0.00    -0.273 C  
HETATM    9  N   UNL     1      -7.858  16.910  68.420  1.00  0.00    -0.218 N  
HETATM   10  O   UNL     1      -7.862  19.043  67.621  1.00  0.00    -0.240 OA 
HETATM   11  H   UNL     1      -6.984  16.926  68.947  1.00  0.00     0.000 HD 
BRANCH   9  12
HETATM   12  C   UNL     1      -8.357  15.760  68.065  1.00  0.00    -0.152 C  
HETATM   13  H1  UNL     1      -8.790  13.911  68.778  1.00  0.00     0.000 HD 
HETATM   14  N   UNL     1      -8.400  14.811  69.055  1.00  0.00    -0.248 NA 
HETATM   15  H2  UNL     1      -8.065  14.993  70.001  1.00  0.00     0.000 HD 
BRANCH  12  16
HETATM   16  C   UNL     1      -8.930  15.416  66.726  1.00  0.00    -0.288 A  
HETATM   17  C   UNL     1      -9.849  16.247  66.085  1.00  0.00    -0.358 A  
HETATM   18  C   UNL     1     -10.675  15.715  65.090  1.00  0.00    -0.463 A  
HETATM   19  C   UNL     1     -10.516  14.395  64.648  1.00  0.00    -0.257 A  
HETATM   20  C   UNL     1      -9.472  13.636  65.183  1.00  0.00     0.414 A  
HETATM   21  C   UNL     1      -8.688  14.134  66.224  1.00  0.00     0.306 A  
BRANCH  19  22
HETATM   22  N   UNL     1     -11.551  13.828  63.882  1.00  0.00    -0.638 NA 
HETATM   23  H   UNL     1     -11.710  14.106  62.913  1.00  0.00     0.000 HD 
BRANCH  22  24
HETATM   24  C   UNL     1     -12.388  12.824  64.535  1.00  0.00    -0.445 C  
BRANCH  24  25
HETATM   25  C   UNL     1     -11.778  11.990  65.646  1.00  0.00    -0.246 A  
HETATM   26  N   UNL     1     -11.133  10.833  65.566  1.00  0.00     0.119 NA 
HETATM   27  C   UNL     1     -10.712  10.528  66.854  1.00  0.00    -0.219 A  
HETATM   28  C   UNL     1     -11.111  11.533  67.731  1.00  0.00    -0.260 A  
HETATM   29  N   UNL     1     -11.835  12.410  66.957  1.00  0.00    -0.546 NA 
HETATM   30  C   UNL     1     -10.764  11.538  69.082  1.00  0.00    -0.210 A  
HETATM   31  C   UNL     1     -10.007  10.462  69.557  1.00  0.00    -0.229 A  
HETATM   32  C   UNL     1     -12.515  13.597  67.425  1.00  0.00     0.093 C  
HETATM   33  C   UNL     1      -9.647   9.380  68.740  1.00  0.00    -0.156 A  
HETATM   34  C   UNL     1      -9.972   9.423  67.363  1.00  0.00    -0.252 A  
BRANCH  33  35
HETATM   35  C   UNL     1      -8.880   8.277  69.441  1.00  0.00    -0.146 C  
HETATM   36  N   UNL     1      -9.402   7.583  70.544  1.00  0.00    -0.161 N  
HETATM   37  O   UNL     1      -7.738   8.054  69.029  1.00  0.00    -0.096 OA 
BRANCH  36  38
HETATM   38  C   UNL     1     -10.718   7.775  70.995  1.00  0.00    -0.228 A  
HETATM   39  C   UNL     1     -13.259   8.029  71.966  1.00  0.00    -0.279 A  
HETATM   40  N   UNL     1     -10.916   8.577  72.066  1.00  0.00    -0.316 NA 
HETATM   41  C   UNL     1     -13.038   7.253  70.836  1.00  0.00    -0.084 A  
HETATM   42  C   UNL     1     -12.178   8.673  72.540  1.00  0.00    -0.303 A  
HETATM   43  C   UNL     1     -11.755   7.121  70.340  1.00  0.00    -0.273 A  
ENDBRANCH  36  38
BRANCH  36  44
HETATM   44  C   UNL     1      -8.715   6.403  71.098  1.00  0.00    -0.135 C  
BRANCH  44  45
HETATM   45  C   UNL     1      -8.929   5.050  70.404  1.00  0.00    -0.159 C  
BRANCH  45  46
HETATM   46  C   UNL     1      -8.929   4.980  68.886  1.00  0.00    -0.101 C  
HETATM   47  O   UNL     1      -9.702   5.535  68.123  1.00  0.00    -0.121 OA 
BRANCH  46  48
HETATM   48  O   UNL     1      -7.903   4.147  68.510  1.00  0.00    -0.072 OA 
BRANCH  48  49
HETATM   49  C   UNL     1      -7.303   3.272  69.484  1.00  0.00    -0.045 C  
HETATM   50  C   UNL     1      -7.896   1.877  69.399  1.00  0.00    -0.049 C  
ENDBRANCH  48  49
ENDBRANCH  46  48
ENDBRANCH  45  46
ENDBRANCH  44  45
ENDBRANCH  36  44
ENDBRANCH  33  35
ENDBRANCH  24  25
ENDBRANCH  22  24
ENDBRANCH  19  22
ENDBRANCH  12  16
ENDBRANCH   9  12
ENDBRANCH   7   8
ENDBRANCH   6   7
ENDBRANCH   5   6
ENDBRANCH   4   5
ENDBRANCH   3   4
ENDBRANCH   2   3
TORSDOF 18
ENDMDL
MODEL       74
REMARK 921   NORMALIZED FREE ENERGY PREDICTED BY IDOCK:   -2.50 KCAL/MOL
REMARK 922        TOTAL FREE ENERGY PREDICTED BY IDOCK:   -8.33 KCAL/MOL
REMARK 923 INTER-LIGAND FREE ENERGY PREDICTED BY IDOCK:   -7.25 KCAL/MOL
REMARK 924 INTRA-LIGAND FREE ENERGY PREDICTED BY IDOCK:   -1.08 KCAL/MOL
REMARK 927      BINDING AFFINITY PREDICTED BY RF-SCORE:    0.00 PKD
ROOT
HETATM    1  C   UNL     1     -10.902  20.212  68.273  1.00  0.00     0.175 C  
HETATM    2  C   UNL     1     -10.063  20.178  67.006  1.00  0.00    -0.599 C  
ENDROOT
BRANCH   2   3
HETATM    3  C   UNL     1      -9.475  18.791  66.807  1.00  0.00    -0.335 C  
BRANCH   3   4
HETATM    4  C   UNL     1     -10.549  17.741  66.551  1.00  0.00    -0.220 C  
BRANCH   4   5
HETATM    5  C   UNL     1      -9.980  16.691  65.609  1.00  0.00    -0.197 C  
BRANCH   5   6
HETATM    6  C   UNL     1      -9.884  15.330  66.252  1.00  0.00    -0.294 C  
BRANCH   6   7
HETATM    7  O   UNL     1     -11.171  15.020  66.810  1.00  0.00    -0.339 OA 
BRANCH   7   8
HETATM    8  C   UNL     1     -11.164  14.612  68.108  1.00  0.00    -0.289 C  
HETATM    9  N   UNL     1     -11.601  13.333  68.279  1.00  0.00    -0.311 N  
HETATM   10  O   UNL     1     -10.808  15.328  69.038  1.00  0.00    -0.225 OA 
HETATM   11  H   UNL     1     -12.304  13.144  68.994  1.00  0.00     0.000 HD 
BRANCH   9  12
HETATM   12  C   UNL     1     -11.153  12.341  67.562  1.00  0.00    -0.275 C  
HETATM   13  H1  UNL     1     -11.647  11.130  66.011  1.00  0.00     0.000 HD 
HETATM   14  N   UNL     1     -11.998  11.906  66.573  1.00  0.00    -0.545 NA 
HETATM   15  H2  UNL     1     -12.912  12.328  66.410  1.00  0.00     0.000 HD 
BRANCH  12  16
HETATM   16  C   UNL     1      -9.806  11.698  67.680  1.00  0.00    -0.195 A  
HETATM   17  C   UNL     1      -9.400  11.053  68.849  1.00  0.00    -0.155 A  
HETATM   18  C   UNL     1      -8.035  10.861  69.086  1.00  0.00    -0.114 A  
HETATM   19  C   UNL     1      -7.079  11.201  68.119  1.00  0.00    -0.071 A  
HETATM   20  C   UNL     1      -7.524  11.683  66.885  1.00  0.00    -0.131 A  
HETATM   21  C   UNL     1      -8.876  11.943  66.666  1.00  0.00    -0.191 A  
BRANCH  19  22
HETATM   22  N   UNL     1      -5.733  11.272  68.522  1.00  0.00    -0.043 NA 
HETATM   23  H   UNL     1      -5.009  11.629  67.898  1.00  0.00     0.000 HD 
BRANCH  22  24
HETATM   24  C   UNL     1      -5.418  10.812  69.872  1.00  0.00    -0.045 C  
BRANCH  24  25
HETATM   25  C   UNL     1      -5.806   9.398  70.260  1.00  0.00    -0.038 A  
HETATM   26  N   UNL     1      -6.316   8.433  69.504  1.00  0.00    -0.036 NA 
HETATM   27  C   UNL     1      -6.421   7.311  70.316  1.00  0.00    -0.042 A  
HETATM   28  C   UNL     1      -5.957   7.610  71.594  1.00  0.00    -0.035 A  
HETATM   29  N   UNL     1      -5.635   8.946  71.550  1.00  0.00    -0.044 NA 
HETATM   30  C   UNL     1      -5.868   6.655  72.608  1.00  0.00    -0.038 A  
HETATM   31  C   UNL     1      -6.298   5.357  72.311  1.00  0.00    -0.046 A  
HETATM   32  C   UNL     1      -5.159   9.745  72.658  1.00  0.00    -0.041 C  
HETATM   33  C   UNL     1      -6.853   5.018  71.067  1.00  0.00    -0.043 A  
HETATM   34  C   UNL     1      -6.888   5.994  70.043  1.00  0.00    -0.057 A  
BRANCH  33  35
HETATM   35  C   UNL     1      -7.320   3.581  70.947  1.00  0.00    -0.037 C  
HETATM   36  N   UNL     1      -8.671   3.219  71.053  1.00  0.00    -0.071 N  
HETATM   37  O   UNL     1      -6.439   2.728  70.807  1.00  0.00    -0.026 OA 
BRANCH  36  38
HETATM   38  C   UNL     1      -9.697   4.174  71.152  1.00  0.00    -0.188 A  
HETATM   39  C   UNL     1     -11.587   6.135  71.362  1.00  0.00    -0.283 A  
HETATM   40  N   UNL     1     -10.105   4.793  70.020  1.00  0.00    -0.250 NA 
HETATM   41  C   UNL     1     -11.190   5.449  72.503  1.00  0.00    -0.305 A  
HETATM   42  C   UNL     1     -11.026   5.773  70.151  1.00  0.00    -0.298 A  
HETATM   43  C   UNL     1     -10.235   4.455  72.402  1.00  0.00    -0.255 A  
ENDBRANCH  36  38
BRANCH  36  44
HETATM   44  C   UNL     1      -9.119   1.846  70.760  1.00  0.00    -0.091 C  
BRANCH  44  45
HETATM   45  C   UNL     1      -9.462   1.493  69.306  1.00  0.00    -0.146 C  
BRANCH  45  46
HETATM   46  C   UNL     1      -8.653   2.107  68.176  1.00  0.00    -0.079 C  
HETATM   47  O   UNL     1      -7.471   1.926  67.935  1.00  0.00    -0.053 OA 
BRANCH  46  48
HETATM   48  O   UNL     1      -9.490   2.937  67.471  1.00  0.00    -0.202 OA 
BRANCH  48  49
HETATM   49  C   UNL     1      -9.475   2.909  66.031  1.00  0.00     0.038 C  
HETATM   50  C   UNL     1      -9.538   4.314  65.460  1.00  0.00    -0.188 C  
ENDBRANCH  48  49
ENDBRANCH  46  48
ENDBRANCH  45  46
ENDBRANCH  44  45
ENDBRANCH  36  44
ENDBRANCH  33  35
ENDBRANCH  24  25
ENDBRANCH  22  24
ENDBRANCH  19  22
ENDBRANCH  12  16
ENDBRANCH   9  12
ENDBRANCH   7   8
ENDBRANCH   6   7
ENDBRANCH   5   6
ENDBRANCH   4   5
ENDBRANCH   3   4
ENDBRANCH   2   3
TORSDOF 18
ENDMDL
MODEL       75
REMARK 921   NORMALIZED FREE ENERGY PREDICTED BY IDOCK:   -2.41 KCAL/MOL
REMARK 922        TOTAL FREE ENERGY PREDICTED BY IDOCK:   -8.15 KCAL/MOL
REMARK 923 INTER-LIGAND FREE ENERGY PREDICTED BY IDOCK:   -6.80 KCAL/MOL
REMARK 924 INTRA-LIGAND FREE ENERGY PREDICTED BY IDOCK:   -1.35 KCAL/MOL
REMARK 927      BINDING AFFINITY PREDICTED BY RF-SCORE:    0.00 PKD
ROOT
HETATM    1  C   UNL     1     -11.066   6.015  70.685  1.00  0.00    -0.371 C  
HETATM    2  C   UNL     1     -12.243   6.121  71.641  1.00  0.00    -0.024 C  
ENDROOT
BRANCH   2   3
HETATM    3  C   UNL     1     -11.789   5.824  73.062  1.00  0.00     0.067 C  
BRANCH   3   4
HETATM    4  C   UNL     1     -10.593   4.883  73.099  1.00  0.00    -0.277 C  
BRANCH   4   5
HETATM    5  C   UNL     1     -11.107   3.456  73.212  1.00  0.00    -0.236 C  
BRANCH   5   6
HETATM    6  C   UNL     1     -10.000   2.461  73.463  1.00  0.00    -0.099 C  
BRANCH   6   7
HETATM    7  O   UNL     1      -9.052   2.587  72.391  1.00  0.00    -0.076 OA 
BRANCH   7   8
HETATM    8  C   UNL     1      -7.779   2.211  72.689  1.00  0.00    -0.052 C  
HETATM    9  N   UNL     1      -6.854   2.665  71.797  1.00  0.00    -0.025 N  
HETATM   10  O   UNL     1      -7.490   1.521  73.661  1.00  0.00    -0.027 OA 
HETATM   11  H   UNL     1      -6.174   2.007  71.415  1.00  0.00     0.000 HD 
BRANCH   9  12
HETATM   12  C   UNL     1      -6.807   3.910  71.414  1.00  0.00    -0.031 C  
HETATM   13  H1  UNL     1      -6.519   5.793  72.109  1.00  0.00     0.000 HD 
HETATM   14  N   UNL     1      -6.555   4.818  72.409  1.00  0.00    -0.044 NA 
HETATM   15  H2  UNL     1      -6.415   4.540  73.381  1.00  0.00     0.000 HD 
BRANCH  12  16
HETATM   16  C   UNL     1      -6.937   4.411  70.009  1.00  0.00    -0.041 A  
HETATM   17  C   UNL     1      -8.007   5.215  69.612  1.00  0.00    -0.079 A  
HETATM   18  C   UNL     1      -8.335   5.297  68.255  1.00  0.00    -0.097 A  
HETATM   19  C   UNL     1      -7.539   4.679  67.281  1.00  0.00    -0.086 A  
HETATM   20  C   UNL     1      -6.374   4.025  67.691  1.00  0.00    -0.037 A  
HETATM   21  C   UNL     1      -6.076   3.879  69.045  1.00  0.00    -0.027 A  
BRANCH  19  22
HETATM   22  N   UNL     1      -8.074   4.536  65.988  1.00  0.00    -0.102 NA 
HETATM   23  H   UNL     1      -8.678   3.751  65.745  1.00  0.00     0.000 HD 
BRANCH  22  24
HETATM   24  C   UNL     1      -7.727   5.563  65.008  1.00  0.00    -0.093 C  
BRANCH  24  25
HETATM   25  C   UNL     1      -7.849   7.019  65.416  1.00  0.00    -0.119 A  
HETATM   26  N   UNL     1      -8.942   7.757  65.566  1.00  0.00    -0.017 NA 
HETATM   27  C   UNL     1      -8.519   8.998  66.023  1.00  0.00    -0.130 A  
HETATM   28  C   UNL     1      -7.133   9.004  66.155  1.00  0.00    -0.086 A  
HETATM   29  N   UNL     1      -6.730   7.769  65.707  1.00  0.00    -0.045 NA 
HETATM   30  C   UNL     1      -6.428  10.093  66.670  1.00  0.00    -0.073 A  
HETATM   31  C   UNL     1      -7.165  11.226  67.032  1.00  0.00    -0.129 A  
HETATM   32  C   UNL     1      -5.364   7.308  65.592  1.00  0.00    -0.028 C  
HETATM   33  C   UNL     1      -8.553  11.308  66.843  1.00  0.00    -0.150 A  
HETATM   34  C   UNL     1      -9.249  10.172  66.364  1.00  0.00    -0.190 A  
BRANCH  33  35
HETATM   35  C   UNL     1      -9.174  12.634  67.237  1.00  0.00    -0.195 C  
HETATM   36  N   UNL     1     -10.208  12.727  68.181  1.00  0.00    -0.235 N  
HETATM   37  O   UNL     1      -8.763  13.632  66.639  1.00  0.00    -0.137 OA 
BRANCH  36  38
HETATM   38  C   UNL     1     -10.653  11.617  68.918  1.00  0.00    -0.193 A  
HETATM   39  C   UNL     1     -11.531   9.550  70.472  1.00  0.00    -0.337 A  
HETATM   40  N   UNL     1     -11.984  11.381  68.976  1.00  0.00    -0.373 NA 
HETATM   41  C   UNL     1     -10.166   9.780  70.355  1.00  0.00    -0.343 A  
HETATM   42  C   UNL     1     -12.396  10.366  69.766  1.00  0.00    -0.053 A  
HETATM   43  C   UNL     1      -9.716  10.824  69.569  1.00  0.00    -0.015 A  
ENDBRANCH  36  38
BRANCH  36  44
HETATM   44  C   UNL     1     -10.675  14.035  68.674  1.00  0.00    -0.259 C  
BRANCH  44  45
HETATM   45  C   UNL     1     -10.312  15.286  67.861  1.00  0.00    -0.246 C  
BRANCH  45  46
HETATM   46  C   UNL     1     -11.029  15.559  66.549  1.00  0.00    -0.243 C  
HETATM   47  O   UNL     1     -10.660  16.293  65.648  1.00  0.00    -0.360 OA 
BRANCH  46  48
HETATM   48  O   UNL     1     -12.202  14.845  66.562  1.00  0.00    -0.126 OA 
BRANCH  48  49
HETATM   49  C   UNL     1     -12.666  14.215  65.353  1.00  0.00    -0.431 C  
HETATM   50  C   UNL     1     -12.367  12.727  65.368  1.00  0.00    -0.528 C  
ENDBRANCH  48  49
ENDBRANCH  46  48
ENDBRANCH  45  46
ENDBRANCH  44  45
ENDBRANCH  36  44
ENDBRANCH  33  35
ENDBRANCH  24  25
ENDBRANCH  22  24
ENDBRANCH  19  22
ENDBRANCH  12  16
ENDBRANCH   9  12
ENDBRANCH   7   8
ENDBRANCH   6   7
ENDBRANCH   5   6
ENDBRANCH   4   5
ENDBRANCH   3   4
ENDBRANCH   2   3
TORSDOF 18
ENDMDL
MODEL       76
REMARK 921   NORMALIZED FREE ENERGY PREDICTED BY IDOCK:   -2.13 KCAL/MOL
REMARK 922        TOTAL FREE ENERGY PREDICTED BY IDOCK:   -7.57 KCAL/MOL
REMARK 923 INTER-LIGAND FREE ENERGY PREDICTED BY IDOCK:   -6.97 KCAL/MOL
REMARK 924 INTRA-LIGAND FREE ENERGY PREDICTED BY IDOCK:   -0.61 KCAL/MOL
REMARK 927      BINDING AFFINITY PREDICTED BY RF-SCORE:    0.00 PKD
ROOT
HETATM    1  C   UNL     1     -10.026   8.372  71.325  1.00  0.00    -0.261 C  
HETATM    2  C   UNL     1      -8.578   8.814  71.456  1.00  0.00    -0.253 C  
ENDROOT
BRANCH   2   3
HETATM    3  C   UNL     1      -8.038   9.244  70.102  1.00  0.00    -0.152 C  
BRANCH   3   4
HETATM    4  C   UNL     1      -7.441  10.645  70.139  1.00  0.00     0.241 C  
BRANCH   4   5
HETATM    5  C   UNL     1      -5.999  10.540  70.613  1.00  0.00    -0.104 C  
BRANCH   5   6
HETATM    6  C   UNL     1      -5.597  11.695  71.498  1.00  0.00     0.333 C  
BRANCH   6   7
HETATM    7  O   UNL     1      -6.034  12.905  70.858  1.00  0.00    -0.253 OA 
BRANCH   7   8
HETATM    8  C   UNL     1      -5.863  14.044  71.583  1.00  0.00    -0.127 C  
HETATM    9  N   UNL     1      -5.196  15.023  70.910  1.00  0.00    -0.133 N  
HETATM   10  O   UNL     1      -6.262  14.176  72.736  1.00  0.00    -0.086 OA 
HETATM   11  H   UNL     1      -4.414  15.492  71.370  1.00  0.00     0.000 HD 
BRANCH   9  12
HETATM   12  C   UNL     1      -5.520  15.383  69.700  1.00  0.00    -0.104 C  
HETATM   13  H1  UNL     1      -5.718  14.668  67.813  1.00  0.00     0.000 HD 
HETATM   14  N   UNL     1      -5.464  14.387  68.760  1.00  0.00    -0.084 NA 
HETATM   15  H2  UNL     1      -5.188  13.432  68.990  1.00  0.00     0.000 HD 
BRANCH  12  16
HETATM   16  C   UNL     1      -5.997  16.736  69.275  1.00  0.00    -0.180 A  
HETATM   17  C   UNL     1      -6.151  17.782  70.187  1.00  0.00    -0.031 A  
HETATM   18  C   UNL     1      -6.987  18.855  69.863  1.00  0.00     0.196 A  
HETATM   19  C   UNL     1      -7.580  18.953  68.597  1.00  0.00    -0.331 A  
HETATM   20  C   UNL     1      -7.271  17.982  67.641  1.00  0.00    -0.210 A  
HETATM   21  C   UNL     1      -6.494  16.873  67.975  1.00  0.00    -0.151 A  
BRANCH  19  22
HETATM   22  N   UNL     1      -8.634  19.871  68.434  1.00  0.00    -0.234 NA 
HETATM   23  H   UNL     1      -8.458  20.868  68.315  1.00  0.00     0.000 HD 
BRANCH  22  24
HETATM   24  C   UNL     1      -9.992  19.331  68.443  1.00  0.00    -0.419 C  
BRANCH  24  25
HETATM   25  C   UNL     1     -10.240  17.993  67.772  1.00  0.00    -0.378 A  
HETATM   26  N   UNL     1     -10.457  16.807  68.326  1.00  0.00    -0.322 NA 
HETATM   27  C   UNL     1     -10.699  15.923  67.283  1.00  0.00    -0.306 A  
HETATM   28  C   UNL     1     -10.630  16.600  66.068  1.00  0.00    -0.233 A  
HETATM   29  N   UNL     1     -10.278  17.887  66.399  1.00  0.00    -0.360 NA 
HETATM   30  C   UNL     1     -10.907  15.986  64.845  1.00  0.00    -0.391 A  
HETATM   31  C   UNL     1     -11.235  14.626  64.866  1.00  0.00    -0.400 A  
HETATM   32  C   UNL     1     -10.023  18.966  65.471  1.00  0.00     0.525 C  
HETATM   33  C   UNL     1     -11.238  13.874  66.050  1.00  0.00    -0.300 A  
HETATM   34  C   UNL     1     -11.000  14.532  67.281  1.00  0.00    -0.307 A  
BRANCH  33  35
HETATM   35  C   UNL     1     -11.558  12.403  65.872  1.00  0.00    -0.396 C  
HETATM   36  N   UNL     1     -10.575  11.405  65.960  1.00  0.00    -0.261 N  
HETATM   37  O   UNL     1     -12.725  12.126  65.585  1.00  0.00    -0.223 OA 
BRANCH  36  38
HETATM   38  C   UNL     1      -9.253  11.687  66.344  1.00  0.00    -0.212 A  
HETATM   39  C   UNL     1      -6.688  12.112  67.181  1.00  0.00    -0.123 A  
HETATM   40  N   UNL     1      -8.249  11.107  65.647  1.00  0.00    -0.028 NA 
HETATM   41  C   UNL     1      -7.732  12.738  67.849  1.00  0.00    -0.143 A  
HETATM   42  C   UNL     1      -6.990  11.317  66.090  1.00  0.00     0.067 A  
HETATM   43  C   UNL     1      -9.033  12.527  67.429  1.00  0.00    -0.188 A  
ENDBRANCH  36  38
BRANCH  36  44
HETATM   44  C   UNL     1     -10.936   9.977  65.957  1.00  0.00     0.495 C  
BRANCH  44  45
HETATM   45  C   UNL     1     -10.386   9.090  67.084  1.00  0.00    -0.342 C  
BRANCH  45  46
HETATM   46  C   UNL     1     -10.402   7.579  66.923  1.00  0.00    -0.309 C  
HETATM   47  O   UNL     1     -11.373   6.873  66.706  1.00  0.00    -0.181 OA 
BRANCH  46  48
HETATM   48  O   UNL     1      -9.115   7.131  67.093  1.00  0.00    -0.124 OA 
BRANCH  48  49
HETATM   49  C   UNL     1      -8.066   7.640  66.247  1.00  0.00    -0.112 C  
HETATM   50  C   UNL     1      -6.814   7.933  67.053  1.00  0.00    -0.073 C  
ENDBRANCH  48  49
ENDBRANCH  46  48
ENDBRANCH  45  46
ENDBRANCH  44  45
ENDBRANCH  36  44
ENDBRANCH  33  35
ENDBRANCH  24  25
ENDBRANCH  22  24
ENDBRANCH  19  22
ENDBRANCH  12  16
ENDBRANCH   9  12
ENDBRANCH   7   8
ENDBRANCH   6   7
ENDBRANCH   5   6
ENDBRANCH   4   5
ENDBRANCH   3   4
ENDBRANCH   2   3
TORSDOF 18
ENDMDL
MODEL       77
REMARK 921   NORMALIZED FREE ENERGY PREDICTED BY IDOCK:   -2.01 KCAL/MOL
REMARK 922        TOTAL FREE ENERGY PREDICTED BY IDOCK:   -7.33 KCAL/MOL
REMARK 923 INTER-LIGAND FREE ENERGY PREDICTED BY IDOCK:   -8.12 KCAL/MOL
REMARK 924 INTRA-LIGAND FREE ENERGY PREDICTED BY IDOCK:    0.79 KCAL/MOL
REMARK 927      BINDING AFFINITY PREDICTED BY RF-SCORE:    0.00 PKD
ROOT
HETATM    1  C   UNL     1     -11.676   9.116  70.633  1.00  0.00    -0.256 C  
HETATM    2  C   UNL     1     -10.590   8.950  71.682  1.00  0.00    -0.422 C  
ENDROOT
BRANCH   2   3
HETATM    3  C   UNL     1     -10.408   7.478  72.017  1.00  0.00    -0.236 C  
BRANCH   3   4
HETATM    4  C   UNL     1     -11.581   6.631  71.542  1.00  0.00    -0.357 C  
BRANCH   4   5
HETATM    5  C   UNL     1     -11.098   5.733  70.413  1.00  0.00    -0.287 C  
BRANCH   5   6
HETATM    6  C   UNL     1      -9.792   5.051  70.737  1.00  0.00    -0.208 C  
BRANCH   6   7
HETATM    7  O   UNL     1     -10.100   3.759  71.285  1.00  0.00    -0.136 OA 
BRANCH   7   8
HETATM    8  C   UNL     1      -9.588   2.697  70.603  1.00  0.00    -0.096 C  
HETATM    9  N   UNL     1      -8.420   2.975  69.960  1.00  0.00    -0.048 N  
HETATM   10  O   UNL     1     -10.131   1.598  70.563  1.00  0.00     0.095 OA 
HETATM   11  H   UNL     1      -8.323   2.709  68.979  1.00  0.00     0.000 HD 
BRANCH   9  12
HETATM   12  C   UNL     1      -7.422   3.568  70.552  1.00  0.00    -0.041 C  
HETATM   13  H1  UNL     1      -6.339   3.560  72.267  1.00  0.00     0.000 HD 
HETATM   14  N   UNL     1      -7.121   3.096  71.803  1.00  0.00    -0.037 NA 
HETATM   15  H2  UNL     1      -7.641   2.335  72.241  1.00  0.00     0.000 HD 
BRANCH  12  16
HETATM   16  C   UNL     1      -6.560   4.646  69.972  1.00  0.00    -0.036 A  
HETATM   17  C   UNL     1      -6.082   5.702  70.749  1.00  0.00    -0.030 A  
HETATM   18  C   UNL     1      -5.673   6.883  70.122  1.00  0.00    -0.023 A  
HETATM   19  C   UNL     1      -5.628   6.980  68.724  1.00  0.00    -0.018 A  
HETATM   20  C   UNL     1      -5.945   5.849  67.968  1.00  0.00    -0.017 A  
HETATM   21  C   UNL     1      -6.420   4.691  68.582  1.00  0.00    -0.037 A  
BRANCH  19  22
HETATM   22  N   UNL     1      -5.508   8.263  68.158  1.00  0.00    -0.033 NA 
HETATM   23  H   UNL     1      -4.624   8.773  68.177  1.00  0.00     0.000 HD 
BRANCH  22  24
HETATM   24  C   UNL     1      -6.704   8.832  67.541  1.00  0.00    -0.066 C  
BRANCH  24  25
HETATM   25  C   UNL     1      -7.029  10.288  67.810  1.00  0.00    -0.083 A  
HETATM   26  N   UNL     1      -7.987  11.043  67.285  1.00  0.00    -0.121 NA 
HETATM   27  C   UNL     1      -7.907  12.277  67.917  1.00  0.00    -0.146 A  
HETATM   28  C   UNL     1      -6.874  12.261  68.851  1.00  0.00    -0.096 A  
HETATM   29  N   UNL     1      -6.297  11.020  68.719  1.00  0.00    -0.047 NA 
HETATM   30  C   UNL     1      -6.603  13.339  69.695  1.00  0.00     0.002 A  
HETATM   31  C   UNL     1      -7.398  14.482  69.557  1.00  0.00    -0.063 A  
HETATM   32  C   UNL     1      -5.138  10.539  69.438  1.00  0.00    -0.038 C  
HETATM   33  C   UNL     1      -8.397  14.586  68.577  1.00  0.00    -0.160 A  
HETATM   34  C   UNL     1      -8.682  13.462  67.766  1.00  0.00    -0.197 A  
BRANCH  33  35
HETATM   35  C   UNL     1      -9.115  15.921  68.536  1.00  0.00    -0.200 C  
HETATM   36  N   UNL     1     -10.187  16.169  67.666  1.00  0.00    -0.259 N  
HETATM   37  O   UNL     1      -8.670  16.807  69.271  1.00  0.00    -0.146 OA 
BRANCH  36  38
HETATM   38  C   UNL     1     -10.751  15.163  66.864  1.00  0.00    -0.308 A  
HETATM   39  C   UNL     1     -11.737  13.115  65.349  1.00  0.00    -0.383 A  
HETATM   40  N   UNL     1     -11.655  14.329  67.428  1.00  0.00    -0.350 NA 
HETATM   41  C   UNL     1     -10.847  14.015  64.777  1.00  0.00    -0.430 A  
HETATM   42  C   UNL     1     -12.114  13.312  66.665  1.00  0.00    -0.361 A  
HETATM   43  C   UNL     1     -10.346  15.054  65.539  1.00  0.00    -0.397 A  
ENDBRANCH  36  38
BRANCH  36  44
HETATM   44  C   UNL     1     -10.978  17.409  67.764  1.00  0.00    -0.142 C  
BRANCH  44  45
HETATM   45  C   UNL     1     -10.304  18.730  67.366  1.00  0.00    -0.472 C  
BRANCH  45  46
HETATM   46  C   UNL     1      -9.739  19.637  68.446  1.00  0.00    -0.403 C  
HETATM   47  O   UNL     1     -10.254  19.917  69.516  1.00  0.00    -0.292 OA 
BRANCH  46  48
HETATM   48  O   UNL     1      -8.535  20.120  67.993  1.00  0.00    -0.257 OA 
BRANCH  48  49
HETATM   49  C   UNL     1      -7.912  19.516  66.844  1.00  0.00    -0.277 C  
HETATM   50  C   UNL     1      -6.414  19.386  67.045  1.00  0.00    -0.201 C  
ENDBRANCH  48  49
ENDBRANCH  46  48
ENDBRANCH  45  46
ENDBRANCH  44  45
ENDBRANCH  36  44
ENDBRANCH  33  35
ENDBRANCH  24  25
ENDBRANCH  22  24
ENDBRANCH  19  22
ENDBRANCH  12  16
ENDBRANCH   9  12
ENDBRANCH   7   8
ENDBRANCH   6   7
ENDBRANCH   5   6
ENDBRANCH   4   5
ENDBRANCH   3   4
ENDBRANCH   2   3
TORSDOF 18
ENDMDL
MODEL       78
REMARK 921   NORMALIZED FREE ENERGY PREDICTED BY IDOCK:   -1.97 KCAL/MOL
REMARK 922        TOTAL FREE ENERGY PREDICTED BY IDOCK:   -7.26 KCAL/MOL
REMARK 923 INTER-LIGAND FREE ENERGY PREDICTED BY IDOCK:   -5.47 KCAL/MOL
REMARK 924 INTRA-LIGAND FREE ENERGY PREDICTED BY IDOCK:   -1.79 KCAL/MOL
REMARK 927      BINDING AFFINITY PREDICTED BY RF-SCORE:    0.00 PKD
ROOT
HETATM    1  C   UNL     1     -12.578  13.715  66.554  1.00  0.00    -0.225 C  
HETATM    2  C   UNL     1     -11.347  13.959  65.698  1.00  0.00    -0.310 C  
ENDROOT
BRANCH   2   3
HETATM    3  C   UNL     1     -10.675  15.259  66.109  1.00  0.00    -0.322 C  
BRANCH   3   4
HETATM    4  C   UNL     1     -11.168  16.446  65.291  1.00  0.00     0.005 C  
BRANCH   4   5
HETATM    5  C   UNL     1     -11.337  17.636  66.223  1.00  0.00     1.143 C  
BRANCH   5   6
HETATM    6  C   UNL     1     -10.598  18.859  65.739  1.00  0.00    -0.296 C  
BRANCH   6   7
HETATM    7  O   UNL     1      -9.200  18.530  65.689  1.00  0.00    -0.284 OA 
BRANCH   7   8
HETATM    8  C   UNL     1      -8.391  19.295  66.472  1.00  0.00    -0.319 C  
HETATM    9  N   UNL     1      -8.724  19.265  67.793  1.00  0.00    -0.299 N  
HETATM   10  O   UNL     1      -7.457  19.957  66.032  1.00  0.00    -0.299 OA 
HETATM   11  H   UNL     1      -8.811  20.147  68.299  1.00  0.00     0.000 HD 
BRANCH   9  12
HETATM   12  C   UNL     1      -8.936  18.150  68.433  1.00  0.00    -0.293 C  
HETATM   13  H1  UNL     1     -10.186  17.283  69.774  1.00  0.00     0.000 HD 
HETATM   14  N   UNL     1     -10.021  18.155  69.272  1.00  0.00    -0.196 NA 
HETATM   15  H2  UNL     1     -10.619  18.973  69.388  1.00  0.00     0.000 HD 
BRANCH  12  16
HETATM   16  C   UNL     1      -8.157  16.880  68.286  1.00  0.00    -0.217 A  
HETATM   17  C   UNL     1      -8.601  15.678  68.838  1.00  0.00    -0.211 A  
HETATM   18  C   UNL     1      -7.682  14.648  69.066  1.00  0.00    -0.134 A  
HETATM   19  C   UNL     1      -6.350  14.763  68.645  1.00  0.00    -0.085 A  
HETATM   20  C   UNL     1      -5.972  15.907  67.939  1.00  0.00    -0.152 A  
HETATM   21  C   UNL     1      -6.862  16.967  67.768  1.00  0.00    -0.162 A  
BRANCH  19  22
HETATM   22  N   UNL     1      -5.416  13.847  69.163  1.00  0.00    -0.077 NA 
HETATM   23  H   UNL     1      -4.574  13.596  68.646  1.00  0.00     0.000 HD 
BRANCH  22  24
HETATM   24  C   UNL     1      -5.706  13.271  70.475  1.00  0.00    -0.176 C  
BRANCH  24  25
HETATM   25  C   UNL     1      -5.993  11.784  70.561  1.00  0.00    -0.066 A  
HETATM   26  N   UNL     1      -6.523  10.980  69.648  1.00  0.00    -0.108 NA 
HETATM   27  C   UNL     1      -6.503   9.702  70.190  1.00  0.00    -0.075 A  
HETATM   28  C   UNL     1      -5.939   9.739  71.462  1.00  0.00     0.047 A  
HETATM   29  N   UNL     1      -5.685  11.069  71.698  1.00  0.00    -0.267 NA 
HETATM   30  C   UNL     1      -5.715   8.591  72.223  1.00  0.00    -0.054 A  
HETATM   31  C   UNL     1      -6.110   7.366  71.673  1.00  0.00    -0.036 A  
HETATM   32  C   UNL     1      -5.148  11.632  72.917  1.00  0.00     0.469 C  
HETATM   33  C   UNL     1      -6.758   7.276  70.433  1.00  0.00    -0.052 A  
HETATM   34  C   UNL     1      -6.931   8.451  69.662  1.00  0.00    -0.048 A  
BRANCH  33  35
HETATM   35  C   UNL     1      -7.167   5.874  70.025  1.00  0.00    -0.073 C  
HETATM   36  N   UNL     1      -8.334   5.263  70.508  1.00  0.00    -0.110 N  
HETATM   37  O   UNL     1      -6.386   5.267  69.288  1.00  0.00    -0.031 OA 
BRANCH  36  38
HETATM   38  C   UNL     1      -9.269   5.951  71.299  1.00  0.00    -0.143 A  
HETATM   39  C   UNL     1     -11.174   7.166  72.834  1.00  0.00    -0.302 A  
HETATM   40  N   UNL     1      -9.182   5.826  72.644  1.00  0.00    -0.138 NA 
HETATM   41  C   UNL     1     -11.212   7.323  71.454  1.00  0.00    -0.274 A  
HETATM   42  C   UNL     1     -10.147   6.419  73.381  1.00  0.00    -0.210 A  
HETATM   43  C   UNL     1     -10.250   6.711  70.673  1.00  0.00    -0.215 A  
ENDBRANCH  36  38
BRANCH  36  44
HETATM   44  C   UNL     1      -8.800   3.974  69.966  1.00  0.00    -0.080 C  
BRANCH  44  45
HETATM   45  C   UNL     1      -9.658   3.992  68.693  1.00  0.00    -0.190 C  
BRANCH  45  46
HETATM   46  C   UNL     1      -9.008   4.314  67.357  1.00  0.00    -0.120 C  
HETATM   47  O   UNL     1      -8.041   3.763  66.858  1.00  0.00    -0.094 OA 
BRANCH  46  48
HETATM   48  O   UNL     1      -9.692   5.370  66.807  1.00  0.00    -0.135 OA 
BRANCH  48  49
HETATM   49  C   UNL     1      -9.178   6.707  66.955  1.00  0.00    -0.135 C  
HETATM   50  C   UNL     1      -8.099   6.990  65.926  1.00  0.00    -0.119 C  
ENDBRANCH  48  49
ENDBRANCH  46  48
ENDBRANCH  45  46
ENDBRANCH  44  45
ENDBRANCH  36  44
ENDBRANCH  33  35
ENDBRANCH  24  25
ENDBRANCH  22  24
ENDBRANCH  19  22
ENDBRANCH  12  16
ENDBRANCH   9  12
ENDBRANCH   7   8
ENDBRANCH   6   7
ENDBRANCH   5   6
ENDBRANCH   4   5
ENDBRANCH   3   4
ENDBRANCH   2   3
TORSDOF 18
ENDMDL
MODEL       79
REMARK 921   NORMALIZED FREE ENERGY PREDICTED BY IDOCK:   -1.93 KCAL/MOL
REMARK 922        TOTAL FREE ENERGY PREDICTED BY IDOCK:   -7.16 KCAL/MOL
REMARK 923 INTER-LIGAND FREE ENERGY PREDICTED BY IDOCK:   -8.08 KCAL/MOL
REMARK 924 INTRA-LIGAND FREE ENERGY PREDICTED BY IDOCK:    0.93 KCAL/MOL
REMARK 927      BINDING AFFINITY PREDICTED BY RF-SCORE:    0.00 PKD
ROOT
HETATM    1  C   UNL     1      -7.393   9.778  71.091  1.00  0.00     0.376 C  
HETATM    2  C   UNL     1      -7.444   8.490  70.288  1.00  0.00    -0.064 C  
ENDROOT
BRANCH   2   3
HETATM    3  C   UNL     1      -7.307   8.794  68.805  1.00  0.00    -0.083 C  
BRANCH   3   4
HETATM    4  C   UNL     1      -7.052   7.538  67.981  1.00  0.00    -0.084 C  
BRANCH   4   5
HETATM    5  C   UNL     1      -5.549   7.328  67.876  1.00  0.00    -0.025 C  
BRANCH   5   6
HETATM    6  C   UNL     1      -5.158   6.565  66.635  1.00  0.00    -0.012 C  
BRANCH   6   7
HETATM    7  O   UNL     1      -6.154   6.825  65.632  1.00  0.00    -0.033 OA 
BRANCH   7   8
HETATM    8  C   UNL     1      -5.688   6.932  64.358  1.00  0.00    -0.032 C  
HETATM    9  N   UNL     1      -5.790   5.777  63.642  1.00  0.00    -0.021 N  
HETATM   10  O   UNL     1      -5.211   7.965  63.899  1.00  0.00    -0.039 OA 
HETATM   11  H   UNL     1      -4.974   5.443  63.128  1.00  0.00     0.000 HD 
BRANCH   9  12
HETATM   12  C   UNL     1      -6.892   5.084  63.591  1.00  0.00    -0.046 C  
HETATM   13  H1  UNL     1      -8.120   4.117  62.299  1.00  0.00     0.000 HD 
HETATM   14  N   UNL     1      -7.258   4.660  62.339  1.00  0.00    -0.034 NA 
HETATM   15  H2  UNL     1      -6.707   4.872  61.508  1.00  0.00     0.000 HD 
BRANCH  12  16
HETATM   16  C   UNL     1      -7.733   4.668  64.757  1.00  0.00    -0.078 A  
HETATM   17  C   UNL     1      -9.126   4.616  64.677  1.00  0.00    -0.141 A  
HETATM   18  C   UNL     1      -9.882   4.658  65.852  1.00  0.00    -0.231 A  
HETATM   19  C   UNL     1      -9.263   4.637  67.110  1.00  0.00    -0.129 A  
HETATM   20  C   UNL     1      -7.872   4.512  67.165  1.00  0.00    -0.097 A  
HETATM   21  C   UNL     1      -7.107   4.539  66.000  1.00  0.00    -0.071 A  
BRANCH  19  22
HETATM   22  N   UNL     1     -10.039   4.986  68.231  1.00  0.00    -0.133 NA 
HETATM   23  H   UNL     1      -9.857   4.583  69.150  1.00  0.00     0.000 HD 
BRANCH  22  24
HETATM   24  C   UNL     1     -11.116   5.950  68.019  1.00  0.00    -0.003 C  
BRANCH  24  25
HETATM   25  C   UNL     1     -10.785   7.428  68.100  1.00  0.00    -0.110 A  
HETATM   26  N   UNL     1     -10.358   8.244  67.143  1.00  0.00    -0.293 NA 
HETATM   27  C   UNL     1     -10.277   9.508  67.711  1.00  0.00    -0.216 A  
HETATM   28  C   UNL     1     -10.671   9.451  69.046  1.00  0.00    -0.187 A  
HETATM   29  N   UNL     1     -10.925   8.121  69.283  1.00  0.00    -0.040 NA 
HETATM   30  C   UNL     1     -10.766  10.585  69.854  1.00  0.00    -0.301 A  
HETATM   31  C   UNL     1     -10.417  11.814  69.285  1.00  0.00     0.020 A  
HETATM   32  C   UNL     1     -11.311   7.540  70.549  1.00  0.00    -0.260 C  
HETATM   33  C   UNL     1      -9.933  11.921  67.972  1.00  0.00    -0.192 A  
HETATM   34  C   UNL     1      -9.891  10.763  67.160  1.00  0.00    -0.216 A  
BRANCH  33  35
HETATM   35  C   UNL     1      -9.547  13.324  67.546  1.00  0.00    -0.218 C  
HETATM   36  N   UNL     1      -9.874  13.841  66.283  1.00  0.00    -0.298 N  
HETATM   37  O   UNL     1      -8.874  13.977  68.349  1.00  0.00    -0.179 OA 
BRANCH  36  38
HETATM   38  C   UNL     1     -10.688  13.145  65.375  1.00  0.00    -0.294 A  
HETATM   39  C   UNL     1     -12.278  11.915  63.525  1.00  0.00    -0.591 A  
HETATM   40  N   UNL     1     -10.091  12.505  64.343  1.00  0.00    -0.289 NA 
HETATM   41  C   UNL     1     -12.865  12.534  64.621  1.00  0.00    -0.325 A  
HETATM   42  C   UNL     1     -10.898  11.920  63.431  1.00  0.00    -0.399 A  
HETATM   43  C   UNL     1     -12.065  13.157  65.561  1.00  0.00    -0.490 A  
ENDBRANCH  36  38
BRANCH  36  44
HETATM   44  C   UNL     1      -9.642  15.260  65.957  1.00  0.00    -0.338 C  
BRANCH  44  45
HETATM   45  C   UNL     1      -8.779  16.091  66.917  1.00  0.00    -0.259 C  
BRANCH  45  46
HETATM   46  C   UNL     1      -9.447  17.071  67.866  1.00  0.00    -0.245 C  
HETATM   47  O   UNL     1     -10.079  16.804  68.874  1.00  0.00    -0.253 OA 
BRANCH  46  48
HETATM   48  O   UNL     1      -9.236  18.335  67.372  1.00  0.00    -0.249 OA 
BRANCH  48  49
HETATM   49  C   UNL     1     -10.354  19.225  67.190  1.00  0.00    -0.432 C  
HETATM   50  C   UNL     1      -9.888  20.663  67.059  1.00  0.00    -0.449 C  
ENDBRANCH  48  49
ENDBRANCH  46  48
ENDBRANCH  45  46
ENDBRANCH  44  45
ENDBRANCH  36  44
ENDBRANCH  33  35
ENDBRANCH  24  25
ENDBRANCH  22  24
ENDBRANCH  19  22
ENDBRANCH  12  16
ENDBRANCH   9  12
ENDBRANCH   7   8
ENDBRANCH   6   7
ENDBRANCH   5   6
ENDBRANCH   4   5
ENDBRANCH   3   4
ENDBRANCH   2   3
TORSDOF 18
ENDMDL
MODEL       80
REMARK 921   NORMALIZED FREE ENERGY PREDICTED BY IDOCK:   -1.79 KCAL/MOL
REMARK 922        TOTAL FREE ENERGY PREDICTED BY IDOCK:   -6.88 KCAL/MOL
REMARK 923 INTER-LIGAND FREE ENERGY PREDICTED BY IDOCK:   -7.15 KCAL/MOL
REMARK 924 INTRA-LIGAND FREE ENERGY PREDICTED BY IDOCK:    0.26 KCAL/MOL
REMARK 927      BINDING AFFINITY PREDICTED BY RF-SCORE:    0.00 PKD
ROOT
HETATM    1  C   UNL     1     -10.567   8.946  68.207  1.00  0.00    -0.203 C  
HETATM    2  C   UNL     1      -9.964   8.122  69.333  1.00  0.00    -0.188 C  
ENDROOT
BRANCH   2   3
HETATM    3  C   UNL     1     -10.337   6.658  69.167  1.00  0.00    -0.220 C  
BRANCH   3   4
HETATM    4  C   UNL     1     -11.624   6.479  68.372  1.00  0.00     0.312 C  
BRANCH   4   5
HETATM    5  C   UNL     1     -11.271   6.408  66.894  1.00  0.00    -0.208 C  
BRANCH   5   6
HETATM    6  C   UNL     1     -10.081   5.519  66.627  1.00  0.00    -0.209 C  
BRANCH   6   7
HETATM    7  O   UNL     1     -10.537   4.409  65.837  1.00  0.00    -0.231 OA 
BRANCH   7   8
HETATM    8  C   UNL     1      -9.647   3.939  64.921  1.00  0.00    -0.177 C  
HETATM    9  N   UNL     1      -8.382   4.415  65.096  1.00  0.00    -0.113 N  
HETATM   10  O   UNL     1      -9.954   3.168  64.017  1.00  0.00    -0.152 OA 
HETATM   11  H   UNL     1      -7.885   4.797  64.291  1.00  0.00     0.000 HD 
BRANCH   9  12
HETATM   12  C   UNL     1      -7.785   4.399  66.254  1.00  0.00    -0.094 C  
HETATM   13  H1  UNL     1      -7.531   3.259  67.912  1.00  0.00     0.000 HD 
HETATM   14  N   UNL     1      -7.998   3.272  67.006  1.00  0.00    -0.079 NA 
HETATM   15  H2  UNL     1      -8.582   2.501  66.682  1.00  0.00     0.000 HD 
BRANCH  12  16
HETATM   16  C   UNL     1      -6.862   5.447  66.791  1.00  0.00    -0.063 A  
HETATM   17  C   UNL     1      -6.996   5.952  68.085  1.00  0.00    -0.069 A  
HETATM   18  C   UNL     1      -6.433   7.193  68.397  1.00  0.00    -0.040 A  
HETATM   19  C   UNL     1      -5.642   7.882  67.468  1.00  0.00    -0.037 A  
HETATM   20  C   UNL     1      -5.378   7.273  66.238  1.00  0.00    -0.024 A  
HETATM   21  C   UNL     1      -5.990   6.069  65.892  1.00  0.00    -0.029 A  
BRANCH  19  22
HETATM   22  N   UNL     1      -5.362   9.238  67.718  1.00  0.00    -0.034 NA 
HETATM   23  H   UNL     1      -4.849   9.531  68.549  1.00  0.00     0.000 HD 
BRANCH  22  24
HETATM   24  C   UNL     1      -5.841  10.208  66.736  1.00  0.00    -0.051 C  
BRANCH  24  25
HETATM   25  C   UNL     1      -6.189  11.605  67.213  1.00  0.00    -0.115 A  
HETATM   26  N   UNL     1      -6.808  12.582  66.562  1.00  0.00     0.457 NA 
HETATM   27  C   UNL     1      -6.949  13.629  67.464  1.00  0.00    -0.143 A  
HETATM   28  C   UNL     1      -6.403  13.268  68.693  1.00  0.00    -0.087 A  
HETATM   29  N   UNL     1      -5.876  12.014  68.491  1.00  0.00    -0.052 NA 
HETATM   30  C   UNL     1      -6.467  14.090  69.818  1.00  0.00    -0.115 A  
HETATM   31  C   UNL     1      -7.083  15.338  69.671  1.00  0.00    -0.187 A  
HETATM   32  C   UNL     1      -5.144  11.231  69.462  1.00  0.00    -0.045 C  
HETATM   33  C   UNL     1      -7.576  15.789  68.437  1.00  0.00    -0.130 A  
HETATM   34  C   UNL     1      -7.541  14.916  67.324  1.00  0.00    -0.213 A  
BRANCH  33  35
HETATM   35  C   UNL     1      -8.155  17.190  68.455  1.00  0.00    -0.255 C  
HETATM   36  N   UNL     1      -9.530  17.431  68.604  1.00  0.00    -0.279 N  
HETATM   37  O   UNL     1      -7.360  18.116  68.271  1.00  0.00    -0.242 OA 
BRANCH  36  38
HETATM   38  C   UNL     1     -10.447  16.403  68.874  1.00  0.00    -0.285 A  
HETATM   39  C   UNL     1     -12.342  14.504  69.387  1.00  0.00    -0.213 A  
HETATM   40  N   UNL     1     -10.978  15.729  67.827  1.00  0.00    -0.316 NA 
HETATM   41  C   UNL     1     -11.745  15.171  70.448  1.00  0.00    -0.333 A  
HETATM   42  C   UNL     1     -11.927  14.809  68.104  1.00  0.00    -0.230 A  
HETATM   43  C   UNL     1     -10.785  16.133  70.194  1.00  0.00    -0.289 A  
ENDBRANCH  36  38
BRANCH  36  44
HETATM   44  C   UNL     1     -10.048  18.798  68.792  1.00  0.00    -0.354 C  
BRANCH  44  45
HETATM   45  C   UNL     1     -10.738  19.479  67.601  1.00  0.00    -0.527 C  
BRANCH  45  46
HETATM   46  C   UNL     1     -10.066  19.466  66.239  1.00  0.00    -0.456 C  
HETATM   47  O   UNL     1     -10.427  18.858  65.245  1.00  0.00    -0.373 OA 
BRANCH  46  48
HETATM   48  O   UNL     1      -8.942  20.252  66.324  1.00  0.00    -0.260 OA 
BRANCH  48  49
HETATM   49  C   UNL     1      -7.821  19.989  65.459  1.00  0.00     0.029 C  
HETATM   50  C   UNL     1      -6.587  20.737  65.928  1.00  0.00    -0.223 C  
ENDBRANCH  48  49
ENDBRANCH  46  48
ENDBRANCH  45  46
ENDBRANCH  44  45
ENDBRANCH  36  44
ENDBRANCH  33  35
ENDBRANCH  24  25
ENDBRANCH  22  24
ENDBRANCH  19  22
ENDBRANCH  12  16
ENDBRANCH   9  12
ENDBRANCH   7   8
ENDBRANCH   6   7
ENDBRANCH   5   6
ENDBRANCH   4   5
ENDBRANCH   3   4
ENDBRANCH   2   3
TORSDOF 18
ENDMDL
MODEL       81
REMARK 921   NORMALIZED FREE ENERGY PREDICTED BY IDOCK:   -1.76 KCAL/MOL
REMARK 922        TOTAL FREE ENERGY PREDICTED BY IDOCK:   -6.83 KCAL/MOL
REMARK 923 INTER-LIGAND FREE ENERGY PREDICTED BY IDOCK:   -7.20 KCAL/MOL
REMARK 924 INTRA-LIGAND FREE ENERGY PREDICTED BY IDOCK:    0.37 KCAL/MOL
REMARK 927      BINDING AFFINITY PREDICTED BY RF-SCORE:    0.00 PKD
ROOT
HETATM    1  C   UNL     1      -5.644   7.653  71.859  1.00  0.00    -0.036 C  
HETATM    2  C   UNL     1      -6.790   7.980  72.801  1.00  0.00    -0.095 C  
ENDROOT
BRANCH   2   3
HETATM    3  C   UNL     1      -7.932   8.623  72.031  1.00  0.00    -0.115 C  
BRANCH   3   4
HETATM    4  C   UNL     1      -7.433   9.563  70.941  1.00  0.00    -0.043 C  
BRANCH   4   5
HETATM    5  C   UNL     1      -8.634  10.062  70.151  1.00  0.00    -0.046 C  
BRANCH   5   6
HETATM    6  C   UNL     1      -9.919   9.388  70.566  1.00  0.00    -0.267 C  
BRANCH   6   7
HETATM    7  O   UNL     1     -10.533   8.856  69.381  1.00  0.00    -0.217 OA 
BRANCH   7   8
HETATM    8  C   UNL     1     -10.954   7.565  69.470  1.00  0.00    -0.113 C  
HETATM    9  N   UNL     1     -10.849   6.876  68.299  1.00  0.00    -0.395 N  
HETATM   10  O   UNL     1     -11.396   7.069  70.502  1.00  0.00    -0.282 OA 
HETATM   11  H   UNL     1     -11.653   6.341  67.969  1.00  0.00     0.000 HD 
BRANCH   9  12
HETATM   12  C   UNL     1      -9.759   6.875  67.586  1.00  0.00    -0.127 C  
HETATM   13  H1  UNL     1      -8.119   5.760  67.162  1.00  0.00     0.000 HD 
HETATM   14  N   UNL     1      -8.972   5.760  67.721  1.00  0.00    -0.109 NA 
HETATM   15  H2  UNL     1      -9.223   4.986  68.336  1.00  0.00     0.000 HD 
BRANCH  12  16
HETATM   16  C   UNL     1      -9.336   7.930  66.611  1.00  0.00    -0.244 A  
HETATM   17  C   UNL     1     -10.142   9.033  66.327  1.00  0.00    -0.311 A  
HETATM   18  C   UNL     1      -9.941   9.738  65.136  1.00  0.00    -0.197 A  
HETATM   19  C   UNL     1      -8.874   9.426  64.283  1.00  0.00    -0.184 A  
HETATM   20  C   UNL     1      -7.977   8.430  64.676  1.00  0.00    -0.147 A  
HETATM   21  C   UNL     1      -8.207   7.676  65.826  1.00  0.00    -0.133 A  
BRANCH  19  22
HETATM   22  N   UNL     1      -8.900   9.951  62.977  1.00  0.00    -0.224 NA 
HETATM   23  H   UNL     1      -8.126   9.806  62.329  1.00  0.00     0.000 HD 
BRANCH  22  24
HETATM   24  C   UNL     1     -10.086  10.713  62.591  1.00  0.00     0.161 C  
BRANCH  24  25
HETATM   25  C   UNL     1     -10.385  12.003  63.332  1.00  0.00    -0.434 A  
HETATM   26  N   UNL     1      -9.541  12.870  63.878  1.00  0.00     0.170 NA 
HETATM   27  C   UNL     1     -10.312  13.916  64.366  1.00  0.00    -0.052 A  
HETATM   28  C   UNL     1     -11.657  13.673  64.101  1.00  0.00    -0.352 A  
HETATM   29  N   UNL     1     -11.682  12.434  63.506  1.00  0.00    -0.490 NA 
HETATM   30  C   UNL     1     -12.665  14.589  64.406  1.00  0.00     0.016 A  
HETATM   31  C   UNL     1     -12.284  15.781  65.032  1.00  0.00     0.619 A  
HETATM   32  C   UNL     1     -12.864  11.710  63.094  1.00  0.00     0.209 C  
HETATM   33  C   UNL     1     -10.956  16.044  65.399  1.00  0.00    -0.261 A  
HETATM   34  C   UNL     1      -9.948  15.119  65.035  1.00  0.00    -0.178 A  
BRANCH  33  35
HETATM   35  C   UNL     1     -10.741  17.359  66.122  1.00  0.00    -0.100 C  
HETATM   36  N   UNL     1     -10.525  17.427  67.507  1.00  0.00    -0.354 N  
HETATM   37  O   UNL     1     -10.823  18.382  65.437  1.00  0.00    -0.577 OA 
BRANCH  36  38
HETATM   38  C   UNL     1     -10.368  16.277  68.299  1.00  0.00    -0.272 A  
HETATM   39  C   UNL     1      -9.929  14.097  69.885  1.00  0.00     0.845 A  
HETATM   40  N   UNL     1     -10.807  16.318  69.578  1.00  0.00    -0.320 NA 
HETATM   41  C   UNL     1      -9.534  14.059  68.554  1.00  0.00    -0.191 A  
HETATM   42  C   UNL     1     -10.562  15.236  70.349  1.00  0.00    -0.197 A  
HETATM   43  C   UNL     1      -9.755  15.159  67.747  1.00  0.00    -0.211 A  
ENDBRANCH  36  38
BRANCH  36  44
HETATM   44  C   UNL     1     -10.147  18.693  68.159  1.00  0.00    -0.378 C  
BRANCH  44  45
HETATM   45  C   UNL     1      -9.048  19.543  67.504  1.00  0.00    -0.372 C  
BRANCH  45  46
HETATM   46  C   UNL     1      -7.606  19.374  67.952  1.00  0.00    -0.281 C  
HETATM   47  O   UNL     1      -6.836  18.483  67.634  1.00  0.00    -0.201 OA 
BRANCH  46  48
HETATM   48  O   UNL     1      -7.317  20.404  68.815  1.00  0.00    -0.075 OA 
BRANCH  48  49
HETATM   49  C   UNL     1      -5.973  20.567  69.304  1.00  0.00    -0.348 C  
HETATM   50  C   UNL     1      -5.720  19.676  70.506  1.00  0.00    -0.288 C  
ENDBRANCH  48  49
ENDBRANCH  46  48
ENDBRANCH  45  46
ENDBRANCH  44  45
ENDBRANCH  36  44
ENDBRANCH  33  35
ENDBRANCH  24  25
ENDBRANCH  22  24
ENDBRANCH  19  22
ENDBRANCH  12  16
ENDBRANCH   9  12
ENDBRANCH   7   8
ENDBRANCH   6   7
ENDBRANCH   5   6
ENDBRANCH   4   5
ENDBRANCH   3   4
ENDBRANCH   2   3
TORSDOF 18
ENDMDL
MODEL       82
REMARK 921   NORMALIZED FREE ENERGY PREDICTED BY IDOCK:   -1.69 KCAL/MOL
REMARK 922        TOTAL FREE ENERGY PREDICTED BY IDOCK:   -6.67 KCAL/MOL
REMARK 923 INTER-LIGAND FREE ENERGY PREDICTED BY IDOCK:   -5.73 KCAL/MOL
REMARK 924 INTRA-LIGAND FREE ENERGY PREDICTED BY IDOCK:   -0.94 KCAL/MOL
REMARK 927      BINDING AFFINITY PREDICTED BY RF-SCORE:    0.00 PKD
ROOT
HETATM    1  C   UNL     1     -12.200  13.667  65.465  1.00  0.00    -0.476 C  
HETATM    2  C   UNL     1     -10.961  14.088  64.692  1.00  0.00    -0.401 C  
ENDROOT
BRANCH   2   3
HETATM    3  C   UNL     1     -10.392  15.370  65.277  1.00  0.00    -0.420 C  
BRANCH   3   4
HETATM    4  C   UNL     1     -11.152  16.604  64.809  1.00  0.00    -0.120 C  
BRANCH   4   5
HETATM    5  C   UNL     1     -11.282  17.562  65.983  1.00  0.00     0.778 C  
BRANCH   5   6
HETATM    6  C   UNL     1     -10.452  18.810  65.804  1.00  0.00    -0.271 C  
BRANCH   6   7
HETATM    7  O   UNL     1      -9.071  18.414  65.783  1.00  0.00    -0.432 OA 
BRANCH   7   8
HETATM    8  C   UNL     1      -8.267  19.048  66.680  1.00  0.00    -0.291 C  
HETATM    9  N   UNL     1      -8.642  18.858  67.976  1.00  0.00    -0.291 N  
HETATM   10  O   UNL     1      -7.303  19.733  66.355  1.00  0.00    -0.244 OA 
HETATM   11  H   UNL     1      -8.722  19.671  68.589  1.00  0.00     0.000 HD 
BRANCH   9  12
HETATM   12  C   UNL     1      -8.902  17.677  68.461  1.00  0.00    -0.285 C  
HETATM   13  H1  UNL     1     -10.273  16.659  69.555  1.00  0.00     0.000 HD 
HETATM   14  N   UNL     1     -10.069  17.583  69.176  1.00  0.00    -0.280 NA 
HETATM   15  H2  UNL     1     -10.689  18.381  69.318  1.00  0.00     0.000 HD 
BRANCH  12  16
HETATM   16  C   UNL     1      -8.092  16.436  68.256  1.00  0.00    -0.171 A  
HETATM   17  C   UNL     1      -8.444  15.222  68.850  1.00  0.00    -0.202 A  
HETATM   18  C   UNL     1      -7.472  14.229  69.006  1.00  0.00    -0.102 A  
HETATM   19  C   UNL     1      -6.185  14.388  68.473  1.00  0.00    -0.090 A  
HETATM   20  C   UNL     1      -5.910  15.539  67.731  1.00  0.00    -0.157 A  
HETATM   21  C   UNL     1      -6.850  16.565  67.629  1.00  0.00    -0.161 A  
BRANCH  19  22
HETATM   22  N   UNL     1      -5.177  13.512  68.916  1.00  0.00    -0.069 NA 
HETATM   23  H   UNL     1      -4.378  13.278  68.326  1.00  0.00     0.000 HD 
BRANCH  22  24
HETATM   24  C   UNL     1      -5.327  12.950  70.257  1.00  0.00    -0.121 C  
BRANCH  24  25
HETATM   25  C   UNL     1      -5.673  11.479  70.386  1.00  0.00    -0.155 A  
HETATM   26  N   UNL     1      -6.013  10.613  69.439  1.00  0.00    -0.039 NA 
HETATM   27  C   UNL     1      -6.156   9.381  70.066  1.00  0.00    -0.040 A  
HETATM   28  C   UNL     1      -5.889   9.511  71.426  1.00  0.00    -0.067 A  
HETATM   29  N   UNL     1      -5.650  10.852  71.613  1.00  0.00    -0.332 NA 
HETATM   30  C   UNL     1      -5.877   8.423  72.300  1.00  0.00    -0.055 A  
HETATM   31  C   UNL     1      -6.179   7.165  71.768  1.00  0.00    -0.037 A  
HETATM   32  C   UNL     1      -5.381  11.501  72.877  1.00  0.00     0.858 C  
HETATM   33  C   UNL     1      -6.538   6.986  70.424  1.00  0.00    -0.051 A  
HETATM   34  C   UNL     1      -6.496   8.099  69.549  1.00  0.00    -0.034 A  
BRANCH  33  35
HETATM   35  C   UNL     1      -6.891   5.563  70.040  1.00  0.00    -0.059 C  
HETATM   36  N   UNL     1      -8.139   4.994  70.336  1.00  0.00    -0.084 N  
HETATM   37  O   UNL     1      -5.999   4.902  69.502  1.00  0.00    -0.016 OA 
BRANCH  36  38
HETATM   38  C   UNL     1      -9.190   5.740  70.894  1.00  0.00    -0.156 A  
HETATM   39  C   UNL     1     -11.305   7.061  72.008  1.00  0.00    -0.300 A  
HETATM   40  N   UNL     1      -9.146   6.016  72.218  1.00  0.00    -0.142 NA 
HETATM   41  C   UNL     1     -11.304   6.812  70.642  1.00  0.00    -0.384 A  
HETATM   42  C   UNL     1     -10.211   6.653  72.750  1.00  0.00    -0.187 A  
HETATM   43  C   UNL     1     -10.236   6.145  70.073  1.00  0.00    -0.250 A  
ENDBRANCH  36  38
BRANCH  36  44
HETATM   44  C   UNL     1      -8.521   3.674  69.803  1.00  0.00    -0.053 C  
BRANCH  44  45
HETATM   45  C   UNL     1      -7.595   2.483  70.091  1.00  0.00    -0.043 C  
BRANCH  45  46
HETATM   46  C   UNL     1      -7.263   2.124  71.530  1.00  0.00    -0.032 C  
HETATM   47  O   UNL     1      -6.152   1.998  72.019  1.00  0.00    -0.012 OA 
BRANCH  46  48
HETATM   48  O   UNL     1      -8.450   1.937  72.195  1.00  0.00    -0.052 OA 
BRANCH  48  49
HETATM   49  C   UNL     1      -8.597   2.428  73.541  1.00  0.00    -0.063 C  
HETATM   50  C   UNL     1      -9.949   2.044  74.113  1.00  0.00    -0.139 C  
ENDBRANCH  48  49
ENDBRANCH  46  48
ENDBRANCH  45  46
ENDBRANCH  44  45
ENDBRANCH  36  44
ENDBRANCH  33  35
ENDBRANCH  24  25
ENDBRANCH  22  24
ENDBRANCH  19  22
ENDBRANCH  12  16
ENDBRANCH   9  12
ENDBRANCH   7   8
ENDBRANCH   6   7
ENDBRANCH   5   6
ENDBRANCH   4   5
ENDBRANCH   3   4
ENDBRANCH   2   3
TORSDOF 18
ENDMDL
MODEL       83
REMARK 921   NORMALIZED FREE ENERGY PREDICTED BY IDOCK:   -1.46 KCAL/MOL
REMARK 922        TOTAL FREE ENERGY PREDICTED BY IDOCK:   -6.21 KCAL/MOL
REMARK 923 INTER-LIGAND FREE ENERGY PREDICTED BY IDOCK:   -5.90 KCAL/MOL
REMARK 924 INTRA-LIGAND FREE ENERGY PREDICTED BY IDOCK:   -0.31 KCAL/MOL
REMARK 927      BINDING AFFINITY PREDICTED BY RF-SCORE:    0.00 PKD
ROOT
HETATM    1  C   UNL     1     -11.230  14.243  69.843  1.00  0.00    -0.194 C  
HETATM    2  C   UNL     1     -11.824  15.085  70.959  1.00  0.00    -0.373 C  
ENDROOT
BRANCH   2   3
HETATM    3  C   UNL     1     -11.534  16.557  70.714  1.00  0.00    -0.045 C  
BRANCH   3   4
HETATM    4  C   UNL     1     -10.401  16.762  69.716  1.00  0.00    -0.064 C  
BRANCH   4   5
HETATM    5  C   UNL     1     -10.189  18.256  69.530  1.00  0.00     0.295 C  
BRANCH   5   6
HETATM    6  C   UNL     1      -8.927  18.570  68.765  1.00  0.00    -0.240 C  
BRANCH   6   7
HETATM    7  O   UNL     1      -9.264  18.610  67.369  1.00  0.00    -0.276 OA 
BRANCH   7   8
HETATM    8  C   UNL     1      -8.259  18.273  66.515  1.00  0.00    -0.268 C  
HETATM    9  N   UNL     1      -7.840  16.983  66.648  1.00  0.00    -0.234 N  
HETATM   10  O   UNL     1      -7.768  19.057  65.709  1.00  0.00    -0.454 OA 
HETATM   11  H   UNL     1      -6.840  16.796  66.728  1.00  0.00     0.000 HD 
BRANCH   9  12
HETATM   12  C   UNL     1      -8.671  15.980  66.677  1.00  0.00    -0.274 C  
HETATM   13  H1  UNL     1      -9.456  14.582  67.920  1.00  0.00     0.000 HD 
HETATM   14  N   UNL     1      -8.805  15.368  67.897  1.00  0.00    -0.167 NA 
HETATM   15  H2  UNL     1      -8.291  15.675  68.723  1.00  0.00     0.000 HD 
BRANCH  12  16
HETATM   16  C   UNL     1      -9.517  15.494  65.542  1.00  0.00    -0.168 A  
HETATM   17  C   UNL     1     -10.661  16.180  65.132  1.00  0.00    -0.391 A  
HETATM   18  C   UNL     1     -11.640  15.501  64.399  1.00  0.00    -0.258 A  
HETATM   19  C   UNL     1     -11.438  14.181  63.974  1.00  0.00    -0.040 A  
HETATM   20  C   UNL     1     -10.210  13.574  64.247  1.00  0.00    -0.036 A  
HETATM   21  C   UNL     1      -9.256  14.217  65.035  1.00  0.00     1.424 A  
BRANCH  19  22
HETATM   22  N   UNL     1     -12.556  13.459  63.517  1.00  0.00    -0.722 NA 
HETATM   23  H   UNL     1     -13.018  13.692  62.638  1.00  0.00     0.000 HD 
BRANCH  22  24
HETATM   24  C   UNL     1     -13.027  12.360  64.358  1.00  0.00    -0.121 C  
BRANCH  24  25
HETATM   25  C   UNL     1     -12.049  11.728  65.330  1.00  0.00     0.274 A  
HETATM   26  N   UNL     1     -11.302  10.641  65.178  1.00  0.00     0.610 NA 
HETATM   27  C   UNL     1     -10.528  10.531  66.325  1.00  0.00    -0.183 A  
HETATM   28  C   UNL     1     -10.814  11.585  67.189  1.00  0.00    -0.268 A  
HETATM   29  N   UNL     1     -11.819  12.288  66.568  1.00  0.00    -0.598 NA 
HETATM   30  C   UNL     1     -10.133  11.783  68.391  1.00  0.00    -0.201 A  
HETATM   31  C   UNL     1      -9.147  10.852  68.734  1.00  0.00    -0.174 A  
HETATM   32  C   UNL     1     -12.503  13.446  67.099  1.00  0.00     0.032 C  
HETATM   33  C   UNL     1      -8.874   9.725  67.945  1.00  0.00    -0.122 A  
HETATM   34  C   UNL     1      -9.546   9.574  66.708  1.00  0.00    -0.229 A  
BRANCH  33  35
HETATM   35  C   UNL     1      -7.816   8.794  68.504  1.00  0.00    -0.104 C  
HETATM   36  N   UNL     1      -8.083   7.895  69.548  1.00  0.00    -0.119 N  
HETATM   37  O   UNL     1      -6.681   8.906  68.033  1.00  0.00    -0.066 OA 
BRANCH  36  38
HETATM   38  C   UNL     1      -9.377   7.705  70.060  1.00  0.00    -0.154 A  
HETATM   39  C   UNL     1     -11.836   7.232  71.152  1.00  0.00    -0.345 A  
HETATM   40  N   UNL     1      -9.761   8.453  71.121  1.00  0.00    -0.175 NA 
HETATM   41  C   UNL     1     -11.441   6.513  70.032  1.00  0.00    -0.476 A  
HETATM   42  C   UNL     1     -10.973   8.188  71.656  1.00  0.00    -0.250 A  
HETATM   43  C   UNL     1     -10.198   6.749  69.474  1.00  0.00    -0.202 A  
ENDBRANCH  36  38
BRANCH  36  44
HETATM   44  C   UNL     1      -7.093   6.883  69.956  1.00  0.00    -0.074 C  
BRANCH  44  45
HETATM   45  C   UNL     1      -6.137   7.231  71.106  1.00  0.00    -0.036 C  
BRANCH  45  46
HETATM   46  C   UNL     1      -6.349   6.601  72.472  1.00  0.00    -0.054 C  
HETATM   47  O   UNL     1      -6.029   7.064  73.555  1.00  0.00    -0.057 OA 
BRANCH  46  48
HETATM   48  O   UNL     1      -6.953   5.383  72.277  1.00  0.00    -0.075 OA 
BRANCH  48  49
HETATM   49  C   UNL     1      -7.952   4.925  73.208  1.00  0.00    -0.100 C  
HETATM   50  C   UNL     1      -9.242   4.574  72.491  1.00  0.00    -0.150 C  
ENDBRANCH  48  49
ENDBRANCH  46  48
ENDBRANCH  45  46
ENDBRANCH  44  45
ENDBRANCH  36  44
ENDBRANCH  33  35
ENDBRANCH  24  25
ENDBRANCH  22  24
ENDBRANCH  19  22
ENDBRANCH  12  16
ENDBRANCH   9  12
ENDBRANCH   7   8
ENDBRANCH   6   7
ENDBRANCH   5   6
ENDBRANCH   4   5
ENDBRANCH   3   4
ENDBRANCH   2   3
TORSDOF 18
ENDMDL
MODEL       84
REMARK 921   NORMALIZED FREE ENERGY PREDICTED BY IDOCK:   -0.54 KCAL/MOL
REMARK 922        TOTAL FREE ENERGY PREDICTED BY IDOCK:   -4.31 KCAL/MOL
REMARK 923 INTER-LIGAND FREE ENERGY PREDICTED BY IDOCK:   -3.82 KCAL/MOL
REMARK 924 INTRA-LIGAND FREE ENERGY PREDICTED BY IDOCK:   -0.49 KCAL/MOL
REMARK 927      BINDING AFFINITY PREDICTED BY RF-SCORE:    0.00 PKD
ROOT
HETATM    1  C   UNL     1     -12.029   2.068  72.339  1.00  0.00     1.583 C  
HETATM    2  C   UNL     1     -12.228   3.504  72.794  1.00  0.00     1.308 C  
ENDROOT
BRANCH   2   3
HETATM    3  C   UNL     1     -11.096   4.377  72.276  1.00  0.00     0.214 C  
BRANCH   3   4
HETATM    4  C   UNL     1     -11.554   5.800  71.985  1.00  0.00    -0.226 C  
BRANCH   4   5
HETATM    5  C   UNL     1     -11.238   6.119  70.532  1.00  0.00    -0.403 C  
BRANCH   5   6
HETATM    6  C   UNL     1     -10.411   5.043  69.871  1.00  0.00    -0.144 C  
BRANCH   6   7
HETATM    7  O   UNL     1     -11.068   4.682  68.646  1.00  0.00     1.297 OA 
BRANCH   7   8
HETATM    8  C   UNL     1     -10.557   5.248  67.519  1.00  0.00    -0.073 C  
HETATM    9  N   UNL     1      -9.221   5.504  67.596  1.00  0.00    -0.110 N  
HETATM   10  O   UNL     1     -11.234   5.513  66.531  1.00  0.00    -0.060 OA 
HETATM   11  H   UNL     1      -8.880   6.428  67.328  1.00  0.00     0.000 HD 
BRANCH   9  12
HETATM   12  C   UNL     1      -8.362   4.612  68.001  1.00  0.00    -0.098 C  
HETATM   13  H1  UNL     1      -7.754   2.705  67.673  1.00  0.00     0.000 HD 
HETATM   14  N   UNL     1      -8.427   3.403  67.356  1.00  0.00    -0.094 NA 
HETATM   15  H2  UNL     1      -9.100   3.216  66.613  1.00  0.00     0.000 HD 
BRANCH  12  16
HETATM   16  C   UNL     1      -7.298   4.809  69.036  1.00  0.00    -0.053 A  
HETATM   17  C   UNL     1      -7.434   4.314  70.333  1.00  0.00    -0.045 A  
HETATM   18  C   UNL     1      -6.668   4.871  71.362  1.00  0.00    -0.039 A  
HETATM   19  C   UNL     1      -5.687   5.835  71.092  1.00  0.00    -0.017 A  
HETATM   20  C   UNL     1      -5.450   6.187  69.761  1.00  0.00    -0.013 A  
HETATM   21  C   UNL     1      -6.254   5.689  68.737  1.00  0.00    -0.029 A  
BRANCH  19  22
HETATM   22  N   UNL     1      -5.172   6.570  72.175  1.00  0.00    -0.027 NA 
HETATM   23  H   UNL     1      -4.182   6.533  72.421  1.00  0.00     0.000 HD 
BRANCH  22  24
HETATM   24  C   UNL     1      -6.116   7.389  72.933  1.00  0.00    -0.055 C  
BRANCH  24  25
HETATM   25  C   UNL     1      -7.150   8.191  72.166  1.00  0.00    -0.085 A  
HETATM   26  N   UNL     1      -7.005   8.890  71.047  1.00  0.00    -0.077 NA 
HETATM   27  C   UNL     1      -8.265   9.373  70.718  1.00  0.00    -0.127 A  
HETATM   28  C   UNL     1      -9.193   8.947  71.664  1.00  0.00    -0.231 A  
HETATM   29  N   UNL     1      -8.456   8.259  72.598  1.00  0.00    -0.203 NA 
HETATM   30  C   UNL     1     -10.559   9.213  71.555  1.00  0.00    -0.428 A  
HETATM   31  C   UNL     1     -10.983   9.967  70.456  1.00  0.00    -0.392 A  
HETATM   32  C   UNL     1      -8.963   7.667  73.817  1.00  0.00    -0.261 C  
HETATM   33  C   UNL     1     -10.084  10.494  69.517  1.00  0.00    -0.208 A  
HETATM   34  C   UNL     1      -8.710  10.169  69.625  1.00  0.00    -0.176 A  
BRANCH  33  35
HETATM   35  C   UNL     1     -10.717  11.336  68.427  1.00  0.00    -0.203 C  
HETATM   36  N   UNL     1      -9.981  12.256  67.665  1.00  0.00    -0.195 N  
HETATM   37  O   UNL     1     -11.937  11.217  68.280  1.00  0.00    -0.592 OA 
BRANCH  36  38
HETATM   38  C   UNL     1      -8.584  12.369  67.771  1.00  0.00    -0.172 A  
HETATM   39  C   UNL     1      -5.875  12.698  67.872  1.00  0.00    -0.111 A  
HETATM   40  N   UNL     1      -8.081  13.252  68.663  1.00  0.00    -0.082 NA 
HETATM   41  C   UNL     1      -6.412  11.760  67.001  1.00  0.00    -0.147 A  
HETATM   42  C   UNL     1      -6.739  13.412  68.682  1.00  0.00    -0.095 A  
HETATM   43  C   UNL     1      -7.783  11.588  66.946  1.00  0.00    -0.157 A  
ENDBRANCH  36  38
BRANCH  36  44
HETATM   44  C   UNL     1     -10.578  12.934  66.501  1.00  0.00    -0.259 C  
BRANCH  44  45
HETATM   45  C   UNL     1      -9.981  14.280  66.064  1.00  0.00    -0.337 C  
BRANCH  45  46
HETATM   46  C   UNL     1     -10.759  15.167  65.107  1.00  0.00    -0.422 C  
HETATM   47  O   UNL     1     -10.460  16.291  64.738  1.00  0.00    -0.607 OA 
BRANCH  46  48
HETATM   48  O   UNL     1     -11.893  14.486  64.739  1.00  0.00    -0.399 OA 
BRANCH  48  49
HETATM   49  C   UNL     1     -11.913  13.751  63.501  1.00  0.00    -0.149 C  
HETATM   50  C   UNL     1     -12.422  12.338  63.716  1.00  0.00    -0.619 C  
ENDBRANCH  48  49
ENDBRANCH  46  48
ENDBRANCH  45  46
ENDBRANCH  44  45
ENDBRANCH  36  44
ENDBRANCH  33  35
ENDBRANCH  24  25
ENDBRANCH  22  24
ENDBRANCH  19  22
ENDBRANCH  12  16
ENDBRANCH   9  12
ENDBRANCH   7   8
ENDBRANCH   6   7
ENDBRANCH   5   6
ENDBRANCH   4   5
ENDBRANCH   3   4
ENDBRANCH   2   3
TORSDOF 18
ENDMDL
MODEL       85
REMARK 921   NORMALIZED FREE ENERGY PREDICTED BY IDOCK:   -0.20 KCAL/MOL
REMARK 922        TOTAL FREE ENERGY PREDICTED BY IDOCK:   -3.62 KCAL/MOL
REMARK 923 INTER-LIGAND FREE ENERGY PREDICTED BY IDOCK:   -4.47 KCAL/MOL
REMARK 924 INTRA-LIGAND FREE ENERGY PREDICTED BY IDOCK:    0.85 KCAL/MOL
REMARK 927      BINDING AFFINITY PREDICTED BY RF-SCORE:    0.00 PKD
ROOT
HETATM    1  C   UNL     1     -10.250   3.665  67.587  1.00  0.00     0.810 C  
HETATM    2  C   UNL     1      -9.715   4.513  68.729  1.00  0.00    -0.213 C  
ENDROOT
BRANCH   2   3
HETATM    3  C   UNL     1     -10.862   5.213  69.441  1.00  0.00     0.278 C  
BRANCH   3   4
HETATM    4  C   UNL     1     -10.372   6.157  70.531  1.00  0.00    -0.270 C  
BRANCH   4   5
HETATM    5  C   UNL     1     -11.555   6.978  71.023  1.00  0.00    -0.361 C  
BRANCH   5   6
HETATM    6  C   UNL     1     -11.195   7.866  72.189  1.00  0.00    -0.307 C  
BRANCH   6   7
HETATM    7  O   UNL     1     -12.421   8.360  72.752  1.00  0.00    -0.297 OA 
BRANCH   7   8
HETATM    8  C   UNL     1     -13.419   8.606  71.859  1.00  0.00    -0.397 C  
HETATM    9  N   UNL     1     -13.567   9.926  71.558  1.00  0.00    -0.292 N  
HETATM   10  O   UNL     1     -14.125   7.725  71.379  1.00  0.00    -0.389 OA 
HETATM   11  H   UNL     1     -14.500  10.337  71.593  1.00  0.00     0.000 HD 
BRANCH   9  12
HETATM   12  C   UNL     1     -12.559  10.683  71.225  1.00  0.00    -0.427 C  
HETATM   13  H1  UNL     1     -10.549  10.857  71.427  1.00  0.00     0.000 HD 
HETATM   14  N   UNL     1     -11.337  10.265  71.687  1.00  0.00     0.172 NA 
HETATM   15  H2  UNL     1     -11.225   9.422  72.251  1.00  0.00     0.000 HD 
BRANCH  12  16
HETATM   16  C   UNL     1     -12.612  11.898  70.353  1.00  0.00    -0.153 A  
HETATM   17  C   UNL     1     -12.165  11.874  69.031  1.00  0.00    -0.103 A  
HETATM   18  C   UNL     1     -11.820  13.075  68.403  1.00  0.00    -0.370 A  
HETATM   19  C   UNL     1     -12.024  14.307  69.039  1.00  0.00    -0.325 A  
HETATM   20  C   UNL     1     -12.636  14.314  70.295  1.00  0.00    -0.378 A  
HETATM   21  C   UNL     1     -12.919  13.120  70.958  1.00  0.00    -0.212 A  
BRANCH  19  22
HETATM   22  N   UNL     1     -11.388  15.439  68.498  1.00  0.00    -0.318 NA 
HETATM   23  H   UNL     1     -11.916  16.169  68.020  1.00  0.00     0.000 HD 
BRANCH  22  24
HETATM   24  C   UNL     1      -9.937  15.523  68.653  1.00  0.00    -0.208 C  
BRANCH  24  25
HETATM   25  C   UNL     1      -9.081  14.448  68.011  1.00  0.00    -0.188 A  
HETATM   26  N   UNL     1      -9.334  13.705  66.940  1.00  0.00    -0.250 NA 
HETATM   27  C   UNL     1      -8.204  12.927  66.725  1.00  0.00     0.097 A  
HETATM   28  C   UNL     1      -7.244  13.215  67.691  1.00  0.00    -0.159 A  
HETATM   29  N   UNL     1      -7.843  14.128  68.525  1.00  0.00    -0.136 NA 
HETATM   30  C   UNL     1      -5.971  12.642  67.684  1.00  0.00    -0.142 A  
HETATM   31  C   UNL     1      -5.684  11.721  66.671  1.00  0.00    -0.057 A  
HETATM   32  C   UNL     1      -7.267  14.694  69.725  1.00  0.00    -0.058 C  
HETATM   33  C   UNL     1      -6.639  11.330  65.721  1.00  0.00     0.292 A  
HETATM   34  C   UNL     1      -7.906  11.961  65.723  1.00  0.00     0.881 A  
BRANCH  33  35
HETATM   35  C   UNL     1      -6.168  10.277  64.738  1.00  0.00    -0.124 C  
HETATM   36  N   UNL     1      -6.701   8.979  64.716  1.00  0.00    -0.076 N  
HETATM   37  O   UNL     1      -5.243  10.600  63.988  1.00  0.00    -0.155 OA 
BRANCH  36  38
HETATM   38  C   UNL     1      -7.793   8.603  65.516  1.00  0.00    -0.099 A  
HETATM   39  C   UNL     1      -9.913   8.009  67.133  1.00  0.00    -0.303 A  
HETATM   40  N   UNL     1      -9.040   8.855  65.054  1.00  0.00    -0.118 NA 
HETATM   41  C   UNL     1      -8.626   7.711  67.563  1.00  0.00    -0.119 A  
HETATM   42  C   UNL     1     -10.071   8.571  65.879  1.00  0.00     0.362 A  
HETATM   43  C   UNL     1      -7.550   8.009  66.748  1.00  0.00    -0.094 A  
ENDBRANCH  36  38
BRANCH  36  44
HETATM   44  C   UNL     1      -6.354   8.030  63.643  1.00  0.00    -0.067 C  
BRANCH  44  45
HETATM   45  C   UNL     1      -7.499   7.409  62.829  1.00  0.00    -0.105 C  
BRANCH  45  46
HETATM   46  C   UNL     1      -7.936   5.984  63.119  1.00  0.00    -0.104 C  
HETATM   47  O   UNL     1      -9.060   5.521  63.006  1.00  0.00     0.170 OA 
BRANCH  46  48
HETATM   48  O   UNL     1      -6.835   5.295  63.565  1.00  0.00    -0.040 OA 
BRANCH  48  49
HETATM   49  C   UNL     1      -6.638   5.105  64.979  1.00  0.00    -0.043 C  
HETATM   50  C   UNL     1      -7.288   3.816  65.449  1.00  0.00    -0.072 C  
ENDBRANCH  48  49
ENDBRANCH  46  48
ENDBRANCH  45  46
ENDBRANCH  44  45
ENDBRANCH  36  44
ENDBRANCH  33  35
ENDBRANCH  24  25
ENDBRANCH  22  24
ENDBRANCH  19  22
ENDBRANCH  12  16
ENDBRANCH   9  12
ENDBRANCH   7   8
ENDBRANCH   6   7
ENDBRANCH   5   6
ENDBRANCH   4   5
ENDBRANCH   3   4
ENDBRANCH   2   3
TORSDOF 18
ENDMDL
MODEL       86
REMARK 921   NORMALIZED FREE ENERGY PREDICTED BY IDOCK:   -0.08 KCAL/MOL
REMARK 922        TOTAL FREE ENERGY PREDICTED BY IDOCK:   -3.37 KCAL/MOL
REMARK 923 INTER-LIGAND FREE ENERGY PREDICTED BY IDOCK:   -8.38 KCAL/MOL
REMARK 924 INTRA-LIGAND FREE ENERGY PREDICTED BY IDOCK:    5.01 KCAL/MOL
REMARK 927      BINDING AFFINITY PREDICTED BY RF-SCORE:    0.00 PKD
ROOT
HETATM    1  C   UNL     1      -5.782   7.600  71.751  1.00  0.00    -0.036 C  
HETATM    2  C   UNL     1      -7.049   7.443  72.576  1.00  0.00    -0.068 C  
ENDROOT
BRANCH   2   3
HETATM    3  C   UNL     1      -8.271   7.688  71.706  1.00  0.00    -0.118 C  
BRANCH   3   4
HETATM    4  C   UNL     1      -7.996   8.697  70.598  1.00  0.00    -0.113 C  
BRANCH   4   5
HETATM    5  C   UNL     1      -9.253   8.837  69.753  1.00  0.00    -0.155 C  
BRANCH   5   6
HETATM    6  C   UNL     1     -10.311   7.825  70.120  1.00  0.00    -0.218 C  
BRANCH   6   7
HETATM    7  O   UNL     1     -10.887   7.336  68.898  1.00  0.00    -0.180 OA 
BRANCH   7   8
HETATM    8  C   UNL     1     -10.576   6.051  68.578  1.00  0.00    -0.265 C  
HETATM    9  N   UNL     1      -9.959   5.925  67.370  1.00  0.00    -0.136 N  
HETATM   10  O   UNL     1     -10.834   5.094  69.301  1.00  0.00    -0.057 OA 
HETATM   11  H   UNL     1     -10.306   5.227  66.710  1.00  0.00     0.000 HD 
BRANCH   9  12
HETATM   12  C   UNL     1      -8.942   6.663  67.026  1.00  0.00    -0.118 C  
HETATM   13  H1  UNL     1      -6.940   6.589  66.708  1.00  0.00     0.000 HD 
HETATM   14  N   UNL     1      -7.736   6.011  66.977  1.00  0.00    -0.099 NA 
HETATM   15  H2  UNL     1      -7.642   5.019  67.195  1.00  0.00     0.000 HD 
BRANCH  12  16
HETATM   16  C   UNL     1      -8.986   8.105  66.627  1.00  0.00    -0.181 A  
HETATM   17  C   UNL     1      -9.731   9.043  67.345  1.00  0.00    -0.217 A  
HETATM   18  C   UNL     1     -10.105  10.239  66.725  1.00  0.00    -0.272 A  
HETATM   19  C   UNL     1      -9.648  10.560  65.440  1.00  0.00    -0.237 A  
HETATM   20  C   UNL     1      -8.762   9.683  64.810  1.00  0.00    -0.219 A  
HETATM   21  C   UNL     1      -8.438   8.457  65.391  1.00  0.00    -0.193 A  
BRANCH  19  22
HETATM   22  N   UNL     1     -10.290  11.610  64.757  1.00  0.00    -0.267 NA 
HETATM   23  H   UNL     1     -10.048  11.846  63.795  1.00  0.00     0.000 HD 
BRANCH  22  24
HETATM   24  C   UNL     1     -11.319  12.347  65.487  1.00  0.00    -0.346 C  
BRANCH  24  25
HETATM   25  C   UNL     1     -10.965  13.709  66.052  1.00  0.00    -0.286 A  
HETATM   26  N   UNL     1     -10.151  14.634  65.558  1.00  0.00    -0.358 NA 
HETATM   27  C   UNL     1     -10.230  15.725  66.413  1.00  0.00    -0.293 A  
HETATM   28  C   UNL     1     -11.121  15.450  67.448  1.00  0.00    -0.311 A  
HETATM   29  N   UNL     1     -11.521  14.152  67.233  1.00  0.00    -0.331 NA 
HETATM   30  C   UNL     1     -11.464  16.390  68.420  1.00  0.00    -0.181 A  
HETATM   31  C   UNL     1     -10.850  17.645  68.348  1.00  0.00    -0.148 A  
HETATM   32  C   UNL     1     -12.407  13.383  68.077  1.00  0.00     0.098 C  
HETATM   33  C   UNL     1      -9.883  17.952  67.378  1.00  0.00    -0.305 A  
HETATM   34  C   UNL     1      -9.588  16.996  66.377  1.00  0.00    -0.301 A  
BRANCH  33  35
HETATM   35  C   UNL     1      -9.282  19.339  67.491  1.00  0.00    -0.300 C  
HETATM   36  N   UNL     1      -8.053  19.575  68.125  1.00  0.00    -0.312 N  
HETATM   37  O   UNL     1      -9.960  20.269  67.046  1.00  0.00    -0.432 OA 
BRANCH  36  38
HETATM   38  C   UNL     1      -7.234  18.532  68.587  1.00  0.00    -0.287 A  
HETATM   39  C   UNL     1      -5.724  16.499  69.610  1.00  0.00    -0.182 A  
HETATM   40  N   UNL     1      -7.616  17.259  68.329  1.00  0.00    -0.218 NA 
HETATM   41  C   UNL     1      -5.324  17.812  69.817  1.00  0.00    -0.211 A  
HETATM   42  C   UNL     1      -6.864  16.271  68.862  1.00  0.00    -0.165 A  
HETATM   43  C   UNL     1      -6.084  18.845  69.300  1.00  0.00    -0.274 A  
ENDBRANCH  36  38
BRANCH  36  44
HETATM   44  C   UNL     1      -7.409  20.900  68.071  1.00  0.00     0.018 C  
BRANCH  44  45
HETATM   45  C   UNL     1      -6.792  21.349  66.738  1.00  0.00    -0.080 C  
BRANCH  45  46
HETATM   46  C   UNL     1      -6.186  20.312  65.807  1.00  0.00    -0.214 C  
HETATM   47  O   UNL     1      -6.110  20.370  64.591  1.00  0.00    -0.239 OA 
BRANCH  46  48
HETATM   48  O   UNL     1      -5.754  19.263  66.580  1.00  0.00    -0.162 OA 
BRANCH  48  49
HETATM   49  C   UNL     1      -5.166  18.108  65.951  1.00  0.00    -0.187 C  
HETATM   50  C   UNL     1      -6.230  17.092  65.580  1.00  0.00     0.778 C  
ENDBRANCH  48  49
ENDBRANCH  46  48
ENDBRANCH  45  46
ENDBRANCH  44  45
ENDBRANCH  36  44
ENDBRANCH  33  35
ENDBRANCH  24  25
ENDBRANCH  22  24
ENDBRANCH  19  22
ENDBRANCH  12  16
ENDBRANCH   9  12
ENDBRANCH   7   8
ENDBRANCH   6   7
ENDBRANCH   5   6
ENDBRANCH   4   5
ENDBRANCH   3   4
ENDBRANCH   2   3
TORSDOF 18
ENDMDL
MODEL       87
REMARK 921   NORMALIZED FREE ENERGY PREDICTED BY IDOCK:   -0.03 KCAL/MOL
REMARK 922        TOTAL FREE ENERGY PREDICTED BY IDOCK:   -3.26 KCAL/MOL
REMARK 923 INTER-LIGAND FREE ENERGY PREDICTED BY IDOCK:   -5.72 KCAL/MOL
REMARK 924 INTRA-LIGAND FREE ENERGY PREDICTED BY IDOCK:    2.46 KCAL/MOL
REMARK 927      BINDING AFFINITY PREDICTED BY RF-SCORE:    0.00 PKD
ROOT
HETATM    1  C   UNL     1      -9.617  19.106  66.909  1.00  0.00    -0.379 C  
HETATM    2  C   UNL     1      -8.554  18.149  66.399  1.00  0.00    -0.251 C  
ENDROOT
BRANCH   2   3
HETATM    3  C   UNL     1      -9.121  16.742  66.302  1.00  0.00    -0.320 C  
BRANCH   3   4
HETATM    4  C   UNL     1     -10.616  16.743  66.006  1.00  0.00    -0.232 C  
BRANCH   4   5
HETATM    5  C   UNL     1     -11.022  15.342  65.576  1.00  0.00    -0.365 C  
BRANCH   5   6
HETATM    6  C   UNL     1     -11.499  14.499  66.734  1.00  0.00    -0.367 C  
BRANCH   6   7
HETATM    7  O   UNL     1     -11.754  15.382  67.838  1.00  0.00    -0.319 OA 
BRANCH   7   8
HETATM    8  C   UNL     1     -10.832  15.349  68.839  1.00  0.00    -0.251 C  
HETATM    9  N   UNL     1     -10.874  14.207  69.581  1.00  0.00    -0.450 N  
HETATM   10  O   UNL     1     -10.044  16.263  69.060  1.00  0.00    -0.232 OA 
HETATM   11  H   UNL     1     -10.892  14.282  70.599  1.00  0.00     0.000 HD 
BRANCH   9  12
HETATM   12  C   UNL     1     -10.894  13.023  69.038  1.00  0.00    -0.155 C  
HETATM   13  H1  UNL     1     -12.114  11.445  68.673  1.00  0.00     0.000 HD 
HETATM   14  N   UNL     1     -12.099  12.372  69.098  1.00  0.00    -0.213 NA 
HETATM   15  H2  UNL     1     -12.922  12.785  69.537  1.00  0.00     0.000 HD 
BRANCH  12  16
HETATM   16  C   UNL     1      -9.762  12.358  68.318  1.00  0.00    -0.218 A  
HETATM   17  C   UNL     1      -9.043  11.307  68.889  1.00  0.00    -0.064 A  
HETATM   18  C   UNL     1      -7.763  11.014  68.410  1.00  0.00    -0.119 A  
HETATM   19  C   UNL     1      -7.239  11.680  67.294  1.00  0.00    -0.137 A  
HETATM   20  C   UNL     1      -8.048  12.607  66.632  1.00  0.00     0.181 A  
HETATM   21  C   UNL     1      -9.298  12.956  67.142  1.00  0.00    -0.229 A  
BRANCH  19  22
HETATM   22  N   UNL     1      -5.858  11.567  67.048  1.00  0.00    -0.105 NA 
HETATM   23  H   UNL     1      -5.381  12.189  66.396  1.00  0.00     0.000 HD 
BRANCH  22  24
HETATM   24  C   UNL     1      -5.138  10.519  67.769  1.00  0.00    -0.033 C  
BRANCH  24  25
HETATM   25  C   UNL     1      -5.355   9.078  67.349  1.00  0.00    -0.037 A  
HETATM   26  N   UNL     1      -5.555   8.581  66.135  1.00  0.00    -0.038 NA 
HETATM   27  C   UNL     1      -5.621   7.202  66.280  1.00  0.00    -0.027 A  
HETATM   28  C   UNL     1      -5.450   6.860  67.619  1.00  0.00    -0.016 A  
HETATM   29  N   UNL     1      -5.348   8.061  68.280  1.00  0.00    -0.032 NA 
HETATM   30  C   UNL     1      -5.390   5.537  68.059  1.00  0.00    -0.004 A  
HETATM   31  C   UNL     1      -5.542   4.531  67.099  1.00  0.00    -0.014 A  
HETATM   32  C   UNL     1      -5.216   8.239  69.709  1.00  0.00    -0.026 C  
HETATM   33  C   UNL     1      -5.801   4.815  65.750  1.00  0.00    -0.022 A  
HETATM   34  C   UNL     1      -5.809   6.165  65.322  1.00  0.00    -0.025 A  
BRANCH  33  35
HETATM   35  C   UNL     1      -5.997   3.599  64.867  1.00  0.00    -0.022 C  
HETATM   36  N   UNL     1      -6.872   2.556  65.209  1.00  0.00    -0.043 N  
HETATM   37  O   UNL     1      -5.301   3.540  63.850  1.00  0.00    -0.008 OA 
BRANCH  36  38
HETATM   38  C   UNL     1      -7.719   2.625  66.327  1.00  0.00    -0.076 A  
HETATM   39  C   UNL     1      -9.282   2.872  68.554  1.00  0.00    -0.239 A  
HETATM   40  N   UNL     1      -8.778   3.466  66.275  1.00  0.00    -0.120 NA 
HETATM   41  C   UNL     1      -8.221   1.977  68.566  1.00  0.00    -0.073 A  
HETATM   42  C   UNL     1      -9.525   3.586  67.395  1.00  0.00    -0.190 A  
HETATM   43  C   UNL     1      -7.427   1.847  67.441  1.00  0.00    -0.059 A  
ENDBRANCH  36  38
BRANCH  36  44
HETATM   44  C   UNL     1      -7.177   1.472  64.258  1.00  0.00    -0.051 C  
BRANCH  44  45
HETATM   45  C   UNL     1      -8.558   1.467  63.587  1.00  0.00    -0.076 C  
BRANCH  45  46
HETATM   46  C   UNL     1      -9.039   2.710  62.856  1.00  0.00    -0.087 C  
HETATM   47  O   UNL     1     -10.194   3.019  62.612  1.00  0.00    -0.105 OA 
BRANCH  46  48
HETATM   48  O   UNL     1      -7.929   3.429  62.486  1.00  0.00    -0.068 OA 
BRANCH  48  49
HETATM   49  C   UNL     1      -8.012   4.862  62.377  1.00  0.00    -0.075 C  
HETATM   50  C   UNL     1      -8.683   5.461  63.600  1.00  0.00     0.071 C  
ENDBRANCH  48  49
ENDBRANCH  46  48
ENDBRANCH  45  46
ENDBRANCH  44  45
ENDBRANCH  36  44
ENDBRANCH  33  35
ENDBRANCH  24  25
ENDBRANCH  22  24
ENDBRANCH  19  22
ENDBRANCH  12  16
ENDBRANCH   9  12
ENDBRANCH   7   8
ENDBRANCH   6   7
ENDBRANCH   5   6
ENDBRANCH   4   5
ENDBRANCH   3   4
ENDBRANCH   2   3
TORSDOF 18
ENDMDL
MODEL       88
REMARK 921   NORMALIZED FREE ENERGY PREDICTED BY IDOCK:    0.15 KCAL/MOL
REMARK 922        TOTAL FREE ENERGY PREDICTED BY IDOCK:   -2.89 KCAL/MOL
REMARK 923 INTER-LIGAND FREE ENERGY PREDICTED BY IDOCK:   -4.31 KCAL/MOL
REMARK 924 INTRA-LIGAND FREE ENERGY PREDICTED BY IDOCK:    1.42 KCAL/MOL
REMARK 927      BINDING AFFINITY PREDICTED BY RF-SCORE:    0.00 PKD
ROOT
HETATM    1  C   UNL     1     -12.123  13.933  65.334  1.00  0.00    -0.423 C  
HETATM    2  C   UNL     1     -10.862  14.302  64.571  1.00  0.00    -0.305 C  
ENDROOT
BRANCH   2   3
HETATM    3  C   UNL     1     -10.275  15.590  65.125  1.00  0.00    -0.334 C  
BRANCH   3   4
HETATM    4  C   UNL     1     -11.143  16.801  64.807  1.00  0.00    -0.025 C  
BRANCH   4   5
HETATM    5  C   UNL     1     -11.196  17.691  66.040  1.00  0.00     0.809 C  
BRANCH   5   6
HETATM    6  C   UNL     1     -10.364  18.941  65.886  1.00  0.00    -0.355 C  
BRANCH   6   7
HETATM    7  O   UNL     1      -8.985  18.540  65.824  1.00  0.00    -0.418 OA 
BRANCH   7   8
HETATM    8  C   UNL     1      -8.169  19.106  66.754  1.00  0.00    -0.280 C  
HETATM    9  N   UNL     1      -8.598  18.928  68.035  1.00  0.00    -0.291 N  
HETATM   10  O   UNL     1      -7.150  19.726  66.469  1.00  0.00    -0.217 OA 
HETATM   11  H   UNL     1      -8.642  19.737  68.656  1.00  0.00     0.000 HD 
BRANCH   9  12
HETATM   12  C   UNL     1      -8.955  17.762  68.495  1.00  0.00    -0.287 C  
HETATM   13  H1  UNL     1     -10.435  16.825  69.518  1.00  0.00     0.000 HD 
HETATM   14  N   UNL     1     -10.155  17.738  69.158  1.00  0.00    -0.284 NA 
HETATM   15  H2  UNL     1     -10.728  18.573  69.282  1.00  0.00     0.000 HD 
BRANCH  12  16
HETATM   16  C   UNL     1      -8.218  16.472  68.312  1.00  0.00    -0.185 A  
HETATM   17  C   UNL     1      -8.530  15.335  69.058  1.00  0.00    -0.221 A  
HETATM   18  C   UNL     1      -7.578  14.318  69.187  1.00  0.00    -0.038 A  
HETATM   19  C   UNL     1      -6.366  14.371  68.486  1.00  0.00    -0.088 A  
HETATM   20  C   UNL     1      -6.150  15.436  67.609  1.00  0.00    -0.151 A  
HETATM   21  C   UNL     1      -7.062  16.489  67.526  1.00  0.00    -0.169 A  
BRANCH  19  22
HETATM   22  N   UNL     1      -5.339  13.495  68.883  1.00  0.00    -0.072 NA 
HETATM   23  H   UNL     1      -4.625  13.179  68.226  1.00  0.00     0.000 HD 
BRANCH  22  24
HETATM   24  C   UNL     1      -5.339  13.057  70.277  1.00  0.00    -0.119 C  
BRANCH  24  25
HETATM   25  C   UNL     1      -5.725  11.623  70.581  1.00  0.00    -0.118 A  
HETATM   26  N   UNL     1      -6.202  10.693  69.763  1.00  0.00    -0.071 NA 
HETATM   27  C   UNL     1      -6.320   9.530  70.514  1.00  0.00    -0.080 A  
HETATM   28  C   UNL     1      -5.896   9.768  71.819  1.00  0.00     0.092 A  
HETATM   29  N   UNL     1      -5.586  11.107  71.852  1.00  0.00    -0.175 NA 
HETATM   30  C   UNL     1      -5.827   8.763  72.785  1.00  0.00    -0.077 A  
HETATM   31  C   UNL     1      -6.235   7.479  72.410  1.00  0.00    -0.043 A  
HETATM   32  C   UNL     1      -5.151  11.853  73.012  1.00  0.00     0.479 C  
HETATM   33  C   UNL     1      -6.750   7.199  71.135  1.00  0.00    -0.051 A  
HETATM   34  C   UNL     1      -6.765   8.225  70.160  1.00  0.00    -0.036 A  
BRANCH  33  35
HETATM   35  C   UNL     1      -7.198   5.765  70.928  1.00  0.00    -0.080 C  
HETATM   36  N   UNL     1      -7.551   5.265  69.665  1.00  0.00    -0.068 N  
HETATM   37  O   UNL     1      -7.296   5.068  71.941  1.00  0.00    -0.079 OA 
BRANCH  36  38
HETATM   38  C   UNL     1      -7.393   6.016  68.489  1.00  0.00    -0.085 A  
HETATM   39  C   UNL     1      -7.041   7.595  66.288  1.00  0.00    -0.070 A  
HETATM   40  N   UNL     1      -6.180   6.016  67.890  1.00  0.00    -0.027 NA 
HETATM   41  C   UNL     1      -8.291   7.538  66.890  1.00  0.00    -0.125 A  
HETATM   42  C   UNL     1      -6.024   6.819  66.814  1.00  0.00    -0.025 A  
HETATM   43  C   UNL     1      -8.475   6.740  68.003  1.00  0.00    -0.120 A  
ENDBRANCH  36  38
BRANCH  36  44
HETATM   44  C   UNL     1      -7.815   3.829  69.460  1.00  0.00    -0.051 C  
BRANCH  44  45
HETATM   45  C   UNL     1      -8.888   3.160  70.332  1.00  0.00    -0.149 C  
BRANCH  45  46
HETATM   46  C   UNL     1     -10.176   3.907  70.637  1.00  0.00     0.308 C  
HETATM   47  O   UNL     1     -10.751   3.973  71.711  1.00  0.00     0.139 OA 
BRANCH  46  48
HETATM   48  O   UNL     1     -10.606   4.486  69.468  1.00  0.00     0.254 OA 
BRANCH  48  49
HETATM   49  C   UNL     1     -11.155   5.817  69.493  1.00  0.00    -0.217 C  
HETATM   50  C   UNL     1     -11.190   6.363  70.908  1.00  0.00    -0.384 C  
ENDBRANCH  48  49
ENDBRANCH  46  48
ENDBRANCH  45  46
ENDBRANCH  44  45
ENDBRANCH  36  44
ENDBRANCH  33  35
ENDBRANCH  24  25
ENDBRANCH  22  24
ENDBRANCH  19  22
ENDBRANCH  12  16
ENDBRANCH   9  12
ENDBRANCH   7   8
ENDBRANCH   6   7
ENDBRANCH   5   6
ENDBRANCH   4   5
ENDBRANCH   3   4
ENDBRANCH   2   3
TORSDOF 18
ENDMDL
MODEL       89
REMARK 921   NORMALIZED FREE ENERGY PREDICTED BY IDOCK:    2.80 KCAL/MOL
REMARK 922        TOTAL FREE ENERGY PREDICTED BY IDOCK:    2.55 KCAL/MOL
REMARK 923 INTER-LIGAND FREE ENERGY PREDICTED BY IDOCK:    0.54 KCAL/MOL
REMARK 924 INTRA-LIGAND FREE ENERGY PREDICTED BY IDOCK:    2.00 KCAL/MOL
REMARK 927      BINDING AFFINITY PREDICTED BY RF-SCORE:    0.00 PKD
ROOT
HETATM    1  C   UNL     1     -12.287   1.917  71.605  1.00  0.00     4.845 C  
HETATM    2  C   UNL     1     -12.449   3.014  72.643  1.00  0.00     2.160 C  
ENDROOT
BRANCH   2   3
HETATM    3  C   UNL     1     -11.167   3.824  72.750  1.00  0.00     0.136 C  
BRANCH   3   4
HETATM    4  C   UNL     1     -11.419   5.321  72.623  1.00  0.00    -0.270 C  
BRANCH   4   5
HETATM    5  C   UNL     1     -10.565   5.857  71.484  1.00  0.00    -0.300 C  
BRANCH   5   6
HETATM    6  C   UNL     1     -10.125   4.772  70.533  1.00  0.00    -0.220 C  
BRANCH   6   7
HETATM    7  O   UNL     1     -10.862   4.939  69.311  1.00  0.00     0.231 OA 
BRANCH   7   8
HETATM    8  C   UNL     1     -10.134   5.357  68.240  1.00  0.00    -0.167 C  
HETATM    9  N   UNL     1      -8.810   5.526  68.514  1.00  0.00    -0.104 N  
HETATM   10  O   UNL     1     -10.622   5.572  67.136  1.00  0.00    -0.248 OA 
HETATM   11  H   UNL     1      -8.355   6.394  68.229  1.00  0.00     0.000 HD 
BRANCH   9  12
HETATM   12  C   UNL     1      -8.104   4.619  69.128  1.00  0.00    -0.073 C  
HETATM   13  H1  UNL     1      -7.602   2.656  69.056  1.00  0.00     0.000 HD 
HETATM   14  N   UNL     1      -8.155   3.365  68.576  1.00  0.00    -0.065 NA 
HETATM   15  H2  UNL     1      -8.707   3.157  67.744  1.00  0.00     0.000 HD 
BRANCH  12  16
HETATM   16  C   UNL     1      -7.216   4.838  70.313  1.00  0.00    -0.050 A  
HETATM   17  C   UNL     1      -7.719   4.859  71.615  1.00  0.00    -0.097 A  
HETATM   18  C   UNL     1      -6.980   5.484  72.625  1.00  0.00    -0.083 A  
HETATM   19  C   UNL     1      -5.696   5.986  72.375  1.00  0.00    -0.036 A  
HETATM   20  C   UNL     1      -5.143   5.797  71.105  1.00  0.00    -0.009 A  
HETATM   21  C   UNL     1      -5.898   5.238  70.075  1.00  0.00    -0.017 A  
BRANCH  19  22
HETATM   22  N   UNL     1      -5.135   6.860  73.324  1.00  0.00    -0.037 NA 
HETATM   23  H   UNL     1      -4.181   6.737  73.662  1.00  0.00     0.000 HD 
BRANCH  22  24
HETATM   24  C   UNL     1      -5.981   7.950  73.805  1.00  0.00    -0.072 C  
BRANCH  24  25
HETATM   25  C   UNL     1      -7.060   8.485  72.883  1.00  0.00    -0.017 A  
HETATM   26  N   UNL     1      -6.932   9.088  71.707  1.00  0.00    -0.291 NA 
HETATM   27  C   UNL     1      -8.220   9.313  71.239  1.00  0.00     0.098 A  
HETATM   28  C   UNL     1      -9.147   8.827  72.157  1.00  0.00    -0.148 A  
HETATM   29  N   UNL     1      -8.393   8.368  73.212  1.00  0.00    -0.367 NA 
HETATM   30  C   UNL     1     -10.522   8.843  71.923  1.00  0.00    -0.415 A  
HETATM   31  C   UNL     1     -10.965   9.403  70.720  1.00  0.00    -0.371 A  
HETATM   32  C   UNL     1      -8.902   7.819  74.448  1.00  0.00    -0.040 C  
HETATM   33  C   UNL     1     -10.084   9.983  69.795  1.00  0.00    -0.284 A  
HETATM   34  C   UNL     1      -8.691   9.912  70.036  1.00  0.00    -0.188 A  
BRANCH  33  35
HETATM   35  C   UNL     1     -10.748  10.595  68.577  1.00  0.00    -0.217 C  
HETATM   36  N   UNL     1     -10.044  10.860  67.392  1.00  0.00    -0.186 N  
HETATM   37  O   UNL     1     -11.936  10.907  68.698  1.00  0.00    -0.484 OA 
BRANCH  36  38
HETATM   38  C   UNL     1      -8.710  10.462  67.207  1.00  0.00    -0.125 A  
HETATM   39  C   UNL     1      -6.100   9.682  66.998  1.00  0.00    -0.063 A  
HETATM   40  N   UNL     1      -8.441   9.137  67.153  1.00  0.00    -0.120 NA 
HETATM   41  C   UNL     1      -6.406  11.037  67.004  1.00  0.00    -0.088 A  
HETATM   42  C   UNL     1      -7.142   8.775  67.069  1.00  0.00    -0.078 A  
HETATM   43  C   UNL     1      -7.725  11.437  67.108  1.00  0.00    -0.152 A  
ENDBRANCH  36  38
BRANCH  36  44
HETATM   44  C   UNL     1     -10.744  11.291  66.169  1.00  0.00    -0.250 C  
BRANCH  44  45
HETATM   45  C   UNL     1     -10.610  10.417  64.914  1.00  0.00     0.031 C  
BRANCH  45  46
HETATM   46  C   UNL     1     -10.171  11.051  63.604  1.00  0.00    -0.372 C  
HETATM   47  O   UNL     1     -10.545  12.116  63.140  1.00  0.00    -0.380 OA 
BRANCH  46  48
HETATM   48  O   UNL     1      -9.283  10.192  63.006  1.00  0.00    -0.253 OA 
BRANCH  48  49
HETATM   49  C   UNL     1      -8.123   9.746  63.734  1.00  0.00    -0.149 C  
HETATM   50  C   UNL     1      -6.862  10.399  63.199  1.00  0.00    -0.070 C  
ENDBRANCH  48  49
ENDBRANCH  46  48
ENDBRANCH  45  46
ENDBRANCH  44  45
ENDBRANCH  36  44
ENDBRANCH  33  35
ENDBRANCH  24  25
ENDBRANCH  22  24
ENDBRANCH  19  22
ENDBRANCH  12  16
ENDBRANCH   9  12
ENDBRANCH   7   8
ENDBRANCH   6   7
ENDBRANCH   5   6
ENDBRANCH   4   5
ENDBRANCH   3   4
ENDBRANCH   2   3
TORSDOF 18
ENDMDL
MODEL       90
REMARK 921   NORMALIZED FREE ENERGY PREDICTED BY IDOCK:    3.38 KCAL/MOL
REMARK 922        TOTAL FREE ENERGY PREDICTED BY IDOCK:    3.74 KCAL/MOL
REMARK 923 INTER-LIGAND FREE ENERGY PREDICTED BY IDOCK:    1.18 KCAL/MOL
REMARK 924 INTRA-LIGAND FREE ENERGY PREDICTED BY IDOCK:    2.56 KCAL/MOL
REMARK 927      BINDING AFFINITY PREDICTED BY RF-SCORE:    0.00 PKD
ROOT
HETATM    1  C   UNL     1     -10.121  15.285  70.455  1.00  0.00     0.228 C  
HETATM    2  C   UNL     1     -11.593  15.658  70.411  1.00  0.00    -0.368 C  
ENDROOT
BRANCH   2   3
HETATM    3  C   UNL     1     -12.411  14.493  69.879  1.00  0.00    -0.300 C  
BRANCH   3   4
HETATM    4  C   UNL     1     -11.626  13.188  69.885  1.00  0.00    -0.255 C  
BRANCH   4   5
HETATM    5  C   UNL     1     -11.205  12.874  68.457  1.00  0.00    -0.310 C  
BRANCH   5   6
HETATM    6  C   UNL     1     -10.314  11.659  68.372  1.00  0.00    -0.204 C  
BRANCH   6   7
HETATM    7  O   UNL     1      -9.672  11.501  69.648  1.00  0.00     0.490 OA 
BRANCH   7   8
HETATM    8  C   UNL     1      -8.312  11.560  69.630  1.00  0.00     1.019 C  
HETATM    9  N   UNL     1      -7.711  10.407  70.036  1.00  0.00    -0.332 N  
HETATM   10  O   UNL     1      -7.685  12.558  69.290  1.00  0.00     0.210 OA 
HETATM   11  H   UNL     1      -6.969  10.458  70.734  1.00  0.00     0.000 HD 
BRANCH   9  12
HETATM   12  C   UNL     1      -8.051   9.240  69.565  1.00  0.00    -0.111 C  
HETATM   13  H1  UNL     1      -8.179   7.281  70.072  1.00  0.00     0.000 HD 
HETATM   14  N   UNL     1      -7.913   8.194  70.441  1.00  0.00    -0.096 NA 
HETATM   15  H2  UNL     1      -7.568   8.319  71.393  1.00  0.00     0.000 HD 
BRANCH  12  16
HETATM   16  C   UNL     1      -8.624   8.963  68.210  1.00  0.00    -0.134 A  
HETATM   17  C   UNL     1      -7.902   9.213  67.042  1.00  0.00    -0.102 A  
HETATM   18  C   UNL     1      -8.588   9.364  65.833  1.00  0.00    -0.155 A  
HETATM   19  C   UNL     1      -9.972   9.155  65.757  1.00  0.00    -0.075 A  
HETATM   20  C   UNL     1     -10.646   8.734  66.906  1.00  0.00    -0.263 A  
HETATM   21  C   UNL     1      -9.983   8.648  68.130  1.00  0.00    -0.210 A  
BRANCH  19  22
HETATM   22  N   UNL     1     -10.644   9.612  64.608  1.00  0.00     0.611 NA 
HETATM   23  H   UNL     1     -11.488   9.153  64.267  1.00  0.00     0.000 HD 
BRANCH  22  24
HETATM   24  C   UNL     1     -10.078  10.774  63.925  1.00  0.00    -0.333 C  
BRANCH  24  25
HETATM   25  C   UNL     1      -9.561  11.924  64.768  1.00  0.00    -0.041 A  
HETATM   26  N   UNL     1      -8.473  11.983  65.525  1.00  0.00     0.576 NA 
HETATM   27  C   UNL     1      -8.412  13.277  66.027  1.00  0.00     1.144 A  
HETATM   28  C   UNL     1      -9.493  14.016  65.553  1.00  0.00     0.151 A  
HETATM   29  N   UNL     1     -10.235  13.125  64.815  1.00  0.00    -0.326 NA 
HETATM   30  C   UNL     1      -9.656  15.375  65.827  1.00  0.00    -0.368 A  
HETATM   31  C   UNL     1      -8.696  15.989  66.639  1.00  0.00    -0.309 A  
HETATM   32  C   UNL     1     -11.495  13.401  64.161  1.00  0.00    -0.383 C  
HETATM   33  C   UNL     1      -7.633  15.276  67.213  1.00  0.00    -0.244 A  
HETATM   34  C   UNL     1      -7.464  13.910  66.880  1.00  0.00     0.552 A  
BRANCH  33  35
HETATM   35  C   UNL     1      -6.727  16.093  68.112  1.00  0.00    -0.126 C  
HETATM   36  N   UNL     1      -6.811  17.491  68.191  1.00  0.00    -0.192 N  
HETATM   37  O   UNL     1      -5.864  15.469  68.736  1.00  0.00    -0.094 OA 
BRANCH  36  38
HETATM   38  C   UNL     1      -7.820  18.220  67.539  1.00  0.00    -0.227 A  
HETATM   39  C   UNL     1      -9.740  19.758  66.352  1.00  0.00    -0.530 A  
HETATM   40  N   UNL     1      -7.500  18.874  66.399  1.00  0.00    -0.244 NA 
HETATM   41  C   UNL     1     -10.058  19.036  67.495  1.00  0.00    -0.447 A  
HETATM   42  C   UNL     1      -8.460  19.643  65.840  1.00  0.00    -0.146 A  
HETATM   43  C   UNL     1      -9.091  18.255  68.099  1.00  0.00    -0.310 A  
ENDBRANCH  36  38
BRANCH  36  44
HETATM   44  C   UNL     1      -6.042  18.246  69.196  1.00  0.00    -0.234 C  
BRANCH  44  45
HETATM   45  C   UNL     1      -6.523  19.658  69.562  1.00  0.00    -0.374 C  
BRANCH  45  46
HETATM   46  C   UNL     1      -6.393  20.145  70.996  1.00  0.00    -0.104 C  
HETATM   47  O   UNL     1      -5.368  20.241  71.650  1.00  0.00    -0.331 OA 
BRANCH  46  48
HETATM   48  O   UNL     1      -7.656  20.440  71.449  1.00  0.00     0.463 OA 
BRANCH  48  49
HETATM   49  C   UNL     1      -8.783  20.290  70.565  1.00  0.00     1.741 C  
HETATM   50  C   UNL     1      -9.996  19.773  71.317  1.00  0.00     2.267 C  
ENDBRANCH  48  49
ENDBRANCH  46  48
ENDBRANCH  45  46
ENDBRANCH  44  45
ENDBRANCH  36  44
ENDBRANCH  33  35
ENDBRANCH  24  25
ENDBRANCH  22  24
ENDBRANCH  19  22
ENDBRANCH  12  16
ENDBRANCH   9  12
ENDBRANCH   7   8
ENDBRANCH   6   7
ENDBRANCH   5   6
ENDBRANCH   4   5
ENDBRANCH   3   4
ENDBRANCH   2   3
TORSDOF 18
ENDMDL
MODEL       91
REMARK 921   NORMALIZED FREE ENERGY PREDICTED BY IDOCK:    4.24 KCAL/MOL
REMARK 922        TOTAL FREE ENERGY PREDICTED BY IDOCK:    5.50 KCAL/MOL
REMARK 923 INTER-LIGAND FREE ENERGY PREDICTED BY IDOCK:    0.83 KCAL/MOL
REMARK 924 INTRA-LIGAND FREE ENERGY PREDICTED BY IDOCK:    4.67 KCAL/MOL
REMARK 927      BINDING AFFINITY PREDICTED BY RF-SCORE:    0.00 PKD
ROOT
HETATM    1  C   UNL     1      -8.003  14.754  70.045  1.00  0.00     0.430 C  
HETATM    2  C   UNL     1      -9.482  14.963  70.323  1.00  0.00     0.695 C  
ENDROOT
BRANCH   2   3
HETATM    3  C   UNL     1     -10.259  13.699  69.995  1.00  0.00     1.425 C  
BRANCH   3   4
HETATM    4  C   UNL     1      -9.352  12.574  69.513  1.00  0.00     1.528 C  
BRANCH   4   5
HETATM    5  C   UNL     1      -9.917  12.024  68.212  1.00  0.00    -0.203 C  
BRANCH   5   6
HETATM    6  C   UNL     1      -9.007  11.002  67.574  1.00  0.00    -0.137 C  
BRANCH   6   7
HETATM    7  O   UNL     1      -7.771  11.004  68.306  1.00  0.00    -0.102 OA 
BRANCH   7   8
HETATM    8  C   UNL     1      -6.722  11.606  67.682  1.00  0.00    -0.087 C  
HETATM    9  N   UNL     1      -5.646  10.787  67.513  1.00  0.00    -0.043 N  
HETATM   10  O   UNL     1      -6.738  12.776  67.315  1.00  0.00    -0.158 OA 
HETATM   11  H   UNL     1      -4.723  11.124  67.788  1.00  0.00     0.000 HD 
BRANCH   9  12
HETATM   12  C   UNL     1      -5.754   9.588  67.014  1.00  0.00    -0.051 C  
HETATM   13  H1  UNL     1      -5.211   7.661  67.337  1.00  0.00     0.000 HD 
HETATM   14  N   UNL     1      -5.127   8.599  67.727  1.00  0.00    -0.034 NA 
HETATM   15  H2  UNL     1      -4.612   8.788  68.588  1.00  0.00     0.000 HD 
BRANCH  12  16
HETATM   16  C   UNL     1      -6.536   9.200  65.798  1.00  0.00    -0.064 A  
HETATM   17  C   UNL     1      -6.536   9.985  64.643  1.00  0.00    -0.125 A  
HETATM   18  C   UNL     1      -7.579   9.847  63.722  1.00  0.00    -0.136 A  
HETATM   19  C   UNL     1      -8.558   8.858  63.882  1.00  0.00    -0.091 A  
HETATM   20  C   UNL     1      -8.438   7.970  64.955  1.00  0.00    -0.066 A  
HETATM   21  C   UNL     1      -7.442   8.143  65.915  1.00  0.00    -0.080 A  
BRANCH  19  22
HETATM   22  N   UNL     1      -9.731   8.961  63.111  1.00  0.00     0.722 NA 
HETATM   23  H   UNL     1     -10.397   8.191  63.049  1.00  0.00     0.000 HD 
BRANCH  22  24
HETATM   24  C   UNL     1      -9.951  10.220  62.402  1.00  0.00     0.359 C  
BRANCH  24  25
HETATM   25  C   UNL     1     -10.154  11.481  63.220  1.00  0.00    -0.406 A  
HETATM   26  N   UNL     1      -9.255  12.213  63.865  1.00  0.00     0.314 NA 
HETATM   27  C   UNL     1      -9.939  13.301  64.393  1.00  0.00    -0.010 A  
HETATM   28  C   UNL     1     -11.286  13.221  64.050  1.00  0.00    -0.339 A  
HETATM   29  N   UNL     1     -11.407  12.035  63.366  1.00  0.00    -0.414 NA 
HETATM   30  C   UNL     1     -12.208  14.217  64.375  1.00  0.00    -0.471 A  
HETATM   31  C   UNL     1     -11.740  15.317  65.103  1.00  0.00    -0.114 A  
HETATM   32  C   UNL     1     -12.634  11.471  62.849  1.00  0.00     0.650 C  
HETATM   33  C   UNL     1     -10.413  15.411  65.548  1.00  0.00    -0.402 A  
HETATM   34  C   UNL     1      -9.488  14.410  65.164  1.00  0.00     0.491 A  
BRANCH  33  35
HETATM   35  C   UNL     1     -10.102  16.643  66.374  1.00  0.00    -0.315 C  
HETATM   36  N   UNL     1     -10.711  16.889  67.614  1.00  0.00    -0.321 N  
HETATM   37  O   UNL     1      -9.322  17.458  65.873  1.00  0.00    -0.508 OA 
BRANCH  36  38
HETATM   38  C   UNL     1     -11.554  15.952  68.234  1.00  0.00    -0.272 A  
HETATM   39  C   UNL     1     -13.076  14.087  69.525  1.00  0.00     1.091 A  
HETATM   40  N   UNL     1     -12.214  16.329  69.354  1.00  0.00     0.070 NA 
HETATM   41  C   UNL     1     -12.432  13.739  68.346  1.00  0.00     0.273 A  
HETATM   42  C   UNL     1     -12.945  15.385  69.985  1.00  0.00     0.037 A  
HETATM   43  C   UNL     1     -11.661  14.678  67.687  1.00  0.00    -0.383 A  
ENDBRANCH  36  38
BRANCH  36  44
HETATM   44  C   UNL     1     -10.267  17.998  68.476  1.00  0.00    -0.385 C  
BRANCH  44  45
HETATM   45  C   UNL     1      -8.788  18.046  68.887  1.00  0.00    -0.133 C  
BRANCH  45  46
HETATM   46  C   UNL     1      -7.930  19.225  68.459  1.00  0.00    -0.361 C  
HETATM   47  O   UNL     1      -8.317  20.305  68.046  1.00  0.00    -0.216 OA 
BRANCH  46  48
HETATM   48  O   UNL     1      -6.615  18.851  68.594  1.00  0.00    -0.246 OA 
BRANCH  48  49
HETATM   49  C   UNL     1      -5.872  19.265  69.756  1.00  0.00    -0.257 C  
HETATM   50  C   UNL     1      -5.701  20.773  69.780  1.00  0.00    -0.329 C  
ENDBRANCH  48  49
ENDBRANCH  46  48
ENDBRANCH  45  46
ENDBRANCH  44  45
ENDBRANCH  36  44
ENDBRANCH  33  35
ENDBRANCH  24  25
ENDBRANCH  22  24
ENDBRANCH  19  22
ENDBRANCH  12  16
ENDBRANCH   9  12
ENDBRANCH   7   8
ENDBRANCH   6   7
ENDBRANCH   5   6
ENDBRANCH   4   5
ENDBRANCH   3   4
ENDBRANCH   2   3
TORSDOF 18
ENDMDL
MODEL       92
REMARK 921   NORMALIZED FREE ENERGY PREDICTED BY IDOCK:    4.35 KCAL/MOL
REMARK 922        TOTAL FREE ENERGY PREDICTED BY IDOCK:    5.72 KCAL/MOL
REMARK 923 INTER-LIGAND FREE ENERGY PREDICTED BY IDOCK:   -0.46 KCAL/MOL
REMARK 924 INTRA-LIGAND FREE ENERGY PREDICTED BY IDOCK:    6.18 KCAL/MOL
REMARK 927      BINDING AFFINITY PREDICTED BY RF-SCORE:    0.00 PKD
ROOT
HETATM    1  C   UNL     1     -12.388   4.559  64.853  1.00  0.00     4.077 C  
HETATM    2  C   UNL     1     -11.398   4.940  65.941  1.00  0.00     0.706 C  
ENDROOT
BRANCH   2   3
HETATM    3  C   UNL     1     -10.000   4.479  65.559  1.00  0.00    -0.230 C  
BRANCH   3   4
HETATM    4  C   UNL     1      -9.160   5.610  64.978  1.00  0.00     0.130 C  
BRANCH   4   5
HETATM    5  C   UNL     1      -8.348   6.231  66.103  1.00  0.00    -0.130 C  
BRANCH   5   6
HETATM    6  C   UNL     1      -7.318   7.213  65.598  1.00  0.00    -0.079 C  
BRANCH   6   7
HETATM    7  O   UNL     1      -6.579   6.565  64.549  1.00  0.00    -0.036 OA 
BRANCH   7   8
HETATM    8  C   UNL     1      -6.889   6.960  63.285  1.00  0.00    -0.048 C  
HETATM    9  N   UNL     1      -7.140   8.295  63.177  1.00  0.00    -0.089 N  
HETATM   10  O   UNL     1      -6.949   6.188  62.333  1.00  0.00    -0.039 OA 
HETATM   11  H   UNL     1      -7.983   8.600  62.688  1.00  0.00     0.000 HD 
BRANCH   9  12
HETATM   12  C   UNL     1      -6.343   9.197  63.676  1.00  0.00    -0.089 C  
HETATM   13  H1  UNL     1      -5.114  10.721  63.147  1.00  0.00     0.000 HD 
HETATM   14  N   UNL     1      -5.738  10.015  62.756  1.00  0.00    -0.102 NA 
HETATM   15  H2  UNL     1      -5.901   9.924  61.753  1.00  0.00     0.000 HD 
BRANCH  12  16
HETATM   16  C   UNL     1      -6.088   9.450  65.129  1.00  0.00    -0.069 A  
HETATM   17  C   UNL     1      -5.135   8.724  65.845  1.00  0.00    -0.030 A  
HETATM   18  C   UNL     1      -5.224   8.667  67.240  1.00  0.00    -0.033 A  
HETATM   19  C   UNL     1      -6.183   9.418  67.934  1.00  0.00    -0.053 A  
HETATM   20  C   UNL     1      -7.013  10.273  67.205  1.00  0.00    -0.088 A  
HETATM   21  C   UNL     1      -6.978  10.284  65.811  1.00  0.00    -0.128 A  
BRANCH  19  22
HETATM   22  N   UNL     1      -6.424   9.092  69.281  1.00  0.00    -0.045 NA 
HETATM   23  H   UNL     1      -6.620   8.134  69.571  1.00  0.00     0.000 HD 
BRANCH  22  24
HETATM   24  C   UNL     1      -6.382  10.188  70.247  1.00  0.00    -0.117 C  
BRANCH  24  25
HETATM   25  C   UNL     1      -6.725  11.585  69.767  1.00  0.00    -0.047 A  
HETATM   26  N   UNL     1      -7.563  11.957  68.807  1.00  0.00    -0.117 NA 
HETATM   27  C   UNL     1      -7.575  13.346  68.812  1.00  0.00    -0.047 A  
HETATM   28  C   UNL     1      -6.723  13.821  69.806  1.00  0.00     0.027 A  
HETATM   29  N   UNL     1      -6.153  12.695  70.350  1.00  0.00    -0.112 NA 
HETATM   30  C   UNL     1      -6.588  15.178  70.099  1.00  0.00    -0.096 A  
HETATM   31  C   UNL     1      -7.327  16.082  69.327  1.00  0.00    -0.231 A  
HETATM   32  C   UNL     1      -5.146  12.666  71.388  1.00  0.00    -0.146 C  
HETATM   33  C   UNL     1      -8.136  15.667  68.259  1.00  0.00    -0.134 A  
HETATM   34  C   UNL     1      -8.292  14.282  68.013  1.00  0.00    -0.157 A  
BRANCH  33  35
HETATM   35  C   UNL     1      -8.814  16.790  67.498  1.00  0.00    -0.200 C  
HETATM   36  N   UNL     1     -10.201  16.994  67.540  1.00  0.00    -0.313 N  
HETATM   37  O   UNL     1      -8.087  17.487  66.785  1.00  0.00    -0.217 OA 
BRANCH  36  38
HETATM   38  C   UNL     1     -11.043  16.255  68.387  1.00  0.00    -0.362 A  
HETATM   39  C   UNL     1     -12.562  14.727  70.067  1.00  0.00    -0.268 A  
HETATM   40  N   UNL     1     -11.111  16.612  69.690  1.00  0.00    -0.233 NA 
HETATM   41  C   UNL     1     -12.518  14.412  68.715  1.00  0.00     0.101 A  
HETATM   42  C   UNL     1     -11.853  15.831  70.505  1.00  0.00    -0.375 A  
HETATM   43  C   UNL     1     -11.752  15.182  67.860  1.00  0.00    -0.275 A  
ENDBRANCH  36  38
BRANCH  36  44
HETATM   44  C   UNL     1     -10.815  18.190  66.935  1.00  0.00    -0.091 C  
BRANCH  44  45
HETATM   45  C   UNL     1      -9.885  19.309  66.443  1.00  0.00    -0.455 C  
BRANCH  45  46
HETATM   46  C   UNL     1      -9.750  20.583  67.261  1.00  0.00    -0.460 C  
HETATM   47  O   UNL     1     -10.652  21.294  67.670  1.00  0.00     1.024 OA 
BRANCH  46  48
HETATM   48  O   UNL     1      -8.409  20.817  67.443  1.00  0.00    -0.300 OA 
BRANCH  48  49
HETATM   49  C   UNL     1      -7.464  20.344  66.464  1.00  0.00    -0.222 C  
HETATM   50  C   UNL     1      -6.042  20.676  66.878  1.00  0.00    -0.262 C  
ENDBRANCH  48  49
ENDBRANCH  46  48
ENDBRANCH  45  46
ENDBRANCH  44  45
ENDBRANCH  36  44
ENDBRANCH  33  35
ENDBRANCH  24  25
ENDBRANCH  22  24
ENDBRANCH  19  22
ENDBRANCH  12  16
ENDBRANCH   9  12
ENDBRANCH   7   8
ENDBRANCH   6   7
ENDBRANCH   5   6
ENDBRANCH   4   5
ENDBRANCH   3   4
ENDBRANCH   2   3
TORSDOF 18
ENDMDL
MODEL       93
REMARK 921   NORMALIZED FREE ENERGY PREDICTED BY IDOCK:    6.41 KCAL/MOL
REMARK 922        TOTAL FREE ENERGY PREDICTED BY IDOCK:    9.94 KCAL/MOL
REMARK 923 INTER-LIGAND FREE ENERGY PREDICTED BY IDOCK:    3.06 KCAL/MOL
REMARK 924 INTRA-LIGAND FREE ENERGY PREDICTED BY IDOCK:    6.89 KCAL/MOL
REMARK 927      BINDING AFFINITY PREDICTED BY RF-SCORE:    0.00 PKD
ROOT
HETATM    1  C   UNL     1      -9.342  14.569  66.027  1.00  0.00    -0.196 C  
HETATM    2  C   UNL     1      -8.695  15.600  65.118  1.00  0.00     2.564 C  
ENDROOT
BRANCH   2   3
HETATM    3  C   UNL     1      -8.889  16.995  65.691  1.00  0.00     0.417 C  
BRANCH   3   4
HETATM    4  C   UNL     1     -10.344  17.274  66.046  1.00  0.00    -0.312 C  
BRANCH   4   5
HETATM    5  C   UNL     1     -10.391  17.872  67.444  1.00  0.00    -0.383 C  
BRANCH   5   6
HETATM    6  C   UNL     1     -10.106  19.354  67.448  1.00  0.00    -0.398 C  
BRANCH   6   7
HETATM    7  O   UNL     1      -8.684  19.524  67.333  1.00  0.00    -0.293 OA 
BRANCH   7   8
HETATM    8  C   UNL     1      -7.993  19.472  68.504  1.00  0.00    -0.348 C  
HETATM    9  N   UNL     1      -8.673  18.857  69.512  1.00  0.00     0.314 N  
HETATM   10  O   UNL     1      -6.869  19.943  68.645  1.00  0.00    -0.302 OA 
HETATM   11  H   UNL     1      -8.731  19.318  70.421  1.00  0.00     0.000 HD 
BRANCH   9  12
HETATM   12  C   UNL     1      -9.252  17.700  69.357  1.00  0.00     0.366 C  
HETATM   13  H1  UNL     1     -11.074  16.833  69.147  1.00  0.00     0.000 HD 
HETATM   14  N   UNL     1     -10.620  17.739  69.269  1.00  0.00    -0.349 NA 
HETATM   15  H2  UNL     1     -11.147  18.611  69.322  1.00  0.00     0.000 HD 
BRANCH  12  16
HETATM   16  C   UNL     1      -8.568  16.378  69.205  1.00  0.00    -0.106 A  
HETATM   17  C   UNL     1      -8.889  15.287  70.014  1.00  0.00     0.334 A  
HETATM   18  C   UNL     1      -7.969  14.243  70.154  1.00  0.00     1.118 A  
HETATM   19  C   UNL     1      -6.783  14.221  69.407  1.00  0.00    -0.130 A  
HETATM   20  C   UNL     1      -6.566  15.238  68.474  1.00  0.00    -0.109 A  
HETATM   21  C   UNL     1      -7.443  16.317  68.378  1.00  0.00    -0.163 A  
BRANCH  19  22
HETATM   22  N   UNL     1      -5.772  13.327  69.805  1.00  0.00    -0.105 NA 
HETATM   23  H   UNL     1      -5.141  12.901  69.126  1.00  0.00     0.000 HD 
BRANCH  22  24
HETATM   24  C   UNL     1      -5.666  13.036  71.233  1.00  0.00     0.049 C  
BRANCH  24  25
HETATM   25  C   UNL     1      -5.811  11.596  71.687  1.00  0.00     0.924 A  
HETATM   26  N   UNL     1      -6.014  10.506  70.959  1.00  0.00    -0.309 NA 
HETATM   27  C   UNL     1      -5.997   9.434  71.842  1.00  0.00     0.024 A  
HETATM   28  C   UNL     1      -5.772   9.894  73.136  1.00  0.00     0.479 A  
HETATM   29  N   UNL     1      -5.721  11.263  73.021  1.00  0.00     0.855 NA 
HETATM   30  C   UNL     1      -5.626   9.036  74.228  1.00  0.00    -0.129 A  
HETATM   31  C   UNL     1      -5.745   7.663  73.989  1.00  0.00    -0.067 A  
HETATM   32  C   UNL     1      -5.563  12.204  74.108  1.00  0.00     1.097 C  
HETATM   33  C   UNL     1      -6.055   7.147  72.722  1.00  0.00    -0.051 A  
HETATM   34  C   UNL     1      -6.151   8.035  71.624  1.00  0.00    -0.036 A  
BRANCH  33  35
HETATM   35  C   UNL     1      -6.204   5.639  72.665  1.00  0.00    -0.048 C  
HETATM   36  N   UNL     1      -7.450   5.014  72.502  1.00  0.00    -0.092 N  
HETATM   37  O   UNL     1      -5.175   4.979  72.829  1.00  0.00    -0.008 OA 
BRANCH  36  38
HETATM   38  C   UNL     1      -8.626   5.740  72.254  1.00  0.00    -0.125 A  
HETATM   39  C   UNL     1     -10.851   7.270  71.842  1.00  0.00    -0.255 A  
HETATM   40  N   UNL     1      -8.696   6.475  71.119  1.00  0.00    -0.137 NA 
HETATM   41  C   UNL     1     -10.779   6.468  72.973  1.00  0.00    -0.291 A  
HETATM   42  C   UNL     1      -9.797   7.238  70.947  1.00  0.00    -0.184 A  
HETATM   43  C   UNL     1      -9.656   5.691  73.186  1.00  0.00    -0.156 A  
ENDBRANCH  36  38
BRANCH  36  44
HETATM   44  C   UNL     1      -7.551   3.562  72.276  1.00  0.00    -0.058 C  
BRANCH  44  45
HETATM   45  C   UNL     1      -7.686   3.063  70.830  1.00  0.00    -0.043 C  
BRANCH  45  46
HETATM   46  C   UNL     1      -6.521   3.229  69.869  1.00  0.00    -0.033 C  
HETATM   47  O   UNL     1      -5.332   3.178  70.139  1.00  0.00    -0.007 OA 
BRANCH  46  48
HETATM   48  O   UNL     1      -7.044   3.477  68.623  1.00  0.00    -0.049 OA 
BRANCH  48  49
HETATM   49  C   UNL     1      -8.280   2.849  68.232  1.00  0.00    -0.065 C  
HETATM   50  C   UNL     1      -8.911   3.579  67.060  1.00  0.00    -0.143 C  
ENDBRANCH  48  49
ENDBRANCH  46  48
ENDBRANCH  45  46
ENDBRANCH  44  45
ENDBRANCH  36  44
ENDBRANCH  33  35
ENDBRANCH  24  25
ENDBRANCH  22  24
ENDBRANCH  19  22
ENDBRANCH  12  16
ENDBRANCH   9  12
ENDBRANCH   7   8
ENDBRANCH   6   7
ENDBRANCH   5   6
ENDBRANCH   4   5
ENDBRANCH   3   4
ENDBRANCH   2   3
TORSDOF 18
ENDMDL
MODEL       94
REMARK 921   NORMALIZED FREE ENERGY PREDICTED BY IDOCK:    8.48 KCAL/MOL
REMARK 922        TOTAL FREE ENERGY PREDICTED BY IDOCK:   14.19 KCAL/MOL
REMARK 923 INTER-LIGAND FREE ENERGY PREDICTED BY IDOCK:   -0.96 KCAL/MOL
REMARK 924 INTRA-LIGAND FREE ENERGY PREDICTED BY IDOCK:   15.15 KCAL/MOL
REMARK 927      BINDING AFFINITY PREDICTED BY RF-SCORE:    0.00 PKD
ROOT
HETATM    1  C   UNL     1      -7.740  16.020  66.314  1.00  0.00     0.154 C  
HETATM    2  C   UNL     1      -7.453  17.272  65.502  1.00  0.00     0.888 C  
ENDROOT
BRANCH   2   3
HETATM    3  C   UNL     1      -7.357  18.480  66.421  1.00  0.00    -0.277 C  
BRANCH   3   4
HETATM    4  C   UNL     1      -6.361  18.263  67.553  1.00  0.00    -0.186 C  
BRANCH   4   5
HETATM    5  C   UNL     1      -6.823  19.066  68.760  1.00  0.00    -0.332 C  
BRANCH   5   6
HETATM    6  C   UNL     1      -8.297  18.898  69.035  1.00  0.00    -0.145 C  
BRANCH   6   7
HETATM    7  O   UNL     1      -9.003  19.211  67.823  1.00  0.00    -0.287 OA 
BRANCH   7   8
HETATM    8  C   UNL     1     -10.057  18.400  67.534  1.00  0.00    -0.357 C  
HETATM    9  N   UNL     1      -9.821  17.085  67.801  1.00  0.00    -0.264 N  
HETATM   10  O   UNL     1     -11.114  18.809  67.066  1.00  0.00    -0.241 OA 
HETATM   11  H   UNL     1     -10.038  16.390  67.086  1.00  0.00     0.000 HD 
BRANCH   9  12
HETATM   12  C   UNL     1      -9.328  16.682  68.939  1.00  0.00    -0.244 C  
HETATM   13  H1  UNL     1      -7.607  16.625  70.011  1.00  0.00     0.000 HD 
HETATM   14  N   UNL     1      -7.993  16.940  69.120  1.00  0.00    -0.167 NA 
HETATM   15  H2  UNL     1      -7.426  17.412  68.416  1.00  0.00     0.000 HD 
BRANCH  12  16
HETATM   16  C   UNL     1     -10.087  16.040  70.057  1.00  0.00    -0.040 A  
HETATM   17  C   UNL     1     -10.042  14.662  70.280  1.00  0.00     0.558 A  
HETATM   18  C   UNL     1     -11.064  14.054  71.015  1.00  0.00     1.088 A  
HETATM   19  C   UNL     1     -12.067  14.819  71.626  1.00  0.00    -0.350 A  
HETATM   20  C   UNL     1     -11.992  16.211  71.535  1.00  0.00    -0.490 A  
HETATM   21  C   UNL     1     -11.017  16.822  70.747  1.00  0.00     0.371 A  
BRANCH  19  22
HETATM   22  N   UNL     1     -13.218  14.150  72.083  1.00  0.00    -0.385 NA 
HETATM   23  H   UNL     1     -13.738  14.480  72.896  1.00  0.00     0.000 HD 
BRANCH  22  24
HETATM   24  C   UNL     1     -13.633  12.960  71.343  1.00  0.00     0.236 C  
BRANCH  24  25
HETATM   25  C   UNL     1     -12.562  11.995  70.873  1.00  0.00    -0.253 A  
HETATM   26  N   UNL     1     -11.842  11.133  71.581  1.00  0.00     0.525 NA 
HETATM   27  C   UNL     1     -11.058  10.435  70.673  1.00  0.00    -0.204 A  
HETATM   28  C   UNL     1     -11.317  10.887  69.382  1.00  0.00    -0.280 A  
HETATM   29  N   UNL     1     -12.220  11.911  69.541  1.00  0.00    -0.192 NA 
HETATM   30  C   UNL     1     -10.733  10.316  68.250  1.00  0.00    -0.276 A  
HETATM   31  C   UNL     1      -9.828   9.268  68.450  1.00  0.00    -0.173 A  
HETATM   32  C   UNL     1     -12.758  12.745  68.488  1.00  0.00     1.302 C  
HETATM   33  C   UNL     1      -9.465   8.827  69.732  1.00  0.00    -0.168 A  
HETATM   34  C   UNL     1     -10.108   9.391  70.860  1.00  0.00    -0.366 A  
BRANCH  33  35
HETATM   35  C   UNL     1      -8.426   7.723  69.756  1.00  0.00    -0.133 C  
HETATM   36  N   UNL     1      -8.654   6.493  70.392  1.00  0.00    -0.145 N  
HETATM   37  O   UNL     1      -7.338   7.980  69.235  1.00  0.00    -0.077 OA 
BRANCH  36  38
HETATM   38  C   UNL     1      -9.901   6.151  70.940  1.00  0.00    -0.182 A  
HETATM   39  C   UNL     1     -12.348   5.392  71.888  1.00  0.00     1.085 A  
HETATM   40  N   UNL     1      -9.961   5.096  71.785  1.00  0.00    -0.180 NA 
HETATM   41  C   UNL     1     -12.255   6.504  71.061  1.00  0.00    -0.239 A  
HETATM   42  C   UNL     1     -11.183   4.727  72.225  1.00  0.00     0.161 A  
HETATM   43  C   UNL     1     -11.020   6.893  70.579  1.00  0.00    -0.313 A  
ENDBRANCH  36  38
BRANCH  36  44
HETATM   44  C   UNL     1      -7.703   5.375  70.255  1.00  0.00    -0.077 C  
BRANCH  44  45
HETATM   45  C   UNL     1      -7.728   4.270  71.321  1.00  0.00    -0.071 C  
BRANCH  45  46
HETATM   46  C   UNL     1      -7.549   2.821  70.901  1.00  0.00    -0.036 C  
HETATM   47  O   UNL     1      -7.801   2.335  69.811  1.00  0.00    -0.043 OA 
BRANCH  46  48
HETATM   48  O   UNL     1      -7.070   2.131  71.987  1.00  0.00    -0.032 OA 
BRANCH  48  49
HETATM   49  C   UNL     1      -7.899   1.977  73.155  1.00  0.00    -0.045 C  
HETATM   50  C   UNL     1      -8.154   3.317  73.820  1.00  0.00    -0.074 C  
ENDBRANCH  48  49
ENDBRANCH  46  48
ENDBRANCH  45  46
ENDBRANCH  44  45
ENDBRANCH  36  44
ENDBRANCH  33  35
ENDBRANCH  24  25
ENDBRANCH  22  24
ENDBRANCH  19  22
ENDBRANCH  12  16
ENDBRANCH   9  12
ENDBRANCH   7   8
ENDBRANCH   6   7
ENDBRANCH   5   6
ENDBRANCH   4   5
ENDBRANCH   3   4
ENDBRANCH   2   3
TORSDOF 18
ENDMDL
MODEL       95
REMARK 921   NORMALIZED FREE ENERGY PREDICTED BY IDOCK:    9.07 KCAL/MOL
REMARK 922        TOTAL FREE ENERGY PREDICTED BY IDOCK:   15.41 KCAL/MOL
REMARK 923 INTER-LIGAND FREE ENERGY PREDICTED BY IDOCK:   -1.93 KCAL/MOL
REMARK 924 INTRA-LIGAND FREE ENERGY PREDICTED BY IDOCK:   17.34 KCAL/MOL
REMARK 927      BINDING AFFINITY PREDICTED BY RF-SCORE:    0.00 PKD
ROOT
HETATM    1  C   UNL     1      -5.837   7.578  71.699  1.00  0.00    -0.036 C  
HETATM    2  C   UNL     1      -6.994   7.204  72.611  1.00  0.00    -0.068 C  
ENDROOT
BRANCH   2   3
HETATM    3  C   UNL     1      -8.208   6.817  71.782  1.00  0.00    -0.106 C  
BRANCH   3   4
HETATM    4  C   UNL     1      -8.230   7.521  70.431  1.00  0.00    -0.123 C  
BRANCH   4   5
HETATM    5  C   UNL     1      -9.588   7.283  69.788  1.00  0.00    -0.162 C  
BRANCH   5   6
HETATM    6  C   UNL     1     -10.461   6.362  70.606  1.00  0.00    -0.219 C  
BRANCH   6   7
HETATM    7  O   UNL     1     -11.169   5.509  69.692  1.00  0.00    -0.138 OA 
BRANCH   7   8
HETATM    8  C   UNL     1     -10.704   4.233  69.603  1.00  0.00     1.670 C  
HETATM    9  N   UNL     1     -10.098   3.956  68.414  1.00  0.00     0.220 N  
HETATM   10  O   UNL     1     -10.826   3.407  70.501  1.00  0.00     1.949 OA 
HETATM   11  H   UNL     1     -10.366   3.109  67.911  1.00  0.00     0.000 HD 
BRANCH   9  12
HETATM   12  C   UNL     1      -9.188   4.733  67.897  1.00  0.00    -0.122 C  
HETATM   13  H1  UNL     1      -7.310   4.716  67.132  1.00  0.00     0.000 HD 
HETATM   14  N   UNL     1      -8.022   4.107  67.537  1.00  0.00    -0.091 NA 
HETATM   15  H2  UNL     1      -7.877   3.106  67.665  1.00  0.00     0.000 HD 
BRANCH  12  16
HETATM   16  C   UNL     1      -9.329   6.195  67.612  1.00  0.00    -0.112 A  
HETATM   17  C   UNL     1      -9.873   7.077  68.546  1.00  0.00    -0.147 A  
HETATM   18  C   UNL     1     -10.387   8.303  68.112  1.00  0.00    -0.253 A  
HETATM   19  C   UNL     1     -10.261   8.707  66.776  1.00  0.00    -0.291 A  
HETATM   20  C   UNL     1      -9.556   7.882  65.895  1.00  0.00     0.087 A  
HETATM   21  C   UNL     1      -9.101   6.628  66.302  1.00  0.00    -0.168 A  
BRANCH  19  22
HETATM   22  N   UNL     1     -11.050   9.786  66.337  1.00  0.00     0.369 NA 
HETATM   23  H   UNL     1     -11.047  10.086  65.362  1.00  0.00     0.000 HD 
BRANCH  22  24
HETATM   24  C   UNL     1     -11.873  10.458  67.340  1.00  0.00     1.384 C  
BRANCH  24  25
HETATM   25  C   UNL     1     -11.453  11.838  67.809  1.00  0.00    -0.311 A  
HETATM   26  N   UNL     1     -10.718  12.748  67.182  1.00  0.00    -0.243 NA 
HETATM   27  C   UNL     1     -10.686  13.865  68.006  1.00  0.00    -0.247 A  
HETATM   28  C   UNL     1     -11.427  13.620  69.160  1.00  0.00    -0.297 A  
HETATM   29  N   UNL     1     -11.846  12.316  69.041  1.00  0.00    -0.315 NA 
HETATM   30  C   UNL     1     -11.639  14.589  70.140  1.00  0.00    -0.334 A  
HETATM   31  C   UNL     1     -11.048  15.843  69.947  1.00  0.00    -0.343 A  
HETATM   32  C   UNL     1     -12.605  11.572  70.021  1.00  0.00    -0.023 C  
HETATM   33  C   UNL     1     -10.223  16.120  68.847  1.00  0.00    -0.245 A  
HETATM   34  C   UNL     1     -10.062  15.134  67.844  1.00  0.00    -0.222 A  
BRANCH  33  35
HETATM   35  C   UNL     1      -9.620  17.511  68.835  1.00  0.00    -0.224 C  
HETATM   36  N   UNL     1      -8.245  17.734  69.001  1.00  0.00    -0.120 N  
HETATM   37  O   UNL     1     -10.412  18.452  68.729  1.00  0.00    -0.270 OA 
BRANCH  36  38
HETATM   38  C   UNL     1      -7.316  16.682  69.064  1.00  0.00    -0.228 A  
HETATM   39  C   UNL     1      -5.555  14.611  69.327  1.00  0.00    -0.092 A  
HETATM   40  N   UNL     1      -7.737  15.439  68.733  1.00  0.00    -0.139 NA 
HETATM   41  C   UNL     1      -5.131  15.903  69.610  1.00  0.00    -0.109 A  
HETATM   42  C   UNL     1      -6.854  14.428  68.890  1.00  0.00    -0.102 A  
HETATM   43  C   UNL     1      -6.018  16.955  69.478  1.00  0.00    -0.213 A  
ENDBRANCH  36  38
BRANCH  36  44
HETATM   44  C   UNL     1      -7.661  19.074  68.813  1.00  0.00    -0.347 C  
BRANCH  44  45
HETATM   45  C   UNL     1      -7.438  19.570  67.377  1.00  0.00    -0.276 C  
BRANCH  45  46
HETATM   46  C   UNL     1      -7.597  18.601  66.218  1.00  0.00    -0.263 C  
HETATM   47  O   UNL     1      -6.803  17.747  65.858  1.00  0.00    -0.279 OA 
BRANCH  46  48
HETATM   48  O   UNL     1      -8.800  18.872  65.613  1.00  0.00    -0.290 OA 
BRANCH  48  49
HETATM   49  C   UNL     1      -9.992  18.201  66.066  1.00  0.00    -0.215 C  
HETATM   50  C   UNL     1     -10.324  17.022  65.171  1.00  0.00     0.173 C  
ENDBRANCH  48  49
ENDBRANCH  46  48
ENDBRANCH  45  46
ENDBRANCH  44  45
ENDBRANCH  36  44
ENDBRANCH  33  35
ENDBRANCH  24  25
ENDBRANCH  22  24
ENDBRANCH  19  22
ENDBRANCH  12  16
ENDBRANCH   9  12
ENDBRANCH   7   8
ENDBRANCH   6   7
ENDBRANCH   5   6
ENDBRANCH   4   5
ENDBRANCH   3   4
ENDBRANCH   2   3
TORSDOF 18
ENDMDL
MODEL       96
REMARK 921   NORMALIZED FREE ENERGY PREDICTED BY IDOCK:    9.66 KCAL/MOL
REMARK 922        TOTAL FREE ENERGY PREDICTED BY IDOCK:   16.61 KCAL/MOL
REMARK 923 INTER-LIGAND FREE ENERGY PREDICTED BY IDOCK:   12.68 KCAL/MOL
REMARK 924 INTRA-LIGAND FREE ENERGY PREDICTED BY IDOCK:    3.94 KCAL/MOL
REMARK 927      BINDING AFFINITY PREDICTED BY RF-SCORE:    0.00 PKD
ROOT
HETATM    1  C   UNL     1     -12.624   2.154  71.040  1.00  0.00    10.487 C  
HETATM    2  C   UNL     1     -12.772   3.410  71.882  1.00  0.00     6.821 C  
ENDROOT
BRANCH   2   3
HETATM    3  C   UNL     1     -11.408   4.035  72.131  1.00  0.00     0.932 C  
BRANCH   3   4
HETATM    4  C   UNL     1     -11.465   5.557  72.133  1.00  0.00    -0.172 C  
BRANCH   4   5
HETATM    5  C   UNL     1     -10.636   6.070  70.965  1.00  0.00    -0.305 C  
BRANCH   5   6
HETATM    6  C   UNL     1     -10.845   5.261  69.709  1.00  0.00     0.048 C  
BRANCH   6   7
HETATM    7  O   UNL     1     -11.496   6.109  68.749  1.00  0.00    -0.259 OA 
BRANCH   7   8
HETATM    8  C   UNL     1     -10.713   6.536  67.720  1.00  0.00    -0.296 C  
HETATM    9  N   UNL     1      -9.432   6.075  67.782  1.00  0.00    -0.112 N  
HETATM   10  O   UNL     1     -11.117   7.273  66.827  1.00  0.00    -0.205 OA 
HETATM   11  H   UNL     1      -8.664   6.738  67.669  1.00  0.00     0.000 HD 
BRANCH   9  12
HETATM   12  C   UNL     1      -9.153   4.818  67.982  1.00  0.00    -0.117 C  
HETATM   13  H1  UNL     1      -9.549   2.956  67.282  1.00  0.00     0.000 HD 
HETATM   14  N   UNL     1      -9.768   3.940  67.127  1.00  0.00    -0.247 NA 
HETATM   15  H2  UNL     1     -10.400   4.248  66.388  1.00  0.00     0.000 HD 
BRANCH  12  16
HETATM   16  C   UNL     1      -8.194   4.271  68.993  1.00  0.00    -0.077 A  
HETATM   17  C   UNL     1      -8.506   4.229  70.353  1.00  0.00    -0.096 A  
HETATM   18  C   UNL     1      -7.472   4.137  71.290  1.00  0.00    -0.055 A  
HETATM   19  C   UNL     1      -6.141   3.972  70.883  1.00  0.00    -0.015 A  
HETATM   20  C   UNL     1      -5.874   3.841  69.517  1.00  0.00    -0.022 A  
HETATM   21  C   UNL     1      -6.889   4.001  68.574  1.00  0.00    -0.047 A  
BRANCH  19  22
HETATM   22  N   UNL     1      -5.130   4.190  71.836  1.00  0.00     0.000 NA 
HETATM   23  H   UNL     1      -4.290   3.611  71.864  1.00  0.00     0.000 HD 
BRANCH  22  24
HETATM   24  C   UNL     1      -5.335   5.283  72.784  1.00  0.00    -0.017 C  
BRANCH  24  25
HETATM   25  C   UNL     1      -6.321   6.376  72.420  1.00  0.00    -0.054 A  
HETATM   26  N   UNL     1      -6.317   7.193  71.373  1.00  0.00    -0.037 NA 
HETATM   27  C   UNL     1      -7.474   7.955  71.464  1.00  0.00    -0.073 A  
HETATM   28  C   UNL     1      -8.196   7.582  72.594  1.00  0.00    -0.112 A  
HETATM   29  N   UNL     1      -7.419   6.632  73.213  1.00  0.00    -0.084 NA 
HETATM   30  C   UNL     1      -9.445   8.122  72.905  1.00  0.00    -0.345 A  
HETATM   31  C   UNL     1      -9.957   9.099  72.045  1.00  0.00    -0.037 A  
HETATM   32  C   UNL     1      -7.712   5.975  74.467  1.00  0.00    -0.096 C  
HETATM   33  C   UNL     1      -9.237   9.575  70.938  1.00  0.00    -0.125 A  
HETATM   34  C   UNL     1      -7.995   8.976  70.619  1.00  0.00    -0.159 A  
BRANCH  33  35
HETATM   35  C   UNL     1      -9.923  10.677  70.156  1.00  0.00     0.472 C  
HETATM   36  N   UNL     1      -9.306  11.326  69.075  1.00  0.00    -0.072 N  
HETATM   37  O   UNL     1     -11.039  11.021  70.554  1.00  0.00    -0.084 OA 
BRANCH  36  38
HETATM   38  C   UNL     1      -8.064  10.915  68.563  1.00  0.00    -0.137 A  
HETATM   39  C   UNL     1      -5.647  10.007  67.674  1.00  0.00    -0.042 A  
HETATM   40  N   UNL     1      -8.053   9.963  67.602  1.00  0.00    -0.109 NA 
HETATM   41  C   UNL     1      -5.684  11.020  68.622  1.00  0.00    -0.043 A  
HETATM   42  C   UNL     1      -6.846   9.516  67.191  1.00  0.00    -0.084 A  
HETATM   43  C   UNL     1      -6.905  11.484  69.076  1.00  0.00    -0.107 A  
ENDBRANCH  36  38
BRANCH  36  44
HETATM   44  C   UNL     1     -10.054  12.268  68.224  1.00  0.00    -0.218 C  
BRANCH  44  45
HETATM   45  C   UNL     1     -11.373  11.790  67.601  1.00  0.00    -0.370 C  
BRANCH  45  46
HETATM   46  C   UNL     1     -11.902  12.474  66.352  1.00  0.00    -0.381 C  
HETATM   47  O   UNL     1     -12.297  13.624  66.254  1.00  0.00    -0.432 OA 
BRANCH  46  48
HETATM   48  O   UNL     1     -11.885  11.550  65.335  1.00  0.00    -0.127 OA 
BRANCH  48  49
HETATM   49  C   UNL     1     -11.247  11.878  64.086  1.00  0.00    -0.376 C  
HETATM   50  C   UNL     1     -12.227  12.534  63.131  1.00  0.00    -0.341 C  
ENDBRANCH  48  49
ENDBRANCH  46  48
ENDBRANCH  45  46
ENDBRANCH  44  45
ENDBRANCH  36  44
ENDBRANCH  33  35
ENDBRANCH  24  25
ENDBRANCH  22  24
ENDBRANCH  19  22
ENDBRANCH  12  16
ENDBRANCH   9  12
ENDBRANCH   7   8
ENDBRANCH   6   7
ENDBRANCH   5   6
ENDBRANCH   4   5
ENDBRANCH   3   4
ENDBRANCH   2   3
TORSDOF 18
ENDMDL
MODEL       97
REMARK 921   NORMALIZED FREE ENERGY PREDICTED BY IDOCK:   10.23 KCAL/MOL
REMARK 922        TOTAL FREE ENERGY PREDICTED BY IDOCK:   17.78 KCAL/MOL
REMARK 923 INTER-LIGAND FREE ENERGY PREDICTED BY IDOCK:    2.07 KCAL/MOL
REMARK 924 INTRA-LIGAND FREE ENERGY PREDICTED BY IDOCK:   15.71 KCAL/MOL
REMARK 927      BINDING AFFINITY PREDICTED BY RF-SCORE:    0.00 PKD
ROOT
HETATM    1  C   UNL     1     -12.084   4.813  64.804  1.00  0.00     2.922 C  
HETATM    2  C   UNL     1     -11.380   4.948  66.144  1.00  0.00     0.966 C  
ENDROOT
BRANCH   2   3
HETATM    3  C   UNL     1     -10.228   3.960  66.229  1.00  0.00     0.232 C  
BRANCH   3   4
HETATM    4  C   UNL     1      -8.893   4.600  65.869  1.00  0.00    -0.124 C  
BRANCH   4   5
HETATM    5  C   UNL     1      -8.256   5.132  67.143  1.00  0.00    -0.107 C  
BRANCH   5   6
HETATM    6  C   UNL     1      -6.748   5.136  67.076  1.00  0.00    -0.055 C  
BRANCH   6   7
HETATM    7  O   UNL     1      -6.321   3.788  66.823  1.00  0.00    -0.037 OA 
BRANCH   7   8
HETATM    8  C   UNL     1      -6.103   3.480  65.515  1.00  0.00    -0.024 C  
HETATM    9  N   UNL     1      -6.280   4.534  64.670  1.00  0.00    -0.029 N  
HETATM   10  O   UNL     1      -5.789   2.358  65.130  1.00  0.00    -0.016 OA 
HETATM   11  H   UNL     1      -6.858   4.407  63.839  1.00  0.00     0.000 HD 
BRANCH   9  12
HETATM   12  C   UNL     1      -5.736   5.698  64.885  1.00  0.00    -0.017 C  
HETATM   13  H1  UNL     1      -4.704   7.182  63.965  1.00  0.00     0.000 HD 
HETATM   14  N   UNL     1      -5.129   6.270  63.797  1.00  0.00    -0.017 NA 
HETATM   15  H2  UNL     1      -5.105   5.816  62.883  1.00  0.00     0.000 HD 
BRANCH  12  16
HETATM   16  C   UNL     1      -5.773   6.472  66.166  1.00  0.00    -0.021 A  
HETATM   17  C   UNL     1      -5.157   6.001  67.327  1.00  0.00    -0.005 A  
HETATM   18  C   UNL     1      -5.567   6.496  68.569  1.00  0.00    -0.016 A  
HETATM   19  C   UNL     1      -6.502   7.537  68.658  1.00  0.00    -0.044 A  
HETATM   20  C   UNL     1      -6.974   8.111  67.475  1.00  0.00    -0.075 A  
HETATM   21  C   UNL     1      -6.624   7.579  66.235  1.00  0.00    -0.049 A  
BRANCH  19  22
HETATM   22  N   UNL     1      -7.096   7.782  69.910  1.00  0.00    -0.061 NA 
HETATM   23  H   UNL     1      -7.504   7.027  70.462  1.00  0.00     0.000 HD 
BRANCH  22  24
HETATM   24  C   UNL     1      -7.105   9.164  70.383  1.00  0.00    -0.079 C  
BRANCH  24  25
HETATM   25  C   UNL     1      -7.597  10.245  69.440  1.00  0.00    -0.137 A  
HETATM   26  N   UNL     1      -8.836  10.512  69.047  1.00  0.00    -0.167 NA 
HETATM   27  C   UNL     1      -8.760  11.642  68.243  1.00  0.00    -0.163 A  
HETATM   28  C   UNL     1      -7.437  12.069  68.155  1.00  0.00    -0.112 A  
HETATM   29  N   UNL     1      -6.717  11.136  68.865  1.00  0.00    -0.070 NA 
HETATM   30  C   UNL     1      -7.061  13.228  67.477  1.00  0.00    -0.156 A  
HETATM   31  C   UNL     1      -8.071  13.959  66.841  1.00  0.00     0.112 A  
HETATM   32  C   UNL     1      -5.280  11.108  69.020  1.00  0.00    -0.040 C  
HETATM   33  C   UNL     1      -9.408  13.533  66.825  1.00  0.00    -0.262 A  
HETATM   34  C   UNL     1      -9.769  12.379  67.560  1.00  0.00    -0.191 A  
BRANCH  33  35
HETATM   35  C   UNL     1     -10.351  14.420  66.036  1.00  0.00    -0.309 C  
HETATM   36  N   UNL     1     -10.962  15.552  66.596  1.00  0.00    -0.289 N  
HETATM   37  O   UNL     1     -10.605  14.062  64.882  1.00  0.00    -0.379 OA 
BRANCH  36  38
HETATM   38  C   UNL     1     -10.645  16.015  67.884  1.00  0.00    -0.301 A  
HETATM   39  C   UNL     1     -10.053  17.055  70.340  1.00  0.00     1.308 A  
HETATM   40  N   UNL     1     -11.653  16.168  68.774  1.00  0.00    -0.351 NA 
HETATM   41  C   UNL     1      -9.028  16.840  69.429  1.00  0.00     0.142 A  
HETATM   42  C   UNL     1     -11.340  16.702  69.974  1.00  0.00     0.105 A  
HETATM   43  C   UNL     1      -9.321  16.312  68.185  1.00  0.00    -0.210 A  
ENDBRANCH  36  38
BRANCH  36  44
HETATM   44  C   UNL     1     -11.734  16.492  65.765  1.00  0.00     1.254 C  
BRANCH  44  45
HETATM   45  C   UNL     1     -10.984  17.659  65.107  1.00  0.00     0.412 C  
BRANCH  45  46
HETATM   46  C   UNL     1     -10.313  18.705  65.981  1.00  0.00    -0.399 C  
HETATM   47  O   UNL     1     -10.810  19.313  66.915  1.00  0.00    -0.450 OA 
BRANCH  46  48
HETATM   48  O   UNL     1      -9.031  18.873  65.516  1.00  0.00    -0.069 OA 
BRANCH  48  49
HETATM   49  C   UNL     1      -7.969  19.165  66.444  1.00  0.00    -0.294 C  
HETATM   50  C   UNL     1      -7.002  18.000  66.546  1.00  0.00    -0.255 C  
ENDBRANCH  48  49
ENDBRANCH  46  48
ENDBRANCH  45  46
ENDBRANCH  44  45
ENDBRANCH  36  44
ENDBRANCH  33  35
ENDBRANCH  24  25
ENDBRANCH  22  24
ENDBRANCH  19  22
ENDBRANCH  12  16
ENDBRANCH   9  12
ENDBRANCH   7   8
ENDBRANCH   6   7
ENDBRANCH   5   6
ENDBRANCH   4   5
ENDBRANCH   3   4
ENDBRANCH   2   3
TORSDOF 18
ENDMDL
MODEL       98
REMARK 921   NORMALIZED FREE ENERGY PREDICTED BY IDOCK:   12.93 KCAL/MOL
REMARK 922        TOTAL FREE ENERGY PREDICTED BY IDOCK:   23.33 KCAL/MOL
REMARK 923 INTER-LIGAND FREE ENERGY PREDICTED BY IDOCK:   13.00 KCAL/MOL
REMARK 924 INTRA-LIGAND FREE ENERGY PREDICTED BY IDOCK:   10.33 KCAL/MOL
REMARK 927      BINDING AFFINITY PREDICTED BY RF-SCORE:    0.00 PKD
ROOT
HETATM    1  C   UNL     1     -12.460  10.014  64.262  1.00  0.00     8.898 C  
HETATM    2  C   UNL     1     -12.423  11.355  63.550  1.00  0.00     0.162 C  
ENDROOT
BRANCH   2   3
HETATM    3  C   UNL     1     -10.986  11.739  63.233  1.00  0.00    -0.387 C  
BRANCH   3   4
HETATM    4  C   UNL     1     -10.782  13.248  63.222  1.00  0.00     1.072 C  
BRANCH   4   5
HETATM    5  C   UNL     1     -12.148  13.917  63.185  1.00  0.00     0.423 C  
BRANCH   5   6
HETATM    6  C   UNL     1     -12.888  13.794  64.494  1.00  0.00     0.079 C  
BRANCH   6   7
HETATM    7  O   UNL     1     -11.913  13.550  65.522  1.00  0.00    -0.350 OA 
BRANCH   7   8
HETATM    8  C   UNL     1     -12.373  13.650  66.799  1.00  0.00    -0.305 C  
HETATM    9  N   UNL     1     -11.949  12.641  67.611  1.00  0.00    -0.321 N  
HETATM   10  O   UNL     1     -13.107  14.555  67.183  1.00  0.00     1.061 OA 
HETATM   11  H   UNL     1     -12.635  12.150  68.186  1.00  0.00     0.000 HD 
BRANCH   9  12
HETATM   12  C   UNL     1     -10.699  12.280  67.680  1.00  0.00    -0.220 C  
HETATM   13  H1  UNL     1      -9.005  12.560  68.759  1.00  0.00     0.000 HD 
HETATM   14  N   UNL     1      -9.983  12.843  68.705  1.00  0.00    -0.415 NA 
HETATM   15  H2  UNL     1     -10.400  13.498  69.367  1.00  0.00     0.000 HD 
BRANCH  12  16
HETATM   16  C   UNL     1     -10.014  11.282  66.799  1.00  0.00    -0.238 A  
HETATM   17  C   UNL     1      -8.890  10.573  67.228  1.00  0.00    -0.138 A  
HETATM   18  C   UNL     1      -8.036  10.004  66.277  1.00  0.00    -0.117 A  
HETATM   19  C   UNL     1      -8.351  10.036  64.912  1.00  0.00    -0.157 A  
HETATM   20  C   UNL     1      -9.569  10.599  64.524  1.00  0.00    -0.341 A  
HETATM   21  C   UNL     1     -10.394  11.229  65.455  1.00  0.00    -0.321 A  
BRANCH  19  22
HETATM   22  N   UNL     1      -7.330   9.729  63.994  1.00  0.00    -0.123 NA 
HETATM   23  H   UNL     1      -6.954  10.434  63.360  1.00  0.00     0.000 HD 
BRANCH  22  24
HETATM   24  C   UNL     1      -6.832   8.355  63.989  1.00  0.00    -0.075 C  
BRANCH  24  25
HETATM   25  C   UNL     1      -7.522   7.336  64.876  1.00  0.00    -0.091 A  
HETATM   26  N   UNL     1      -6.991   6.504  65.764  1.00  0.00    -0.059 NA 
HETATM   27  C   UNL     1      -8.053   5.836  66.361  1.00  0.00    -0.106 A  
HETATM   28  C   UNL     1      -9.255   6.284  65.819  1.00  0.00     0.042 A  
HETATM   29  N   UNL     1      -8.891   7.181  64.843  1.00  0.00     0.301 NA 
HETATM   30  C   UNL     1     -10.498   5.848  66.278  1.00  0.00    -0.082 A  
HETATM   31  C   UNL     1     -10.510   4.899  67.306  1.00  0.00    -0.099 A  
HETATM   32  C   UNL     1      -9.788   7.879  63.949  1.00  0.00     4.644 C  
HETATM   33  C   UNL     1      -9.331   4.350  67.833  1.00  0.00    -0.190 A  
HETATM   34  C   UNL     1      -8.083   4.844  67.382  1.00  0.00    -0.106 A  
BRANCH  33  35
HETATM   35  C   UNL     1      -9.538   3.292  68.898  1.00  0.00    -0.032 C  
HETATM   36  N   UNL     1      -9.417   3.572  70.267  1.00  0.00    -0.177 N  
HETATM   37  O   UNL     1      -9.765   2.147  68.497  1.00  0.00    -0.138 OA 
BRANCH  36  38
HETATM   38  C   UNL     1      -9.220   4.875  70.752  1.00  0.00    -0.145 A  
HETATM   39  C   UNL     1      -8.822   7.352  71.833  1.00  0.00    -0.128 A  
HETATM   40  N   UNL     1      -7.952   5.341  70.833  1.00  0.00    -0.097 NA 
HETATM   41  C   UNL     1     -10.117   6.873  71.692  1.00  0.00    -0.201 A  
HETATM   42  C   UNL     1      -7.778   6.561  71.388  1.00  0.00    -0.099 A  
HETATM   43  C   UNL     1     -10.325   5.621  71.144  1.00  0.00    -0.295 A  
ENDBRANCH  36  38
BRANCH  36  44
HETATM   44  C   UNL     1      -9.792   2.575  71.286  1.00  0.00    -0.061 C  
BRANCH  44  45
HETATM   45  C   UNL     1     -11.188   2.677  71.917  1.00  0.00     1.737 C  
BRANCH  45  46
HETATM   46  C   UNL     1     -11.347   3.328  73.281  1.00  0.00    -0.033 C  
HETATM   47  O   UNL     1     -12.380   3.731  73.789  1.00  0.00     0.481 OA 
BRANCH  46  48
HETATM   48  O   UNL     1     -10.098   3.411  73.848  1.00  0.00    -0.111 OA 
BRANCH  48  49
HETATM   49  C   UNL     1      -9.556   2.275  74.548  1.00  0.00    -0.090 C  
HETATM   50  C   UNL     1      -8.070   2.130  74.278  1.00  0.00    -0.054 C  
ENDBRANCH  48  49
ENDBRANCH  46  48
ENDBRANCH  45  46
ENDBRANCH  44  45
ENDBRANCH  36  44
ENDBRANCH  33  35
ENDBRANCH  24  25
ENDBRANCH  22  24
ENDBRANCH  19  22
ENDBRANCH  12  16
ENDBRANCH   9  12
ENDBRANCH   7   8
ENDBRANCH   6   7
ENDBRANCH   5   6
ENDBRANCH   4   5
ENDBRANCH   3   4
ENDBRANCH   2   3
TORSDOF 18
ENDMDL
MODEL       99
REMARK 921   NORMALIZED FREE ENERGY PREDICTED BY IDOCK:   13.56 KCAL/MOL
REMARK 922        TOTAL FREE ENERGY PREDICTED BY IDOCK:   24.62 KCAL/MOL
REMARK 923 INTER-LIGAND FREE ENERGY PREDICTED BY IDOCK:   19.96 KCAL/MOL
REMARK 924 INTRA-LIGAND FREE ENERGY PREDICTED BY IDOCK:    4.66 KCAL/MOL
REMARK 927      BINDING AFFINITY PREDICTED BY RF-SCORE:    0.00 PKD
ROOT
HETATM    1  C   UNL     1      -6.974  18.139  73.400  1.00  0.00     8.091 C  
HETATM    2  C   UNL     1      -5.840  18.181  72.389  1.00  0.00     1.922 C  
ENDROOT
BRANCH   2   3
HETATM    3  C   UNL     1      -5.961  17.015  71.421  1.00  0.00     1.410 C  
BRANCH   3   4
HETATM    4  C   UNL     1      -6.521  15.766  72.091  1.00  0.00     2.885 C  
BRANCH   4   5
HETATM    5  C   UNL     1      -6.583  14.653  71.056  1.00  0.00     0.401 C  
BRANCH   5   6
HETATM    6  C   UNL     1      -7.947  14.010  70.982  1.00  0.00     4.184 C  
BRANCH   6   7
HETATM    7  O   UNL     1      -8.771  14.835  70.141  1.00  0.00     0.432 OA 
BRANCH   7   8
HETATM    8  C   UNL     1      -9.614  15.679  70.796  1.00  0.00     1.435 C  
HETATM    9  N   UNL     1     -10.490  16.321  69.972  1.00  0.00    -0.221 N  
HETATM   10  O   UNL     1      -9.585  15.854  72.010  1.00  0.00     4.054 OA 
HETATM   11  H   UNL     1     -10.596  17.332  70.060  1.00  0.00     0.000 HD 
BRANCH   9  12
HETATM   12  C   UNL     1     -11.196  15.690  69.077  1.00  0.00    -0.306 C  
HETATM   13  H1  UNL     1     -13.095  15.452  68.408  1.00  0.00     0.000 HD 
HETATM   14  N   UNL     1     -12.543  15.946  69.109  1.00  0.00    -0.330 NA 
HETATM   15  H2  UNL     1     -12.962  16.584  69.785  1.00  0.00     0.000 HD 
BRANCH  12  16
HETATM   16  C   UNL     1     -10.668  14.786  68.007  1.00  0.00    -0.248 A  
HETATM   17  C   UNL     1      -9.881  15.268  66.960  1.00  0.00    -0.233 A  
HETATM   18  C   UNL     1      -9.779  14.523  65.781  1.00  0.00    -0.306 A  
HETATM   19  C   UNL     1     -10.359  13.252  65.677  1.00  0.00    -0.287 A  
HETATM   20  C   UNL     1     -10.994  12.717  66.801  1.00  0.00    -0.296 A  
HETATM   21  C   UNL     1     -11.161  13.479  67.957  1.00  0.00    -0.300 A  
BRANCH  19  22
HETATM   22  N   UNL     1     -10.487  12.690  64.394  1.00  0.00    -0.352 NA 
HETATM   23  H   UNL     1     -10.818  13.240  63.602  1.00  0.00     0.000 HD 
BRANCH  22  24
HETATM   24  C   UNL     1     -10.125  11.281  64.246  1.00  0.00    -0.313 C  
BRANCH  24  25
HETATM   25  C   UNL     1      -9.576  10.548  65.455  1.00  0.00    -0.237 A  
HETATM   26  N   UNL     1     -10.091   9.516  66.112  1.00  0.00    -0.281 NA 
HETATM   27  C   UNL     1      -9.168   9.174  67.092  1.00  0.00    -0.133 A  
HETATM   28  C   UNL     1      -8.066  10.021  67.017  1.00  0.00    -0.117 A  
HETATM   29  N   UNL     1      -8.375  10.917  66.021  1.00  0.00    -0.167 NA 
HETATM   30  C   UNL     1      -6.940   9.869  67.827  1.00  0.00    -0.085 A  
HETATM   31  C   UNL     1      -6.957   8.832  68.767  1.00  0.00    -0.063 A  
HETATM   32  C   UNL     1      -7.566  12.040  65.603  1.00  0.00     1.585 C  
HETATM   33  C   UNL     1      -8.073   8.000  68.944  1.00  0.00    -0.124 A  
HETATM   34  C   UNL     1      -9.182   8.146  68.077  1.00  0.00    -0.137 A  
BRANCH  33  35
HETATM   35  C   UNL     1      -7.933   6.972  70.049  1.00  0.00    -0.115 C  
HETATM   36  N   UNL     1      -8.232   5.615  69.853  1.00  0.00    -0.108 N  
HETATM   37  O   UNL     1      -7.597   7.398  71.157  1.00  0.00    -0.080 OA 
BRANCH  36  38
HETATM   38  C   UNL     1      -8.558   5.093  68.590  1.00  0.00    -0.087 A  
HETATM   39  C   UNL     1      -9.285   3.982  66.203  1.00  0.00    -0.155 A  
HETATM   40  N   UNL     1      -9.623   5.616  67.939  1.00  0.00    -0.116 NA 
HETATM   41  C   UNL     1      -8.164   3.497  66.864  1.00  0.00    -0.095 A  
HETATM   42  C   UNL     1      -9.975   5.038  66.770  1.00  0.00    -0.217 A  
HETATM   43  C   UNL     1      -7.791   4.056  68.072  1.00  0.00    -0.077 A  
ENDBRANCH  36  38
BRANCH  36  44
HETATM   44  C   UNL     1      -7.925   4.609  70.885  1.00  0.00    -0.081 C  
BRANCH  44  45
HETATM   45  C   UNL     1      -8.561   4.779  72.272  1.00  0.00    -0.121 C  
BRANCH  45  46
HETATM   46  C   UNL     1      -7.670   5.010  73.481  1.00  0.00    -0.096 C  
HETATM   47  O   UNL     1      -6.585   4.499  73.704  1.00  0.00    -0.053 OA 
BRANCH  46  48
HETATM   48  O   UNL     1      -8.319   5.892  74.311  1.00  0.00    -0.109 OA 
BRANCH  48  49
HETATM   49  C   UNL     1      -9.359   6.735  73.782  1.00  0.00    -0.177 C  
HETATM   50  C   UNL     1      -8.777   7.832  72.910  1.00  0.00    -0.220 C  
ENDBRANCH  48  49
ENDBRANCH  46  48
ENDBRANCH  45  46
ENDBRANCH  44  45
ENDBRANCH  36  44
ENDBRANCH  33  35
ENDBRANCH  24  25
ENDBRANCH  22  24
ENDBRANCH  19  22
ENDBRANCH  12  16
ENDBRANCH   9  12
ENDBRANCH   7   8
ENDBRANCH   6   7
ENDBRANCH   5   6
ENDBRANCH   4   5
ENDBRANCH   3   4
ENDBRANCH   2   3
TORSDOF 18
ENDMDL
MODEL      100
REMARK 921   NORMALIZED FREE ENERGY PREDICTED BY IDOCK:   15.40 KCAL/MOL
REMARK 922        TOTAL FREE ENERGY PREDICTED BY IDOCK:   28.40 KCAL/MOL
REMARK 923 INTER-LIGAND FREE ENERGY PREDICTED BY IDOCK:    5.32 KCAL/MOL
REMARK 924 INTRA-LIGAND FREE ENERGY PREDICTED BY IDOCK:   23.08 KCAL/MOL
REMARK 927      BINDING AFFINITY PREDICTED BY RF-SCORE:    0.00 PKD
ROOT
HETATM    1  C   UNL     1      -8.396  15.326  66.138  1.00  0.00     0.406 C  
HETATM    2  C   UNL     1      -9.209  16.501  65.621  1.00  0.00     0.109 C  
ENDROOT
BRANCH   2   3
HETATM    3  C   UNL     1      -9.676  17.364  66.781  1.00  0.00    -0.293 C  
BRANCH   3   4
HETATM    4  C   UNL     1     -10.841  18.266  66.396  1.00  0.00    -0.014 C  
BRANCH   4   5
HETATM    5  C   UNL     1     -11.616  17.596  65.272  1.00  0.00     1.972 C  
BRANCH   5   6
HETATM    6  C   UNL     1     -10.843  16.470  64.629  1.00  0.00     0.017 C  
BRANCH   6   7
HETATM    7  O   UNL     1     -11.123  15.272  65.371  1.00  0.00    -0.342 OA 
BRANCH   7   8
HETATM    8  C   UNL     1     -12.239  15.313  66.150  1.00  0.00     0.582 C  
HETATM    9  N   UNL     1     -11.976  15.219  67.483  1.00  0.00    -0.280 N  
HETATM   10  O   UNL     1     -13.374  15.415  65.696  1.00  0.00     1.334 OA 
HETATM   11  H   UNL     1     -12.506  14.551  68.044  1.00  0.00     0.000 HD 
BRANCH   9  12
HETATM   12  C   UNL     1     -11.071  15.951  68.069  1.00  0.00    -0.334 C  
HETATM   13  H1  UNL     1     -10.619  17.872  68.539  1.00  0.00     0.000 HD 
HETATM   14  N   UNL     1     -11.327  17.299  68.080  1.00  0.00     0.083 NA 
HETATM   15  H2  UNL     1     -12.166  17.699  67.660  1.00  0.00     0.000 HD 
BRANCH  12  16
HETATM   16  C   UNL     1      -9.843  15.456  68.767  1.00  0.00    -0.211 A  
HETATM   17  C   UNL     1      -9.177  16.228  69.719  1.00  0.00     0.346 A  
HETATM   18  C   UNL     1      -7.840  15.945  70.017  1.00  0.00     0.602 A  
HETATM   19  C   UNL     1      -7.196  14.831  69.460  1.00  0.00    -0.160 A  
HETATM   20  C   UNL     1      -7.938  13.973  68.645  1.00  0.00    -0.122 A  
HETATM   21  C   UNL     1      -9.250  14.284  68.288  1.00  0.00    -0.197 A  
BRANCH  19  22
HETATM   22  N   UNL     1      -5.794  14.770  69.548  1.00  0.00    -0.098 NA 
HETATM   23  H   UNL     1      -5.266  15.433  70.116  1.00  0.00     0.000 HD 
BRANCH  22  24
HETATM   24  C   UNL     1      -5.125  13.714  68.790  1.00  0.00    -0.074 C  
BRANCH  24  25
HETATM   25  C   UNL     1      -5.980  12.641  68.143  1.00  0.00    -0.081 A  
HETATM   26  N   UNL     1      -6.073  12.304  66.863  1.00  0.00    -0.230 NA 
HETATM   27  C   UNL     1      -6.934  11.216  66.803  1.00  0.00    -0.137 A  
HETATM   28  C   UNL     1      -7.367  10.888  68.085  1.00  0.00    -0.089 A  
HETATM   29  N   UNL     1      -6.803  11.838  68.903  1.00  0.00    -0.095 NA 
HETATM   30  C   UNL     1      -8.182   9.786  68.348  1.00  0.00    -0.105 A  
HETATM   31  C   UNL     1      -8.593   9.013  67.257  1.00  0.00    -0.115 A  
HETATM   32  C   UNL     1      -7.003  11.962  70.330  1.00  0.00     1.079 C  
HETATM   33  C   UNL     1      -8.257   9.344  65.935  1.00  0.00    -0.115 A  
HETATM   34  C   UNL     1      -7.390  10.439  65.701  1.00  0.00    -0.148 A  
BRANCH  33  35
HETATM   35  C   UNL     1      -8.840   8.427  64.879  1.00  0.00     0.067 C  
HETATM   36  N   UNL     1      -8.259   7.192  64.553  1.00  0.00    -0.058 N  
HETATM   37  O   UNL     1      -9.828   8.847  64.271  1.00  0.00     1.196 OA 
BRANCH  36  38
HETATM   38  C   UNL     1      -7.172   6.663  65.269  1.00  0.00    -0.077 A  
HETATM   39  C   UNL     1      -5.126   5.499  66.655  1.00  0.00    -0.005 A  
HETATM   40  N   UNL     1      -6.134   6.151  64.567  1.00  0.00    -0.029 NA 
HETATM   41  C   UNL     1      -6.178   6.077  67.354  1.00  0.00    -0.033 A  
HETATM   42  C   UNL     1      -5.143   5.564  65.273  1.00  0.00    -0.009 A  
HETATM   43  C   UNL     1      -7.215   6.668  66.658  1.00  0.00    -0.073 A  
ENDBRANCH  36  38
BRANCH  36  44
HETATM   44  C   UNL     1      -8.937   6.243  63.652  1.00  0.00     0.902 C  
BRANCH  44  45
HETATM   45  C   UNL     1      -9.002   4.768  64.072  1.00  0.00    -0.082 C  
BRANCH  45  46
HETATM   46  C   UNL     1     -10.289   3.987  63.867  1.00  0.00    -0.145 C  
HETATM   47  O   UNL     1     -11.352   4.417  63.451  1.00  0.00     0.334 OA 
BRANCH  46  48
HETATM   48  O   UNL     1     -10.056   2.692  64.262  1.00  0.00    -0.115 OA 
BRANCH  48  49
HETATM   49  C   UNL     1      -9.582   2.429  65.596  1.00  0.00     0.237 C  
HETATM   50  C   UNL     1      -8.339   1.558  65.568  1.00  0.00    -0.087 C  
ENDBRANCH  48  49
ENDBRANCH  46  48
ENDBRANCH  45  46
ENDBRANCH  44  45
ENDBRANCH  36  44
ENDBRANCH  33  35
ENDBRANCH  24  25
ENDBRANCH  22  24
ENDBRANCH  19  22
ENDBRANCH  12  16
ENDBRANCH   9  12
ENDBRANCH   7   8
ENDBRANCH   6   7
ENDBRANCH   5   6
ENDBRANCH   4   5
ENDBRANCH   3   4
ENDBRANCH   2   3
TORSDOF 18
ENDMDL
MODEL      101
REMARK 921   NORMALIZED FREE ENERGY PREDICTED BY IDOCK:   19.87 KCAL/MOL
REMARK 922        TOTAL FREE ENERGY PREDICTED BY IDOCK:   37.58 KCAL/MOL
REMARK 923 INTER-LIGAND FREE ENERGY PREDICTED BY IDOCK:   35.50 KCAL/MOL
REMARK 924 INTRA-LIGAND FREE ENERGY PREDICTED BY IDOCK:    2.07 KCAL/MOL
REMARK 927      BINDING AFFINITY PREDICTED BY RF-SCORE:    0.00 PKD
ROOT
HETATM    1  C   UNL     1      -7.002  18.153  73.523  1.00  0.00     8.387 C  
HETATM    2  C   UNL     1      -5.993  17.879  72.421  1.00  0.00     2.359 C  
ENDROOT
BRANCH   2   3
HETATM    3  C   UNL     1      -6.367  16.608  71.675  1.00  0.00     2.847 C  
BRANCH   3   4
HETATM    4  C   UNL     1      -6.926  15.539  72.605  1.00  0.00     5.004 C  
BRANCH   4   5
HETATM    5  C   UNL     1      -7.504  14.417  71.755  1.00  0.00     3.749 C  
BRANCH   5   6
HETATM    6  C   UNL     1      -8.921  14.071  72.141  1.00  0.00     9.965 C  
BRANCH   6   7
HETATM    7  O   UNL     1      -9.769  15.137  71.683  1.00  0.00     1.790 OA 
BRANCH   7   8
HETATM    8  C   UNL     1     -10.702  15.566  72.575  1.00  0.00     1.376 C  
HETATM    9  N   UNL     1     -11.549  16.505  72.068  1.00  0.00    -0.483 N  
HETATM   10  O   UNL     1     -10.770  15.157  73.729  1.00  0.00     1.963 OA 
HETATM   11  H   UNL     1     -11.717  17.358  72.603  1.00  0.00     0.000 HD 
BRANCH   9  12
HETATM   12  C   UNL     1     -12.153  16.354  70.923  1.00  0.00     0.302 C  
HETATM   13  H1  UNL     1     -13.993  16.336  70.070  1.00  0.00     0.000 HD 
HETATM   14  N   UNL     1     -13.520  16.455  70.966  1.00  0.00     0.959 NA 
HETATM   15  H2  UNL     1     -14.028  16.636  71.832  1.00  0.00     0.000 HD 
BRANCH  12  16
HETATM   16  C   UNL     1     -11.497  16.149  69.593  1.00  0.00    -0.290 A  
HETATM   17  C   UNL     1     -10.749  17.155  68.980  1.00  0.00    -0.219 A  
HETATM   18  C   UNL     1     -10.531  17.101  67.600  1.00  0.00    -0.355 A  
HETATM   19  C   UNL     1     -10.952  15.998  66.845  1.00  0.00    -0.124 A  
HETATM   20  C   UNL     1     -11.545  14.923  67.511  1.00  0.00    -0.355 A  
HETATM   21  C   UNL     1     -11.828  14.997  68.874  1.00  0.00    -0.337 A  
BRANCH  19  22
HETATM   22  N   UNL     1     -10.982  16.133  65.444  1.00  0.00    -0.274 NA 
HETATM   23  H   UNL     1     -11.391  16.953  64.997  1.00  0.00     0.000 HD 
BRANCH  22  24
HETATM   24  C   UNL     1     -10.401  15.046  64.659  1.00  0.00     0.018 C  
BRANCH  24  25
HETATM   25  C   UNL     1      -9.732  13.902  65.398  1.00  0.00    -0.062 A  
HETATM   26  N   UNL     1     -10.048  12.613  65.406  1.00  0.00    -0.279 NA 
HETATM   27  C   UNL     1      -9.083  11.977  66.176  1.00  0.00    -0.129 A  
HETATM   28  C   UNL     1      -8.160  12.910  66.640  1.00  0.00     0.297 A  
HETATM   29  N   UNL     1      -8.626  14.122  66.189  1.00  0.00     0.494 NA 
HETATM   30  C   UNL     1      -7.031  12.552  67.378  1.00  0.00    -0.147 A  
HETATM   31  C   UNL     1      -6.858  11.197  67.677  1.00  0.00    -0.076 A  
HETATM   32  C   UNL     1      -8.039  15.415  66.462  1.00  0.00     0.013 C  
HETATM   33  C   UNL     1      -7.799  10.223  67.309  1.00  0.00    -0.103 A  
HETATM   34  C   UNL     1      -8.911  10.606  66.521  1.00  0.00    -0.160 A  
BRANCH  33  35
HETATM   35  C   UNL     1      -7.476   8.816  67.771  1.00  0.00    -0.093 C  
HETATM   36  N   UNL     1      -7.522   7.712  66.905  1.00  0.00    -0.092 N  
HETATM   37  O   UNL     1      -7.224   8.676  68.971  1.00  0.00    -0.070 OA 
BRANCH  36  38
HETATM   38  C   UNL     1      -7.746   7.851  65.525  1.00  0.00    -0.101 A  
HETATM   39  C   UNL     1      -8.257   7.989  62.846  1.00  0.00    -0.095 A  
HETATM   40  N   UNL     1      -8.874   8.478  65.121  1.00  0.00    -0.127 NA 
HETATM   41  C   UNL     1      -7.080   7.396  63.282  1.00  0.00    -0.070 A  
HETATM   42  C   UNL     1      -9.116   8.518  63.793  1.00  0.00     0.842 A  
HETATM   43  C   UNL     1      -6.815   7.324  64.637  1.00  0.00    -0.050 A  
ENDBRANCH  36  38
BRANCH  36  44
HETATM   44  C   UNL     1      -7.037   6.387  67.331  1.00  0.00    -0.077 C  
BRANCH  44  45
HETATM   45  C   UNL     1      -8.023   5.454  68.049  1.00  0.00    -0.096 C  
BRANCH  45  46
HETATM   46  C   UNL     1      -7.748   5.037  69.484  1.00  0.00    -0.067 C  
HETATM   47  O   UNL     1      -6.671   4.731  69.968  1.00  0.00    -0.035 OA 
BRANCH  46  48
HETATM   48  O   UNL     1      -8.949   5.036  70.152  1.00  0.00    -0.106 OA 
BRANCH  48  49
HETATM   49  C   UNL     1     -10.056   5.792  69.628  1.00  0.00    -0.212 C  
HETATM   50  C   UNL     1      -9.820   7.282  69.787  1.00  0.00    -0.177 C  
ENDBRANCH  48  49
ENDBRANCH  46  48
ENDBRANCH  45  46
ENDBRANCH  44  45
ENDBRANCH  36  44
ENDBRANCH  33  35
ENDBRANCH  24  25
ENDBRANCH  22  24
ENDBRANCH  19  22
ENDBRANCH  12  16
ENDBRANCH   9  12
ENDBRANCH   7   8
ENDBRANCH   6   7
ENDBRANCH   5   6
ENDBRANCH   4   5
ENDBRANCH   3   4
ENDBRANCH   2   3
TORSDOF 18
ENDMDL
MODEL      102
REMARK 921   NORMALIZED FREE ENERGY PREDICTED BY IDOCK:   23.92 KCAL/MOL
REMARK 922        TOTAL FREE ENERGY PREDICTED BY IDOCK:   45.89 KCAL/MOL
REMARK 923 INTER-LIGAND FREE ENERGY PREDICTED BY IDOCK:    3.53 KCAL/MOL
REMARK 924 INTRA-LIGAND FREE ENERGY PREDICTED BY IDOCK:   42.36 KCAL/MOL
REMARK 927      BINDING AFFINITY PREDICTED BY RF-SCORE:    0.00 PKD
ROOT
HETATM    1  C   UNL     1     -12.086   4.620  65.013  1.00  0.00     2.861 C  
HETATM    2  C   UNL     1     -11.438   4.834  66.370  1.00  0.00     2.111 C  
ENDROOT
BRANCH   2   3
HETATM    3  C   UNL     1     -10.253   3.895  66.536  1.00  0.00     0.327 C  
BRANCH   3   4
HETATM    4  C   UNL     1      -8.943   4.538  66.101  1.00  0.00    -0.120 C  
BRANCH   4   5
HETATM    5  C   UNL     1      -8.342   5.261  67.296  1.00  0.00    -0.107 C  
BRANCH   5   6
HETATM    6  C   UNL     1      -6.833   5.224  67.295  1.00  0.00    -0.060 C  
BRANCH   6   7
HETATM    7  O   UNL     1      -6.433   3.845  67.339  1.00  0.00    -0.036 OA 
BRANCH   7   8
HETATM    8  C   UNL     1      -5.604   3.509  68.365  1.00  0.00    -0.018 C  
HETATM    9  N   UNL     1      -5.201   4.575  69.112  1.00  0.00    -0.004 N  
HETATM   10  O   UNL     1      -5.244   2.358  68.592  1.00  0.00    -0.011 OA 
HETATM   11  H   UNL     1      -4.208   4.684  69.319  1.00  0.00     0.000 HD 
BRANCH   9  12
HETATM   12  C   UNL     1      -6.039   5.461  69.570  1.00  0.00    -0.021 C  
HETATM   13  H1  UNL     1      -6.557   6.457  71.260  1.00  0.00     0.000 HD 
HETATM   14  N   UNL     1      -5.901   5.763  70.901  1.00  0.00    -0.024 NA 
HETATM   15  H2  UNL     1      -5.194   5.324  71.490  1.00  0.00     0.000 HD 
BRANCH  12  16
HETATM   16  C   UNL     1      -7.067   6.205  68.776  1.00  0.00    -0.082 A  
HETATM   17  C   UNL     1      -8.107   5.545  68.119  1.00  0.00    -0.096 A  
HETATM   18  C   UNL     1      -8.763   6.184  67.062  1.00  0.00    -0.107 A  
HETATM   19  C   UNL     1      -8.472   7.513  66.729  1.00  0.00    -0.124 A  
HETATM   20  C   UNL     1      -7.550   8.210  67.515  1.00  0.00    -0.101 A  
HETATM   21  C   UNL     1      -6.841   7.562  68.525  1.00  0.00    -0.066 A  
BRANCH  19  22
HETATM   22  N   UNL     1      -8.930   7.996  65.489  1.00  0.00    -0.377 NA 
HETATM   23  H   UNL     1      -8.758   7.486  64.622  1.00  0.00     0.000 HD 
BRANCH  22  24
HETATM   24  C   UNL     1      -9.662   9.261  65.497  1.00  0.00    -0.177 C  
BRANCH  24  25
HETATM   25  C   UNL     1      -9.042  10.447  66.210  1.00  0.00    -0.158 A  
HETATM   26  N   UNL     1      -8.027  11.214  65.830  1.00  0.00    -0.056 NA 
HETATM   27  C   UNL     1      -7.899  12.205  66.796  1.00  0.00     0.004 A  
HETATM   28  C   UNL     1      -8.868  12.030  67.780  1.00  0.00    -0.165 A  
HETATM   29  N   UNL     1      -9.534  10.881  67.422  1.00  0.00    -0.155 NA 
HETATM   30  C   UNL     1      -9.036  12.920  68.842  1.00  0.00     0.327 A  
HETATM   31  C   UNL     1      -8.161  14.010  68.914  1.00  0.00    -0.001 A  
HETATM   32  C   UNL     1     -10.599  10.246  68.165  1.00  0.00    -0.221 C  
HETATM   33  C   UNL     1      -7.113  14.191  67.998  1.00  0.00    -0.148 A  
HETATM   34  C   UNL     1      -6.995  13.299  66.905  1.00  0.00     0.731 A  
BRANCH  33  35
HETATM   35  C   UNL     1      -6.229  15.392  68.268  1.00  0.00    -0.118 C  
HETATM   36  N   UNL     1      -6.509  16.662  67.741  1.00  0.00    -0.137 N  
HETATM   37  O   UNL     1      -5.210  15.187  68.932  1.00  0.00    -0.093 OA 
BRANCH  36  38
HETATM   38  C   UNL     1      -7.690  16.937  67.033  1.00  0.00    -0.195 A  
HETATM   39  C   UNL     1     -10.008  17.593  65.745  1.00  0.00    -0.029 A  
HETATM   40  N   UNL     1      -7.614  17.749  65.953  1.00  0.00    -0.532 NA 
HETATM   41  C   UNL     1     -10.055  16.721  66.824  1.00  0.00    -0.295 A  
HETATM   42  C   UNL     1      -8.775  18.075  65.344  1.00  0.00     1.494 A  
HETATM   43  C   UNL     1      -8.885  16.384  67.479  1.00  0.00    -0.187 A  
ENDBRANCH  36  38
BRANCH  36  44
HETATM   44  C   UNL     1      -5.737  17.847  68.156  1.00  0.00    -0.158 C  
BRANCH  44  45
HETATM   45  C   UNL     1      -6.423  18.871  69.073  1.00  0.00    -0.300 C  
BRANCH  45  46
HETATM   46  C   UNL     1      -7.645  19.623  68.573  1.00  0.00    -0.337 C  
HETATM   47  O   UNL     1      -7.688  20.774  68.174  1.00  0.00    -0.003 OA 
BRANCH  46  48
HETATM   48  O   UNL     1      -8.721  18.775  68.673  1.00  0.00    -0.337 OA 
BRANCH  48  49
HETATM   49  C   UNL     1      -9.974  19.272  69.183  1.00  0.00    -0.307 C  
HETATM   50  C   UNL     1      -9.768  20.031  70.481  1.00  0.00     1.135 C  
ENDBRANCH  48  49
ENDBRANCH  46  48
ENDBRANCH  45  46
ENDBRANCH  44  45
ENDBRANCH  36  44
ENDBRANCH  33  35
ENDBRANCH  24  25
ENDBRANCH  22  24
ENDBRANCH  19  22
ENDBRANCH  12  16
ENDBRANCH   9  12
ENDBRANCH   7   8
ENDBRANCH   6   7
ENDBRANCH   5   6
ENDBRANCH   4   5
ENDBRANCH   3   4
ENDBRANCH   2   3
TORSDOF 18
ENDMDL
MODEL      103
REMARK 921   NORMALIZED FREE ENERGY PREDICTED BY IDOCK:   25.47 KCAL/MOL
REMARK 922        TOTAL FREE ENERGY PREDICTED BY IDOCK:   49.07 KCAL/MOL
REMARK 923 INTER-LIGAND FREE ENERGY PREDICTED BY IDOCK:   46.25 KCAL/MOL
REMARK 924 INTRA-LIGAND FREE ENERGY PREDICTED BY IDOCK:    2.82 KCAL/MOL
REMARK 927      BINDING AFFINITY PREDICTED BY RF-SCORE:    0.00 PKD
ROOT
HETATM    1  C   UNL     1      -7.044  18.026  73.632  1.00  0.00     9.283 C  
HETATM    2  C   UNL     1      -5.963  17.644  72.635  1.00  0.00     3.058 C  
ENDROOT
BRANCH   2   3
HETATM    3  C   UNL     1      -6.220  16.246  72.095  1.00  0.00     2.796 C  
BRANCH   3   4
HETATM    4  C   UNL     1      -6.649  15.277  73.189  1.00  0.00     3.191 C  
BRANCH   4   5
HETATM    5  C   UNL     1      -7.054  13.964  72.537  1.00  0.00     4.485 C  
BRANCH   5   6
HETATM    6  C   UNL     1      -8.433  13.514  72.954  1.00  0.00    13.876 C  
BRANCH   6   7
HETATM    7  O   UNL     1      -9.371  14.497  72.487  1.00  0.00     5.061 OA 
BRANCH   7   8
HETATM    8  C   UNL     1     -10.299  14.899  73.398  1.00  0.00     4.588 C  
HETATM    9  N   UNL     1     -11.082  15.925  72.962  1.00  0.00     0.795 N  
HETATM   10  O   UNL     1     -10.415  14.394  74.510  1.00  0.00     4.487 OA 
HETATM   11  H   UNL     1     -11.214  16.735  73.567  1.00  0.00     0.000 HD 
BRANCH   9  12
HETATM   12  C   UNL     1     -11.669  15.908  71.798  1.00  0.00    -0.491 C  
HETATM   13  H1  UNL     1     -13.491  16.039  70.918  1.00  0.00     0.000 HD 
HETATM   14  N   UNL     1     -13.032  16.052  71.829  1.00  0.00    -0.461 NA 
HETATM   15  H2  UNL     1     -13.551  16.163  72.700  1.00  0.00     0.000 HD 
BRANCH  12  16
HETATM   16  C   UNL     1     -10.994  15.813  70.465  1.00  0.00    -0.361 A  
HETATM   17  C   UNL     1     -10.138  16.814  70.002  1.00  0.00     0.408 A  
HETATM   18  C   UNL     1      -9.884  16.917  68.631  1.00  0.00    -0.270 A  
HETATM   19  C   UNL     1     -10.381  15.964  67.731  1.00  0.00    -0.278 A  
HETATM   20  C   UNL     1     -11.090  14.873  68.241  1.00  0.00    -0.290 A  
HETATM   21  C   UNL     1     -11.407  14.799  69.597  1.00  0.00    -0.316 A  
BRANCH  19  22
HETATM   22  N   UNL     1     -10.356  16.279  66.360  1.00  0.00    -0.306 NA 
HETATM   23  H   UNL     1     -10.641  17.197  66.019  1.00  0.00     0.000 HD 
BRANCH  22  24
HETATM   24  C   UNL     1      -9.905  15.231  65.446  1.00  0.00    -0.283 C  
BRANCH  24  25
HETATM   25  C   UNL     1      -9.354  13.948  66.037  1.00  0.00    -0.031 A  
HETATM   26  N   UNL     1      -9.837  12.714  65.956  1.00  0.00    -0.259 NA 
HETATM   27  C   UNL     1      -8.924  11.891  66.602  1.00  0.00    -0.198 A  
HETATM   28  C   UNL     1      -7.860  12.652  67.080  1.00  0.00    -0.108 A  
HETATM   29  N   UNL     1      -8.185  13.951  66.767  1.00  0.00     0.079 NA 
HETATM   30  C   UNL     1      -6.749  12.087  67.707  1.00  0.00    -0.096 A  
HETATM   31  C   UNL     1      -6.742  10.698  67.877  1.00  0.00    -0.064 A  
HETATM   32  C   UNL     1      -7.418  15.127  67.110  1.00  0.00    -0.141 C  
HETATM   33  C   UNL     1      -7.822   9.890  67.492  1.00  0.00    -0.098 A  
HETATM   34  C   UNL     1      -8.916  10.484  66.816  1.00  0.00    -0.149 A  
BRANCH  33  35
HETATM   35  C   UNL     1      -7.664   8.416  67.809  1.00  0.00    -0.103 C  
HETATM   36  N   UNL     1      -8.542   7.734  68.665  1.00  0.00    -0.129 N  
HETATM   37  O   UNL     1      -6.681   7.852  67.321  1.00  0.00    -0.065 OA 
BRANCH  36  38
HETATM   38  C   UNL     1      -9.700   8.335  69.185  1.00  0.00    -0.171 A  
HETATM   39  C   UNL     1     -11.865   9.619  70.246  1.00  0.00    -0.157 A  
HETATM   40  N   UNL     1     -10.377   9.204  68.399  1.00  0.00    -0.201 NA 
HETATM   41  C   UNL     1     -11.185   8.685  71.016  1.00  0.00    -0.321 A  
HETATM   42  C   UNL     1     -11.433   9.840  68.951  1.00  0.00     0.155 A  
HETATM   43  C   UNL     1     -10.089   8.031  70.484  1.00  0.00    -0.195 A  
ENDBRANCH  36  38
BRANCH  36  44
HETATM   44  C   UNL     1      -8.472   6.271  68.821  1.00  0.00    -0.119 C  
BRANCH  44  45
HETATM   45  C   UNL     1      -7.509   5.701  69.872  1.00  0.00    -0.071 C  
BRANCH  45  46
HETATM   46  C   UNL     1      -6.355   4.816  69.429  1.00  0.00    -0.031 C  
HETATM   47  O   UNL     1      -5.191   4.892  69.785  1.00  0.00     0.000 OA 
BRANCH  46  48
HETATM   48  O   UNL     1      -6.852   3.914  68.520  1.00  0.00    -0.045 OA 
BRANCH  48  49
HETATM   49  C   UNL     1      -8.271   3.677  68.454  1.00  0.00    -0.077 C  
HETATM   50  C   UNL     1      -8.757   2.941  69.689  1.00  0.00    -0.131 C  
ENDBRANCH  48  49
ENDBRANCH  46  48
ENDBRANCH  45  46
ENDBRANCH  44  45
ENDBRANCH  36  44
ENDBRANCH  33  35
ENDBRANCH  24  25
ENDBRANCH  22  24
ENDBRANCH  19  22
ENDBRANCH  12  16
ENDBRANCH   9  12
ENDBRANCH   7   8
ENDBRANCH   6   7
ENDBRANCH   5   6
ENDBRANCH   4   5
ENDBRANCH   3   4
ENDBRANCH   2   3
TORSDOF 18
ENDMDL
MODEL      104
REMARK 921   NORMALIZED FREE ENERGY PREDICTED BY IDOCK:   26.01 KCAL/MOL
REMARK 922        TOTAL FREE ENERGY PREDICTED BY IDOCK:   50.17 KCAL/MOL
REMARK 923 INTER-LIGAND FREE ENERGY PREDICTED BY IDOCK:   19.72 KCAL/MOL
REMARK 924 INTRA-LIGAND FREE ENERGY PREDICTED BY IDOCK:   30.45 KCAL/MOL
REMARK 927      BINDING AFFINITY PREDICTED BY RF-SCORE:    0.00 PKD
ROOT
HETATM    1  C   UNL     1      -8.319  16.828  66.138  1.00  0.00    -0.301 C  
HETATM    2  C   UNL     1      -8.978  18.045  65.510  1.00  0.00     1.016 C  
ENDROOT
BRANCH   2   3
HETATM    3  C   UNL     1      -9.433  19.009  66.594  1.00  0.00    -0.375 C  
BRANCH   3   4
HETATM    4  C   UNL     1     -10.353  20.094  66.049  1.00  0.00    -0.483 C  
BRANCH   4   5
HETATM    5  C   UNL     1     -11.088  19.537  64.839  1.00  0.00     1.398 C  
BRANCH   5   6
HETATM    6  C   UNL     1     -10.452  18.276  64.307  1.00  0.00     5.588 C  
BRANCH   6   7
HETATM    7  O   UNL     1     -10.887  17.187  65.138  1.00  0.00    -0.626 OA 
BRANCH   7   8
HETATM    8  C   UNL     1     -12.002  17.427  65.880  1.00  0.00     3.428 C  
HETATM    9  N   UNL     1     -11.763  17.478  67.221  1.00  0.00     1.240 N  
HETATM   10  O   UNL     1     -13.118  17.572  65.393  1.00  0.00     8.150 OA 
HETATM   11  H   UNL     1     -12.358  16.936  67.848  1.00  0.00     0.000 HD 
BRANCH   9  12
HETATM   12  C   UNL     1     -10.801  18.194  67.731  1.00  0.00    -0.228 C  
HETATM   13  H1  UNL     1     -10.179  20.110  67.966  1.00  0.00     0.000 HD 
HETATM   14  N   UNL     1     -10.932  19.550  67.566  1.00  0.00    -0.387 NA 
HETATM   15  H2  UNL     1     -11.725  19.967  67.079  1.00  0.00     0.000 HD 
BRANCH  12  16
HETATM   16  C   UNL     1      -9.633  17.682  68.514  1.00  0.00    -0.315 A  
HETATM   17  C   UNL     1      -8.879  18.518  69.340  1.00  0.00     0.374 A  
HETATM   18  C   UNL     1      -7.581  18.139  69.695  1.00  0.00     0.541 A  
HETATM   19  C   UNL     1      -7.070  16.886  69.332  1.00  0.00    -0.126 A  
HETATM   20  C   UNL     1      -7.907  15.996  68.654  1.00  0.00    -0.179 A  
HETATM   21  C   UNL     1      -9.178  16.391  68.236  1.00  0.00    -0.207 A  
BRANCH  19  22
HETATM   22  N   UNL     1      -5.682  16.683  69.447  1.00  0.00    -0.152 NA 
HETATM   23  H   UNL     1      -5.077  17.378  69.884  1.00  0.00     0.000 HD 
BRANCH  22  24
HETATM   24  C   UNL     1      -5.146  15.434  68.911  1.00  0.00    -0.099 C  
BRANCH  24  25
HETATM   25  C   UNL     1      -6.124  14.362  68.468  1.00  0.00    -0.091 A  
HETATM   26  N   UNL     1      -6.298  13.834  67.263  1.00  0.00    -0.224 NA 
HETATM   27  C   UNL     1      -7.261  12.843  67.403  1.00  0.00    -0.126 A  
HETATM   28  C   UNL     1      -7.673  12.771  68.731  1.00  0.00     0.007 A  
HETATM   29  N   UNL     1      -6.989  13.779  69.368  1.00  0.00    -0.051 NA 
HETATM   30  C   UNL     1      -8.579  11.814  69.190  1.00  0.00     0.371 A  
HETATM   31  C   UNL     1      -9.103  10.920  68.250  1.00  0.00    -0.158 A  
HETATM   32  C   UNL     1      -7.121  14.151  70.760  1.00  0.00     1.110 C  
HETATM   33  C   UNL     1      -8.789  10.998  66.885  1.00  0.00    -0.150 A  
HETATM   34  C   UNL     1      -7.832  11.948  66.454  1.00  0.00     0.167 A  
BRANCH  33  35
HETATM   35  C   UNL     1      -9.498   9.985  66.007  1.00  0.00    -0.197 C  
HETATM   36  N   UNL     1      -8.892   8.786  65.605  1.00  0.00    -0.190 N  
HETATM   37  O   UNL     1     -10.625  10.296  65.611  1.00  0.00    -0.134 OA 
BRANCH  36  38
HETATM   38  C   UNL     1      -7.637   8.381  66.089  1.00  0.00    -0.089 A  
HETATM   39  C   UNL     1      -5.166   7.738  67.061  1.00  0.00    -0.031 A  
HETATM   40  N   UNL     1      -7.524   8.088  67.405  1.00  0.00    -0.092 NA 
HETATM   41  C   UNL     1      -5.317   7.991  65.704  1.00  0.00    -0.028 A  
HETATM   42  C   UNL     1      -6.289   7.792  67.866  1.00  0.00    -0.051 A  
HETATM   43  C   UNL     1      -6.565   8.316  65.206  1.00  0.00    -0.052 A  
ENDBRANCH  36  38
BRANCH  36  44
HETATM   44  C   UNL     1      -9.657   7.743  64.900  1.00  0.00     1.807 C  
BRANCH  44  45
HETATM   45  C   UNL     1      -9.132   6.301  64.952  1.00  0.00     0.500 C  
BRANCH  45  46
HETATM   46  C   UNL     1      -9.816   5.288  65.855  1.00  0.00    -0.088 C  
HETATM   47  O   UNL     1     -10.913   4.779  65.692  1.00  0.00    -0.244 OA 
BRANCH  46  48
HETATM   48  O   UNL     1      -8.983   5.056  66.923  1.00  0.00    -0.113 OA 
BRANCH  48  49
HETATM   49  C   UNL     1      -9.516   4.478  68.130  1.00  0.00    -0.149 C  
HETATM   50  C   UNL     1     -10.003   5.558  69.079  1.00  0.00    -0.244 C  
ENDBRANCH  48  49
ENDBRANCH  46  48
ENDBRANCH  45  46
ENDBRANCH  44  45
ENDBRANCH  36  44
ENDBRANCH  33  35
ENDBRANCH  24  25
ENDBRANCH  22  24
ENDBRANCH  19  22
ENDBRANCH  12  16
ENDBRANCH   9  12
ENDBRANCH   7   8
ENDBRANCH   6   7
ENDBRANCH   5   6
ENDBRANCH   4   5
ENDBRANCH   3   4
ENDBRANCH   2   3
TORSDOF 18
ENDMDL
MODEL      105
REMARK 921   NORMALIZED FREE ENERGY PREDICTED BY IDOCK:   46.07 KCAL/MOL
REMARK 922        TOTAL FREE ENERGY PREDICTED BY IDOCK:   91.34 KCAL/MOL
REMARK 923 INTER-LIGAND FREE ENERGY PREDICTED BY IDOCK:   14.70 KCAL/MOL
REMARK 924 INTRA-LIGAND FREE ENERGY PREDICTED BY IDOCK:   76.64 KCAL/MOL
REMARK 927      BINDING AFFINITY PREDICTED BY RF-SCORE:    0.00 PKD
ROOT
HETATM    1  C   UNL     1     -12.316   4.526  65.062  1.00  0.00     4.187 C  
HETATM    2  C   UNL     1     -11.735   4.532  66.466  1.00  0.00     4.516 C  
ENDROOT
BRANCH   2   3
HETATM    3  C   UNL     1     -10.476   3.682  66.513  1.00  0.00     1.289 C  
BRANCH   3   4
HETATM    4  C   UNL     1      -9.287   4.378  65.863  1.00  0.00    -0.161 C  
BRANCH   4   5
HETATM    5  C   UNL     1      -8.520   5.128  66.942  1.00  0.00    -0.106 C  
BRANCH   5   6
HETATM    6  C   UNL     1      -7.058   5.290  66.604  1.00  0.00    -0.069 C  
BRANCH   6   7
HETATM    7  O   UNL     1      -6.528   3.983  66.330  1.00  0.00    -0.035 OA 
BRANCH   7   8
HETATM    8  C   UNL     1      -5.811   3.418  67.340  1.00  0.00    -0.023 C  
HETATM    9  N   UNL     1      -5.889   4.105  68.513  1.00  0.00    -0.025 N  
HETATM   10  O   UNL     1      -5.149   2.394  67.205  1.00  0.00    -0.007 OA 
HETATM   11  H   UNL     1      -5.027   4.324  69.014  1.00  0.00     0.000 HD 
BRANCH   9  12
HETATM   12  C   UNL     1      -7.025   4.494  69.020  1.00  0.00    -0.051 C  
HETATM   13  H1  UNL     1      -7.951   4.864  70.786  1.00  0.00     0.000 HD 
HETATM   14  N   UNL     1      -7.062   4.560  70.389  1.00  0.00    -0.044 NA 
HETATM   15  H2  UNL     1      -6.258   4.321  70.970  1.00  0.00     0.000 HD 
BRANCH  12  16
HETATM   16  C   UNL     1      -8.237   4.924  68.254  1.00  0.00    -0.085 A  
HETATM   17  C   UNL     1      -8.811   4.116  67.272  1.00  0.00    -0.126 A  
HETATM   18  C   UNL     1      -9.632   4.697  66.301  1.00  0.00    -0.187 A  
HETATM   19  C   UNL     1      -9.979   6.053  66.366  1.00  0.00    -0.093 A  
HETATM   20  C   UNL     1      -9.533   6.803  67.457  1.00  0.00    -0.139 A  
HETATM   21  C   UNL     1      -8.658   6.250  68.392  1.00  0.00    -0.114 A  
BRANCH  19  22
HETATM   22  N   UNL     1     -10.542   6.644  65.220  1.00  0.00     2.402 NA 
HETATM   23  H   UNL     1     -10.649   6.122  64.350  1.00  0.00     0.000 HD 
BRANCH  22  24
HETATM   24  C   UNL     1     -10.967   8.038  65.331  1.00  0.00     5.720 C  
BRANCH  24  25
HETATM   25  C   UNL     1     -10.079   9.003  66.093  1.00  0.00    -0.172 A  
HETATM   26  N   UNL     1      -8.903   9.510  65.746  1.00  0.00    -0.152 NA 
HETATM   27  C   UNL     1      -8.543  10.396  66.753  1.00  0.00    -0.124 A  
HETATM   28  C   UNL     1      -9.535  10.425  67.730  1.00  0.00    -0.145 A  
HETATM   29  N   UNL     1     -10.460   9.493  67.323  1.00  0.00    -0.261 NA 
HETATM   30  C   UNL     1      -9.487  11.283  68.829  1.00  0.00    -0.147 A  
HETATM   31  C   UNL     1      -8.370  12.118  68.947  1.00  0.00     0.180 A  
HETATM   32  C   UNL     1     -11.656   9.110  68.040  1.00  0.00     1.393 C  
HETATM   33  C   UNL     1      -7.301  12.073  68.039  1.00  0.00    -0.102 A  
HETATM   34  C   UNL     1      -7.398  11.227  66.908  1.00  0.00    -0.145 A  
BRANCH  33  35
HETATM   35  C   UNL     1      -6.151  13.006  68.360  1.00  0.00    -0.081 C  
HETATM   36  N   UNL     1      -6.175  14.369  68.027  1.00  0.00    -0.142 N  
HETATM   37  O   UNL     1      -5.156  12.493  68.880  1.00  0.00    -0.056 OA 
BRANCH  36  38
HETATM   38  C   UNL     1      -7.315  14.990  67.490  1.00  0.00    -0.202 A  
HETATM   39  C   UNL     1      -9.526  16.295  66.559  1.00  0.00    -0.289 A  
HETATM   40  N   UNL     1      -7.136  16.010  66.619  1.00  0.00    -0.191 NA 
HETATM   41  C   UNL     1      -9.687  15.212  67.413  1.00  0.00    -0.209 A  
HETATM   42  C   UNL     1      -8.243  16.653  66.187  1.00  0.00    -0.260 A  
HETATM   43  C   UNL     1      -8.571  14.547  67.886  1.00  0.00    -0.161 A  
ENDBRANCH  36  38
BRANCH  36  44
HETATM   44  C   UNL     1      -5.126  15.289  68.501  1.00  0.00    -0.099 C  
BRANCH  44  45
HETATM   45  C   UNL     1      -5.477  16.264  69.633  1.00  0.00    -0.140 C  
BRANCH  45  46
HETATM   46  C   UNL     1      -6.715  17.138  69.511  1.00  0.00    -0.143 C  
HETATM   47  O   UNL     1      -7.866  16.823  69.765  1.00  0.00     0.332 OA 
BRANCH  46  48
HETATM   48  O   UNL     1      -6.313  18.360  69.031  1.00  0.00    -0.224 OA 
BRANCH  48  49
HETATM   49  C   UNL     1      -7.301  19.335  68.649  1.00  0.00    -0.338 C  
HETATM   50  C   UNL     1      -6.847  20.120  67.431  1.00  0.00    -0.271 C  
ENDBRANCH  48  49
ENDBRANCH  46  48
ENDBRANCH  45  46
ENDBRANCH  44  45
ENDBRANCH  36  44
ENDBRANCH  33  35
ENDBRANCH  24  25
ENDBRANCH  22  24
ENDBRANCH  19  22
ENDBRANCH  12  16
ENDBRANCH   9  12
ENDBRANCH   7   8
ENDBRANCH   6   7
ENDBRANCH   5   6
ENDBRANCH   4   5
ENDBRANCH   3   4
ENDBRANCH   2   3
TORSDOF 18
ENDMDL
MODEL      106
REMARK 921   NORMALIZED FREE ENERGY PREDICTED BY IDOCK:   51.20 KCAL/MOL
REMARK 922        TOTAL FREE ENERGY PREDICTED BY IDOCK:  101.87 KCAL/MOL
REMARK 923 INTER-LIGAND FREE ENERGY PREDICTED BY IDOCK:   86.31 KCAL/MOL
REMARK 924 INTRA-LIGAND FREE ENERGY PREDICTED BY IDOCK:   15.56 KCAL/MOL
REMARK 927      BINDING AFFINITY PREDICTED BY RF-SCORE:    0.00 PKD
ROOT
HETATM    1  C   UNL     1      -6.895  18.726  74.435  1.00  0.00    11.640 C  
HETATM    2  C   UNL     1      -6.128  17.740  73.570  1.00  0.00     6.716 C  
ENDROOT
BRANCH   2   3
HETATM    3  C   UNL     1      -7.027  16.576  73.183  1.00  0.00     9.214 C  
BRANCH   3   4
HETATM    4  C   UNL     1      -8.155  16.362  74.185  1.00  0.00    17.526 C  
BRANCH   4   5
HETATM    5  C   UNL     1      -9.052  15.248  73.667  1.00  0.00    11.162 C  
BRANCH   5   6
HETATM    6  C   UNL     1     -10.263  15.775  72.936  1.00  0.00     4.875 C  
BRANCH   6   7
HETATM    7  O   UNL     1      -9.803  16.730  71.966  1.00  0.00     5.465 OA 
BRANCH   7   8
HETATM    8  C   UNL     1     -10.567  17.849  71.838  1.00  0.00     3.563 C  
HETATM    9  N   UNL     1     -10.201  18.642  70.792  1.00  0.00     1.350 N  
HETATM   10  O   UNL     1     -11.490  18.125  72.598  1.00  0.00     1.597 OA 
HETATM   11  H   UNL     1     -10.072  19.641  70.954  1.00  0.00     0.000 HD 
BRANCH   9  12
HETATM   12  C   UNL     1     -10.009  18.170  69.593  1.00  0.00     0.398 C  
HETATM   13  H1  UNL     1     -10.985  17.702  67.878  1.00  0.00     0.000 HD 
HETATM   14  N   UNL     1     -11.135  18.072  68.817  1.00  0.00     0.094 NA 
HETATM   15  H2  UNL     1     -12.057  18.348  69.154  1.00  0.00     0.000 HD 
BRANCH  12  16
HETATM   16  C   UNL     1      -8.693  17.797  68.986  1.00  0.00    -0.007 A  
HETATM   17  C   UNL     1      -7.674  18.734  68.807  1.00  0.00    -0.351 A  
HETATM   18  C   UNL     1      -6.667  18.479  67.871  1.00  0.00    -0.218 A  
HETATM   19  C   UNL     1      -6.600  17.253  67.197  1.00  0.00    -0.170 A  
HETATM   20  C   UNL     1      -7.531  16.263  67.523  1.00  0.00    -0.172 A  
HETATM   21  C   UNL     1      -8.579  16.532  68.402  1.00  0.00    -0.213 A  
BRANCH  19  22
HETATM   22  N   UNL     1      -5.767  17.168  66.066  1.00  0.00    -0.227 NA 
HETATM   23  H   UNL     1      -5.559  17.987  65.495  1.00  0.00     0.000 HD 
BRANCH  22  24
HETATM   24  C   UNL     1      -5.215  15.853  65.744  1.00  0.00     4.234 C  
BRANCH  24  25
HETATM   25  C   UNL     1      -5.733  14.649  66.506  1.00  0.00     3.323 A  
HETATM   26  N   UNL     1      -5.863  13.393  66.097  1.00  0.00     3.524 NA 
HETATM   27  C   UNL     1      -6.311  12.666  67.193  1.00  0.00     0.013 A  
HETATM   28  C   UNL     1      -6.449  13.510  68.292  1.00  0.00    -0.104 A  
HETATM   29  N   UNL     1      -6.140  14.762  67.818  1.00  0.00    -0.243 NA 
HETATM   30  C   UNL     1      -6.809  13.047  69.558  1.00  0.00     0.099 A  
HETATM   31  C   UNL     1      -7.067  11.678  69.696  1.00  0.00     0.128 A  
HETATM   32  C   UNL     1      -6.194  15.996  68.570  1.00  0.00    -0.111 C  
HETATM   33  C   UNL     1      -7.026  10.795  68.606  1.00  0.00    -0.070 A  
HETATM   34  C   UNL     1      -6.611  11.283  67.343  1.00  0.00    -0.081 A  
BRANCH  33  35
HETATM   35  C   UNL     1      -7.393   9.361  68.932  1.00  0.00    -0.073 C  
HETATM   36  N   UNL     1      -8.550   9.028  69.652  1.00  0.00    -0.131 N  
HETATM   37  O   UNL     1      -6.587   8.495  68.582  1.00  0.00    -0.053 OA 
BRANCH  36  38
HETATM   38  C   UNL     1      -9.513   9.986  70.010  1.00  0.00    -0.136 A  
HETATM   39  C   UNL     1     -11.274  11.931  70.769  1.00  0.00     1.435 A  
HETATM   40  N   UNL     1      -9.748  11.006  69.152  1.00  0.00    -0.134 NA 
HETATM   41  C   UNL     1     -11.055  10.848  71.610  1.00  0.00     2.575 A  
HETATM   42  C   UNL     1     -10.608  11.966  69.557  1.00  0.00     0.245 A  
HETATM   43  C   UNL     1     -10.166   9.860  71.230  1.00  0.00     0.384 A  
ENDBRANCH  36  38
BRANCH  36  44
HETATM   44  C   UNL     1      -8.976   7.625  69.806  1.00  0.00    -0.140 C  
BRANCH  44  45
HETATM   45  C   UNL     1      -8.288   6.776  70.884  1.00  0.00    -0.128 C  
BRANCH  45  46
HETATM   46  C   UNL     1      -7.668   5.442  70.504  1.00  0.00    -0.084 C  
HETATM   47  O   UNL     1      -6.592   5.259  69.959  1.00  0.00    -0.036 OA 
BRANCH  46  48
HETATM   48  O   UNL     1      -8.556   4.456  70.861  1.00  0.00    -0.089 OA 
BRANCH  48  49
HETATM   49  C   UNL     1      -9.620   4.756  71.784  1.00  0.00    -0.155 C  
HETATM   50  C   UNL     1      -9.066   5.153  73.140  1.00  0.00    -0.127 C  
ENDBRANCH  48  49
ENDBRANCH  46  48
ENDBRANCH  45  46
ENDBRANCH  44  45
ENDBRANCH  36  44
ENDBRANCH  33  35
ENDBRANCH  24  25
ENDBRANCH  22  24
ENDBRANCH  19  22
ENDBRANCH  12  16
ENDBRANCH   9  12
ENDBRANCH   7   8
ENDBRANCH   6   7
ENDBRANCH   5   6
ENDBRANCH   4   5
ENDBRANCH   3   4
ENDBRANCH   2   3
TORSDOF 18
ENDMDL
MODEL      107
REMARK 921   NORMALIZED FREE ENERGY PREDICTED BY IDOCK:   61.65 KCAL/MOL
REMARK 922        TOTAL FREE ENERGY PREDICTED BY IDOCK:  123.32 KCAL/MOL
REMARK 923 INTER-LIGAND FREE ENERGY PREDICTED BY IDOCK:   37.32 KCAL/MOL
REMARK 924 INTRA-LIGAND FREE ENERGY PREDICTED BY IDOCK:   86.00 KCAL/MOL
REMARK 927      BINDING AFFINITY PREDICTED BY RF-SCORE:    0.00 PKD
ROOT
HETATM    1  C   UNL     1     -12.361   4.419  65.073  1.00  0.00     4.417 C  
HETATM    2  C   UNL     1     -11.827   4.370  66.494  1.00  0.00     5.807 C  
ENDROOT
BRANCH   2   3
HETATM    3  C   UNL     1     -10.570   3.517  66.550  1.00  0.00     1.931 C  
BRANCH   3   4
HETATM    4  C   UNL     1      -9.355   4.245  65.989  1.00  0.00    -0.163 C  
BRANCH   4   5
HETATM    5  C   UNL     1      -8.622   4.915  67.142  1.00  0.00    -0.104 C  
BRANCH   5   6
HETATM    6  C   UNL     1      -7.155   5.116  66.854  1.00  0.00    -0.073 C  
BRANCH   6   7
HETATM    7  O   UNL     1      -6.609   3.843  66.471  1.00  0.00    -0.040 OA 
BRANCH   7   8
HETATM    8  C   UNL     1      -5.970   3.159  67.459  1.00  0.00    -0.027 C  
HETATM    9  N   UNL     1      -6.213   3.651  68.707  1.00  0.00    -0.028 N  
HETATM   10  O   UNL     1      -5.237   2.198  67.249  1.00  0.00    -0.008 OA 
HETATM   11  H   UNL     1      -5.423   3.826  69.329  1.00  0.00     0.000 HD 
BRANCH   9  12
HETATM   12  C   UNL     1      -7.417   3.907  69.133  1.00  0.00    -0.054 C  
HETATM   13  H1  UNL     1      -8.537   3.991  70.822  1.00  0.00     0.000 HD 
HETATM   14  N   UNL     1      -7.594   3.791  70.488  1.00  0.00    -0.041 NA 
HETATM   15  H2  UNL     1      -6.837   3.524  71.117  1.00  0.00     0.000 HD 
BRANCH  12  16
HETATM   16  C   UNL     1      -8.575   4.365  68.302  1.00  0.00    -0.106 A  
HETATM   17  C   UNL     1      -8.977   3.673  67.158  1.00  0.00    -0.162 A  
HETATM   18  C   UNL     1      -9.738   4.336  66.190  1.00  0.00    -0.220 A  
HETATM   19  C   UNL     1     -10.197   5.643  66.402  1.00  0.00    -0.171 A  
HETATM   20  C   UNL     1      -9.928   6.252  67.631  1.00  0.00    -0.151 A  
HETATM   21  C   UNL     1      -9.113   5.626  68.573  1.00  0.00    -0.118 A  
BRANCH  19  22
HETATM   22  N   UNL     1     -10.685   6.357  65.292  1.00  0.00     2.227 NA 
HETATM   23  H   UNL     1     -10.646   5.969  64.350  1.00  0.00     0.000 HD 
BRANCH  22  24
HETATM   24  C   UNL     1     -11.249   7.681  65.549  1.00  0.00     6.239 C  
BRANCH  24  25
HETATM   25  C   UNL     1     -10.574   8.563  66.582  1.00  0.00    -0.048 A  
HETATM   26  N   UNL     1      -9.431   8.370  67.229  1.00  0.00    -0.148 NA 
HETATM   27  C   UNL     1      -9.222   9.502  68.005  1.00  0.00    -0.129 A  
HETATM   28  C   UNL     1     -10.266  10.403  67.815  1.00  0.00    -0.193 A  
HETATM   29  N   UNL     1     -11.135   9.762  66.964  1.00  0.00     0.015 NA 
HETATM   30  C   UNL     1     -10.291  11.667  68.406  1.00  0.00    -0.215 A  
HETATM   31  C   UNL     1      -9.224  12.007  69.245  1.00  0.00     0.722 A  
HETATM   32  C   UNL     1     -12.411  10.268  66.509  1.00  0.00     6.814 C  
HETATM   33  C   UNL     1      -8.187  11.109  69.540  1.00  0.00     0.327 A  
HETATM   34  C   UNL     1      -8.163   9.852  68.890  1.00  0.00    -0.118 A  
BRANCH  33  35
HETATM   35  C   UNL     1      -7.150  11.629  70.516  1.00  0.00     1.831 C  
HETATM   36  N   UNL     1      -6.110  12.484  70.120  1.00  0.00    -0.136 N  
HETATM   37  O   UNL     1      -7.230  11.215  71.675  1.00  0.00     3.359 OA 
BRANCH  36  38
HETATM   38  C   UNL     1      -6.030  13.017  68.823  1.00  0.00    -0.076 A  
HETATM   39  C   UNL     1      -5.986  13.962  66.261  1.00  0.00     4.791 A  
HETATM   40  N   UNL     1      -6.815  14.077  68.519  1.00  0.00    -0.095 NA 
HETATM   41  C   UNL     1      -5.151  12.909  66.610  1.00  0.00     1.175 A  
HETATM   42  C   UNL     1      -6.791  14.514  67.241  1.00  0.00     0.142 A  
HETATM   43  C   UNL     1      -5.168  12.428  67.906  1.00  0.00    -0.082 A  
ENDBRANCH  36  38
BRANCH  36  44
HETATM   44  C   UNL     1      -5.220  13.113  71.112  1.00  0.00    -0.178 C  
BRANCH  44  45
HETATM   45  C   UNL     1      -5.509  14.564  71.524  1.00  0.00    -0.137 C  
BRANCH  45  46
HETATM   46  C   UNL     1      -6.618  15.333  70.826  1.00  0.00     0.434 C  
HETATM   47  O   UNL     1      -7.738  14.930  70.560  1.00  0.00     0.509 OA 
BRANCH  46  48
HETATM   48  O   UNL     1      -6.127  16.578  70.516  1.00  0.00     0.005 OA 
BRANCH  48  49
HETATM   49  C   UNL     1      -6.687  17.309  69.409  1.00  0.00    -0.193 C  
HETATM   50  C   UNL     1      -6.536  18.805  69.614  1.00  0.00    -0.212 C  
ENDBRANCH  48  49
ENDBRANCH  46  48
ENDBRANCH  45  46
ENDBRANCH  44  45
ENDBRANCH  36  44
ENDBRANCH  33  35
ENDBRANCH  24  25
ENDBRANCH  22  24
ENDBRANCH  19  22
ENDBRANCH  12  16
ENDBRANCH   9  12
ENDBRANCH   7   8
ENDBRANCH   6   7
ENDBRANCH   5   6
ENDBRANCH   4   5
ENDBRANCH   3   4
ENDBRANCH   2   3
TORSDOF 18
ENDMDL
