MODEL        1
REMARK 921   NORMALIZED FREE ENERGY PREDICTED BY IDOCK:   -8.31 KCAL/MOL
REMARK 922        TOTAL FREE ENERGY PREDICTED BY IDOCK:  -12.35 KCAL/MOL
REMARK 923 INTER-LIGAND FREE ENERGY PREDICTED BY IDOCK:  -11.22 KCAL/MOL
REMARK 924 INTRA-LIGAND FREE ENERGY PREDICTED BY IDOCK:   -1.13 KCAL/MOL
REMARK 927      BINDING AFFINITY PREDICTED BY RF-SCORE:    0.00 PKD
ROOT
HETATM    1  C   UNL     1     -10.433  13.767  65.320  1.00  0.00    -0.376 C  
HETATM    2  C   UNL     1     -11.329  12.553  65.624  1.00  0.00    -0.372 C  
HETATM    3  C   UNL     1     -10.617  11.293  65.078  1.00  0.00    -0.353 C  
HETATM    4  C   UNL     1     -12.656  12.740  64.853  1.00  0.00    -0.541 C  
ENDROOT
BRANCH   2   5
HETATM    5  C   UNL     1     -11.614  12.409  67.129  1.00  0.00    -0.365 A  
HETATM    6  N   UNL     1     -11.663  11.300  67.847  1.00  0.00    -0.592 NA 
HETATM    7  C   UNL     1     -11.923  11.576  69.212  1.00  0.00    -0.330 A  
HETATM    8  C   UNL     1     -12.130  12.928  69.485  1.00  0.00    -0.214 A  
HETATM    9  S   UNL     1     -11.867  13.834  68.042  1.00  0.00    -0.362 SA 
BRANCH   7  10
HETATM   10  C   UNL     1     -11.957  10.477  70.200  1.00  0.00    -0.398 A  
HETATM   11  C   UNL     1     -10.770   9.867  70.653  1.00  0.00    -0.303 A  
HETATM   12  C   UNL     1     -13.160  10.026  70.773  1.00  0.00    -0.316 A  
HETATM   13  F   UNL     1      -9.578  10.207  70.133  1.00  0.00    -0.254 F  
HETATM   14  C   UNL     1     -13.175   9.085  71.811  1.00  0.00    -0.445 A  
HETATM   15  C   UNL     1     -10.779   8.916  71.690  1.00  0.00    -0.347 A  
HETATM   16  C   UNL     1     -11.984   8.535  72.275  1.00  0.00    -0.454 A  
BRANCH  15  17
HETATM   17  N   UNL     1      -9.553   8.394  72.216  1.00  0.00    -0.278 N  
HETATM   18  H   UNL     1      -9.015   8.937  72.892  1.00  0.00     0.000 HD 
BRANCH  17  19
HETATM   19  S   UNL     1      -8.997   6.878  71.715  1.00  0.00    -0.137 S  
HETATM   20  O   UNL     1      -9.703   5.861  72.465  1.00  0.00    -0.158 OA 
HETATM   21  O   UNL     1      -7.551   6.936  71.760  1.00  0.00    -0.091 OA 
BRANCH  19  22
HETATM   22  C   UNL     1      -9.434   6.768  70.023  1.00  0.00    -0.157 A  
HETATM   23  C   UNL     1     -10.678   6.242  69.693  1.00  0.00    -0.306 A  
HETATM   24  F   UNL     1     -11.452   5.672  70.627  1.00  0.00    -0.292 F  
HETATM   25  C   UNL     1     -11.156   6.303  68.384  1.00  0.00    -0.371 A  
HETATM   26  C   UNL     1     -10.381   6.898  67.390  1.00  0.00    -0.297 A  
HETATM   27  C   UNL     1      -9.123   7.406  67.714  1.00  0.00    -0.129 A  
HETATM   28  C   UNL     1      -8.655   7.342  69.029  1.00  0.00    -0.133 A  
HETATM   29  F   UNL     1      -7.456   7.876  69.286  1.00  0.00    -0.082 F  
ENDBRANCH  19  22
ENDBRANCH  17  19
ENDBRANCH  15  17
ENDBRANCH   7  10
BRANCH   8  30
HETATM   30  C   UNL     1     -12.471  13.728  70.675  1.00  0.00    -0.359 A  
HETATM   31  C   UNL     1     -12.192  15.657  71.865  1.00  0.00    -0.427 A  
HETATM   32  N   UNL     1     -11.904  14.945  70.767  1.00  0.00    -0.293 NA 
HETATM   33  N   UNL     1     -11.633  16.906  72.002  1.00  0.00    -0.321 NA 
HETATM   34  N   UNL     1     -13.037  15.280  72.830  1.00  0.00    -0.443 NA 
HETATM   35  C   UNL     1     -13.610  14.079  72.693  1.00  0.00    -0.517 A  
HETATM   36  H2  UNL     1     -11.014  17.283  71.284  1.00  0.00     0.000 HD 
HETATM   37  C   UNL     1     -13.355  13.252  71.631  1.00  0.00    -0.406 A  
HETATM   38  H1  UNL     1     -11.852  17.448  72.838  1.00  0.00     0.000 HD 
ENDBRANCH   8  30
ENDBRANCH   2   5
TORSDOF 6
ENDMDL
MODEL        2
REMARK 921   NORMALIZED FREE ENERGY PREDICTED BY IDOCK:   -8.20 KCAL/MOL
REMARK 922        TOTAL FREE ENERGY PREDICTED BY IDOCK:  -12.20 KCAL/MOL
REMARK 923 INTER-LIGAND FREE ENERGY PREDICTED BY IDOCK:  -11.33 KCAL/MOL
REMARK 924 INTRA-LIGAND FREE ENERGY PREDICTED BY IDOCK:   -0.86 KCAL/MOL
REMARK 927      BINDING AFFINITY PREDICTED BY RF-SCORE:    0.00 PKD
ROOT
HETATM    1  C   UNL     1      -9.925   7.446  69.474  1.00  0.00    -0.179 C  
HETATM    2  C   UNL     1      -9.897   8.169  68.115  1.00  0.00    -0.194 C  
HETATM    3  C   UNL     1     -10.715   7.321  67.113  1.00  0.00    -0.413 C  
HETATM    4  C   UNL     1      -8.428   8.214  67.635  1.00  0.00    -0.131 C  
ENDROOT
BRANCH   2   5
HETATM    5  C   UNL     1     -10.461   9.597  68.211  1.00  0.00    -0.219 A  
HETATM    6  N   UNL     1     -10.474  10.532  67.276  1.00  0.00    -0.235 NA 
HETATM    7  C   UNL     1     -11.111  11.713  67.731  1.00  0.00    -0.249 A  
HETATM    8  C   UNL     1     -11.520  11.655  69.063  1.00  0.00    -0.294 A  
HETATM    9  S   UNL     1     -11.209  10.072  69.674  1.00  0.00    -0.214 SA 
BRANCH   7  10
HETATM   10  C   UNL     1     -11.288  12.862  66.819  1.00  0.00    -0.367 A  
HETATM   11  C   UNL     1     -10.479  14.010  66.928  1.00  0.00    -0.276 A  
HETATM   12  C   UNL     1     -12.229  12.847  65.774  1.00  0.00    -0.498 A  
HETATM   13  F   UNL     1      -9.579  14.130  67.919  1.00  0.00    -0.202 F  
HETATM   14  C   UNL     1     -12.297  13.877  64.827  1.00  0.00    -0.429 A  
HETATM   15  C   UNL     1     -10.546  15.052  65.984  1.00  0.00    -0.322 A  
HETATM   16  C   UNL     1     -11.450  14.976  64.927  1.00  0.00    -0.399 A  
BRANCH  15  17
HETATM   17  N   UNL     1      -9.635  16.155  66.044  1.00  0.00    -0.327 N  
HETATM   18  H   UNL     1      -8.685  16.053  65.687  1.00  0.00     0.000 HD 
BRANCH  17  19
HETATM   19  S   UNL     1     -10.134  17.628  66.708  1.00  0.00    -0.348 S  
HETATM   20  O   UNL     1     -10.998  17.352  67.836  1.00  0.00    -0.332 OA 
HETATM   21  O   UNL     1     -10.620  18.431  65.605  1.00  0.00    -0.622 OA 
BRANCH  19  22
HETATM   22  C   UNL     1      -8.665  18.397  67.269  1.00  0.00    -0.259 A  
HETATM   23  C   UNL     1      -8.411  19.706  66.875  1.00  0.00    -0.301 A  
HETATM   24  F   UNL     1      -9.174  20.305  65.950  1.00  0.00    -0.375 F  
HETATM   25  C   UNL     1      -7.360  20.431  67.438  1.00  0.00    -0.359 A  
HETATM   26  C   UNL     1      -6.553  19.842  68.410  1.00  0.00    -0.309 A  
HETATM   27  C   UNL     1      -6.793  18.522  68.791  1.00  0.00    -0.287 A  
HETATM   28  C   UNL     1      -7.849  17.805  68.222  1.00  0.00    -0.279 A  
HETATM   29  F   UNL     1      -8.050  16.555  68.652  1.00  0.00    -0.186 F  
ENDBRANCH  19  22
ENDBRANCH  17  19
ENDBRANCH  15  17
ENDBRANCH   7  10
BRANCH   8  30
HETATM   30  C   UNL     1     -12.160  12.581  70.016  1.00  0.00    -0.266 A  
HETATM   31  C   UNL     1     -12.714  14.726  70.566  1.00  0.00    -0.343 A  
HETATM   32  N   UNL     1     -12.159  13.885  69.683  1.00  0.00    -0.340 NA 
HETATM   33  N   UNL     1     -12.733  16.069  70.268  1.00  0.00    -0.597 NA 
HETATM   34  N   UNL     1     -13.317  14.366  71.703  1.00  0.00    -0.343 NA 
HETATM   35  C   UNL     1     -13.331  13.059  71.988  1.00  0.00    -0.492 A  
HETATM   36  H2  UNL     1     -12.334  16.417  69.396  1.00  0.00     0.000 HD 
HETATM   37  C   UNL     1     -12.757  12.116  71.177  1.00  0.00    -0.351 A  
HETATM   38  H1  UNL     1     -13.156  16.710  70.941  1.00  0.00     0.000 HD 
ENDBRANCH   8  30
ENDBRANCH   2   5
TORSDOF 6
ENDMDL
MODEL        3
REMARK 921   NORMALIZED FREE ENERGY PREDICTED BY IDOCK:   -8.04 KCAL/MOL
REMARK 922        TOTAL FREE ENERGY PREDICTED BY IDOCK:  -11.99 KCAL/MOL
REMARK 923 INTER-LIGAND FREE ENERGY PREDICTED BY IDOCK:  -11.13 KCAL/MOL
REMARK 924 INTRA-LIGAND FREE ENERGY PREDICTED BY IDOCK:   -0.87 KCAL/MOL
REMARK 927      BINDING AFFINITY PREDICTED BY RF-SCORE:    0.00 PKD
ROOT
HETATM    1  C   UNL     1      -8.678   7.984  69.193  1.00  0.00    -0.137 C  
HETATM    2  C   UNL     1     -10.163   8.061  68.792  1.00  0.00    -0.220 C  
HETATM    3  C   UNL     1     -10.963   7.174  69.775  1.00  0.00    -0.256 C  
HETATM    4  C   UNL     1     -10.300   7.466  67.372  1.00  0.00    -0.340 C  
ENDROOT
BRANCH   2   5
HETATM    5  C   UNL     1     -10.690   9.506  68.808  1.00  0.00    -0.190 A  
HETATM    6  N   UNL     1     -10.623  10.409  67.844  1.00  0.00    -0.213 NA 
HETATM    7  C   UNL     1     -11.250  11.621  68.223  1.00  0.00    -0.260 A  
HETATM    8  C   UNL     1     -11.736  11.620  69.530  1.00  0.00    -0.344 A  
HETATM    9  S   UNL     1     -11.507  10.051  70.209  1.00  0.00    -0.306 SA 
BRANCH   7  10
HETATM   10  C   UNL     1     -11.342  12.743  67.265  1.00  0.00    -0.364 A  
HETATM   11  C   UNL     1     -10.571  13.910  67.434  1.00  0.00    -0.267 A  
HETATM   12  C   UNL     1     -12.156  12.681  66.119  1.00  0.00    -0.399 A  
HETATM   13  F   UNL     1      -9.794  14.074  68.519  1.00  0.00    -0.213 F  
HETATM   14  C   UNL     1     -12.132  13.685  65.143  1.00  0.00    -0.426 A  
HETATM   15  C   UNL     1     -10.548  14.926  66.460  1.00  0.00    -0.306 A  
HETATM   16  C   UNL     1     -11.322  14.804  65.309  1.00  0.00    -0.363 A  
BRANCH  15  17
HETATM   17  N   UNL     1      -9.669  16.050  66.594  1.00  0.00    -0.233 N  
HETATM   18  H   UNL     1      -8.692  15.970  66.313  1.00  0.00     0.000 HD 
BRANCH  17  19
HETATM   19  S   UNL     1     -10.253  17.507  67.220  1.00  0.00    -0.344 S  
HETATM   20  O   UNL     1     -11.135  17.209  68.329  1.00  0.00    -0.310 OA 
HETATM   21  O   UNL     1     -10.743  18.271  66.092  1.00  0.00    -0.333 OA 
BRANCH  19  22
HETATM   22  C   UNL     1      -8.836  18.351  67.809  1.00  0.00    -0.278 A  
HETATM   23  C   UNL     1      -7.923  17.649  68.586  1.00  0.00    -0.275 A  
HETATM   24  F   UNL     1      -8.199  16.412  69.022  1.00  0.00    -0.204 F  
HETATM   25  C   UNL     1      -6.690  18.210  68.923  1.00  0.00    -0.256 A  
HETATM   26  C   UNL     1      -6.365  19.489  68.477  1.00  0.00    -0.287 A  
HETATM   27  C   UNL     1      -7.290  20.205  67.717  1.00  0.00    -0.333 A  
HETATM   28  C   UNL     1      -8.520  19.633  67.383  1.00  0.00    -0.305 A  
HETATM   29  F   UNL     1      -9.352  20.354  66.622  1.00  0.00    -0.444 F  
ENDBRANCH  19  22
ENDBRANCH  17  19
ENDBRANCH  15  17
ENDBRANCH   7  10
BRANCH   8  30
HETATM   30  C   UNL     1     -12.402  12.594  70.413  1.00  0.00    -0.237 A  
HETATM   31  C   UNL     1     -12.976  14.765  70.828  1.00  0.00    -0.352 A  
HETATM   32  N   UNL     1     -12.397  13.878  70.008  1.00  0.00    -0.333 NA 
HETATM   33  N   UNL     1     -12.992  16.089  70.456  1.00  0.00    -0.608 NA 
HETATM   34  N   UNL     1     -13.607  14.466  71.969  1.00  0.00    -0.384 NA 
HETATM   35  C   UNL     1     -13.625  13.177  72.325  1.00  0.00    -0.581 A  
HETATM   36  H2  UNL     1     -12.572  16.389  69.576  1.00  0.00     0.000 HD 
HETATM   37  C   UNL     1     -13.027  12.193  71.583  1.00  0.00    -0.427 A  
HETATM   38  H1  UNL     1     -13.433  16.765  71.081  1.00  0.00     0.000 HD 
ENDBRANCH   8  30
ENDBRANCH   2   5
TORSDOF 6
ENDMDL
MODEL        4
REMARK 921   NORMALIZED FREE ENERGY PREDICTED BY IDOCK:   -8.03 KCAL/MOL
REMARK 922        TOTAL FREE ENERGY PREDICTED BY IDOCK:  -11.98 KCAL/MOL
REMARK 923 INTER-LIGAND FREE ENERGY PREDICTED BY IDOCK:  -11.25 KCAL/MOL
REMARK 924 INTRA-LIGAND FREE ENERGY PREDICTED BY IDOCK:   -0.72 KCAL/MOL
REMARK 927      BINDING AFFINITY PREDICTED BY RF-SCORE:    0.00 PKD
ROOT
HETATM    1  C   UNL     1     -10.761   7.571  67.121  1.00  0.00    -0.379 C  
HETATM    2  C   UNL     1      -9.995   8.448  68.127  1.00  0.00    -0.224 C  
HETATM    3  C   UNL     1      -8.501   8.432  67.726  1.00  0.00    -0.131 C  
HETATM    4  C   UNL     1     -10.135   7.799  69.523  1.00  0.00    -0.194 C  
ENDROOT
BRANCH   2   5
HETATM    5  C   UNL     1     -10.534   9.889  68.163  1.00  0.00    -0.215 A  
HETATM    6  N   UNL     1     -10.570  10.770  67.178  1.00  0.00    -0.241 NA 
HETATM    7  C   UNL     1     -11.171  11.985  67.589  1.00  0.00    -0.282 A  
HETATM    8  C   UNL     1     -11.529  12.009  68.937  1.00  0.00    -0.301 A  
HETATM    9  S   UNL     1     -11.218  10.458  69.624  1.00  0.00    -0.293 SA 
BRANCH   7  10
HETATM   10  C   UNL     1     -11.367  13.084  66.621  1.00  0.00    -0.366 A  
HETATM   11  C   UNL     1     -10.530  14.218  66.626  1.00  0.00    -0.278 A  
HETATM   12  C   UNL     1     -12.356  13.031  65.621  1.00  0.00    -0.504 A  
HETATM   13  F   UNL     1      -9.584  14.373  67.568  1.00  0.00    -0.204 F  
HETATM   14  C   UNL     1     -12.446  14.007  64.620  1.00  0.00    -0.366 A  
HETATM   15  C   UNL     1     -10.620  15.205  65.627  1.00  0.00    -0.356 A  
HETATM   16  C   UNL     1     -11.573  15.090  64.618  1.00  0.00    -0.386 A  
BRANCH  15  17
HETATM   17  N   UNL     1      -9.684  16.289  65.582  1.00  0.00    -0.249 N  
HETATM   18  H   UNL     1      -8.806  16.185  65.074  1.00  0.00     0.000 HD 
BRANCH  17  19
HETATM   19  S   UNL     1     -10.037  17.742  66.371  1.00  0.00    -0.353 S  
HETATM   20  O   UNL     1     -10.677  17.434  67.633  1.00  0.00    -0.363 OA 
HETATM   21  O   UNL     1     -10.711  18.581  65.404  1.00  0.00    -0.585 OA 
BRANCH  19  22
HETATM   22  C   UNL     1      -8.481  18.488  66.671  1.00  0.00    -0.278 A  
HETATM   23  C   UNL     1      -8.452  19.810  67.097  1.00  0.00    -0.317 A  
HETATM   24  F   UNL     1      -9.568  20.552  67.111  1.00  0.00    -0.505 F  
HETATM   25  C   UNL     1      -7.262  20.396  67.531  1.00  0.00    -0.353 A  
HETATM   26  C   UNL     1      -6.085  19.650  67.540  1.00  0.00    -0.210 A  
HETATM   27  C   UNL     1      -6.107  18.329  67.091  1.00  0.00    -0.176 A  
HETATM   28  C   UNL     1      -7.305  17.752  66.661  1.00  0.00    -0.227 A  
HETATM   29  F   UNL     1      -7.271  16.472  66.274  1.00  0.00    -0.264 F  
ENDBRANCH  19  22
ENDBRANCH  17  19
ENDBRANCH  15  17
ENDBRANCH   7  10
BRANCH   8  30
HETATM   30  C   UNL     1     -12.118  12.997  69.859  1.00  0.00    -0.277 A  
HETATM   31  C   UNL     1     -13.262  13.412  71.791  1.00  0.00    -0.407 A  
HETATM   32  N   UNL     1     -12.701  12.513  70.971  1.00  0.00    -0.291 NA 
HETATM   33  N   UNL     1     -13.871  12.961  72.939  1.00  0.00    -0.593 NA 
HETATM   34  N   UNL     1     -13.230  14.737  71.622  1.00  0.00    -0.326 NA 
HETATM   35  C   UNL     1     -12.614  15.189  70.524  1.00  0.00    -0.380 A  
HETATM   36  H2  UNL     1     -13.895  11.966  73.161  1.00  0.00     0.000 HD 
HETATM   37  C   UNL     1     -12.042  14.357  69.598  1.00  0.00    -0.381 A  
HETATM   38  H1  UNL     1     -14.299  13.646  73.563  1.00  0.00     0.000 HD 
ENDBRANCH   8  30
ENDBRANCH   2   5
TORSDOF 6
ENDMDL
MODEL        5
REMARK 921   NORMALIZED FREE ENERGY PREDICTED BY IDOCK:   -7.98 KCAL/MOL
REMARK 922        TOTAL FREE ENERGY PREDICTED BY IDOCK:  -11.91 KCAL/MOL
REMARK 923 INTER-LIGAND FREE ENERGY PREDICTED BY IDOCK:  -10.46 KCAL/MOL
REMARK 924 INTRA-LIGAND FREE ENERGY PREDICTED BY IDOCK:   -1.45 KCAL/MOL
REMARK 927      BINDING AFFINITY PREDICTED BY RF-SCORE:    0.00 PKD
ROOT
HETATM    1  C   UNL     1     -12.018  15.111  72.690  1.00  0.00    -0.486 C  
HETATM    2  C   UNL     1     -12.880  14.515  71.562  1.00  0.00    -0.407 C  
HETATM    3  C   UNL     1     -14.260  15.212  71.605  1.00  0.00    -0.664 C  
HETATM    4  C   UNL     1     -13.080  13.012  71.864  1.00  0.00    -0.483 C  
ENDROOT
BRANCH   2   5
HETATM    5  C   UNL     1     -12.223  14.690  70.182  1.00  0.00    -0.335 A  
HETATM    6  N   UNL     1     -12.254  13.859  69.154  1.00  0.00    -0.332 NA 
HETATM    7  C   UNL     1     -11.554  14.384  68.040  1.00  0.00    -0.327 A  
HETATM    8  C   UNL     1     -10.941  15.612  68.287  1.00  0.00    -0.315 A  
HETATM    9  S   UNL     1     -11.366  16.138  69.874  1.00  0.00    -0.274 SA 
BRANCH   7  10
HETATM   10  C   UNL     1     -11.520  13.640  66.764  1.00  0.00    -0.370 A  
HETATM   11  C   UNL     1     -10.347  12.989  66.331  1.00  0.00    -0.281 A  
HETATM   12  C   UNL     1     -12.659  13.500  65.950  1.00  0.00    -0.454 A  
HETATM   13  F   UNL     1      -9.201  13.100  67.024  1.00  0.00    -0.200 F  
HETATM   14  C   UNL     1     -12.659  12.678  64.816  1.00  0.00    -0.530 A  
HETATM   15  C   UNL     1     -10.339  12.167  65.188  1.00  0.00    -0.279 A  
HETATM   16  C   UNL     1     -11.501  12.005  64.439  1.00  0.00    -0.413 A  
BRANCH  15  17
HETATM   17  N   UNL     1      -9.169  11.422  64.831  1.00  0.00    -0.395 N  
HETATM   18  H   UNL     1      -8.500  11.808  64.165  1.00  0.00     0.000 HD 
BRANCH  17  19
HETATM   19  S   UNL     1      -8.897   9.900  65.516  1.00  0.00    -0.172 S  
HETATM   20  O   UNL     1      -8.013   9.156  64.642  1.00  0.00    -0.112 OA 
HETATM   21  O   UNL     1     -10.198   9.363  65.854  1.00  0.00    -0.259 OA 
BRANCH  19  22
HETATM   22  C   UNL     1      -8.086  10.221  67.034  1.00  0.00    -0.121 A  
HETATM   23  C   UNL     1      -6.910  10.962  67.013  1.00  0.00    -0.100 A  
HETATM   24  F   UNL     1      -6.315  11.274  65.853  1.00  0.00    -0.113 F  
HETATM   25  C   UNL     1      -6.325  11.408  68.199  1.00  0.00    -0.049 A  
HETATM   26  C   UNL     1      -6.922  11.110  69.422  1.00  0.00    -0.124 A  
HETATM   27  C   UNL     1      -8.090  10.347  69.447  1.00  0.00    -0.161 A  
HETATM   28  C   UNL     1      -8.669   9.908  68.253  1.00  0.00    -0.119 A  
HETATM   29  F   UNL     1      -9.807   9.209  68.338  1.00  0.00    -0.154 F  
ENDBRANCH  19  22
ENDBRANCH  17  19
ENDBRANCH  15  17
ENDBRANCH   7  10
BRANCH   8  30
HETATM   30  C   UNL     1     -10.083  16.539  67.528  1.00  0.00    -0.267 A  
HETATM   31  C   UNL     1      -9.876  18.515  66.403  1.00  0.00    -0.361 A  
HETATM   32  N   UNL     1     -10.650  17.690  67.119  1.00  0.00    -0.316 NA 
HETATM   33  N   UNL     1     -10.415  19.702  65.962  1.00  0.00    -0.520 NA 
HETATM   34  N   UNL     1      -8.584  18.316  66.123  1.00  0.00    -0.488 NA 
HETATM   35  C   UNL     1      -8.040  17.179  66.573  1.00  0.00    -0.283 A  
HETATM   36  H2  UNL     1     -11.382  19.947  66.175  1.00  0.00     0.000 HD 
HETATM   37  C   UNL     1      -8.751  16.245  67.280  1.00  0.00    -0.200 A  
HETATM   38  H1  UNL     1      -9.825  20.331  65.416  1.00  0.00     0.000 HD 
ENDBRANCH   8  30
ENDBRANCH   2   5
TORSDOF 6
ENDMDL
MODEL        6
REMARK 921   NORMALIZED FREE ENERGY PREDICTED BY IDOCK:   -7.98 KCAL/MOL
REMARK 922        TOTAL FREE ENERGY PREDICTED BY IDOCK:  -11.91 KCAL/MOL
REMARK 923 INTER-LIGAND FREE ENERGY PREDICTED BY IDOCK:  -10.78 KCAL/MOL
REMARK 924 INTRA-LIGAND FREE ENERGY PREDICTED BY IDOCK:   -1.13 KCAL/MOL
REMARK 927      BINDING AFFINITY PREDICTED BY RF-SCORE:    0.00 PKD
ROOT
HETATM    1  C   UNL     1      -8.716   7.958  69.964  1.00  0.00    -0.140 C  
HETATM    2  C   UNL     1     -10.228   8.241  69.894  1.00  0.00    -0.201 C  
HETATM    3  C   UNL     1     -10.773   8.252  71.341  1.00  0.00    -0.282 C  
HETATM    4  C   UNL     1     -10.892   7.074  69.128  1.00  0.00    -0.223 C  
ENDROOT
BRANCH   2   5
HETATM    5  C   UNL     1     -10.532   9.573  69.186  1.00  0.00    -0.210 A  
HETATM    6  N   UNL     1     -10.691  10.767  69.730  1.00  0.00    -0.225 NA 
HETATM    7  C   UNL     1     -10.930  11.759  68.747  1.00  0.00    -0.234 A  
HETATM    8  C   UNL     1     -11.009  11.257  67.449  1.00  0.00    -0.282 A  
HETATM    9  S   UNL     1     -10.653   9.570  67.480  1.00  0.00    -0.241 SA 
BRANCH   7  10
HETATM   10  C   UNL     1     -11.073  13.177  69.139  1.00  0.00    -0.248 A  
HETATM   11  C   UNL     1     -10.145  14.148  68.712  1.00  0.00    -0.198 A  
HETATM   12  C   UNL     1     -12.161  13.633  69.906  1.00  0.00    -0.406 A  
HETATM   13  F   UNL     1      -9.055  13.798  68.009  1.00  0.00    -0.163 F  
HETATM   14  C   UNL     1     -12.368  14.996  70.154  1.00  0.00    -0.380 A  
HETATM   15  C   UNL     1     -10.344  15.518  68.964  1.00  0.00    -0.235 A  
HETATM   16  C   UNL     1     -11.464  15.940  69.677  1.00  0.00    -0.346 A  
BRANCH  15  17
HETATM   17  N   UNL     1      -9.452  16.499  68.422  1.00  0.00    -0.217 N  
HETATM   18  H   UNL     1      -8.540  16.655  68.852  1.00  0.00     0.000 HD 
BRANCH  17  19
HETATM   19  S   UNL     1      -9.912  17.400  67.067  1.00  0.00    -0.306 S  
HETATM   20  O   UNL     1     -10.867  18.404  67.488  1.00  0.00    -0.408 OA 
HETATM   21  O   UNL     1     -10.274  16.444  66.042  1.00  0.00    -0.322 OA 
BRANCH  19  22
HETATM   22  C   UNL     1      -8.444  18.181  66.518  1.00  0.00    -0.262 A  
HETATM   23  C   UNL     1      -7.341  17.388  66.230  1.00  0.00    -0.312 A  
HETATM   24  F   UNL     1      -7.337  16.081  66.530  1.00  0.00    -0.249 F  
HETATM   25  C   UNL     1      -6.212  17.929  65.613  1.00  0.00    -0.210 A  
HETATM   26  C   UNL     1      -6.187  19.281  65.278  1.00  0.00    -0.303 A  
HETATM   27  C   UNL     1      -7.284  20.085  65.587  1.00  0.00    -0.330 A  
HETATM   28  C   UNL     1      -8.410  19.532  66.203  1.00  0.00    -0.321 A  
HETATM   29  F   UNL     1      -9.445  20.344  66.443  1.00  0.00    -0.441 F  
ENDBRANCH  19  22
ENDBRANCH  17  19
ENDBRANCH  15  17
ENDBRANCH   7  10
BRANCH   8  30
HETATM   30  C   UNL     1     -11.277  11.817  66.111  1.00  0.00    -0.306 A  
HETATM   31  C   UNL     1     -10.874  11.763  63.865  1.00  0.00    -0.404 A  
HETATM   32  N   UNL     1     -10.652  11.231  65.074  1.00  0.00    -0.299 NA 
HETATM   33  N   UNL     1     -10.253  11.197  62.775  1.00  0.00    -0.695 NA 
HETATM   34  N   UNL     1     -11.709  12.774  63.607  1.00  0.00    -0.484 NA 
HETATM   35  C   UNL     1     -12.342  13.313  64.655  1.00  0.00    -0.391 A  
HETATM   36  H2  UNL     1      -9.637  10.391  62.886  1.00  0.00     0.000 HD 
HETATM   37  C   UNL     1     -12.157  12.875  65.940  1.00  0.00    -0.503 A  
HETATM   38  H1  UNL     1     -10.423  11.602  61.854  1.00  0.00     0.000 HD 
ENDBRANCH   8  30
ENDBRANCH   2   5
TORSDOF 6
ENDMDL
MODEL        7
REMARK 921   NORMALIZED FREE ENERGY PREDICTED BY IDOCK:   -7.96 KCAL/MOL
REMARK 922        TOTAL FREE ENERGY PREDICTED BY IDOCK:  -11.88 KCAL/MOL
REMARK 923 INTER-LIGAND FREE ENERGY PREDICTED BY IDOCK:  -10.70 KCAL/MOL
REMARK 924 INTRA-LIGAND FREE ENERGY PREDICTED BY IDOCK:   -1.18 KCAL/MOL
REMARK 927      BINDING AFFINITY PREDICTED BY RF-SCORE:    0.00 PKD
ROOT
HETATM    1  C   UNL     1     -10.421   7.618  67.563  1.00  0.00    -0.336 C  
HETATM    2  C   UNL     1      -9.807   8.702  68.466  1.00  0.00    -0.183 C  
HETATM    3  C   UNL     1      -8.268   8.579  68.371  1.00  0.00    -0.123 C  
HETATM    4  C   UNL     1     -10.234   8.403  69.922  1.00  0.00    -0.201 C  
ENDROOT
BRANCH   2   5
HETATM    5  C   UNL     1     -10.267  10.115  68.066  1.00  0.00    -0.173 A  
HETATM    6  N   UNL     1     -10.414  11.175  68.842  1.00  0.00    -0.202 NA 
HETATM    7  C   UNL     1     -10.828  12.309  68.100  1.00  0.00    -0.227 A  
HETATM    8  C   UNL     1     -11.048  12.048  66.748  1.00  0.00    -0.305 A  
HETATM    9  S   UNL     1     -10.607  10.414  66.416  1.00  0.00    -0.072 SA 
BRANCH   7  10
HETATM   10  C   UNL     1     -10.991  13.617  68.768  1.00  0.00    -0.292 A  
HETATM   11  C   UNL     1     -10.059  14.656  68.572  1.00  0.00    -0.238 A  
HETATM   12  C   UNL     1     -12.101  13.906  69.583  1.00  0.00    -0.404 A  
HETATM   13  F   UNL     1      -8.949  14.459  67.841  1.00  0.00    -0.166 F  
HETATM   14  C   UNL     1     -12.323  15.189  70.098  1.00  0.00    -0.385 A  
HETATM   15  C   UNL     1     -10.273  15.946  69.093  1.00  0.00    -0.234 A  
HETATM   16  C   UNL     1     -11.414  16.212  69.847  1.00  0.00    -0.286 A  
BRANCH  15  17
HETATM   17  N   UNL     1      -9.375  17.019  68.785  1.00  0.00    -0.266 N  
HETATM   18  H   UNL     1      -8.444  17.040  69.201  1.00  0.00     0.000 HD 
BRANCH  17  19
HETATM   19  S   UNL     1      -9.859  18.249  67.732  1.00  0.00    -0.334 S  
HETATM   20  O   UNL     1     -10.370  19.352  68.519  1.00  0.00    -0.408 OA 
HETATM   21  O   UNL     1     -10.700  17.625  66.731  1.00  0.00    -0.262 OA 
BRANCH  19  22
HETATM   22  C   UNL     1      -8.397  18.745  66.907  1.00  0.00    -0.270 A  
HETATM   23  C   UNL     1      -7.622  17.771  66.289  1.00  0.00    -0.287 A  
HETATM   24  F   UNL     1      -7.886  16.468  66.466  1.00  0.00    -0.232 F  
HETATM   25  C   UNL     1      -6.555  18.123  65.461  1.00  0.00    -0.210 A  
HETATM   26  C   UNL     1      -6.259  19.468  65.247  1.00  0.00    -0.287 A  
HETATM   27  C   UNL     1      -7.021  20.448  65.884  1.00  0.00    -0.267 A  
HETATM   28  C   UNL     1      -8.089  20.083  66.708  1.00  0.00    -0.317 A  
HETATM   29  F   UNL     1      -8.805  21.067  67.265  1.00  0.00    -0.422 F  
ENDBRANCH  19  22
ENDBRANCH  17  19
ENDBRANCH  15  17
ENDBRANCH   7  10
BRANCH   8  30
HETATM   30  C   UNL     1     -11.515  12.821  65.583  1.00  0.00    -0.342 A  
HETATM   31  C   UNL     1     -11.582  14.817  64.475  1.00  0.00    -0.361 A  
HETATM   32  N   UNL     1     -11.129  14.109  65.519  1.00  0.00    -0.302 NA 
HETATM   33  N   UNL     1     -11.214  16.138  64.370  1.00  0.00    -1.018 NA 
HETATM   34  N   UNL     1     -12.322  14.330  63.474  1.00  0.00    -0.672 NA 
HETATM   35  C   UNL     1     -12.659  13.037  63.549  1.00  0.00    -0.169 A  
HETATM   36  H2  UNL     1     -10.612  16.570  65.071  1.00  0.00     0.000 HD 
HETATM   37  C   UNL     1     -12.287  12.232  64.593  1.00  0.00    -0.449 A  
HETATM   38  H1  UNL     1     -11.559  16.677  63.575  1.00  0.00     0.000 HD 
ENDBRANCH   8  30
ENDBRANCH   2   5
TORSDOF 6
ENDMDL
MODEL        8
REMARK 921   NORMALIZED FREE ENERGY PREDICTED BY IDOCK:   -7.95 KCAL/MOL
REMARK 922        TOTAL FREE ENERGY PREDICTED BY IDOCK:  -11.86 KCAL/MOL
REMARK 923 INTER-LIGAND FREE ENERGY PREDICTED BY IDOCK:  -10.92 KCAL/MOL
REMARK 924 INTRA-LIGAND FREE ENERGY PREDICTED BY IDOCK:   -0.94 KCAL/MOL
REMARK 927      BINDING AFFINITY PREDICTED BY RF-SCORE:    0.00 PKD
ROOT
HETATM    1  C   UNL     1      -9.053   6.904  70.440  1.00  0.00    -0.156 C  
HETATM    2  C   UNL     1     -10.430   7.053  69.770  1.00  0.00    -0.235 C  
HETATM    3  C   UNL     1     -11.510   6.836  70.856  1.00  0.00    -0.384 C  
HETATM    4  C   UNL     1     -10.566   5.933  68.713  1.00  0.00    -0.340 C  
ENDROOT
BRANCH   2   5
HETATM    5  C   UNL     1     -10.599   8.428  69.100  1.00  0.00    -0.163 A  
HETATM    6  N   UNL     1     -10.803   9.598  69.682  1.00  0.00    -0.238 NA 
HETATM    7  C   UNL     1     -10.877  10.645  68.731  1.00  0.00    -0.229 A  
HETATM    8  C   UNL     1     -10.785  10.213  67.408  1.00  0.00    -0.277 A  
HETATM    9  S   UNL     1     -10.480   8.516  67.396  1.00  0.00    -0.247 SA 
BRANCH   7  10
HETATM   10  C   UNL     1     -11.039  12.045  69.175  1.00  0.00    -0.272 A  
HETATM   11  C   UNL     1     -10.149  13.052  68.750  1.00  0.00    -0.055 A  
HETATM   12  C   UNL     1     -12.108  12.449  69.995  1.00  0.00    -0.335 A  
HETATM   13  F   UNL     1      -9.077  12.753  67.997  1.00  0.00    -0.176 F  
HETATM   14  C   UNL     1     -12.337  13.798  70.297  1.00  0.00    -0.407 A  
HETATM   15  C   UNL     1     -10.370  14.408  69.056  1.00  0.00    -0.198 A  
HETATM   16  C   UNL     1     -11.473  14.779  69.821  1.00  0.00    -0.330 A  
BRANCH  15  17
HETATM   17  N   UNL     1      -9.521  15.428  68.516  1.00  0.00    -0.196 N  
HETATM   18  H   UNL     1      -8.772  15.823  69.085  1.00  0.00     0.000 HD 
BRANCH  17  19
HETATM   19  S   UNL     1      -9.762  15.978  66.936  1.00  0.00    -0.243 S  
HETATM   20  O   UNL     1     -11.011  15.432  66.447  1.00  0.00    -0.322 OA 
HETATM   21  O   UNL     1      -8.531  15.720  66.219  1.00  0.00    -0.298 OA 
BRANCH  19  22
HETATM   22  C   UNL     1      -9.897  17.719  67.074  1.00  0.00    -0.309 A  
HETATM   23  C   UNL     1      -9.197  18.358  68.090  1.00  0.00    -0.312 A  
HETATM   24  F   UNL     1      -8.576  17.653  69.046  1.00  0.00    -0.246 F  
HETATM   25  C   UNL     1      -9.114  19.751  68.134  1.00  0.00    -0.385 A  
HETATM   26  C   UNL     1      -9.739  20.514  67.150  1.00  0.00    -0.581 A  
HETATM   27  C   UNL     1     -10.461  19.875  66.142  1.00  0.00    -0.581 A  
HETATM   28  C   UNL     1     -10.535  18.480  66.106  1.00  0.00    -0.413 A  
HETATM   29  F   UNL     1     -11.214  17.923  65.096  1.00  0.00    -0.264 F  
ENDBRANCH  19  22
ENDBRANCH  17  19
ENDBRANCH  15  17
ENDBRANCH   7  10
BRANCH   8  30
HETATM   30  C   UNL     1     -10.850  10.848  66.079  1.00  0.00    -0.085 A  
HETATM   31  C   UNL     1     -11.812  12.406  64.715  1.00  0.00    -0.382 A  
HETATM   32  N   UNL     1     -11.735  11.852  65.932  1.00  0.00    -0.437 NA 
HETATM   33  N   UNL     1     -12.705  13.434  64.518  1.00  0.00    -0.659 NA 
HETATM   34  N   UNL     1     -11.043  12.086  63.669  1.00  0.00    -0.420 NA 
HETATM   35  C   UNL     1     -10.150  11.108  63.858  1.00  0.00    -0.348 A  
HETATM   36  H2  UNL     1     -13.295  13.767  65.281  1.00  0.00     0.000 HD 
HETATM   37  C   UNL     1     -10.015  10.445  65.049  1.00  0.00    -0.399 A  
HETATM   38  H1  UNL     1     -12.764  13.856  63.591  1.00  0.00     0.000 HD 
ENDBRANCH   8  30
ENDBRANCH   2   5
TORSDOF 6
ENDMDL
MODEL        9
REMARK 921   NORMALIZED FREE ENERGY PREDICTED BY IDOCK:   -7.94 KCAL/MOL
REMARK 922        TOTAL FREE ENERGY PREDICTED BY IDOCK:  -11.85 KCAL/MOL
REMARK 923 INTER-LIGAND FREE ENERGY PREDICTED BY IDOCK:  -10.87 KCAL/MOL
REMARK 924 INTRA-LIGAND FREE ENERGY PREDICTED BY IDOCK:   -0.98 KCAL/MOL
REMARK 927      BINDING AFFINITY PREDICTED BY RF-SCORE:    0.00 PKD
ROOT
HETATM    1  C   UNL     1      -9.713  20.314  67.904  1.00  0.00    -0.472 C  
HETATM    2  C   UNL     1      -9.680  19.261  66.781  1.00  0.00    -0.413 C  
HETATM    3  C   UNL     1      -8.216  19.134  66.296  1.00  0.00    -0.309 C  
HETATM    4  C   UNL     1     -10.540  19.791  65.611  1.00  0.00    -0.456 C  
ENDROOT
BRANCH   2   5
HETATM    5  C   UNL     1     -10.219  17.899  67.252  1.00  0.00    -0.358 A  
HETATM    6  N   UNL     1     -10.370  16.793  66.544  1.00  0.00    -0.310 NA 
HETATM    7  C   UNL     1     -10.868  15.731  67.338  1.00  0.00    -0.306 A  
HETATM    8  C   UNL     1     -11.146  16.095  68.655  1.00  0.00    -0.356 A  
HETATM    9  S   UNL     1     -10.655  17.730  68.898  1.00  0.00     0.072 SA 
BRANCH   7  10
HETATM   10  C   UNL     1     -11.051  14.387  66.753  1.00  0.00    -0.323 A  
HETATM   11  C   UNL     1     -10.188  13.323  67.086  1.00  0.00    -0.246 A  
HETATM   12  C   UNL     1     -12.117  14.089  65.884  1.00  0.00    -0.448 A  
HETATM   13  F   UNL     1      -9.121  13.523  67.878  1.00  0.00    -0.172 F  
HETATM   14  C   UNL     1     -12.369  12.783  65.446  1.00  0.00    -0.528 A  
HETATM   15  C   UNL     1     -10.431  12.010  66.643  1.00  0.00    -0.215 A  
HETATM   16  C   UNL     1     -11.531  11.741  65.832  1.00  0.00    -0.273 A  
BRANCH  15  17
HETATM   17  N   UNL     1      -9.610  10.923  67.087  1.00  0.00    -0.164 N  
HETATM   18  H   UNL     1      -8.901  10.532  66.468  1.00  0.00     0.000 HD 
BRANCH  17  19
HETATM   19  S   UNL     1      -9.818  10.290  68.641  1.00  0.00    -0.182 S  
HETATM   20  O   UNL     1     -10.953  10.945  69.255  1.00  0.00    -0.212 OA 
HETATM   21  O   UNL     1      -8.520  10.341  69.282  1.00  0.00    -0.147 OA 
BRANCH  19  22
HETATM   22  C   UNL     1     -10.181   8.594  68.397  1.00  0.00    -0.200 A  
HETATM   23  C   UNL     1     -10.522   7.825  69.503  1.00  0.00    -0.225 A  
HETATM   24  F   UNL     1     -10.407   8.317  70.745  1.00  0.00    -0.189 F  
HETATM   25  C   UNL     1     -11.002   6.523  69.349  1.00  0.00    -0.395 A  
HETATM   26  C   UNL     1     -11.144   5.984  68.072  1.00  0.00    -0.233 A  
HETATM   27  C   UNL     1     -10.781   6.746  66.961  1.00  0.00    -0.435 A  
HETATM   28  C   UNL     1     -10.304   8.049  67.128  1.00  0.00    -0.325 A  
HETATM   29  F   UNL     1     -10.003   8.743  66.024  1.00  0.00    -0.338 F  
ENDBRANCH  19  22
ENDBRANCH  17  19
ENDBRANCH  15  17
ENDBRANCH   7  10
BRANCH   8  30
HETATM   30  C   UNL     1     -11.704  15.424  69.844  1.00  0.00    -0.336 A  
HETATM   31  C   UNL     1     -12.128  15.480  72.087  1.00  0.00    -0.423 A  
HETATM   32  N   UNL     1     -11.648  16.105  71.003  1.00  0.00    -0.424 NA 
HETATM   33  N   UNL     1     -12.089  16.138  73.294  1.00  0.00    -0.498 NA 
HETATM   34  N   UNL     1     -12.708  14.276  72.090  1.00  0.00    -0.323 NA 
HETATM   35  C   UNL     1     -12.780  13.639  70.916  1.00  0.00    -0.310 A  
HETATM   36  H2  UNL     1     -11.703  17.080  73.364  1.00  0.00     0.000 HD 
HETATM   37  C   UNL     1     -12.283  14.168  69.754  1.00  0.00    -0.397 A  
HETATM   38  H1  UNL     1     -12.454  15.661  74.119  1.00  0.00     0.000 HD 
ENDBRANCH   8  30
ENDBRANCH   2   5
TORSDOF 6
ENDMDL
MODEL       10
REMARK 921   NORMALIZED FREE ENERGY PREDICTED BY IDOCK:   -7.92 KCAL/MOL
REMARK 922        TOTAL FREE ENERGY PREDICTED BY IDOCK:  -11.83 KCAL/MOL
REMARK 923 INTER-LIGAND FREE ENERGY PREDICTED BY IDOCK:  -11.55 KCAL/MOL
REMARK 924 INTRA-LIGAND FREE ENERGY PREDICTED BY IDOCK:   -0.28 KCAL/MOL
REMARK 927      BINDING AFFINITY PREDICTED BY RF-SCORE:    0.00 PKD
ROOT
HETATM    1  C   UNL     1      -7.926  19.052  66.272  1.00  0.00    -0.302 C  
HETATM    2  C   UNL     1      -9.052  19.023  67.322  1.00  0.00    -0.313 C  
HETATM    3  C   UNL     1     -10.034  20.172  66.993  1.00  0.00    -0.596 C  
HETATM    4  C   UNL     1      -8.416  19.302  68.703  1.00  0.00    -0.403 C  
ENDROOT
BRANCH   2   5
HETATM    5  C   UNL     1      -9.783  17.669  67.345  1.00  0.00    -0.283 A  
HETATM    6  N   UNL     1     -10.320  17.051  68.383  1.00  0.00    -0.329 NA 
HETATM    7  C   UNL     1     -10.935  15.834  68.002  1.00  0.00    -0.330 A  
HETATM    8  C   UNL     1     -10.787  15.526  66.650  1.00  0.00    -0.285 A  
HETATM    9  S   UNL     1      -9.988  16.838  65.865  1.00  0.00    -0.230 SA 
BRANCH   7  10
HETATM   10  C   UNL     1     -11.651  15.015  69.003  1.00  0.00    -0.342 A  
HETATM   11  C   UNL     1     -11.354  13.648  69.174  1.00  0.00    -0.285 A  
HETATM   12  C   UNL     1     -12.619  15.566  69.863  1.00  0.00    -0.168 A  
HETATM   13  F   UNL     1     -10.472  13.028  68.372  1.00  0.00    -0.225 F  
HETATM   14  C   UNL     1     -13.191  14.821  70.903  1.00  0.00    -0.408 A  
HETATM   15  C   UNL     1     -11.931  12.893  70.212  1.00  0.00    -0.283 A  
HETATM   16  C   UNL     1     -12.841  13.487  71.082  1.00  0.00    -0.387 A  
BRANCH  15  17
HETATM   17  N   UNL     1     -11.528  11.537  70.442  1.00  0.00    -0.482 N  
HETATM   18  H   UNL     1     -10.553  11.266  70.318  1.00  0.00     0.000 HD 
BRANCH  17  19
HETATM   19  S   UNL     1     -12.671  10.387  70.919  1.00  0.00    -0.395 S  
HETATM   20  O   UNL     1     -13.659  10.259  69.869  1.00  0.00     0.274 OA 
HETATM   21  O   UNL     1     -13.084  10.750  72.259  1.00  0.00    -0.383 OA 
BRANCH  19  22
HETATM   22  C   UNL     1     -11.777   8.889  71.068  1.00  0.00    -0.289 A  
HETATM   23  C   UNL     1     -12.481   7.721  71.333  1.00  0.00    -0.320 A  
HETATM   24  F   UNL     1     -13.785   7.760  71.643  1.00  0.00    -0.354 F  
HETATM   25  C   UNL     1     -11.851   6.477  71.275  1.00  0.00    -0.385 A  
HETATM   26  C   UNL     1     -10.499   6.399  70.946  1.00  0.00    -0.275 A  
HETATM   27  C   UNL     1      -9.785   7.572  70.701  1.00  0.00    -0.175 A  
HETATM   28  C   UNL     1     -10.426   8.812  70.760  1.00  0.00    -0.219 A  
HETATM   29  F   UNL     1      -9.697   9.899  70.482  1.00  0.00    -0.297 F  
ENDBRANCH  19  22
ENDBRANCH  17  19
ENDBRANCH  15  17
ENDBRANCH   7  10
BRANCH   8  30
HETATM   30  C   UNL     1     -11.169  14.407  65.770  1.00  0.00    -0.326 A  
HETATM   31  C   UNL     1     -10.549  12.870  64.200  1.00  0.00    -0.416 A  
HETATM   32  N   UNL     1     -10.191  13.866  65.021  1.00  0.00    -0.377 NA 
HETATM   33  N   UNL     1      -9.581  12.288  63.414  1.00  0.00    -0.662 NA 
HETATM   34  N   UNL     1     -11.772  12.338  64.117  1.00  0.00    -0.372 NA 
HETATM   35  C   UNL     1     -12.715  12.876  64.900  1.00  0.00    -0.403 A  
HETATM   36  H2  UNL     1      -8.613  12.608  63.455  1.00  0.00     0.000 HD 
HETATM   37  C   UNL     1     -12.469  13.924  65.746  1.00  0.00    -0.530 A  
HETATM   38  H1  UNL     1      -9.854  11.530  62.788  1.00  0.00     0.000 HD 
ENDBRANCH   8  30
ENDBRANCH   2   5
TORSDOF 6
ENDMDL
MODEL       11
REMARK 921   NORMALIZED FREE ENERGY PREDICTED BY IDOCK:   -7.92 KCAL/MOL
REMARK 922        TOTAL FREE ENERGY PREDICTED BY IDOCK:  -11.82 KCAL/MOL
REMARK 923 INTER-LIGAND FREE ENERGY PREDICTED BY IDOCK:  -10.75 KCAL/MOL
REMARK 924 INTRA-LIGAND FREE ENERGY PREDICTED BY IDOCK:   -1.07 KCAL/MOL
REMARK 927      BINDING AFFINITY PREDICTED BY RF-SCORE:    0.00 PKD
ROOT
HETATM    1  C   UNL     1      -9.723   3.633  71.076  1.00  0.00    -0.243 C  
HETATM    2  C   UNL     1      -8.997   4.381  69.943  1.00  0.00    -0.147 C  
HETATM    3  C   UNL     1      -9.332   3.664  68.614  1.00  0.00    -0.228 C  
HETATM    4  C   UNL     1      -7.476   4.261  70.196  1.00  0.00    -0.046 C  
ENDROOT
BRANCH   2   5
HETATM    5  C   UNL     1      -9.402   5.864  69.880  1.00  0.00    -0.150 A  
HETATM    6  N   UNL     1      -8.865   6.825  69.148  1.00  0.00    -0.134 NA 
HETATM    7  C   UNL     1      -9.533   8.059  69.340  1.00  0.00    -0.159 A  
HETATM    8  C   UNL     1     -10.552   8.007  70.290  1.00  0.00    -0.231 A  
HETATM    9  S   UNL     1     -10.731   6.378  70.827  1.00  0.00    -0.265 SA 
BRANCH   7  10
HETATM   10  C   UNL     1      -9.130   9.252  68.566  1.00  0.00    -0.132 A  
HETATM   11  C   UNL     1      -9.911   9.723  67.492  1.00  0.00    -0.184 A  
HETATM   12  C   UNL     1      -7.984  10.002  68.893  1.00  0.00    -0.101 A  
HETATM   13  F   UNL     1     -11.000   9.050  67.085  1.00  0.00    -0.327 F  
HETATM   14  C   UNL     1      -7.685  11.209  68.249  1.00  0.00    -0.116 A  
HETATM   15  C   UNL     1      -9.611  10.932  66.836  1.00  0.00    -0.178 A  
HETATM   16  C   UNL     1      -8.502  11.679  67.226  1.00  0.00    -0.156 A  
BRANCH  15  17
HETATM   17  N   UNL     1     -10.483  11.453  65.826  1.00  0.00    -0.256 N  
HETATM   18  H   UNL     1     -10.303  11.253  64.843  1.00  0.00     0.000 HD 
BRANCH  17  19
HETATM   19  S   UNL     1     -11.812  12.400  66.266  1.00  0.00    -0.294 S  
HETATM   20  O   UNL     1     -12.285  11.954  67.560  1.00  0.00    -0.510 OA 
HETATM   21  O   UNL     1     -12.710  12.401  65.130  1.00  0.00    -0.630 OA 
BRANCH  19  22
HETATM   22  C   UNL     1     -11.187  14.030  66.401  1.00  0.00    -0.319 A  
HETATM   23  C   UNL     1     -11.470  14.755  67.553  1.00  0.00    -0.354 A  
HETATM   24  F   UNL     1     -12.343  14.291  68.459  1.00  0.00    -0.339 F  
HETATM   25  C   UNL     1     -10.846  15.979  67.800  1.00  0.00    -0.324 A  
HETATM   26  C   UNL     1      -9.926  16.485  66.884  1.00  0.00    -0.273 A  
HETATM   27  C   UNL     1      -9.657  15.770  65.716  1.00  0.00    -0.355 A  
HETATM   28  C   UNL     1     -10.285  14.545  65.481  1.00  0.00    -0.370 A  
HETATM   29  F   UNL     1      -9.962  13.889  64.360  1.00  0.00    -0.400 F  
ENDBRANCH  19  22
ENDBRANCH  17  19
ENDBRANCH  15  17
ENDBRANCH   7  10
BRANCH   8  30
HETATM   30  C   UNL     1     -11.493   8.972  70.888  1.00  0.00    -0.291 A  
HETATM   31  C   UNL     1     -13.238   9.359  72.309  1.00  0.00    -0.446 A  
HETATM   32  N   UNL     1     -12.364   8.485  71.791  1.00  0.00    -0.319 NA 
HETATM   33  N   UNL     1     -14.149   8.905  73.234  1.00  0.00    -1.248 NA 
HETATM   34  N   UNL     1     -13.267  10.670  72.049  1.00  0.00    -0.450 NA 
HETATM   35  C   UNL     1     -12.365  11.128  71.173  1.00  0.00    -0.346 A  
HETATM   36  H2  UNL     1     -14.160   7.925  73.519  1.00  0.00     0.000 HD 
HETATM   37  C   UNL     1     -11.453  10.316  70.553  1.00  0.00    -0.427 A  
HETATM   38  H1  UNL     1     -14.815   9.570  73.628  1.00  0.00     0.000 HD 
ENDBRANCH   8  30
ENDBRANCH   2   5
TORSDOF 6
ENDMDL
MODEL       12
REMARK 921   NORMALIZED FREE ENERGY PREDICTED BY IDOCK:   -7.91 KCAL/MOL
REMARK 922        TOTAL FREE ENERGY PREDICTED BY IDOCK:  -11.82 KCAL/MOL
REMARK 923 INTER-LIGAND FREE ENERGY PREDICTED BY IDOCK:  -10.89 KCAL/MOL
REMARK 924 INTRA-LIGAND FREE ENERGY PREDICTED BY IDOCK:   -0.93 KCAL/MOL
REMARK 927      BINDING AFFINITY PREDICTED BY RF-SCORE:    0.00 PKD
ROOT
HETATM    1  C   UNL     1     -12.085   9.857  71.232  1.00  0.00    -0.485 C  
HETATM    2  C   UNL     1     -10.987   8.977  70.608  1.00  0.00    -0.308 C  
HETATM    3  C   UNL     1     -11.515   7.524  70.563  1.00  0.00    -0.259 C  
HETATM    4  C   UNL     1      -9.757   9.023  71.543  1.00  0.00    -0.365 C  
ENDROOT
BRANCH   2   5
HETATM    5  C   UNL     1     -10.593   9.459  69.201  1.00  0.00    -0.218 A  
HETATM    6  N   UNL     1     -11.213  10.344  68.439  1.00  0.00    -0.274 NA 
HETATM    7  C   UNL     1     -10.528  10.548  67.216  1.00  0.00    -0.250 A  
HETATM    8  C   UNL     1      -9.405   9.736  67.057  1.00  0.00    -0.147 A  
HETATM    9  S   UNL     1      -9.164   8.829  68.504  1.00  0.00    -0.141 SA 
BRANCH   7  10
HETATM   10  C   UNL     1     -11.019  11.547  66.245  1.00  0.00    -0.328 A  
HETATM   11  C   UNL     1     -11.247  12.884  66.627  1.00  0.00    -0.304 A  
HETATM   12  C   UNL     1     -11.232  11.230  64.891  1.00  0.00    -0.107 A  
HETATM   13  F   UNL     1     -11.108  13.270  67.907  1.00  0.00    -0.247 F  
HETATM   14  C   UNL     1     -11.561  12.211  63.946  1.00  0.00    -0.532 A  
HETATM   15  C   UNL     1     -11.585  13.873  65.684  1.00  0.00    -0.333 A  
HETATM   16  C   UNL     1     -11.729  13.534  64.341  1.00  0.00    -0.443 A  
BRANCH  15  17
HETATM   17  N   UNL     1     -11.697  15.247  66.072  1.00  0.00    -0.006 N  
HETATM   18  H   UNL     1     -12.424  15.535  66.727  1.00  0.00     0.000 HD 
BRANCH  17  19
HETATM   19  S   UNL     1     -10.624  16.392  65.444  1.00  0.00    -0.239 S  
HETATM   20  O   UNL     1     -11.200  16.947  64.237  1.00  0.00    -1.204 OA 
HETATM   21  O   UNL     1      -9.325  15.754  65.397  1.00  0.00    -0.290 OA 
BRANCH  19  22
HETATM   22  C   UNL     1     -10.517  17.638  66.670  1.00  0.00    -0.286 A  
HETATM   23  C   UNL     1     -10.215  17.261  67.973  1.00  0.00    -0.332 A  
HETATM   24  F   UNL     1     -10.180  15.967  68.323  1.00  0.00    -0.222 F  
HETATM   25  C   UNL     1      -9.931  18.219  68.947  1.00  0.00    -0.361 A  
HETATM   26  C   UNL     1      -9.948  19.572  68.615  1.00  0.00    -0.538 A  
HETATM   27  C   UNL     1     -10.273  19.954  67.313  1.00  0.00    -0.572 A  
HETATM   28  C   UNL     1     -10.553  18.987  66.345  1.00  0.00    -0.409 A  
HETATM   29  F   UNL     1     -10.824  19.412  65.106  1.00  0.00    -0.470 F  
ENDBRANCH  19  22
ENDBRANCH  17  19
ENDBRANCH  15  17
ENDBRANCH   7  10
BRANCH   8  30
HETATM   30  C   UNL     1      -8.401   9.512  66.001  1.00  0.00    -0.119 A  
HETATM   31  C   UNL     1      -6.458  10.167  64.996  1.00  0.00    -0.126 A  
HETATM   32  N   UNL     1      -7.352  10.354  65.977  1.00  0.00    -0.128 NA 
HETATM   33  N   UNL     1      -5.370  11.006  64.931  1.00  0.00    -0.473 NA 
HETATM   34  N   UNL     1      -6.496   9.181  64.094  1.00  0.00    -0.083 NA 
HETATM   35  C   UNL     1      -7.534   8.340  64.167  1.00  0.00    -0.108 A  
HETATM   36  H2  UNL     1      -5.247  11.754  65.614  1.00  0.00     0.000 HD 
HETATM   37  C   UNL     1      -8.527   8.464  65.102  1.00  0.00    -0.179 A  
HETATM   38  H1  UNL     1      -4.690  10.863  64.185  1.00  0.00     0.000 HD 
ENDBRANCH   8  30
ENDBRANCH   2   5
TORSDOF 6
ENDMDL
MODEL       13
REMARK 921   NORMALIZED FREE ENERGY PREDICTED BY IDOCK:   -7.89 KCAL/MOL
REMARK 922        TOTAL FREE ENERGY PREDICTED BY IDOCK:  -11.78 KCAL/MOL
REMARK 923 INTER-LIGAND FREE ENERGY PREDICTED BY IDOCK:  -10.76 KCAL/MOL
REMARK 924 INTRA-LIGAND FREE ENERGY PREDICTED BY IDOCK:   -1.03 KCAL/MOL
REMARK 927      BINDING AFFINITY PREDICTED BY RF-SCORE:    0.00 PKD
ROOT
HETATM    1  C   UNL     1     -10.122   8.450  70.063  1.00  0.00    -0.192 C  
HETATM    2  C   UNL     1      -9.810   8.731  68.582  1.00  0.00    -0.180 C  
HETATM    3  C   UNL     1     -10.542   7.663  67.735  1.00  0.00    -0.265 C  
HETATM    4  C   UNL     1      -8.287   8.558  68.378  1.00  0.00    -0.124 C  
ENDROOT
BRANCH   2   5
HETATM    5  C   UNL     1     -10.238  10.148  68.162  1.00  0.00    -0.171 A  
HETATM    6  N   UNL     1     -10.328  11.229  68.917  1.00  0.00    -0.205 NA 
HETATM    7  C   UNL     1     -10.728  12.358  68.161  1.00  0.00    -0.221 A  
HETATM    8  C   UNL     1     -10.999  12.075  66.823  1.00  0.00    -0.285 A  
HETATM    9  S   UNL     1     -10.619  10.421  66.516  1.00  0.00    -0.101 SA 
BRANCH   7  10
HETATM   10  C   UNL     1     -10.829  13.686  68.803  1.00  0.00    -0.279 A  
HETATM   11  C   UNL     1      -9.872  14.690  68.556  1.00  0.00    -0.228 A  
HETATM   12  C   UNL     1     -11.905  14.029  69.643  1.00  0.00    -0.386 A  
HETATM   13  F   UNL     1      -8.790  14.440  67.798  1.00  0.00    -0.163 F  
HETATM   14  C   UNL     1     -12.071  15.331  70.134  1.00  0.00    -0.394 A  
HETATM   15  C   UNL     1     -10.029  15.997  69.052  1.00  0.00    -0.242 A  
HETATM   16  C   UNL     1     -11.138  16.317  69.832  1.00  0.00    -0.347 A  
BRANCH  15  17
HETATM   17  N   UNL     1      -9.107  17.033  68.693  1.00  0.00    -0.268 N  
HETATM   18  H   UNL     1      -8.122  16.949  68.945  1.00  0.00     0.000 HD 
BRANCH  17  19
HETATM   19  S   UNL     1      -9.652  18.394  67.852  1.00  0.00    -0.304 S  
HETATM   20  O   UNL     1      -9.889  19.457  68.805  1.00  0.00    -0.413 OA 
HETATM   21  O   UNL     1     -10.725  17.942  66.991  1.00  0.00    -0.319 OA 
BRANCH  19  22
HETATM   22  C   UNL     1      -8.327  18.838  66.796  1.00  0.00    -0.281 A  
HETATM   23  C   UNL     1      -7.942  20.173  66.743  1.00  0.00    -0.302 A  
HETATM   24  F   UNL     1      -8.672  21.123  67.344  1.00  0.00    -0.384 F  
HETATM   25  C   UNL     1      -6.781  20.556  66.070  1.00  0.00    -0.270 A  
HETATM   26  C   UNL     1      -5.993  19.592  65.443  1.00  0.00    -0.230 A  
HETATM   27  C   UNL     1      -6.389  18.256  65.476  1.00  0.00    -0.285 A  
HETATM   28  C   UNL     1      -7.553  17.883  66.154  1.00  0.00    -0.260 A  
HETATM   29  F   UNL     1      -7.864  16.582  66.180  1.00  0.00    -0.315 F  
ENDBRANCH  19  22
ENDBRANCH  17  19
ENDBRANCH  15  17
ENDBRANCH   7  10
BRANCH   8  30
HETATM   30  C   UNL     1     -11.477  12.836  65.655  1.00  0.00    -0.342 A  
HETATM   31  C   UNL     1     -11.586  14.829  64.546  1.00  0.00    -0.361 A  
HETATM   32  N   UNL     1     -11.123  14.133  65.593  1.00  0.00    -0.301 NA 
HETATM   33  N   UNL     1     -11.251  16.159  64.443  1.00  0.00    -1.018 NA 
HETATM   34  N   UNL     1     -12.307  14.324  63.540  1.00  0.00    -0.672 NA 
HETATM   35  C   UNL     1     -12.612  13.023  63.613  1.00  0.00    -0.194 A  
HETATM   36  H2  UNL     1     -10.665  16.606  65.148  1.00  0.00     0.000 HD 
HETATM   37  C   UNL     1     -12.227  12.228  64.660  1.00  0.00    -0.454 A  
HETATM   38  H1  UNL     1     -11.604  16.689  63.646  1.00  0.00     0.000 HD 
ENDBRANCH   8  30
ENDBRANCH   2   5
TORSDOF 6
ENDMDL
MODEL       14
REMARK 921   NORMALIZED FREE ENERGY PREDICTED BY IDOCK:   -7.86 KCAL/MOL
REMARK 922        TOTAL FREE ENERGY PREDICTED BY IDOCK:  -11.74 KCAL/MOL
REMARK 923 INTER-LIGAND FREE ENERGY PREDICTED BY IDOCK:  -10.78 KCAL/MOL
REMARK 924 INTRA-LIGAND FREE ENERGY PREDICTED BY IDOCK:   -0.96 KCAL/MOL
REMARK 927      BINDING AFFINITY PREDICTED BY RF-SCORE:    0.00 PKD
ROOT
HETATM    1  C   UNL     1      -8.000  19.277  68.656  1.00  0.00    -0.405 C  
HETATM    2  C   UNL     1      -8.953  19.124  67.457  1.00  0.00    -0.332 C  
HETATM    3  C   UNL     1      -8.106  19.223  66.166  1.00  0.00    -0.294 C  
HETATM    4  C   UNL     1      -9.944  20.311  67.486  1.00  0.00    -0.557 C  
ENDROOT
BRANCH   2   5
HETATM    5  C   UNL     1      -9.727  17.795  67.502  1.00  0.00    -0.284 A  
HETATM    6  N   UNL     1     -10.300  17.220  68.546  1.00  0.00    -0.349 NA 
HETATM    7  C   UNL     1     -10.946  16.013  68.184  1.00  0.00    -0.339 A  
HETATM    8  C   UNL     1     -10.784  15.666  66.843  1.00  0.00    -0.307 A  
HETATM    9  S   UNL     1      -9.932  16.932  66.039  1.00  0.00    -0.259 SA 
BRANCH   7  10
HETATM   10  C   UNL     1     -11.704  15.243  69.193  1.00  0.00    -0.355 A  
HETATM   11  C   UNL     1     -11.375  13.904  69.486  1.00  0.00    -0.237 A  
HETATM   12  C   UNL     1     -12.747  15.817  69.941  1.00  0.00     0.125 A  
HETATM   13  F   UNL     1     -10.418  13.262  68.795  1.00  0.00    -0.231 F  
HETATM   14  C   UNL     1     -13.367  15.129  70.993  1.00  0.00    -0.504 A  
HETATM   15  C   UNL     1     -11.998  13.205  70.536  1.00  0.00    -0.222 A  
HETATM   16  C   UNL     1     -12.987  13.825  71.296  1.00  0.00    -0.409 A  
BRANCH  15  17
HETATM   17  N   UNL     1     -11.568  11.886  70.895  1.00  0.00    -0.027 N  
HETATM   18  H   UNL     1     -10.823  11.760  71.580  1.00  0.00     0.000 HD 
BRANCH  17  19
HETATM   19  S   UNL     1     -12.297  10.538  70.181  1.00  0.00    -0.215 S  
HETATM   20  O   UNL     1     -12.306  10.728  68.746  1.00  0.00    -0.435 OA 
HETATM   21  O   UNL     1     -13.541  10.321  70.890  1.00  0.00    -0.221 OA 
BRANCH  19  22
HETATM   22  C   UNL     1     -11.256   9.189  70.587  1.00  0.00    -0.270 A  
HETATM   23  C   UNL     1      -9.880   9.374  70.530  1.00  0.00    -0.270 A  
HETATM   24  F   UNL     1      -9.358  10.494  70.010  1.00  0.00    -0.132 F  
HETATM   25  C   UNL     1      -9.007   8.402  71.020  1.00  0.00    -0.199 A  
HETATM   26  C   UNL     1      -9.516   7.230  71.577  1.00  0.00    -0.160 A  
HETATM   27  C   UNL     1     -10.896   7.032  71.615  1.00  0.00    -0.249 A  
HETATM   28  C   UNL     1     -11.761   8.013  71.123  1.00  0.00    -0.284 A  
HETATM   29  F   UNL     1     -13.076   7.782  71.218  1.00  0.00    -0.333 F  
ENDBRANCH  19  22
ENDBRANCH  17  19
ENDBRANCH  15  17
ENDBRANCH   7  10
BRANCH   8  30
HETATM   30  C   UNL     1     -11.186  14.537  65.985  1.00  0.00    -0.337 A  
HETATM   31  C   UNL     1     -10.601  12.981  64.420  1.00  0.00    -0.409 A  
HETATM   32  N   UNL     1     -10.224  13.986  65.222  1.00  0.00    -0.360 NA 
HETATM   33  N   UNL     1      -9.651  12.389  63.620  1.00  0.00    -0.667 NA 
HETATM   34  N   UNL     1     -11.826  12.449  64.371  1.00  0.00    -0.367 NA 
HETATM   35  C   UNL     1     -12.751  12.996  65.168  1.00  0.00    -0.397 A  
HETATM   36  H2  UNL     1      -8.682  12.709  63.636  1.00  0.00     0.000 HD 
HETATM   37  C   UNL     1     -12.486  14.055  65.996  1.00  0.00    -0.489 A  
HETATM   38  H1  UNL     1      -9.938  11.623  63.010  1.00  0.00     0.000 HD 
ENDBRANCH   8  30
ENDBRANCH   2   5
TORSDOF 6
ENDMDL
MODEL       15
REMARK 921   NORMALIZED FREE ENERGY PREDICTED BY IDOCK:   -7.84 KCAL/MOL
REMARK 922        TOTAL FREE ENERGY PREDICTED BY IDOCK:  -11.71 KCAL/MOL
REMARK 923 INTER-LIGAND FREE ENERGY PREDICTED BY IDOCK:  -10.58 KCAL/MOL
REMARK 924 INTRA-LIGAND FREE ENERGY PREDICTED BY IDOCK:   -1.13 KCAL/MOL
REMARK 927      BINDING AFFINITY PREDICTED BY RF-SCORE:    0.00 PKD
ROOT
HETATM    1  C   UNL     1      -9.903   4.271  67.405  1.00  0.00    -0.176 C  
HETATM    2  C   UNL     1      -9.250   4.820  68.686  1.00  0.00    -0.168 C  
HETATM    3  C   UNL     1      -7.721   4.621  68.559  1.00  0.00    -0.076 C  
HETATM    4  C   UNL     1      -9.758   3.973  69.876  1.00  0.00    -0.263 C  
ENDROOT
BRANCH   2   5
HETATM    5  C   UNL     1      -9.591   6.303  68.916  1.00  0.00    -0.126 A  
HETATM    6  N   UNL     1      -8.988   7.365  68.410  1.00  0.00    -0.134 NA 
HETATM    7  C   UNL     1      -9.610   8.566  68.831  1.00  0.00    -0.160 A  
HETATM    8  C   UNL     1     -10.665   8.371  69.723  1.00  0.00    -0.211 A  
HETATM    9  S   UNL     1     -10.931   6.678  69.911  1.00  0.00    -0.350 SA 
BRANCH   7  10
HETATM   10  C   UNL     1      -9.130   9.870  68.329  1.00  0.00    -0.122 A  
HETATM   11  C   UNL     1      -9.614  10.408  67.120  1.00  0.00    -0.164 A  
HETATM   12  C   UNL     1      -8.213  10.656  69.051  1.00  0.00    -0.151 A  
HETATM   13  F   UNL     1     -10.462   9.711  66.344  1.00  0.00    -0.308 F  
HETATM   14  C   UNL     1      -7.870  11.951  68.642  1.00  0.00    -0.104 A  
HETATM   15  C   UNL     1      -9.267  11.706  66.699  1.00  0.00    -0.191 A  
HETATM   16  C   UNL     1      -8.403  12.480  67.470  1.00  0.00    -0.175 A  
BRANCH  15  17
HETATM   17  N   UNL     1      -9.861  12.280  65.529  1.00  0.00    -0.316 N  
HETATM   18  H   UNL     1      -9.393  12.199  64.626  1.00  0.00     0.000 HD 
BRANCH  17  19
HETATM   19  S   UNL     1     -11.340  13.092  65.645  1.00  0.00    -0.312 S  
HETATM   20  O   UNL     1     -12.280  12.235  66.335  1.00  0.00    -0.613 OA 
HETATM   21  O   UNL     1     -11.646  13.578  64.315  1.00  0.00    -0.378 OA 
BRANCH  19  22
HETATM   22  C   UNL     1     -11.008  14.506  66.622  1.00  0.00    -0.321 A  
HETATM   23  C   UNL     1     -10.315  15.563  66.044  1.00  0.00    -0.326 A  
HETATM   24  F   UNL     1      -9.760  15.438  64.830  1.00  0.00    -0.238 F  
HETATM   25  C   UNL     1     -10.188  16.784  66.709  1.00  0.00    -0.304 A  
HETATM   26  C   UNL     1     -10.762  16.951  67.967  1.00  0.00    -0.364 A  
HETATM   27  C   UNL     1     -11.439  15.885  68.559  1.00  0.00    -0.377 A  
HETATM   28  C   UNL     1     -11.562  14.668  67.884  1.00  0.00    -0.348 A  
HETATM   29  F   UNL     1     -12.252  13.693  68.487  1.00  0.00    -0.388 F  
ENDBRANCH  19  22
ENDBRANCH  17  19
ENDBRANCH  15  17
ENDBRANCH   7  10
BRANCH   8  30
HETATM   30  C   UNL     1     -11.586   9.239  70.479  1.00  0.00    -0.217 A  
HETATM   31  C   UNL     1     -13.159   9.439  72.122  1.00  0.00    -0.442 A  
HETATM   32  N   UNL     1     -12.300   8.654  71.458  1.00  0.00    -0.314 NA 
HETATM   33  N   UNL     1     -13.911   8.882  73.130  1.00  0.00    -1.215 NA 
HETATM   34  N   UNL     1     -13.310  10.753  71.931  1.00  0.00    -0.403 NA 
HETATM   35  C   UNL     1     -12.561  11.312  70.974  1.00  0.00    -0.394 A  
HETATM   36  H2  UNL     1     -13.818   7.894  73.367  1.00  0.00     0.000 HD 
HETATM   37  C   UNL     1     -11.681  10.595  70.206  1.00  0.00    -0.433 A  
HETATM   38  H1  UNL     1     -14.565   9.480  73.636  1.00  0.00     0.000 HD 
ENDBRANCH   8  30
ENDBRANCH   2   5
TORSDOF 6
ENDMDL
MODEL       16
REMARK 921   NORMALIZED FREE ENERGY PREDICTED BY IDOCK:   -7.83 KCAL/MOL
REMARK 922        TOTAL FREE ENERGY PREDICTED BY IDOCK:  -11.71 KCAL/MOL
REMARK 923 INTER-LIGAND FREE ENERGY PREDICTED BY IDOCK:  -10.11 KCAL/MOL
REMARK 924 INTRA-LIGAND FREE ENERGY PREDICTED BY IDOCK:   -1.60 KCAL/MOL
REMARK 927      BINDING AFFINITY PREDICTED BY RF-SCORE:    0.00 PKD
ROOT
HETATM    1  C   UNL     1      -8.296  18.897  67.352  1.00  0.00    -0.294 C  
HETATM    2  C   UNL     1      -9.801  18.844  67.669  1.00  0.00    -0.383 C  
HETATM    3  C   UNL     1     -10.540  19.674  66.592  1.00  0.00    -0.599 C  
HETATM    4  C   UNL     1     -10.019  19.519  69.043  1.00  0.00    -0.490 C  
ENDROOT
BRANCH   2   5
HETATM    5  C   UNL     1     -10.333  17.401  67.704  1.00  0.00    -0.355 A  
HETATM    6  N   UNL     1     -10.520  16.576  66.688  1.00  0.00    -0.290 NA 
HETATM    7  C   UNL     1     -10.996  15.315  67.124  1.00  0.00    -0.331 A  
HETATM    8  C   UNL     1     -11.220  15.241  68.498  1.00  0.00    -0.303 A  
HETATM    9  S   UNL     1     -10.706  16.716  69.227  1.00  0.00    -0.315 SA 
BRANCH   7  10
HETATM   10  C   UNL     1     -11.213  14.224  66.150  1.00  0.00    -0.331 A  
HETATM   11  C   UNL     1     -10.168  13.349  65.792  1.00  0.00    -0.295 A  
HETATM   12  C   UNL     1     -12.473  13.975  65.577  1.00  0.00    -0.533 A  
HETATM   13  F   UNL     1      -8.922  13.533  66.260  1.00  0.00    -0.183 F  
HETATM   14  C   UNL     1     -12.707  12.856  64.767  1.00  0.00    -0.442 A  
HETATM   15  C   UNL     1     -10.395  12.227  64.972  1.00  0.00    -0.291 A  
HETATM   16  C   UNL     1     -11.669  11.978  64.471  1.00  0.00    -0.380 A  
BRANCH  15  17
HETATM   17  N   UNL     1      -9.347  11.284  64.716  1.00  0.00    -0.338 N  
HETATM   18  H   UNL     1      -8.777  11.370  63.875  1.00  0.00     0.000 HD 
BRANCH  17  19
HETATM   19  S   UNL     1      -9.057  10.027  65.809  1.00  0.00    -0.176 S  
HETATM   20  O   UNL     1      -8.605   8.869  65.066  1.00  0.00    -0.168 OA 
HETATM   21  O   UNL     1     -10.233   9.934  66.649  1.00  0.00    -0.223 OA 
BRANCH  19  22
HETATM   22  C   UNL     1      -7.762  10.606  66.836  1.00  0.00    -0.122 A  
HETATM   23  C   UNL     1      -6.554  10.956  66.245  1.00  0.00    -0.126 A  
HETATM   24  F   UNL     1      -6.321  10.694  64.951  1.00  0.00    -0.125 F  
HETATM   25  C   UNL     1      -5.557  11.597  66.981  1.00  0.00    -0.124 A  
HETATM   26  C   UNL     1      -5.770  11.894  68.326  1.00  0.00    -0.050 A  
HETATM   27  C   UNL     1      -6.973  11.524  68.927  1.00  0.00    -0.100 A  
HETATM   28  C   UNL     1      -7.965  10.884  68.180  1.00  0.00    -0.117 A  
HETATM   29  F   UNL     1      -9.111  10.584  68.802  1.00  0.00    -0.134 F  
ENDBRANCH  19  22
ENDBRANCH  17  19
ENDBRANCH  15  17
ENDBRANCH   7  10
BRANCH   8  30
HETATM   30  C   UNL     1     -11.737  14.225  69.433  1.00  0.00    -0.316 A  
HETATM   31  C   UNL     1     -12.819  13.755  71.388  1.00  0.00    -0.369 A  
HETATM   32  N   UNL     1     -12.378  14.681  70.525  1.00  0.00    -0.316 NA 
HETATM   33  N   UNL     1     -13.478  14.176  72.520  1.00  0.00    -0.496 NA 
HETATM   34  N   UNL     1     -12.728  12.433  71.217  1.00  0.00    -0.320 NA 
HETATM   35  C   UNL     1     -12.116  12.012  70.104  1.00  0.00    -0.298 A  
HETATM   36  H2  UNL     1     -13.628  15.169  72.699  1.00  0.00     0.000 HD 
HETATM   37  C   UNL     1     -11.591  12.871  69.175  1.00  0.00    -0.375 A  
HETATM   38  H1  UNL     1     -13.814  13.471  73.177  1.00  0.00     0.000 HD 
ENDBRANCH   8  30
ENDBRANCH   2   5
TORSDOF 6
ENDMDL
MODEL       17
REMARK 921   NORMALIZED FREE ENERGY PREDICTED BY IDOCK:   -7.81 KCAL/MOL
REMARK 922        TOTAL FREE ENERGY PREDICTED BY IDOCK:  -11.68 KCAL/MOL
REMARK 923 INTER-LIGAND FREE ENERGY PREDICTED BY IDOCK:  -11.65 KCAL/MOL
REMARK 924 INTRA-LIGAND FREE ENERGY PREDICTED BY IDOCK:   -0.03 KCAL/MOL
REMARK 927      BINDING AFFINITY PREDICTED BY RF-SCORE:    0.00 PKD
ROOT
HETATM    1  C   UNL     1      -7.762  18.316  68.530  1.00  0.00    -0.319 C  
HETATM    2  C   UNL     1      -9.150  18.470  67.882  1.00  0.00    -0.306 C  
HETATM    3  C   UNL     1      -8.955  19.154  66.508  1.00  0.00    -0.359 C  
HETATM    4  C   UNL     1      -9.991  19.405  68.780  1.00  0.00    -0.522 C  
ENDROOT
BRANCH   2   5
HETATM    5  C   UNL     1      -9.864  17.116  67.720  1.00  0.00    -0.274 A  
HETATM    6  N   UNL     1     -10.327  16.321  68.669  1.00  0.00    -0.249 NA 
HETATM    7  C   UNL     1     -10.952  15.172  68.126  1.00  0.00    -0.287 A  
HETATM    8  C   UNL     1     -10.888  15.101  66.735  1.00  0.00    -0.322 A  
HETATM    9  S   UNL     1     -10.155  16.542  66.135  1.00  0.00    -0.358 SA 
BRANCH   7  10
HETATM   10  C   UNL     1     -11.593  14.182  69.016  1.00  0.00    -0.342 A  
HETATM   11  C   UNL     1     -11.527  12.802  68.738  1.00  0.00    -0.304 A  
HETATM   12  C   UNL     1     -12.251  14.559  70.201  1.00  0.00    -0.399 A  
HETATM   13  F   UNL     1     -10.953  12.352  67.609  1.00  0.00    -0.223 F  
HETATM   14  C   UNL     1     -12.732  13.609  71.112  1.00  0.00    -0.432 A  
HETATM   15  C   UNL     1     -12.015  11.843  69.645  1.00  0.00    -0.298 A  
HETATM   16  C   UNL     1     -12.607  12.251  70.838  1.00  0.00    -0.334 A  
BRANCH  15  17
HETATM   17  N   UNL     1     -11.833  10.443  69.400  1.00  0.00    -0.484 N  
HETATM   18  H   UNL     1     -12.540   9.919  68.884  1.00  0.00     0.000 HD 
BRANCH  17  19
HETATM   19  S   UNL     1     -10.446   9.661  69.965  1.00  0.00    -0.281 S  
HETATM   20  O   UNL     1     -10.616   9.390  71.377  1.00  0.00    -0.331 OA 
HETATM   21  O   UNL     1      -9.317  10.447  69.511  1.00  0.00    -0.198 OA 
BRANCH  19  22
HETATM   22  C   UNL     1     -10.382   8.150  69.082  1.00  0.00    -0.220 A  
HETATM   23  C   UNL     1     -10.411   6.961  69.801  1.00  0.00    -0.217 A  
HETATM   24  F   UNL     1     -10.314   6.964  71.138  1.00  0.00    -0.206 F  
HETATM   25  C   UNL     1     -10.553   5.735  69.150  1.00  0.00    -0.365 A  
HETATM   26  C   UNL     1     -10.668   5.696  67.762  1.00  0.00    -0.250 A  
HETATM   27  C   UNL     1     -10.616   6.886  67.036  1.00  0.00    -0.403 A  
HETATM   28  C   UNL     1     -10.476   8.109  67.699  1.00  0.00    -0.231 A  
HETATM   29  F   UNL     1     -10.467   9.219  66.952  1.00  0.00    -0.294 F  
ENDBRANCH  19  22
ENDBRANCH  17  19
ENDBRANCH  15  17
ENDBRANCH   7  10
BRANCH   8  30
HETATM   30  C   UNL     1     -11.314  14.138  65.703  1.00  0.00    -0.319 A  
HETATM   31  C   UNL     1     -10.734  12.717  64.012  1.00  0.00    -0.426 A  
HETATM   32  N   UNL     1     -10.340  13.568  64.969  1.00  0.00    -0.360 NA 
HETATM   33  N   UNL     1      -9.773  12.113  63.236  1.00  0.00    -0.632 NA 
HETATM   34  N   UNL     1     -11.997  12.348  63.778  1.00  0.00    -0.468 NA 
HETATM   35  C   UNL     1     -12.939  12.906  64.547  1.00  0.00    -0.085 A  
HETATM   36  H2  UNL     1      -8.782  12.308  63.385  1.00  0.00     0.000 HD 
HETATM   37  C   UNL     1     -12.652  13.820  65.527  1.00  0.00    -0.551 A  
HETATM   38  H1  UNL     1     -10.073  11.465  62.507  1.00  0.00     0.000 HD 
ENDBRANCH   8  30
ENDBRANCH   2   5
TORSDOF 6
ENDMDL
MODEL       18
REMARK 921   NORMALIZED FREE ENERGY PREDICTED BY IDOCK:   -7.80 KCAL/MOL
REMARK 922        TOTAL FREE ENERGY PREDICTED BY IDOCK:  -11.66 KCAL/MOL
REMARK 923 INTER-LIGAND FREE ENERGY PREDICTED BY IDOCK:  -11.16 KCAL/MOL
REMARK 924 INTRA-LIGAND FREE ENERGY PREDICTED BY IDOCK:   -0.50 KCAL/MOL
REMARK 927      BINDING AFFINITY PREDICTED BY RF-SCORE:    0.00 PKD
ROOT
HETATM    1  C   UNL     1     -12.787  11.733  71.548  1.00  0.00    -0.450 C  
HETATM    2  C   UNL     1     -12.384  10.494  70.728  1.00  0.00    -0.474 C  
HETATM    3  C   UNL     1     -13.614   9.558  70.654  1.00  0.00     0.206 C  
HETATM    4  C   UNL     1     -11.258   9.764  71.496  1.00  0.00    -0.291 C  
ENDROOT
BRANCH   2   5
HETATM    5  C   UNL     1     -11.899  10.869  69.317  1.00  0.00    -0.324 A  
HETATM    6  N   UNL     1     -12.125  11.987  68.648  1.00  0.00    -0.328 NA 
HETATM    7  C   UNL     1     -11.483  11.975  67.386  1.00  0.00    -0.336 A  
HETATM    8  C   UNL     1     -10.818  10.783  67.102  1.00  0.00    -0.277 A  
HETATM    9  S   UNL     1     -10.908   9.753  68.482  1.00  0.00    -0.149 SA 
BRANCH   7  10
HETATM   10  C   UNL     1     -11.557  13.157  66.502  1.00  0.00    -0.402 A  
HETATM   11  C   UNL     1     -10.663  14.237  66.652  1.00  0.00    -0.290 A  
HETATM   12  C   UNL     1     -12.479  13.241  65.443  1.00  0.00    -0.543 A  
HETATM   13  F   UNL     1      -9.774  14.261  67.660  1.00  0.00    -0.209 F  
HETATM   14  C   UNL     1     -12.451  14.297  64.522  1.00  0.00    -0.357 A  
HETATM   15  C   UNL     1     -10.635  15.304  65.735  1.00  0.00    -0.347 A  
HETATM   16  C   UNL     1     -11.524  15.325  64.664  1.00  0.00    -0.356 A  
BRANCH  15  17
HETATM   17  N   UNL     1      -9.642  16.331  65.838  1.00  0.00    -0.323 N  
HETATM   18  H   UNL     1      -8.676  16.137  65.574  1.00  0.00     0.000 HD 
BRANCH  17  19
HETATM   19  S   UNL     1     -10.072  17.868  66.397  1.00  0.00    -0.365 S  
HETATM   20  O   UNL     1     -10.766  17.718  67.659  1.00  0.00    -0.386 OA 
HETATM   21  O   UNL     1     -10.719  18.541  65.291  1.00  0.00    -0.578 OA 
BRANCH  19  22
HETATM   22  C   UNL     1      -8.553  18.700  66.659  1.00  0.00    -0.297 A  
HETATM   23  C   UNL     1      -8.587  20.003  67.140  1.00  0.00    -0.335 A  
HETATM   24  F   UNL     1      -9.746  20.671  67.235  1.00  0.00    -0.548 F  
HETATM   25  C   UNL     1      -7.417  20.647  67.545  1.00  0.00    -0.353 A  
HETATM   26  C   UNL     1      -6.197  19.978  67.471  1.00  0.00    -0.227 A  
HETATM   27  C   UNL     1      -6.157  18.678  66.968  1.00  0.00    -0.177 A  
HETATM   28  C   UNL     1      -7.335  18.042  66.567  1.00  0.00    -0.238 A  
HETATM   29  F   UNL     1      -7.239  16.783  66.125  1.00  0.00    -0.285 F  
ENDBRANCH  19  22
ENDBRANCH  17  19
ENDBRANCH  15  17
ENDBRANCH   7  10
BRANCH   8  30
HETATM   30  C   UNL     1     -10.060  10.238  65.961  1.00  0.00    -0.244 A  
HETATM   31  C   UNL     1      -9.622  10.282  63.720  1.00  0.00    -0.284 A  
HETATM   32  N   UNL     1     -10.290  10.801  64.760  1.00  0.00    -0.327 NA 
HETATM   33  N   UNL     1      -9.828  10.825  62.473  1.00  0.00    -0.667 NA 
HETATM   34  N   UNL     1      -8.711   9.308  63.795  1.00  0.00    -0.198 NA 
HETATM   35  C   UNL     1      -8.480   8.793  65.009  1.00  0.00    -0.175 A  
HETATM   36  H2  UNL     1     -10.475  11.603  62.342  1.00  0.00     0.000 HD 
HETATM   37  C   UNL     1      -9.136   9.219  66.133  1.00  0.00    -0.224 A  
HETATM   38  H1  UNL     1      -9.320  10.430  61.681  1.00  0.00     0.000 HD 
ENDBRANCH   8  30
ENDBRANCH   2   5
TORSDOF 6
ENDMDL
MODEL       19
REMARK 921   NORMALIZED FREE ENERGY PREDICTED BY IDOCK:   -7.79 KCAL/MOL
REMARK 922        TOTAL FREE ENERGY PREDICTED BY IDOCK:  -11.65 KCAL/MOL
REMARK 923 INTER-LIGAND FREE ENERGY PREDICTED BY IDOCK:  -10.86 KCAL/MOL
REMARK 924 INTRA-LIGAND FREE ENERGY PREDICTED BY IDOCK:   -0.79 KCAL/MOL
REMARK 927      BINDING AFFINITY PREDICTED BY RF-SCORE:    0.00 PKD
ROOT
HETATM    1  C   UNL     1      -9.412  18.415  68.368  1.00  0.00    -0.352 C  
HETATM    2  C   UNL     1      -8.557  17.268  67.799  1.00  0.00    -0.225 C  
HETATM    3  C   UNL     1      -7.402  17.003  68.794  1.00  0.00    -0.236 C  
HETATM    4  C   UNL     1      -7.951  17.748  66.461  1.00  0.00    -0.299 C  
ENDROOT
BRANCH   2   5
HETATM    5  C   UNL     1      -9.384  15.991  67.572  1.00  0.00    -0.217 A  
HETATM    6  N   UNL     1      -9.831  15.137  68.477  1.00  0.00    -0.214 NA 
HETATM    7  C   UNL     1     -10.584  14.095  67.882  1.00  0.00    -0.243 A  
HETATM    8  C   UNL     1     -10.635  14.161  66.490  1.00  0.00    -0.282 A  
HETATM    9  S   UNL     1      -9.842  15.601  65.970  1.00  0.00    -0.361 SA 
BRANCH   7  10
HETATM   10  C   UNL     1     -11.228  13.066  68.725  1.00  0.00    -0.325 A  
HETATM   11  C   UNL     1     -11.041  11.693  68.470  1.00  0.00    -0.235 A  
HETATM   12  C   UNL     1     -12.010  13.402  69.845  1.00  0.00    -0.408 A  
HETATM   13  F   UNL     1     -10.341  11.279  67.399  1.00  0.00    -0.202 F  
HETATM   14  C   UNL     1     -12.500  12.425  70.722  1.00  0.00    -0.356 A  
HETATM   15  C   UNL     1     -11.537  10.707  69.342  1.00  0.00    -0.280 A  
HETATM   16  C   UNL     1     -12.257  11.078  70.475  1.00  0.00    -0.472 A  
BRANCH  15  17
HETATM   17  N   UNL     1     -11.236   9.322  69.130  1.00  0.00    -0.442 N  
HETATM   18  H   UNL     1     -11.854   8.747  68.558  1.00  0.00     0.000 HD 
BRANCH  17  19
HETATM   19  S   UNL     1      -9.854   8.642  69.827  1.00  0.00    -0.187 S  
HETATM   20  O   UNL     1      -9.011   9.715  70.313  1.00  0.00    -0.231 OA 
HETATM   21  O   UNL     1      -9.333   7.694  68.865  1.00  0.00    -0.146 OA 
BRANCH  19  22
HETATM   22  C   UNL     1     -10.442   7.700  71.180  1.00  0.00    -0.208 A  
HETATM   23  C   UNL     1     -11.310   6.645  70.925  1.00  0.00    -0.325 A  
HETATM   24  F   UNL     1     -11.825   6.460  69.701  1.00  0.00    -0.476 F  
HETATM   25  C   UNL     1     -11.661   5.747  71.933  1.00  0.00    -0.184 A  
HETATM   26  C   UNL     1     -11.136   5.903  73.215  1.00  0.00    -0.216 A  
HETATM   27  C   UNL     1     -10.282   6.974  73.479  1.00  0.00    -0.371 A  
HETATM   28  C   UNL     1      -9.936   7.866  72.461  1.00  0.00    -0.249 A  
HETATM   29  F   UNL     1      -9.086   8.854  72.766  1.00  0.00    -0.269 F  
ENDBRANCH  19  22
ENDBRANCH  17  19
ENDBRANCH  15  17
ENDBRANCH   7  10
BRANCH   8  30
HETATM   30  C   UNL     1     -11.214  13.339  65.411  1.00  0.00    -0.287 A  
HETATM   31  C   UNL     1     -10.877  12.015  63.582  1.00  0.00    -0.446 A  
HETATM   32  N   UNL     1     -10.346  12.735  64.579  1.00  0.00    -0.351 NA 
HETATM   33  N   UNL     1     -10.026  11.381  62.706  1.00  0.00    -0.620 NA 
HETATM   34  N   UNL     1     -12.183  11.802  63.393  1.00  0.00    -0.457 NA 
HETATM   35  C   UNL     1     -13.019  12.389  64.257  1.00  0.00    -0.157 A  
HETATM   36  H2  UNL     1      -9.015  11.457  62.813  1.00  0.00     0.000 HD 
HETATM   37  C   UNL     1     -12.586  13.180  65.288  1.00  0.00    -0.531 A  
HETATM   38  H1  UNL     1     -10.431  10.832  61.947  1.00  0.00     0.000 HD 
ENDBRANCH   8  30
ENDBRANCH   2   5
TORSDOF 6
ENDMDL
MODEL       20
REMARK 921   NORMALIZED FREE ENERGY PREDICTED BY IDOCK:   -7.75 KCAL/MOL
REMARK 922        TOTAL FREE ENERGY PREDICTED BY IDOCK:  -11.60 KCAL/MOL
REMARK 923 INTER-LIGAND FREE ENERGY PREDICTED BY IDOCK:  -10.51 KCAL/MOL
REMARK 924 INTRA-LIGAND FREE ENERGY PREDICTED BY IDOCK:   -1.09 KCAL/MOL
REMARK 927      BINDING AFFINITY PREDICTED BY RF-SCORE:    0.00 PKD
ROOT
HETATM    1  C   UNL     1      -7.555   4.828  68.322  1.00  0.00    -0.077 C  
HETATM    2  C   UNL     1      -9.065   5.001  68.565  1.00  0.00    -0.136 C  
HETATM    3  C   UNL     1      -9.450   4.127  69.782  1.00  0.00    -0.265 C  
HETATM    4  C   UNL     1      -9.809   4.464  67.321  1.00  0.00    -0.207 C  
ENDROOT
BRANCH   2   5
HETATM    5  C   UNL     1      -9.444   6.473  68.808  1.00  0.00    -0.128 A  
HETATM    6  N   UNL     1      -8.900   7.553  68.275  1.00  0.00    -0.126 NA 
HETATM    7  C   UNL     1      -9.543   8.733  68.721  1.00  0.00    -0.158 A  
HETATM    8  C   UNL     1     -10.551   8.506  69.658  1.00  0.00    -0.220 A  
HETATM    9  S   UNL     1     -10.751   6.805  69.860  1.00  0.00    -0.269 SA 
BRANCH   7  10
HETATM   10  C   UNL     1      -9.129  10.051  68.197  1.00  0.00    -0.121 A  
HETATM   11  C   UNL     1      -9.653  10.552  66.988  1.00  0.00    -0.173 A  
HETATM   12  C   UNL     1      -8.241  10.888  68.897  1.00  0.00    -0.141 A  
HETATM   13  F   UNL     1     -10.478   9.808  66.232  1.00  0.00    -0.306 F  
HETATM   14  C   UNL     1      -7.962  12.192  68.468  1.00  0.00    -0.119 A  
HETATM   15  C   UNL     1      -9.371  11.859  66.548  1.00  0.00    -0.216 A  
HETATM   16  C   UNL     1      -8.533  12.681  67.298  1.00  0.00    -0.193 A  
BRANCH  15  17
HETATM   17  N   UNL     1     -10.005  12.390  65.378  1.00  0.00    -0.333 N  
HETATM   18  H   UNL     1      -9.533  12.345  64.475  1.00  0.00     0.000 HD 
BRANCH  17  19
HETATM   19  S   UNL     1     -11.538  13.093  65.496  1.00  0.00    -0.352 S  
HETATM   20  O   UNL     1     -12.377  12.231  66.302  1.00  0.00    -0.556 OA 
HETATM   21  O   UNL     1     -11.938  13.434  64.146  1.00  0.00    -0.409 OA 
BRANCH  19  22
HETATM   22  C   UNL     1     -11.282  14.610  66.332  1.00  0.00    -0.336 A  
HETATM   23  C   UNL     1     -11.586  14.679  67.686  1.00  0.00    -0.361 A  
HETATM   24  F   UNL     1     -12.221  13.671  68.300  1.00  0.00    -0.385 F  
HETATM   25  C   UNL     1     -11.228  15.795  68.444  1.00  0.00    -0.362 A  
HETATM   26  C   UNL     1     -10.557  16.857  67.839  1.00  0.00    -0.361 A  
HETATM   27  C   UNL     1     -10.271  16.800  66.476  1.00  0.00    -0.319 A  
HETATM   28  C   UNL     1     -10.632  15.676  65.727  1.00  0.00    -0.361 A  
HETATM   29  F   UNL     1     -10.301  15.664  64.431  1.00  0.00    -0.189 F  
ENDBRANCH  19  22
ENDBRANCH  17  19
ENDBRANCH  15  17
ENDBRANCH   7  10
BRANCH   8  30
HETATM   30  C   UNL     1     -11.467   9.344  70.453  1.00  0.00    -0.223 A  
HETATM   31  C   UNL     1     -13.049   9.478  72.094  1.00  0.00    -0.436 A  
HETATM   32  N   UNL     1     -12.195   8.717  71.395  1.00  0.00    -0.301 NA 
HETATM   33  N   UNL     1     -13.816   8.878  73.066  1.00  0.00    -1.107 NA 
HETATM   34  N   UNL     1     -13.183  10.802  71.971  1.00  0.00    -0.455 NA 
HETATM   35  C   UNL     1     -12.420  11.400  71.050  1.00  0.00    -0.383 A  
HETATM   36  H2  UNL     1     -13.736   7.878  73.251  1.00  0.00     0.000 HD 
HETATM   37  C   UNL     1     -11.544  10.714  70.251  1.00  0.00    -0.424 A  
HETATM   38  H1  UNL     1     -14.466   9.457  73.598  1.00  0.00     0.000 HD 
ENDBRANCH   8  30
ENDBRANCH   2   5
TORSDOF 6
ENDMDL
MODEL       21
REMARK 921   NORMALIZED FREE ENERGY PREDICTED BY IDOCK:   -7.73 KCAL/MOL
REMARK 922        TOTAL FREE ENERGY PREDICTED BY IDOCK:  -11.56 KCAL/MOL
REMARK 923 INTER-LIGAND FREE ENERGY PREDICTED BY IDOCK:  -10.29 KCAL/MOL
REMARK 924 INTRA-LIGAND FREE ENERGY PREDICTED BY IDOCK:   -1.27 KCAL/MOL
REMARK 927      BINDING AFFINITY PREDICTED BY RF-SCORE:    0.00 PKD
ROOT
HETATM    1  C   UNL     1     -10.229  20.031  68.509  1.00  0.00    -0.484 C  
HETATM    2  C   UNL     1      -9.676  19.164  67.364  1.00  0.00    -0.389 C  
HETATM    3  C   UNL     1      -8.134  19.146  67.488  1.00  0.00    -0.301 C  
HETATM    4  C   UNL     1     -10.053  19.847  66.029  1.00  0.00    -0.589 C  
ENDROOT
BRANCH   2   5
HETATM    5  C   UNL     1     -10.243  17.734  67.399  1.00  0.00    -0.353 A  
HETATM    6  N   UNL     1     -10.659  17.047  68.449  1.00  0.00    -0.361 NA 
HETATM    7  C   UNL     1     -11.143  15.770  68.076  1.00  0.00    -0.337 A  
HETATM    8  C   UNL     1     -11.018  15.495  66.715  1.00  0.00    -0.257 A  
HETATM    9  S   UNL     1     -10.413  16.898  65.916  1.00  0.00    -0.208 SA 
BRANCH   7  10
HETATM   10  C   UNL     1     -11.714  14.864  69.094  1.00  0.00    -0.338 A  
HETATM   11  C   UNL     1     -11.214  13.558  69.271  1.00  0.00    -0.231 A  
HETATM   12  C   UNL     1     -12.741  15.272  69.966  1.00  0.00    -0.206 A  
HETATM   13  F   UNL     1     -10.261  13.069  68.460  1.00  0.00    -0.228 F  
HETATM   14  C   UNL     1     -13.180  14.461  71.020  1.00  0.00    -0.395 A  
HETATM   15  C   UNL     1     -11.657  12.735  70.324  1.00  0.00     0.035 A  
HETATM   16  C   UNL     1     -12.633  13.195  71.204  1.00  0.00    -0.403 A  
BRANCH  15  17
HETATM   17  N   UNL     1     -11.053  11.457  70.558  1.00  0.00    -0.144 N  
HETATM   18  H   UNL     1     -10.505  11.298  71.403  1.00  0.00     0.000 HD 
BRANCH  17  19
HETATM   19  S   UNL     1     -11.249  10.212  69.431  1.00  0.00    -0.186 S  
HETATM   20  O   UNL     1     -12.215  10.638  68.441  1.00  0.00    -0.372 OA 
HETATM   21  O   UNL     1     -11.480   9.002  70.193  1.00  0.00    -0.193 OA 
BRANCH  19  22
HETATM   22  C   UNL     1      -9.679  10.027  68.677  1.00  0.00    -0.159 A  
HETATM   23  C   UNL     1      -9.576  10.230  67.306  1.00  0.00    -0.159 A  
HETATM   24  F   UNL     1     -10.672  10.388  66.550  1.00  0.00    -0.287 F  
HETATM   25  C   UNL     1      -8.328  10.283  66.683  1.00  0.00    -0.125 A  
HETATM   26  C   UNL     1      -7.168  10.133  67.440  1.00  0.00    -0.088 A  
HETATM   27  C   UNL     1      -7.270   9.907  68.813  1.00  0.00    -0.076 A  
HETATM   28  C   UNL     1      -8.524   9.858  69.427  1.00  0.00    -0.165 A  
HETATM   29  F   UNL     1      -8.558   9.673  70.752  1.00  0.00    -0.230 F  
ENDBRANCH  19  22
ENDBRANCH  17  19
ENDBRANCH  15  17
ENDBRANCH   7  10
BRANCH   8  30
HETATM   30  C   UNL     1     -11.305  14.347  65.836  1.00  0.00    -0.332 A  
HETATM   31  C   UNL     1     -10.542  12.829  64.310  1.00  0.00    -0.400 A  
HETATM   32  N   UNL     1     -10.271  13.852  65.131  1.00  0.00    -0.367 NA 
HETATM   33  N   UNL     1      -9.515  12.294  63.568  1.00  0.00    -0.660 NA 
HETATM   34  N   UNL     1     -11.731  12.230  64.189  1.00  0.00    -0.372 NA 
HETATM   35  C   UNL     1     -12.731  12.722  64.929  1.00  0.00    -0.404 A  
HETATM   36  H2  UNL     1      -8.568  12.667  63.640  1.00  0.00     0.000 HD 
HETATM   37  C   UNL     1     -12.574  13.792  65.770  1.00  0.00    -0.525 A  
HETATM   38  H1  UNL     1      -9.722  11.514  62.942  1.00  0.00     0.000 HD 
ENDBRANCH   8  30
ENDBRANCH   2   5
TORSDOF 6
ENDMDL
MODEL       22
REMARK 921   NORMALIZED FREE ENERGY PREDICTED BY IDOCK:   -7.72 KCAL/MOL
REMARK 922        TOTAL FREE ENERGY PREDICTED BY IDOCK:  -11.56 KCAL/MOL
REMARK 923 INTER-LIGAND FREE ENERGY PREDICTED BY IDOCK:  -10.37 KCAL/MOL
REMARK 924 INTRA-LIGAND FREE ENERGY PREDICTED BY IDOCK:   -1.19 KCAL/MOL
REMARK 927      BINDING AFFINITY PREDICTED BY RF-SCORE:    0.00 PKD
ROOT
HETATM    1  C   UNL     1     -10.279   8.507  72.172  1.00  0.00    -0.403 C  
HETATM    2  C   UNL     1     -11.284   8.683  71.019  1.00  0.00    -0.321 C  
HETATM    3  C   UNL     1     -12.572   9.306  71.607  1.00  0.00    -0.446 C  
HETATM    4  C   UNL     1     -11.625   7.278  70.470  1.00  0.00    -0.292 C  
ENDROOT
BRANCH   2   5
HETATM    5  C   UNL     1     -10.718   9.563  69.891  1.00  0.00    -0.240 A  
HETATM    6  N   UNL     1     -11.385  10.245  68.976  1.00  0.00    -0.213 NA 
HETATM    7  C   UNL     1     -10.512  10.963  68.123  1.00  0.00    -0.182 A  
HETATM    8  C   UNL     1      -9.160  10.746  68.388  1.00  0.00    -0.164 A  
HETATM    9  S   UNL     1      -9.020   9.745  69.785  1.00  0.00    -0.221 SA 
BRANCH   7  10
HETATM   10  C   UNL     1     -11.058  11.842  67.068  1.00  0.00    -0.354 A  
HETATM   11  C   UNL     1     -11.207  13.228  67.279  1.00  0.00    -0.292 A  
HETATM   12  C   UNL     1     -11.404  11.354  65.794  1.00  0.00    -0.077 A  
HETATM   13  F   UNL     1     -10.938  13.776  68.476  1.00  0.00    -0.237 F  
HETATM   14  C   UNL     1     -11.786  12.212  64.755  1.00  0.00    -0.390 A  
HETATM   15  C   UNL     1     -11.597  14.094  66.240  1.00  0.00    -0.370 A  
HETATM   16  C   UNL     1     -11.875  13.583  64.975  1.00  0.00    -0.377 A  
BRANCH  15  17
HETATM   17  N   UNL     1     -11.628  15.512  66.442  1.00  0.00     0.081 N  
HETATM   18  H   UNL     1     -12.309  15.922  67.082  1.00  0.00     0.000 HD 
BRANCH  17  19
HETATM   19  S   UNL     1     -10.536  16.506  65.621  1.00  0.00    -0.256 S  
HETATM   20  O   UNL     1     -11.179  17.001  64.422  1.00  0.00    -1.167 OA 
HETATM   21  O   UNL     1      -9.298  15.761  65.522  1.00  0.00    -0.310 OA 
BRANCH  19  22
HETATM   22  C   UNL     1     -10.222  17.840  66.711  1.00  0.00    -0.351 A  
HETATM   23  C   UNL     1     -10.528  19.127  66.287  1.00  0.00    -0.467 A  
HETATM   24  F   UNL     1     -10.886  19.366  65.017  1.00  0.00    -0.351 F  
HETATM   25  C   UNL     1     -10.478  20.203  67.174  1.00  0.00    -0.429 A  
HETATM   26  C   UNL     1     -10.120  19.989  68.504  1.00  0.00    -0.487 A  
HETATM   27  C   UNL     1      -9.791  18.701  68.927  1.00  0.00    -0.394 A  
HETATM   28  C   UNL     1      -9.846  17.631  68.030  1.00  0.00    -0.310 A  
HETATM   29  F   UNL     1      -9.553  16.414  68.502  1.00  0.00    -0.204 F  
ENDBRANCH  19  22
ENDBRANCH  17  19
ENDBRANCH  15  17
ENDBRANCH   7  10
BRANCH   8  30
HETATM   30  C   UNL     1      -7.882  11.184  67.798  1.00  0.00    -0.114 A  
HETATM   31  C   UNL     1      -6.346  12.847  67.505  1.00  0.00    -0.158 A  
HETATM   32  N   UNL     1      -7.492  12.443  68.069  1.00  0.00    -0.103 NA 
HETATM   33  N   UNL     1      -5.910  14.129  67.752  1.00  0.00    -0.285 NA 
HETATM   34  N   UNL     1      -5.540  12.084  66.760  1.00  0.00    -0.300 NA 
HETATM   35  C   UNL     1      -5.938  10.826  66.539  1.00  0.00    -0.098 A  
HETATM   36  H2  UNL     1      -6.448  14.757  68.350  1.00  0.00     0.000 HD 
HETATM   37  C   UNL     1      -7.113  10.322  67.031  1.00  0.00    -0.090 A  
HETATM   38  H1  UNL     1      -5.037  14.436  67.323  1.00  0.00     0.000 HD 
ENDBRANCH   8  30
ENDBRANCH   2   5
TORSDOF 6
ENDMDL
MODEL       23
REMARK 921   NORMALIZED FREE ENERGY PREDICTED BY IDOCK:   -7.71 KCAL/MOL
REMARK 922        TOTAL FREE ENERGY PREDICTED BY IDOCK:  -11.54 KCAL/MOL
REMARK 923 INTER-LIGAND FREE ENERGY PREDICTED BY IDOCK:  -10.75 KCAL/MOL
REMARK 924 INTRA-LIGAND FREE ENERGY PREDICTED BY IDOCK:   -0.80 KCAL/MOL
REMARK 927      BINDING AFFINITY PREDICTED BY RF-SCORE:    0.00 PKD
ROOT
HETATM    1  C   UNL     1      -8.884   7.776  69.443  1.00  0.00    -0.139 C  
HETATM    2  C   UNL     1     -10.358   8.008  69.062  1.00  0.00    -0.228 C  
HETATM    3  C   UNL     1     -11.232   7.180  70.034  1.00  0.00    -0.271 C  
HETATM    4  C   UNL     1     -10.567   7.464  67.630  1.00  0.00    -0.309 C  
ENDROOT
BRANCH   2   5
HETATM    5  C   UNL     1     -10.740   9.497  69.118  1.00  0.00    -0.210 A  
HETATM    6  N   UNL     1     -10.450  10.446  68.245  1.00  0.00    -0.179 NA 
HETATM    7  C   UNL     1     -11.004  11.692  68.628  1.00  0.00    -0.220 A  
HETATM    8  C   UNL     1     -11.667  11.661  69.854  1.00  0.00    -0.337 A  
HETATM    9  S   UNL     1     -11.689  10.037  70.435  1.00  0.00    -0.278 SA 
BRANCH   7  10
HETATM   10  C   UNL     1     -10.851  12.875  67.756  1.00  0.00    -0.248 A  
HETATM   11  C   UNL     1      -9.642  13.598  67.713  1.00  0.00    -0.224 A  
HETATM   12  C   UNL     1     -11.876  13.304  66.893  1.00  0.00    -0.446 A  
HETATM   13  F   UNL     1      -8.621  13.284  68.530  1.00  0.00    -0.168 F  
HETATM   14  C   UNL     1     -11.677  14.337  65.967  1.00  0.00    -0.384 A  
HETATM   15  C   UNL     1      -9.438  14.641  66.791  1.00  0.00    -0.260 A  
HETATM   16  C   UNL     1     -10.456  15.000  65.910  1.00  0.00    -0.341 A  
BRANCH  15  17
HETATM   17  N   UNL     1      -8.163  15.285  66.683  1.00  0.00    -0.356 N  
HETATM   18  H   UNL     1      -7.508  15.001  65.955  1.00  0.00     0.000 HD 
BRANCH  17  19
HETATM   19  S   UNL     1      -7.745  16.516  67.764  1.00  0.00    -0.156 S  
HETATM   20  O   UNL     1      -6.339  16.815  67.595  1.00  0.00    -0.132 OA 
HETATM   21  O   UNL     1      -8.248  16.111  69.060  1.00  0.00    -0.223 OA 
BRANCH  19  22
HETATM   22  C   UNL     1      -8.701  17.898  67.273  1.00  0.00    -0.239 A  
HETATM   23  C   UNL     1      -9.948  18.082  67.860  1.00  0.00    -0.331 A  
HETATM   24  F   UNL     1     -10.483  17.139  68.648  1.00  0.00    -0.288 F  
HETATM   25  C   UNL     1     -10.669  19.258  67.652  1.00  0.00    -0.533 A  
HETATM   26  C   UNL     1     -10.138  20.265  66.848  1.00  0.00    -0.565 A  
HETATM   27  C   UNL     1      -8.898  20.073  66.239  1.00  0.00    -0.360 A  
HETATM   28  C   UNL     1      -8.183  18.892  66.457  1.00  0.00    -0.297 A  
HETATM   29  F   UNL     1      -6.983  18.779  65.874  1.00  0.00    -0.239 F  
ENDBRANCH  19  22
ENDBRANCH  17  19
ENDBRANCH  15  17
ENDBRANCH   7  10
BRANCH   8  30
HETATM   30  C   UNL     1     -12.354  12.643  70.712  1.00  0.00    -0.283 A  
HETATM   31  C   UNL     1     -12.656  14.826  71.310  1.00  0.00    -0.334 A  
HETATM   32  N   UNL     1     -12.053  13.939  70.507  1.00  0.00    -0.348 NA 
HETATM   33  N   UNL     1     -12.376  16.162  71.137  1.00  0.00    -0.538 NA 
HETATM   34  N   UNL     1     -13.569  14.531  72.240  1.00  0.00    -0.399 NA 
HETATM   35  C   UNL     1     -13.872  13.238  72.396  1.00  0.00    -0.529 A  
HETATM   36  H2  UNL     1     -11.724  16.470  70.415  1.00  0.00     0.000 HD 
HETATM   37  C   UNL     1     -13.285  12.243  71.658  1.00  0.00    -0.356 A  
HETATM   38  H1  UNL     1     -12.835  16.838  71.748  1.00  0.00     0.000 HD 
ENDBRANCH   8  30
ENDBRANCH   2   5
TORSDOF 6
ENDMDL
MODEL       24
REMARK 921   NORMALIZED FREE ENERGY PREDICTED BY IDOCK:   -7.70 KCAL/MOL
REMARK 922        TOTAL FREE ENERGY PREDICTED BY IDOCK:  -11.52 KCAL/MOL
REMARK 923 INTER-LIGAND FREE ENERGY PREDICTED BY IDOCK:  -10.35 KCAL/MOL
REMARK 924 INTRA-LIGAND FREE ENERGY PREDICTED BY IDOCK:   -1.18 KCAL/MOL
REMARK 927      BINDING AFFINITY PREDICTED BY RF-SCORE:    0.00 PKD
ROOT
HETATM    1  C   UNL     1     -10.633   7.271  68.966  1.00  0.00    -0.214 C  
HETATM    2  C   UNL     1     -10.564   8.437  69.968  1.00  0.00    -0.235 C  
HETATM    3  C   UNL     1      -9.181   8.384  70.658  1.00  0.00    -0.177 C  
HETATM    4  C   UNL     1     -11.655   8.206  71.038  1.00  0.00    -0.301 C  
ENDROOT
BRANCH   2   5
HETATM    5  C   UNL     1     -10.781   9.798  69.284  1.00  0.00    -0.224 A  
HETATM    6  N   UNL     1     -10.898  10.986  69.852  1.00  0.00    -0.156 NA 
HETATM    7  C   UNL     1     -11.057  12.010  68.886  1.00  0.00    -0.247 A  
HETATM    8  C   UNL     1     -11.118  11.543  67.574  1.00  0.00    -0.272 A  
HETATM    9  S   UNL     1     -10.847   9.840  67.575  1.00  0.00    -0.134 SA 
BRANCH   7  10
HETATM   10  C   UNL     1     -11.144  13.424  69.308  1.00  0.00    -0.216 A  
HETATM   11  C   UNL     1     -10.209  14.378  68.857  1.00  0.00    -0.213 A  
HETATM   12  C   UNL     1     -12.184  13.895  70.130  1.00  0.00    -0.425 A  
HETATM   13  F   UNL     1      -9.161  14.012  68.100  1.00  0.00    -0.170 F  
HETATM   14  C   UNL     1     -12.342  15.259  70.410  1.00  0.00    -0.422 A  
HETATM   15  C   UNL     1     -10.359  15.748  69.141  1.00  0.00    -0.240 A  
HETATM   16  C   UNL     1     -11.434  16.186  69.909  1.00  0.00    -0.286 A  
BRANCH  15  17
HETATM   17  N   UNL     1      -9.465  16.715  68.576  1.00  0.00    -0.231 N  
HETATM   18  H   UNL     1      -8.589  16.938  69.048  1.00  0.00     0.000 HD 
BRANCH  17  19
HETATM   19  S   UNL     1      -9.864  17.486  67.125  1.00  0.00    -0.309 S  
HETATM   20  O   UNL     1     -10.676  18.645  67.430  1.00  0.00    -0.431 OA 
HETATM   21  O   UNL     1     -10.374  16.458  66.241  1.00  0.00    -0.311 OA 
BRANCH  19  22
HETATM   22  C   UNL     1      -8.334  18.003  66.448  1.00  0.00    -0.246 A  
HETATM   23  C   UNL     1      -8.177  19.343  66.115  1.00  0.00    -0.311 A  
HETATM   24  F   UNL     1      -9.220  20.185  66.144  1.00  0.00    -0.402 F  
HETATM   25  C   UNL     1      -6.928  19.849  65.752  1.00  0.00    -0.317 A  
HETATM   26  C   UNL     1      -5.820  19.003  65.721  1.00  0.00    -0.206 A  
HETATM   27  C   UNL     1      -5.980  17.653  66.033  1.00  0.00    -0.223 A  
HETATM   28  C   UNL     1      -7.235  17.159  66.398  1.00  0.00    -0.290 A  
HETATM   29  F   UNL     1      -7.319  15.863  66.720  1.00  0.00    -0.238 F  
ENDBRANCH  19  22
ENDBRANCH  17  19
ENDBRANCH  15  17
ENDBRANCH   7  10
BRANCH   8  30
HETATM   30  C   UNL     1     -11.317  12.146  66.243  1.00  0.00    -0.357 A  
HETATM   31  C   UNL     1     -10.733  12.221  64.037  1.00  0.00    -0.396 A  
HETATM   32  N   UNL     1     -10.572  11.649  65.238  1.00  0.00    -0.273 NA 
HETATM   33  N   UNL     1      -9.990  11.747  62.981  1.00  0.00    -0.571 NA 
HETATM   34  N   UNL     1     -11.610  13.189  63.753  1.00  0.00    -0.435 NA 
HETATM   35  C   UNL     1     -12.360  13.637  64.766  1.00  0.00    -0.390 A  
HETATM   36  H2  UNL     1      -9.332  10.978  63.108  1.00  0.00     0.000 HD 
HETATM   37  C   UNL     1     -12.248  13.153  66.043  1.00  0.00    -0.478 A  
HETATM   38  H1  UNL     1     -10.113  12.182  62.066  1.00  0.00     0.000 HD 
ENDBRANCH   8  30
ENDBRANCH   2   5
TORSDOF 6
ENDMDL
MODEL       25
REMARK 921   NORMALIZED FREE ENERGY PREDICTED BY IDOCK:   -7.68 KCAL/MOL
REMARK 922        TOTAL FREE ENERGY PREDICTED BY IDOCK:  -11.49 KCAL/MOL
REMARK 923 INTER-LIGAND FREE ENERGY PREDICTED BY IDOCK:  -10.52 KCAL/MOL
REMARK 924 INTRA-LIGAND FREE ENERGY PREDICTED BY IDOCK:   -0.97 KCAL/MOL
REMARK 927      BINDING AFFINITY PREDICTED BY RF-SCORE:    0.00 PKD
ROOT
HETATM    1  C   UNL     1      -8.742   8.579  69.818  1.00  0.00    -0.132 C  
HETATM    2  C   UNL     1     -10.203   8.691  69.347  1.00  0.00    -0.211 C  
HETATM    3  C   UNL     1     -11.114   8.409  70.565  1.00  0.00    -0.267 C  
HETATM    4  C   UNL     1     -10.444   7.590  68.289  1.00  0.00    -0.223 C  
ENDROOT
BRANCH   2   5
HETATM    5  C   UNL     1     -10.510  10.073  68.745  1.00  0.00    -0.208 A  
HETATM    6  N   UNL     1     -10.423  11.255  69.331  1.00  0.00    -0.118 NA 
HETATM    7  C   UNL     1     -10.760  12.303  68.440  1.00  0.00    -0.234 A  
HETATM    8  C   UNL     1     -11.166  11.863  67.180  1.00  0.00    -0.319 A  
HETATM    9  S   UNL     1     -10.990  10.149  67.105  1.00  0.00    -0.033 SA 
BRANCH   7  10
HETATM   10  C   UNL     1     -10.668  13.711  68.877  1.00  0.00    -0.237 A  
HETATM   11  C   UNL     1      -9.426  14.374  68.942  1.00  0.00    -0.107 A  
HETATM   12  C   UNL     1     -11.809  14.470  69.198  1.00  0.00    -0.354 A  
HETATM   13  F   UNL     1      -8.280  13.719  68.691  1.00  0.00    -0.147 F  
HETATM   14  C   UNL     1     -11.729  15.841  69.474  1.00  0.00    -0.369 A  
HETATM   15  C   UNL     1      -9.339  15.750  69.226  1.00  0.00    -0.261 A  
HETATM   16  C   UNL     1     -10.495  16.483  69.480  1.00  0.00    -0.298 A  
BRANCH  15  17
HETATM   17  N   UNL     1      -8.079  16.431  69.172  1.00  0.00    -0.231 N  
HETATM   18  H   UNL     1      -7.557  16.609  70.030  1.00  0.00     0.000 HD 
BRANCH  17  19
HETATM   19  S   UNL     1      -7.458  16.938  67.684  1.00  0.00    -0.164 S  
HETATM   20  O   UNL     1      -7.475  15.813  66.773  1.00  0.00    -0.204 OA 
HETATM   21  O   UNL     1      -6.212  17.618  67.970  1.00  0.00    -0.154 OA 
BRANCH  19  22
HETATM   22  C   UNL     1      -8.571  18.167  67.119  1.00  0.00    -0.247 A  
HETATM   23  C   UNL     1      -9.560  17.798  66.215  1.00  0.00    -0.243 A  
HETATM   24  F   UNL     1      -9.558  16.582  65.652  1.00  0.00    -0.310 F  
HETATM   25  C   UNL     1     -10.585  18.683  65.876  1.00  0.00    -0.365 A  
HETATM   26  C   UNL     1     -10.624  19.952  66.451  1.00  0.00    -0.532 A  
HETATM   27  C   UNL     1      -9.620  20.331  67.342  1.00  0.00    -0.569 A  
HETATM   28  C   UNL     1      -8.600  19.437  67.676  1.00  0.00    -0.305 A  
HETATM   29  F   UNL     1      -7.684  19.845  68.562  1.00  0.00    -0.353 F  
ENDBRANCH  19  22
ENDBRANCH  17  19
ENDBRANCH  15  17
ENDBRANCH   7  10
BRANCH   8  30
HETATM   30  C   UNL     1     -11.652  12.499  65.942  1.00  0.00    -0.405 A  
HETATM   31  C   UNL     1     -12.396  12.259  63.797  1.00  0.00    -0.538 A  
HETATM   32  N   UNL     1     -11.983  11.676  64.930  1.00  0.00    -0.078 NA 
HETATM   33  N   UNL     1     -12.742  11.456  62.735  1.00  0.00    -0.722 NA 
HETATM   34  N   UNL     1     -12.562  13.573  63.620  1.00  0.00    -0.723 NA 
HETATM   35  C   UNL     1     -12.258  14.362  64.657  1.00  0.00    -0.464 A  
HETATM   36  H2  UNL     1     -12.686  10.440  62.808  1.00  0.00     0.000 HD 
HETATM   37  C   UNL     1     -11.788  13.875  65.848  1.00  0.00    -0.399 A  
HETATM   38  H1  UNL     1     -13.056  11.900  61.871  1.00  0.00     0.000 HD 
ENDBRANCH   8  30
ENDBRANCH   2   5
TORSDOF 6
ENDMDL
MODEL       26
REMARK 921   NORMALIZED FREE ENERGY PREDICTED BY IDOCK:   -7.67 KCAL/MOL
REMARK 922        TOTAL FREE ENERGY PREDICTED BY IDOCK:  -11.49 KCAL/MOL
REMARK 923 INTER-LIGAND FREE ENERGY PREDICTED BY IDOCK:  -10.66 KCAL/MOL
REMARK 924 INTRA-LIGAND FREE ENERGY PREDICTED BY IDOCK:   -0.83 KCAL/MOL
REMARK 927      BINDING AFFINITY PREDICTED BY RF-SCORE:    0.00 PKD
ROOT
HETATM    1  C   UNL     1     -12.642  14.853  73.670  1.00  0.00    -0.613 C  
HETATM    2  C   UNL     1     -12.920  14.934  72.158  1.00  0.00    -0.415 C  
HETATM    3  C   UNL     1     -12.008  16.037  71.570  1.00  0.00    -0.539 C  
HETATM    4  C   UNL     1     -14.393  15.364  71.970  1.00  0.00    -0.653 C  
ENDROOT
BRANCH   2   5
HETATM    5  C   UNL     1     -12.672  13.589  71.454  1.00  0.00    -0.336 A  
HETATM    6  N   UNL     1     -12.894  12.372  71.919  1.00  0.00    -0.266 NA 
HETATM    7  C   UNL     1     -12.568  11.381  70.961  1.00  0.00    -0.386 A  
HETATM    8  C   UNL     1     -12.033  11.894  69.780  1.00  0.00    -0.307 A  
HETATM    9  S   UNL     1     -12.071  13.616  69.852  1.00  0.00    -0.325 SA 
BRANCH   7  10
HETATM   10  C   UNL     1     -12.802   9.952  71.258  1.00  0.00    -0.486 A  
HETATM   11  C   UNL     1     -11.741   9.102  71.630  1.00  0.00    -0.378 A  
HETATM   12  C   UNL     1     -14.089   9.386  71.237  1.00  0.00    -0.031 A  
HETATM   13  F   UNL     1     -10.472   9.546  71.640  1.00  0.00    -0.397 F  
HETATM   14  C   UNL     1     -14.324   8.070  71.656  1.00  0.00    -0.581 A  
HETATM   15  C   UNL     1     -11.968   7.777  72.045  1.00  0.00    -0.308 A  
HETATM   16  C   UNL     1     -13.264   7.268  72.068  1.00  0.00    -0.181 A  
BRANCH  15  17
HETATM   17  N   UNL     1     -10.891   6.967  72.531  1.00  0.00    -0.233 N  
HETATM   18  H   UNL     1     -10.671   6.953  73.526  1.00  0.00     0.000 HD 
BRANCH  17  19
HETATM   19  S   UNL     1      -9.985   6.032  71.452  1.00  0.00    -0.189 S  
HETATM   20  O   UNL     1      -8.583   6.324  71.659  1.00  0.00    -0.132 OA 
HETATM   21  O   UNL     1     -10.578   6.225  70.145  1.00  0.00    -0.211 OA 
BRANCH  19  22
HETATM   22  C   UNL     1     -10.311   4.371  71.901  1.00  0.00    -0.097 A  
HETATM   23  C   UNL     1      -9.769   3.357  71.122  1.00  0.00    -0.152 A  
HETATM   24  F   UNL     1      -9.162   3.633  69.959  1.00  0.00    -0.152 F  
HETATM   25  C   UNL     1      -9.835   2.025  71.535  1.00  0.00    -0.205 A  
HETATM   26  C   UNL     1     -10.449   1.704  72.743  1.00  0.00    -0.226 A  
HETATM   27  C   UNL     1     -11.014   2.718  73.516  1.00  0.00    -0.316 A  
HETATM   28  C   UNL     1     -10.940   4.048  73.094  1.00  0.00    -0.166 A  
HETATM   29  F   UNL     1     -11.469   4.981  73.894  1.00  0.00    -0.304 F  
ENDBRANCH  19  22
ENDBRANCH  17  19
ENDBRANCH  15  17
ENDBRANCH   7  10
BRANCH   8  30
HETATM   30  C   UNL     1     -11.500  11.330  68.527  1.00  0.00    -0.306 A  
HETATM   31  C   UNL     1     -11.244  11.517  66.265  1.00  0.00    -0.222 A  
HETATM   32  N   UNL     1     -11.703  12.048  67.407  1.00  0.00    -0.541 NA 
HETATM   33  N   UNL     1     -11.432  12.217  65.095  1.00  0.00    -0.332 NA 
HETATM   34  N   UNL     1     -10.554  10.377  66.166  1.00  0.00    -0.144 NA 
HETATM   35  C   UNL     1     -10.339   9.704  67.302  1.00  0.00    -0.249 A  
HETATM   36  H2  UNL     1     -11.909  13.118  65.097  1.00  0.00     0.000 HD 
HETATM   37  C   UNL     1     -10.799  10.134  68.518  1.00  0.00    -0.278 A  
HETATM   38  H1  UNL     1     -11.083  11.812  64.226  1.00  0.00     0.000 HD 
ENDBRANCH   8  30
ENDBRANCH   2   5
TORSDOF 6
ENDMDL
MODEL       27
REMARK 921   NORMALIZED FREE ENERGY PREDICTED BY IDOCK:   -7.65 KCAL/MOL
REMARK 922        TOTAL FREE ENERGY PREDICTED BY IDOCK:  -11.47 KCAL/MOL
REMARK 923 INTER-LIGAND FREE ENERGY PREDICTED BY IDOCK:  -10.58 KCAL/MOL
REMARK 924 INTRA-LIGAND FREE ENERGY PREDICTED BY IDOCK:   -0.88 KCAL/MOL
REMARK 927      BINDING AFFINITY PREDICTED BY RF-SCORE:    0.00 PKD
ROOT
HETATM    1  C   UNL     1     -12.105  14.176  63.972  1.00  0.00    -0.382 C  
HETATM    2  C   UNL     1     -11.811  12.741  64.446  1.00  0.00    -0.446 C  
HETATM    3  C   UNL     1     -10.548  12.248  63.700  1.00  0.00    -0.501 C  
HETATM    4  C   UNL     1     -13.005  11.852  64.031  1.00  0.00    -0.181 C  
ENDROOT
BRANCH   2   5
HETATM    5  C   UNL     1     -11.607  12.668  65.970  1.00  0.00    -0.393 A  
HETATM    6  N   UNL     1     -11.122  11.664  66.680  1.00  0.00    -0.300 NA 
HETATM    7  C   UNL     1     -11.060  11.985  68.058  1.00  0.00    -0.241 A  
HETATM    8  C   UNL     1     -11.575  13.243  68.368  1.00  0.00    -0.337 A  
HETATM    9  S   UNL     1     -12.008  14.045  66.903  1.00  0.00    -0.440 SA 
BRANCH   7  10
HETATM   10  C   UNL     1     -10.488  11.022  69.022  1.00  0.00    -0.242 A  
HETATM   11  C   UNL     1     -11.313  10.298  69.905  1.00  0.00    -0.290 A  
HETATM   12  C   UNL     1      -9.110  10.742  69.069  1.00  0.00    -0.153 A  
HETATM   13  F   UNL     1     -12.637  10.527  69.958  1.00  0.00    -0.355 F  
HETATM   14  C   UNL     1      -8.591   9.727  69.884  1.00  0.00    -0.236 A  
HETATM   15  C   UNL     1     -10.797   9.282  70.732  1.00  0.00    -0.284 A  
HETATM   16  C   UNL     1      -9.435   8.992  70.709  1.00  0.00    -0.308 A  
BRANCH  15  17
HETATM   17  N   UNL     1     -11.668   8.479  71.536  1.00  0.00    -0.281 N  
HETATM   18  H   UNL     1     -12.159   8.893  72.329  1.00  0.00     0.000 HD 
BRANCH  17  19
HETATM   19  S   UNL     1     -11.883   6.842  71.171  1.00  0.00    -0.365 S  
HETATM   20  O   UNL     1     -11.651   6.654  69.754  1.00  0.00    -0.351 OA 
HETATM   21  O   UNL     1     -13.152   6.455  71.753  1.00  0.00    -0.125 OA 
BRANCH  19  22
HETATM   22  C   UNL     1     -10.646   6.004  72.084  1.00  0.00    -0.214 A  
HETATM   23  C   UNL     1      -9.925   4.998  71.453  1.00  0.00    -0.193 A  
HETATM   24  F   UNL     1     -10.280   4.557  70.238  1.00  0.00    -0.304 F  
HETATM   25  C   UNL     1      -8.807   4.428  72.064  1.00  0.00    -0.136 A  
HETATM   26  C   UNL     1      -8.404   4.871  73.323  1.00  0.00    -0.104 A  
HETATM   27  C   UNL     1      -9.140   5.864  73.968  1.00  0.00    -0.127 A  
HETATM   28  C   UNL     1     -10.256   6.430  73.346  1.00  0.00    -0.233 A  
HETATM   29  F   UNL     1     -10.902   7.403  73.999  1.00  0.00    -0.352 F  
ENDBRANCH  19  22
ENDBRANCH  17  19
ENDBRANCH  15  17
ENDBRANCH   7  10
BRANCH   8  30
HETATM   30  C   UNL     1     -11.792  14.025  69.599  1.00  0.00    -0.330 A  
HETATM   31  C   UNL     1     -12.806  14.200  71.637  1.00  0.00    -0.349 A  
HETATM   32  N   UNL     1     -12.587  13.472  70.533  1.00  0.00    -0.279 NA 
HETATM   33  N   UNL     1     -13.615  13.675  72.618  1.00  0.00    -0.693 NA 
HETATM   34  N   UNL     1     -12.251  15.386  71.903  1.00  0.00    -0.342 NA 
HETATM   35  C   UNL     1     -11.438  15.893  70.969  1.00  0.00    -0.418 A  
HETATM   36  H2  UNL     1     -14.038  12.753  72.508  1.00  0.00     0.000 HD 
HETATM   37  C   UNL     1     -11.177  15.254  69.786  1.00  0.00    -0.300 A  
HETATM   38  H1  UNL     1     -13.781  14.229  73.458  1.00  0.00     0.000 HD 
ENDBRANCH   8  30
ENDBRANCH   2   5
TORSDOF 6
ENDMDL
MODEL       28
REMARK 921   NORMALIZED FREE ENERGY PREDICTED BY IDOCK:   -7.65 KCAL/MOL
REMARK 922        TOTAL FREE ENERGY PREDICTED BY IDOCK:  -11.46 KCAL/MOL
REMARK 923 INTER-LIGAND FREE ENERGY PREDICTED BY IDOCK:  -10.00 KCAL/MOL
REMARK 924 INTRA-LIGAND FREE ENERGY PREDICTED BY IDOCK:   -1.45 KCAL/MOL
REMARK 927      BINDING AFFINITY PREDICTED BY RF-SCORE:    0.00 PKD
ROOT
HETATM    1  C   UNL     1      -7.791  19.685  65.848  1.00  0.00    -0.295 C  
HETATM    2  C   UNL     1      -8.317  19.780  67.291  1.00  0.00    -0.351 C  
HETATM    3  C   UNL     1      -9.557  20.704  67.281  1.00  0.00    -0.558 C  
HETATM    4  C   UNL     1      -7.217  20.443  68.152  1.00  0.00    -0.231 C  
ENDROOT
BRANCH   2   5
HETATM    5  C   UNL     1      -8.671  18.398  67.868  1.00  0.00    -0.283 A  
HETATM    6  N   UNL     1      -7.993  17.269  67.752  1.00  0.00    -0.187 NA 
HETATM    7  C   UNL     1      -8.625  16.210  68.450  1.00  0.00    -0.189 A  
HETATM    8  C   UNL     1      -9.836  16.568  69.041  1.00  0.00    -0.266 A  
HETATM    9  S   UNL     1     -10.089  18.259  68.815  1.00  0.00    -0.301 SA 
BRANCH   7  10
HETATM   10  C   UNL     1      -7.998  14.873  68.501  1.00  0.00    -0.140 A  
HETATM   11  C   UNL     1      -8.302  13.887  67.541  1.00  0.00    -0.196 A  
HETATM   12  C   UNL     1      -7.034  14.537  69.470  1.00  0.00    -0.147 A  
HETATM   13  F   UNL     1      -9.238  14.106  66.601  1.00  0.00    -0.247 F  
HETATM   14  C   UNL     1      -6.340  13.321  69.429  1.00  0.00    -0.111 A  
HETATM   15  C   UNL     1      -7.613  12.661  67.498  1.00  0.00    -0.160 A  
HETATM   16  C   UNL     1      -6.623  12.386  68.439  1.00  0.00    -0.065 A  
BRANCH  15  17
HETATM   17  N   UNL     1      -7.855  11.721  66.445  1.00  0.00    -0.380 N  
HETATM   18  H   UNL     1      -7.185  11.627  65.681  1.00  0.00     0.000 HD 
BRANCH  17  19
HETATM   19  S   UNL     1      -9.250  10.767  66.468  1.00  0.00    -0.172 S  
HETATM   20  O   UNL     1      -9.759  10.734  67.823  1.00  0.00    -0.159 OA 
HETATM   21  O   UNL     1      -8.913   9.531  65.792  1.00  0.00    -0.157 OA 
BRANCH  19  22
HETATM   22  C   UNL     1     -10.390  11.601  65.433  1.00  0.00    -0.267 A  
HETATM   23  C   UNL     1     -10.172  11.585  64.061  1.00  0.00    -0.345 A  
HETATM   24  F   UNL     1      -9.031  11.100  63.551  1.00  0.00    -0.195 F  
HETATM   25  C   UNL     1     -11.140  12.066  63.177  1.00  0.00    -0.265 A  
HETATM   26  C   UNL     1     -12.342  12.568  63.672  1.00  0.00    -0.618 A  
HETATM   27  C   UNL     1     -12.554  12.605  65.050  1.00  0.00    -0.504 A  
HETATM   28  C   UNL     1     -11.579  12.119  65.925  1.00  0.00    -0.364 A  
HETATM   29  F   UNL     1     -11.853  12.149  67.235  1.00  0.00    -0.396 F  
ENDBRANCH  19  22
ENDBRANCH  17  19
ENDBRANCH  15  17
ENDBRANCH   7  10
BRANCH   8  30
HETATM   30  C   UNL     1     -10.884  15.874  69.812  1.00  0.00    -0.328 A  
HETATM   31  C   UNL     1     -12.124  15.742  71.724  1.00  0.00    -0.464 A  
HETATM   32  N   UNL     1     -11.193  16.393  71.014  1.00  0.00    -0.227 NA 
HETATM   33  N   UNL     1     -12.470  16.236  72.961  1.00  0.00    -0.470 NA 
HETATM   34  N   UNL     1     -12.805  14.670  71.307  1.00  0.00    -0.314 NA 
HETATM   35  C   UNL     1     -12.499  14.199  70.092  1.00  0.00    -0.331 A  
HETATM   36  H2  UNL     1     -12.027  17.078  73.329  1.00  0.00     0.000 HD 
HETATM   37  C   UNL     1     -11.535  14.762  69.299  1.00  0.00    -0.322 A  
HETATM   38  H1  UNL     1     -13.179  15.739  73.502  1.00  0.00     0.000 HD 
ENDBRANCH   8  30
ENDBRANCH   2   5
TORSDOF 6
ENDMDL
MODEL       29
REMARK 921   NORMALIZED FREE ENERGY PREDICTED BY IDOCK:   -7.62 KCAL/MOL
REMARK 922        TOTAL FREE ENERGY PREDICTED BY IDOCK:  -11.42 KCAL/MOL
REMARK 923 INTER-LIGAND FREE ENERGY PREDICTED BY IDOCK:  -10.67 KCAL/MOL
REMARK 924 INTRA-LIGAND FREE ENERGY PREDICTED BY IDOCK:   -0.75 KCAL/MOL
REMARK 927      BINDING AFFINITY PREDICTED BY RF-SCORE:    0.00 PKD
ROOT
HETATM    1  C   UNL     1     -11.660   7.193  70.674  1.00  0.00    -0.354 C  
HETATM    2  C   UNL     1     -11.192   8.641  70.907  1.00  0.00    -0.311 C  
HETATM    3  C   UNL     1      -9.920   8.590  71.786  1.00  0.00    -0.345 C  
HETATM    4  C   UNL     1     -12.302   9.376  71.693  1.00  0.00    -0.465 C  
ENDROOT
BRANCH   2   5
HETATM    5  C   UNL     1     -10.913   9.376  69.584  1.00  0.00    -0.197 A  
HETATM    6  N   UNL     1     -11.173  10.636  69.282  1.00  0.00    -0.253 NA 
HETATM    7  C   UNL     1     -10.740  10.956  67.972  1.00  0.00    -0.220 A  
HETATM    8  C   UNL     1     -10.201   9.874  67.276  1.00  0.00    -0.222 A  
HETATM    9  S   UNL     1     -10.135   8.511  68.330  1.00  0.00    -0.199 SA 
BRANCH   7  10
HETATM   10  C   UNL     1     -10.880  12.334  67.457  1.00  0.00    -0.271 A  
HETATM   11  C   UNL     1      -9.748  13.125  67.175  1.00  0.00    -0.235 A  
HETATM   12  C   UNL     1     -12.136  12.901  67.174  1.00  0.00    -0.283 A  
HETATM   13  F   UNL     1      -8.510  12.681  67.449  1.00  0.00    -0.150 F  
HETATM   14  C   UNL     1     -12.258  14.152  66.554  1.00  0.00    -0.463 A  
HETATM   15  C   UNL     1      -9.864  14.386  66.559  1.00  0.00    -0.287 A  
HETATM   16  C   UNL     1     -11.122  14.891  66.239  1.00  0.00    -0.340 A  
BRANCH  15  17
HETATM   17  N   UNL     1      -8.698  15.123  66.174  1.00  0.00    -0.441 N  
HETATM   18  H   UNL     1      -8.330  15.039  65.227  1.00  0.00     0.000 HD 
BRANCH  17  19
HETATM   19  S   UNL     1      -7.931  16.133  67.292  1.00  0.00    -0.193 S  
HETATM   20  O   UNL     1      -6.535  16.246  66.925  1.00  0.00    -0.248 OA 
HETATM   21  O   UNL     1      -8.295  15.643  68.605  1.00  0.00    -0.157 OA 
BRANCH  19  22
HETATM   22  C   UNL     1      -8.713  17.690  67.112  1.00  0.00    -0.243 A  
HETATM   23  C   UNL     1      -9.863  17.942  67.850  1.00  0.00    -0.309 A  
HETATM   24  F   UNL     1     -10.461  16.964  68.546  1.00  0.00    -0.279 F  
HETATM   25  C   UNL     1     -10.420  19.221  67.893  1.00  0.00    -0.514 A  
HETATM   26  C   UNL     1      -9.818  20.262  67.189  1.00  0.00    -0.606 A  
HETATM   27  C   UNL     1      -8.676  20.007  66.430  1.00  0.00    -0.364 A  
HETATM   28  C   UNL     1      -8.126  18.723  66.396  1.00  0.00    -0.280 A  
HETATM   29  F   UNL     1      -7.011  18.546  65.678  1.00  0.00    -0.280 F  
ENDBRANCH  19  22
ENDBRANCH  17  19
ENDBRANCH  15  17
ENDBRANCH   7  10
BRANCH   8  30
HETATM   30  C   UNL     1      -9.666   9.646  65.921  1.00  0.00    -0.275 A  
HETATM   31  C   UNL     1      -9.660  10.224  63.712  1.00  0.00    -0.284 A  
HETATM   32  N   UNL     1     -10.125  10.455  64.947  1.00  0.00    -0.334 NA 
HETATM   33  N   UNL     1     -10.103  11.025  62.685  1.00  0.00    -0.693 NA 
HETATM   34  N   UNL     1      -8.740   9.309  63.391  1.00  0.00    -0.208 NA 
HETATM   35  C   UNL     1      -8.279   8.544  64.387  1.00  0.00    -0.151 A  
HETATM   36  H2  UNL     1     -10.770  11.776  62.859  1.00  0.00     0.000 HD 
HETATM   37  C   UNL     1      -8.716   8.666  65.680  1.00  0.00    -0.214 A  
HETATM   38  H1  UNL     1      -9.749  10.849  61.744  1.00  0.00     0.000 HD 
ENDBRANCH   8  30
ENDBRANCH   2   5
TORSDOF 6
ENDMDL
MODEL       30
REMARK 921   NORMALIZED FREE ENERGY PREDICTED BY IDOCK:   -7.61 KCAL/MOL
REMARK 922        TOTAL FREE ENERGY PREDICTED BY IDOCK:  -11.40 KCAL/MOL
REMARK 923 INTER-LIGAND FREE ENERGY PREDICTED BY IDOCK:  -10.49 KCAL/MOL
REMARK 924 INTRA-LIGAND FREE ENERGY PREDICTED BY IDOCK:   -0.92 KCAL/MOL
REMARK 927      BINDING AFFINITY PREDICTED BY RF-SCORE:    0.00 PKD
ROOT
HETATM    1  C   UNL     1     -10.114   8.709  71.897  1.00  0.00    -0.398 C  
HETATM    2  C   UNL     1     -11.303   8.700  70.920  1.00  0.00    -0.314 C  
HETATM    3  C   UNL     1     -12.518   9.321  71.649  1.00  0.00    -0.448 C  
HETATM    4  C   UNL     1     -11.632   7.226  70.589  1.00  0.00    -0.322 C  
ENDROOT
BRANCH   2   5
HETATM    5  C   UNL     1     -10.992   9.470  69.625  1.00  0.00    -0.212 A  
HETATM    6  N   UNL     1     -11.165  10.758  69.381  1.00  0.00    -0.253 NA 
HETATM    7  C   UNL     1     -10.730  11.103  68.078  1.00  0.00    -0.211 A  
HETATM    8  C   UNL     1     -10.282  10.017  67.327  1.00  0.00    -0.222 A  
HETATM    9  S   UNL     1     -10.298   8.608  68.320  1.00  0.00    -0.186 SA 
BRANCH   7  10
HETATM   10  C   UNL     1     -10.778  12.509  67.625  1.00  0.00    -0.242 A  
HETATM   11  C   UNL     1      -9.611  13.299  67.575  1.00  0.00    -0.218 A  
HETATM   12  C   UNL     1     -11.969  13.109  67.176  1.00  0.00    -0.397 A  
HETATM   13  F   UNL     1      -8.436  12.823  68.020  1.00  0.00    -0.142 F  
HETATM   14  C   UNL     1     -11.982  14.393  66.616  1.00  0.00    -0.414 A  
HETATM   15  C   UNL     1      -9.620  14.592  67.020  1.00  0.00    -0.240 A  
HETATM   16  C   UNL     1     -10.807  15.132  66.530  1.00  0.00    -0.317 A  
BRANCH  15  17
HETATM   17  N   UNL     1      -8.403  15.333  66.870  1.00  0.00    -0.233 N  
HETATM   18  H   UNL     1      -7.832  15.214  66.033  1.00  0.00     0.000 HD 
BRANCH  17  19
HETATM   19  S   UNL     1      -7.913  16.405  68.082  1.00  0.00    -0.165 S  
HETATM   20  O   UNL     1      -6.472  16.532  68.026  1.00  0.00    -0.125 OA 
HETATM   21  O   UNL     1      -8.552  15.963  69.304  1.00  0.00    -0.246 OA 
BRANCH  19  22
HETATM   22  C   UNL     1      -8.653  17.936  67.664  1.00  0.00    -0.242 A  
HETATM   23  C   UNL     1      -8.130  18.653  66.595  1.00  0.00    -0.271 A  
HETATM   24  F   UNL     1      -6.985  18.277  66.009  1.00  0.00    -0.235 F  
HETATM   25  C   UNL     1      -8.790  19.779  66.098  1.00  0.00    -0.378 A  
HETATM   26  C   UNL     1      -9.988  20.191  66.677  1.00  0.00    -0.595 A  
HETATM   27  C   UNL     1     -10.503  19.486  67.765  1.00  0.00    -0.574 A  
HETATM   28  C   UNL     1      -9.836  18.359  68.252  1.00  0.00    -0.359 A  
HETATM   29  F   UNL     1     -10.395  17.703  69.275  1.00  0.00    -0.343 F  
ENDBRANCH  19  22
ENDBRANCH  17  19
ENDBRANCH  15  17
ENDBRANCH   7  10
BRANCH   8  30
HETATM   30  C   UNL     1      -9.786   9.812  65.954  1.00  0.00    -0.282 A  
HETATM   31  C   UNL     1      -9.896  10.374  63.743  1.00  0.00    -0.243 A  
HETATM   32  N   UNL     1     -10.327  10.585  64.994  1.00  0.00    -0.295 NA 
HETATM   33  N   UNL     1     -10.424  11.140  62.730  1.00  0.00    -0.759 NA 
HETATM   34  N   UNL     1      -8.938   9.511  63.392  1.00  0.00    -0.220 NA 
HETATM   35  C   UNL     1      -8.396   8.782  64.374  1.00  0.00    -0.157 A  
HETATM   36  H2  UNL     1     -11.127  11.853  62.926  1.00  0.00     0.000 HD 
HETATM   37  C   UNL     1      -8.790   8.887  65.681  1.00  0.00    -0.230 A  
HETATM   38  H1  UNL     1     -10.096  10.979  61.778  1.00  0.00     0.000 HD 
ENDBRANCH   8  30
ENDBRANCH   2   5
TORSDOF 6
ENDMDL
MODEL       31
REMARK 921   NORMALIZED FREE ENERGY PREDICTED BY IDOCK:   -7.58 KCAL/MOL
REMARK 922        TOTAL FREE ENERGY PREDICTED BY IDOCK:  -11.37 KCAL/MOL
REMARK 923 INTER-LIGAND FREE ENERGY PREDICTED BY IDOCK:  -10.19 KCAL/MOL
REMARK 924 INTRA-LIGAND FREE ENERGY PREDICTED BY IDOCK:   -1.18 KCAL/MOL
REMARK 927      BINDING AFFINITY PREDICTED BY RF-SCORE:    0.00 PKD
ROOT
HETATM    1  C   UNL     1     -12.196  15.397  73.421  1.00  0.00    -0.621 C  
HETATM    2  C   UNL     1     -12.966  14.773  72.243  1.00  0.00    -0.423 C  
HETATM    3  C   UNL     1     -14.371  15.419  72.204  1.00  0.00    -0.642 C  
HETATM    4  C   UNL     1     -13.128  13.263  72.530  1.00  0.00    -0.385 C  
ENDROOT
BRANCH   2   5
HETATM    5  C   UNL     1     -12.235  14.977  70.905  1.00  0.00    -0.329 A  
HETATM    6  N   UNL     1     -12.185  14.156  69.870  1.00  0.00    -0.346 NA 
HETATM    7  C   UNL     1     -11.435  14.709  68.803  1.00  0.00    -0.296 A  
HETATM    8  C   UNL     1     -10.868  15.949  69.096  1.00  0.00    -0.268 A  
HETATM    9  S   UNL     1     -11.398  16.449  70.659  1.00  0.00    -0.013 SA 
BRANCH   7  10
HETATM   10  C   UNL     1     -11.307  13.978  67.525  1.00  0.00    -0.343 A  
HETATM   11  C   UNL     1     -10.138  13.255  67.212  1.00  0.00    -0.234 A  
HETATM   12  C   UNL     1     -12.356  13.923  66.589  1.00  0.00    -0.411 A  
HETATM   13  F   UNL     1      -9.071  13.281  68.029  1.00  0.00    -0.172 F  
HETATM   14  C   UNL     1     -12.284  13.115  65.447  1.00  0.00    -0.510 A  
HETATM   15  C   UNL     1     -10.057  12.447  66.063  1.00  0.00    -0.251 A  
HETATM   16  C   UNL     1     -11.138  12.370  65.187  1.00  0.00    -0.348 A  
BRANCH  15  17
HETATM   17  N   UNL     1      -8.906  11.629  65.823  1.00  0.00    -0.394 N  
HETATM   18  H   UNL     1      -8.058  12.041  65.432  1.00  0.00     0.000 HD 
BRANCH  17  19
HETATM   19  S   UNL     1      -8.952   9.979  66.188  1.00  0.00    -0.154 S  
HETATM   20  O   UNL     1      -7.688   9.388  65.801  1.00  0.00    -0.097 OA 
HETATM   21  O   UNL     1     -10.188   9.470  65.632  1.00  0.00    -0.228 OA 
BRANCH  19  22
HETATM   22  C   UNL     1      -9.126   9.901  67.929  1.00  0.00    -0.131 A  
HETATM   23  C   UNL     1     -10.405   9.959  68.469  1.00  0.00    -0.196 A  
HETATM   24  F   UNL     1     -11.465  10.243  67.699  1.00  0.00    -0.380 F  
HETATM   25  C   UNL     1     -10.620   9.714  69.826  1.00  0.00    -0.267 A  
HETATM   26  C   UNL     1      -9.542   9.405  70.654  1.00  0.00    -0.331 A  
HETATM   27  C   UNL     1      -8.255   9.369  70.118  1.00  0.00    -0.180 A  
HETATM   28  C   UNL     1      -8.052   9.614  68.758  1.00  0.00    -0.097 A  
HETATM   29  F   UNL     1      -6.799   9.531  68.295  1.00  0.00    -0.060 F  
ENDBRANCH  19  22
ENDBRANCH  17  19
ENDBRANCH  15  17
ENDBRANCH   7  10
BRANCH   8  30
HETATM   30  C   UNL     1      -9.990  16.904  68.395  1.00  0.00    -0.275 A  
HETATM   31  C   UNL     1      -9.755  18.919  67.348  1.00  0.00    -0.312 A  
HETATM   32  N   UNL     1     -10.548  18.067  68.012  1.00  0.00    -0.377 NA 
HETATM   33  N   UNL     1     -10.284  20.120  66.935  1.00  0.00    -0.453 NA 
HETATM   34  N   UNL     1      -8.455  18.731  67.100  1.00  0.00    -0.268 NA 
HETATM   35  C   UNL     1      -7.922  17.580  67.524  1.00  0.00    -0.200 A  
HETATM   36  H2  UNL     1     -11.257  20.357  67.129  1.00  0.00     0.000 HD 
HETATM   37  C   UNL     1      -8.651  16.620  68.176  1.00  0.00    -0.200 A  
HETATM   38  H1  UNL     1      -9.680  20.769  66.430  1.00  0.00     0.000 HD 
ENDBRANCH   8  30
ENDBRANCH   2   5
TORSDOF 6
ENDMDL
MODEL       32
REMARK 921   NORMALIZED FREE ENERGY PREDICTED BY IDOCK:   -7.53 KCAL/MOL
REMARK 922        TOTAL FREE ENERGY PREDICTED BY IDOCK:  -11.29 KCAL/MOL
REMARK 923 INTER-LIGAND FREE ENERGY PREDICTED BY IDOCK:  -10.45 KCAL/MOL
REMARK 924 INTRA-LIGAND FREE ENERGY PREDICTED BY IDOCK:   -0.85 KCAL/MOL
REMARK 927      BINDING AFFINITY PREDICTED BY RF-SCORE:    0.00 PKD
ROOT
HETATM    1  C   UNL     1     -12.142   9.054  71.395  1.00  0.00    -0.392 C  
HETATM    2  C   UNL     1     -10.888   9.003  70.503  1.00  0.00    -0.296 C  
HETATM    3  C   UNL     1     -10.859   7.621  69.808  1.00  0.00    -0.222 C  
HETATM    4  C   UNL     1      -9.650   9.115  71.423  1.00  0.00    -0.316 C  
ENDROOT
BRANCH   2   5
HETATM    5  C   UNL     1     -10.873  10.137  69.464  1.00  0.00    -0.255 A  
HETATM    6  N   UNL     1     -10.863  11.441  69.680  1.00  0.00    -0.119 NA 
HETATM    7  C   UNL     1     -10.820  12.169  68.466  1.00  0.00    -0.236 A  
HETATM    8  C   UNL     1     -10.861  11.367  67.326  1.00  0.00    -0.263 A  
HETATM    9  S   UNL     1     -10.825   9.712  67.807  1.00  0.00    -0.139 SA 
BRANCH   7  10
HETATM   10  C   UNL     1     -10.739  13.645  68.485  1.00  0.00    -0.269 A  
HETATM   11  C   UNL     1      -9.653  14.323  67.896  1.00  0.00    -0.221 A  
HETATM   12  C   UNL     1     -11.758  14.441  69.039  1.00  0.00    -0.345 A  
HETATM   13  F   UNL     1      -8.615  13.645  67.377  1.00  0.00    -0.165 F  
HETATM   14  C   UNL     1     -11.745  15.838  68.929  1.00  0.00    -0.404 A  
HETATM   15  C   UNL     1      -9.630  15.726  67.789  1.00  0.00    -0.214 A  
HETATM   16  C   UNL     1     -10.686  16.480  68.296  1.00  0.00    -0.345 A  
BRANCH  15  17
HETATM   17  N   UNL     1      -8.575  16.390  67.083  1.00  0.00    -0.173 N  
HETATM   18  H   UNL     1      -8.726  16.721  66.131  1.00  0.00     0.000 HD 
BRANCH  17  19
HETATM   19  S   UNL     1      -7.077  16.623  67.831  1.00  0.00    -0.146 S  
HETATM   20  O   UNL     1      -6.096  15.796  67.160  1.00  0.00    -0.322 OA 
HETATM   21  O   UNL     1      -7.300  16.470  69.254  1.00  0.00    -0.237 OA 
BRANCH  19  22
HETATM   22  C   UNL     1      -6.695  18.313  67.571  1.00  0.00    -0.193 A  
HETATM   23  C   UNL     1      -6.779  18.819  66.279  1.00  0.00    -0.218 A  
HETATM   24  F   UNL     1      -6.973  18.003  65.233  1.00  0.00    -0.250 F  
HETATM   25  C   UNL     1      -6.672  20.189  66.040  1.00  0.00    -0.270 A  
HETATM   26  C   UNL     1      -6.481  21.066  67.106  1.00  0.00    -0.411 A  
HETATM   27  C   UNL     1      -6.374  20.559  68.401  1.00  0.00    -0.351 A  
HETATM   28  C   UNL     1      -6.485  19.185  68.629  1.00  0.00    -0.256 A  
HETATM   29  F   UNL     1      -6.409  18.760  69.895  1.00  0.00    -0.269 F  
ENDBRANCH  19  22
ENDBRANCH  17  19
ENDBRANCH  15  17
ENDBRANCH   7  10
BRANCH   8  30
HETATM   30  C   UNL     1     -10.891  11.597  65.870  1.00  0.00    -0.287 A  
HETATM   31  C   UNL     1     -11.627  12.862  64.117  1.00  0.00    -0.398 A  
HETATM   32  N   UNL     1     -11.576  12.674  65.443  1.00  0.00    -0.344 NA 
HETATM   33  N   UNL     1     -12.319  13.949  63.635  1.00  0.00    -1.007 NA 
HETATM   34  N   UNL     1     -11.004  12.109  63.205  1.00  0.00    -0.391 NA 
HETATM   35  C   UNL     1     -10.302  11.066  63.665  1.00  0.00    -0.352 A  
HETATM   36  H2  UNL     1     -12.782  14.597  64.272  1.00  0.00     0.000 HD 
HETATM   37  C   UNL     1     -10.218  10.757  64.997  1.00  0.00    -0.373 A  
HETATM   38  H1  UNL     1     -12.357  14.092  62.625  1.00  0.00     0.000 HD 
ENDBRANCH   8  30
ENDBRANCH   2   5
TORSDOF 6
ENDMDL
MODEL       33
REMARK 921   NORMALIZED FREE ENERGY PREDICTED BY IDOCK:   -7.52 KCAL/MOL
REMARK 922        TOTAL FREE ENERGY PREDICTED BY IDOCK:  -11.28 KCAL/MOL
REMARK 923 INTER-LIGAND FREE ENERGY PREDICTED BY IDOCK:   -9.88 KCAL/MOL
REMARK 924 INTRA-LIGAND FREE ENERGY PREDICTED BY IDOCK:   -1.40 KCAL/MOL
REMARK 927      BINDING AFFINITY PREDICTED BY RF-SCORE:    0.00 PKD
ROOT
HETATM    1  C   UNL     1     -12.659  14.872  73.756  1.00  0.00    -0.584 C  
HETATM    2  C   UNL     1     -12.934  14.979  72.245  1.00  0.00    -0.434 C  
HETATM    3  C   UNL     1     -12.008  16.079  71.674  1.00  0.00    -0.569 C  
HETATM    4  C   UNL     1     -14.401  15.429  72.062  1.00  0.00    -0.653 C  
ENDROOT
BRANCH   2   5
HETATM    5  C   UNL     1     -12.702  13.641  71.522  1.00  0.00    -0.332 A  
HETATM    6  N   UNL     1     -12.934  12.420  71.972  1.00  0.00    -0.326 NA 
HETATM    7  C   UNL     1     -12.622  11.439  71.000  1.00  0.00    -0.386 A  
HETATM    8  C   UNL     1     -12.087  11.962  69.823  1.00  0.00    -0.252 A  
HETATM    9  S   UNL     1     -12.108  13.683  69.918  1.00  0.00    -0.325 SA 
BRANCH   7  10
HETATM   10  C   UNL     1     -12.868  10.008  71.279  1.00  0.00    -0.500 A  
HETATM   11  C   UNL     1     -11.812   9.142  71.629  1.00  0.00    -0.372 A  
HETATM   12  C   UNL     1     -14.161   9.456  71.261  1.00  0.00     0.053 A  
HETATM   13  F   UNL     1     -10.539   9.573  71.635  1.00  0.00    -0.402 F  
HETATM   14  C   UNL     1     -14.406   8.137  71.664  1.00  0.00    -0.570 A  
HETATM   15  C   UNL     1     -12.050   7.814  72.028  1.00  0.00    -0.311 A  
HETATM   16  C   UNL     1     -13.351   7.318  72.055  1.00  0.00    -0.178 A  
BRANCH  15  17
HETATM   17  N   UNL     1     -10.978   6.985  72.493  1.00  0.00    -0.250 N  
HETATM   18  H   UNL     1     -10.797   6.897  73.493  1.00  0.00     0.000 HD 
BRANCH  17  19
HETATM   19  S   UNL     1     -10.011   6.154  71.383  1.00  0.00    -0.190 S  
HETATM   20  O   UNL     1     -10.784   5.933  70.178  1.00  0.00    -0.265 OA 
HETATM   21  O   UNL     1      -9.444   5.028  72.094  1.00  0.00    -0.138 OA 
BRANCH  19  22
HETATM   22  C   UNL     1      -8.681   7.238  71.035  1.00  0.00    -0.140 A  
HETATM   23  C   UNL     1      -7.892   7.678  72.091  1.00  0.00    -0.104 A  
HETATM   24  F   UNL     1      -8.241   7.427  73.361  1.00  0.00    -0.118 F  
HETATM   25  C   UNL     1      -6.712   8.386  71.857  1.00  0.00    -0.083 A  
HETATM   26  C   UNL     1      -6.314   8.656  70.549  1.00  0.00    -0.037 A  
HETATM   27  C   UNL     1      -7.115   8.234  69.488  1.00  0.00    -0.053 A  
HETATM   28  C   UNL     1      -8.293   7.525  69.734  1.00  0.00    -0.134 A  
HETATM   29  F   UNL     1      -9.003   7.117  68.675  1.00  0.00    -0.131 F  
ENDBRANCH  19  22
ENDBRANCH  17  19
ENDBRANCH  15  17
ENDBRANCH   7  10
BRANCH   8  30
HETATM   30  C   UNL     1     -11.565  11.409  68.560  1.00  0.00    -0.318 A  
HETATM   31  C   UNL     1     -11.218  11.676  66.318  1.00  0.00    -0.271 A  
HETATM   32  N   UNL     1     -11.665  12.194  67.470  1.00  0.00    -0.498 NA 
HETATM   33  N   UNL     1     -11.304  12.442  65.179  1.00  0.00    -0.313 NA 
HETATM   34  N   UNL     1     -10.630  10.483  66.184  1.00  0.00    -0.162 NA 
HETATM   35  C   UNL     1     -10.514   9.742  67.292  1.00  0.00    -0.261 A  
HETATM   36  H2  UNL     1     -11.698  13.382  65.210  1.00  0.00     0.000 HD 
HETATM   37  C   UNL     1     -10.974  10.156  68.514  1.00  0.00    -0.278 A  
HETATM   38  H1  UNL     1     -10.963  12.047  64.301  1.00  0.00     0.000 HD 
ENDBRANCH   8  30
ENDBRANCH   2   5
TORSDOF 6
ENDMDL
MODEL       34
REMARK 921   NORMALIZED FREE ENERGY PREDICTED BY IDOCK:   -7.44 KCAL/MOL
REMARK 922        TOTAL FREE ENERGY PREDICTED BY IDOCK:  -11.17 KCAL/MOL
REMARK 923 INTER-LIGAND FREE ENERGY PREDICTED BY IDOCK:  -10.36 KCAL/MOL
REMARK 924 INTRA-LIGAND FREE ENERGY PREDICTED BY IDOCK:   -0.81 KCAL/MOL
REMARK 927      BINDING AFFINITY PREDICTED BY RF-SCORE:    0.00 PKD
ROOT
HETATM    1  C   UNL     1     -12.056  14.384  64.307  1.00  0.00    -0.461 C  
HETATM    2  C   UNL     1     -11.796  12.958  64.825  1.00  0.00    -0.409 C  
HETATM    3  C   UNL     1     -10.409  12.513  64.303  1.00  0.00    -0.396 C  
HETATM    4  C   UNL     1     -12.871  12.030  64.215  1.00  0.00    -0.211 C  
ENDROOT
BRANCH   2   5
HETATM    5  C   UNL     1     -11.850  12.884  66.361  1.00  0.00    -0.415 A  
HETATM    6  N   UNL     1     -11.898  11.805  67.124  1.00  0.00    -0.620 NA 
HETATM    7  C   UNL     1     -11.906  12.142  68.499  1.00  0.00    -0.310 A  
HETATM    8  C   UNL     1     -11.927  13.514  68.744  1.00  0.00    -0.339 A  
HETATM    9  S   UNL     1     -11.806  14.351  67.241  1.00  0.00    -0.376 SA 
BRANCH   7  10
HETATM   10  C   UNL     1     -11.895  11.079  69.526  1.00  0.00    -0.404 A  
HETATM   11  C   UNL     1     -10.761  10.265  69.720  1.00  0.00    -0.285 A  
HETATM   12  C   UNL     1     -12.985  10.862  70.389  1.00  0.00    -0.172 A  
HETATM   13  F   UNL     1      -9.688  10.374  68.918  1.00  0.00    -0.162 F  
HETATM   14  C   UNL     1     -12.915   9.951  71.451  1.00  0.00    -0.504 A  
HETATM   15  C   UNL     1     -10.687   9.342  70.780  1.00  0.00    -0.305 A  
HETATM   16  C   UNL     1     -11.764   9.197  71.652  1.00  0.00    -0.448 A  
BRANCH  15  17
HETATM   17  N   UNL     1      -9.483   8.609  71.031  1.00  0.00    -0.188 N  
HETATM   18  H   UNL     1      -8.702   9.058  71.511  1.00  0.00     0.000 HD 
BRANCH  17  19
HETATM   19  S   UNL     1      -9.355   6.999  70.532  1.00  0.00    -0.158 S  
HETATM   20  O   UNL     1     -10.530   6.285  70.985  1.00  0.00    -0.211 OA 
HETATM   21  O   UNL     1      -8.038   6.549  70.931  1.00  0.00    -0.119 OA 
BRANCH  19  22
HETATM   22  C   UNL     1      -9.346   7.063  68.782  1.00  0.00    -0.134 A  
HETATM   23  C   UNL     1      -8.146   7.335  68.136  1.00  0.00    -0.124 A  
HETATM   24  F   UNL     1      -7.063   7.712  68.829  1.00  0.00    -0.069 F  
HETATM   25  C   UNL     1      -8.037   7.212  66.750  1.00  0.00    -0.113 A  
HETATM   26  C   UNL     1      -9.141   6.812  66.000  1.00  0.00    -0.103 A  
HETATM   27  C   UNL     1     -10.352   6.560  66.644  1.00  0.00    -0.217 A  
HETATM   28  C   UNL     1     -10.450   6.684  68.032  1.00  0.00    -0.216 A  
HETATM   29  F   UNL     1     -11.628   6.396  68.598  1.00  0.00    -0.372 F  
ENDBRANCH  19  22
ENDBRANCH  17  19
ENDBRANCH  15  17
ENDBRANCH   7  10
BRANCH   8  30
HETATM   30  C   UNL     1     -11.989  14.377  69.938  1.00  0.00    -0.335 A  
HETATM   31  C   UNL     1     -12.919  14.805  71.980  1.00  0.00    -0.330 A  
HETATM   32  N   UNL     1     -12.843  14.002  70.910  1.00  0.00    -0.332 NA 
HETATM   33  N   UNL     1     -13.780  14.463  72.996  1.00  0.00    -0.538 NA 
HETATM   34  N   UNL     1     -12.175  15.897  72.181  1.00  0.00    -0.450 NA 
HETATM   35  C   UNL     1     -11.311  16.223  71.212  1.00  0.00    -0.213 A  
HETATM   36  H2  UNL     1     -14.348  13.617  72.937  1.00  0.00     0.000 HD 
HETATM   37  C   UNL     1     -11.182  15.497  70.058  1.00  0.00    -0.325 A  
HETATM   38  H1  UNL     1     -13.838  15.074  73.811  1.00  0.00     0.000 HD 
ENDBRANCH   8  30
ENDBRANCH   2   5
TORSDOF 6
ENDMDL
MODEL       35
REMARK 921   NORMALIZED FREE ENERGY PREDICTED BY IDOCK:   -7.43 KCAL/MOL
REMARK 922        TOTAL FREE ENERGY PREDICTED BY IDOCK:  -11.16 KCAL/MOL
REMARK 923 INTER-LIGAND FREE ENERGY PREDICTED BY IDOCK:  -10.31 KCAL/MOL
REMARK 924 INTRA-LIGAND FREE ENERGY PREDICTED BY IDOCK:   -0.86 KCAL/MOL
REMARK 927      BINDING AFFINITY PREDICTED BY RF-SCORE:    0.00 PKD
ROOT
HETATM    1  C   UNL     1      -8.549   7.392  65.415  1.00  0.00    -0.058 C  
HETATM    2  C   UNL     1      -9.185   7.222  66.806  1.00  0.00    -0.187 C  
HETATM    3  C   UNL     1      -8.082   6.728  67.772  1.00  0.00    -0.113 C  
HETATM    4  C   UNL     1     -10.270   6.126  66.700  1.00  0.00    -0.237 C  
ENDROOT
BRANCH   2   5
HETATM    5  C   UNL     1      -9.811   8.532  67.317  1.00  0.00    -0.199 A  
HETATM    6  N   UNL     1      -9.811   9.718  66.733  1.00  0.00    -0.196 NA 
HETATM    7  C   UNL     1     -10.519  10.675  67.499  1.00  0.00    -0.230 A  
HETATM    8  C   UNL     1     -10.998  10.183  68.713  1.00  0.00    -0.223 A  
HETATM    9  S   UNL     1     -10.658   8.495  68.803  1.00  0.00    -0.072 SA 
BRANCH   7  10
HETATM   10  C   UNL     1     -10.692  12.053  66.994  1.00  0.00    -0.280 A  
HETATM   11  C   UNL     1      -9.654  13.002  67.093  1.00  0.00    -0.230 A  
HETATM   12  C   UNL     1     -11.871  12.468  66.348  1.00  0.00    -0.445 A  
HETATM   13  F   UNL     1      -8.508  12.706  67.728  1.00  0.00    -0.135 F  
HETATM   14  C   UNL     1     -11.977  13.729  65.746  1.00  0.00    -0.423 A  
HETATM   15  C   UNL     1      -9.758  14.272  66.497  1.00  0.00    -0.291 A  
HETATM   16  C   UNL     1     -10.918  14.628  65.813  1.00  0.00    -0.330 A  
BRANCH  15  17
HETATM   17  N   UNL     1      -8.648  15.179  66.507  1.00  0.00    -0.422 N  
HETATM   18  H   UNL     1      -8.033  15.243  65.696  1.00  0.00     0.000 HD 
BRANCH  17  19
HETATM   19  S   UNL     1      -8.358  16.142  67.866  1.00  0.00    -0.163 S  
HETATM   20  O   UNL     1      -6.927  16.253  68.051  1.00  0.00    -0.122 OA 
HETATM   21  O   UNL     1      -9.186  15.612  68.929  1.00  0.00    -0.195 OA 
BRANCH  19  22
HETATM   22  C   UNL     1      -9.021  17.712  67.462  1.00  0.00    -0.235 A  
HETATM   23  C   UNL     1      -8.221  18.607  66.761  1.00  0.00    -0.267 A  
HETATM   24  F   UNL     1      -6.922  18.351  66.553  1.00  0.00    -0.199 F  
HETATM   25  C   UNL     1      -8.752  19.792  66.250  1.00  0.00    -0.403 A  
HETATM   26  C   UNL     1     -10.102  20.085  66.439  1.00  0.00    -0.609 A  
HETATM   27  C   UNL     1     -10.901  19.199  67.161  1.00  0.00    -0.507 A  
HETATM   28  C   UNL     1     -10.359  18.014  67.667  1.00  0.00    -0.388 A  
HETATM   29  F   UNL     1     -11.182  17.187  68.322  1.00  0.00    -0.348 F  
ENDBRANCH  19  22
ENDBRANCH  17  19
ENDBRANCH  15  17
ENDBRANCH   7  10
BRANCH   8  30
HETATM   30  C   UNL     1     -11.727  10.739  69.868  1.00  0.00    -0.333 A  
HETATM   31  C   UNL     1     -12.948  10.362  71.760  1.00  0.00    -0.475 A  
HETATM   32  N   UNL     1     -12.260   9.853  70.729  1.00  0.00    -0.298 NA 
HETATM   33  N   UNL     1     -13.512   9.492  72.664  1.00  0.00    -0.647 NA 
HETATM   34  N   UNL     1     -13.087  11.664  72.029  1.00  0.00    -0.440 NA 
HETATM   35  C   UNL     1     -12.515  12.519  71.173  1.00  0.00    -0.223 A  
HETATM   36  H2  UNL     1     -13.410   8.483  72.553  1.00  0.00     0.000 HD 
HETATM   37  C   UNL     1     -11.825  12.108  70.063  1.00  0.00    -0.383 A  
HETATM   38  H1  UNL     1     -14.036   9.880  73.449  1.00  0.00     0.000 HD 
ENDBRANCH   8  30
ENDBRANCH   2   5
TORSDOF 6
ENDMDL
MODEL       36
REMARK 921   NORMALIZED FREE ENERGY PREDICTED BY IDOCK:   -7.42 KCAL/MOL
REMARK 922        TOTAL FREE ENERGY PREDICTED BY IDOCK:  -11.14 KCAL/MOL
REMARK 923 INTER-LIGAND FREE ENERGY PREDICTED BY IDOCK:  -10.02 KCAL/MOL
REMARK 924 INTRA-LIGAND FREE ENERGY PREDICTED BY IDOCK:   -1.13 KCAL/MOL
REMARK 927      BINDING AFFINITY PREDICTED BY RF-SCORE:    0.00 PKD
ROOT
HETATM    1  C   UNL     1     -12.696   9.396  71.782  1.00  0.00    -0.476 C  
HETATM    2  C   UNL     1     -11.458   8.741  71.142  1.00  0.00    -0.344 C  
HETATM    3  C   UNL     1     -11.803   7.260  70.857  1.00  0.00    -0.351 C  
HETATM    4  C   UNL     1     -10.311   8.788  72.177  1.00  0.00    -0.378 C  
ENDROOT
BRANCH   2   5
HETATM    5  C   UNL     1     -11.029   9.459  69.851  1.00  0.00    -0.229 A  
HETATM    6  N   UNL     1     -11.585  10.515  69.282  1.00  0.00    -0.256 NA 
HETATM    7  C   UNL     1     -10.885  10.906  68.115  1.00  0.00    -0.234 A  
HETATM    8  C   UNL     1      -9.818  10.069  67.790  1.00  0.00    -0.157 A  
HETATM    9  S   UNL     1      -9.643   8.883  69.031  1.00  0.00    -0.160 SA 
BRANCH   7  10
HETATM   10  C   UNL     1     -11.305  12.105  67.360  1.00  0.00    -0.393 A  
HETATM   11  C   UNL     1     -11.090  13.401  67.872  1.00  0.00    -0.265 A  
HETATM   12  C   UNL     1     -11.887  12.017  66.082  1.00  0.00    -0.225 A  
HETATM   13  F   UNL     1     -10.575  13.581  69.100  1.00  0.00    -0.230 F  
HETATM   14  C   UNL     1     -12.153  13.157  65.313  1.00  0.00    -0.471 A  
HETATM   15  C   UNL     1     -11.362  14.550  67.106  1.00  0.00    -0.350 A  
HETATM   16  C   UNL     1     -11.883  14.424  65.821  1.00  0.00    -0.365 A  
BRANCH  15  17
HETATM   17  N   UNL     1     -11.027  15.854  67.598  1.00  0.00    -0.318 N  
HETATM   18  H   UNL     1     -11.764  16.486  67.911  1.00  0.00     0.000 HD 
BRANCH  17  19
HETATM   19  S   UNL     1      -9.410  16.343  67.659  1.00  0.00    -0.212 S  
HETATM   20  O   UNL     1      -8.678  15.635  66.630  1.00  0.00    -0.247 OA 
HETATM   21  O   UNL     1      -9.000  16.233  69.043  1.00  0.00    -0.246 OA 
BRANCH  19  22
HETATM   22  C   UNL     1      -9.437  18.054  67.287  1.00  0.00    -0.260 A  
HETATM   23  C   UNL     1     -10.225  18.489  66.228  1.00  0.00    -0.418 A  
HETATM   24  F   UNL     1     -10.810  17.611  65.401  1.00  0.00    -0.402 F  
HETATM   25  C   UNL     1     -10.434  19.850  66.004  1.00  0.00    -0.580 A  
HETATM   26  C   UNL     1      -9.848  20.790  66.851  1.00  0.00    -0.268 A  
HETATM   27  C   UNL     1      -9.039  20.356  67.901  1.00  0.00    -0.241 A  
HETATM   28  C   UNL     1      -8.839  18.991  68.117  1.00  0.00    -0.316 A  
HETATM   29  F   UNL     1      -8.081  18.634  69.160  1.00  0.00    -0.286 F  
ENDBRANCH  19  22
ENDBRANCH  17  19
ENDBRANCH  15  17
ENDBRANCH   7  10
BRANCH   8  30
HETATM   30  C   UNL     1      -8.828   9.988  66.700  1.00  0.00    -0.132 A  
HETATM   31  C   UNL     1      -6.817  10.653  65.848  1.00  0.00    -0.115 A  
HETATM   32  N   UNL     1      -7.700  10.705  66.855  1.00  0.00    -0.117 NA 
HETATM   33  N   UNL     1      -5.650  11.373  65.962  1.00  0.00    -0.441 NA 
HETATM   34  N   UNL     1      -6.942   9.903  64.749  1.00  0.00    -0.127 NA 
HETATM   35  C   UNL     1      -8.059   9.175  64.642  1.00  0.00    -0.136 A  
HETATM   36  H2  UNL     1      -5.462  11.934  66.794  1.00  0.00     0.000 HD 
HETATM   37  C   UNL     1      -9.046   9.185  65.591  1.00  0.00    -0.273 A  
HETATM   38  H1  UNL     1      -4.978  11.334  65.196  1.00  0.00     0.000 HD 
ENDBRANCH   8  30
ENDBRANCH   2   5
TORSDOF 6
ENDMDL
MODEL       37
REMARK 921   NORMALIZED FREE ENERGY PREDICTED BY IDOCK:   -7.36 KCAL/MOL
REMARK 922        TOTAL FREE ENERGY PREDICTED BY IDOCK:  -11.06 KCAL/MOL
REMARK 923 INTER-LIGAND FREE ENERGY PREDICTED BY IDOCK:   -9.98 KCAL/MOL
REMARK 924 INTRA-LIGAND FREE ENERGY PREDICTED BY IDOCK:   -1.08 KCAL/MOL
REMARK 927      BINDING AFFINITY PREDICTED BY RF-SCORE:    0.00 PKD
ROOT
HETATM    1  C   UNL     1      -8.265  18.630  68.260  1.00  0.00    -0.349 C  
HETATM    2  C   UNL     1      -8.498  18.234  66.791  1.00  0.00    -0.272 C  
HETATM    3  C   UNL     1      -7.230  18.617  65.992  1.00  0.00    -0.293 C  
HETATM    4  C   UNL     1      -9.685  19.070  66.259  1.00  0.00    -0.392 C  
ENDROOT
BRANCH   2   5
HETATM    5  C   UNL     1      -8.806  16.734  66.640  1.00  0.00    -0.255 A  
HETATM    6  N   UNL     1      -8.163  15.712  67.179  1.00  0.00    -0.193 NA 
HETATM    7  C   UNL     1      -8.765  14.478  66.832  1.00  0.00    -0.211 A  
HETATM    8  C   UNL     1      -9.847  14.604  65.961  1.00  0.00    -0.322 A  
HETATM    9  S   UNL     1     -10.162  16.279  65.701  1.00  0.00    -0.303 SA 
BRANCH   7  10
HETATM   10  C   UNL     1      -8.238  13.211  67.381  1.00  0.00    -0.187 A  
HETATM   11  C   UNL     1      -8.930  12.509  68.388  1.00  0.00    -0.130 A  
HETATM   12  C   UNL     1      -7.057  12.621  66.895  1.00  0.00     0.232 A  
HETATM   13  F   UNL     1     -10.046  13.016  68.939  1.00  0.00    -0.202 F  
HETATM   14  C   UNL     1      -6.638  11.353  67.318  1.00  0.00    -0.104 A  
HETATM   15  C   UNL     1      -8.510  11.238  68.823  1.00  0.00    -0.112 A  
HETATM   16  C   UNL     1      -7.368  10.658  68.276  1.00  0.00    -0.089 A  
BRANCH  15  17
HETATM   17  N   UNL     1      -9.292  10.490  69.761  1.00  0.00    -0.412 N  
HETATM   18  H   UNL     1      -9.202  10.671  70.760  1.00  0.00     0.000 HD 
BRANCH  17  19
HETATM   19  S   UNL     1     -10.365   9.305  69.210  1.00  0.00    -0.220 S  
HETATM   20  O   UNL     1      -9.708   8.018  69.292  1.00  0.00    -0.163 OA 
HETATM   21  O   UNL     1     -10.879   9.775  67.940  1.00  0.00    -0.266 OA 
BRANCH  19  22
HETATM   22  C   UNL     1     -11.710   9.350  70.332  1.00  0.00    -0.144 A  
HETATM   23  C   UNL     1     -12.143   8.155  70.893  1.00  0.00    -0.148 A  
HETATM   24  F   UNL     1     -11.666   6.979  70.460  1.00  0.00    -0.322 F  
HETATM   25  C   UNL     1     -13.078   8.149  71.930  1.00  0.00    -0.349 A  
HETATM   26  C   UNL     1     -13.586   9.354  72.412  1.00  0.00    -0.498 A  
HETATM   27  C   UNL     1     -13.169  10.553  71.834  1.00  0.00    -0.526 A  
HETATM   28  C   UNL     1     -12.231  10.547  70.799  1.00  0.00    -0.369 A  
HETATM   29  F   UNL     1     -11.844  11.730  70.308  1.00  0.00    -0.364 F  
ENDBRANCH  19  22
ENDBRANCH  17  19
ENDBRANCH  15  17
ENDBRANCH   7  10
BRANCH   8  30
HETATM   30  C   UNL     1     -10.766  13.678  65.272  1.00  0.00    -0.336 A  
HETATM   31  C   UNL     1     -11.053  11.997  63.755  1.00  0.00    -0.439 A  
HETATM   32  N   UNL     1     -10.212  12.815  64.401  1.00  0.00    -0.344 NA 
HETATM   33  N   UNL     1     -10.530  11.099  62.853  1.00  0.00    -0.778 NA 
HETATM   34  N   UNL     1     -12.373  11.931  63.954  1.00  0.00    -0.407 NA 
HETATM   35  C   UNL     1     -12.888  12.779  64.852  1.00  0.00    -0.278 A  
HETATM   36  H2  UNL     1      -9.526  11.057  62.680  1.00  0.00     0.000 HD 
HETATM   37  C   UNL     1     -12.126  13.686  65.540  1.00  0.00    -0.440 A  
HETATM   38  H1  UNL     1     -11.171  10.476  62.360  1.00  0.00     0.000 HD 
ENDBRANCH   8  30
ENDBRANCH   2   5
TORSDOF 6
ENDMDL
MODEL       38
REMARK 921   NORMALIZED FREE ENERGY PREDICTED BY IDOCK:   -7.34 KCAL/MOL
REMARK 922        TOTAL FREE ENERGY PREDICTED BY IDOCK:  -11.04 KCAL/MOL
REMARK 923 INTER-LIGAND FREE ENERGY PREDICTED BY IDOCK:  -10.05 KCAL/MOL
REMARK 924 INTRA-LIGAND FREE ENERGY PREDICTED BY IDOCK:   -0.99 KCAL/MOL
REMARK 927      BINDING AFFINITY PREDICTED BY RF-SCORE:    0.00 PKD
ROOT
HETATM    1  C   UNL     1     -13.230   8.571  72.451  1.00  0.00    -0.319 C  
HETATM    2  C   UNL     1     -11.935   8.087  71.775  1.00  0.00    -0.342 C  
HETATM    3  C   UNL     1     -12.193   6.663  71.228  1.00  0.00    -0.369 C  
HETATM    4  C   UNL     1     -10.838   8.004  72.860  1.00  0.00    -0.399 C  
ENDROOT
BRANCH   2   5
HETATM    5  C   UNL     1     -11.486   9.032  70.647  1.00  0.00    -0.248 A  
HETATM    6  N   UNL     1     -11.852  10.285  70.440  1.00  0.00    -0.289 NA 
HETATM    7  C   UNL     1     -11.198  10.838  69.311  1.00  0.00    -0.272 A  
HETATM    8  C   UNL     1     -10.375   9.935  68.639  1.00  0.00    -0.195 A  
HETATM    9  S   UNL     1     -10.343   8.450  69.515  1.00  0.00    -0.219 SA 
BRANCH   7  10
HETATM   10  C   UNL     1     -11.418  12.251  68.941  1.00  0.00    -0.355 A  
HETATM   11  C   UNL     1     -11.819  12.609  67.638  1.00  0.00    -0.329 A  
HETATM   12  C   UNL     1     -11.291  13.296  69.874  1.00  0.00    -0.067 A  
HETATM   13  F   UNL     1     -11.928  11.683  66.670  1.00  0.00    -0.300 F  
HETATM   14  C   UNL     1     -11.638  14.616  69.556  1.00  0.00    -0.350 A  
HETATM   15  C   UNL     1     -12.162  13.934  67.310  1.00  0.00    -0.289 A  
HETATM   16  C   UNL     1     -12.081  14.934  68.276  1.00  0.00    -0.146 A  
BRANCH  15  17
HETATM   17  N   UNL     1     -12.679  14.257  66.014  1.00  0.00    -0.453 N  
HETATM   18  H   UNL     1     -13.686  14.256  65.850  1.00  0.00     0.000 HD 
BRANCH  17  19
HETATM   19  S   UNL     1     -11.619  14.641  64.754  1.00  0.00    -0.416 S  
HETATM   20  O   UNL     1     -12.287  15.561  63.857  1.00  0.00    -0.653 OA 
HETATM   21  O   UNL     1     -11.109  13.383  64.249  1.00  0.00    -0.374 OA 
BRANCH  19  22
HETATM   22  C   UNL     1     -10.269  15.448  65.523  1.00  0.00    -0.382 A  
HETATM   23  C   UNL     1     -10.299  16.834  65.628  1.00  0.00    -0.265 A  
HETATM   24  F   UNL     1     -11.245  17.550  65.005  1.00  0.00    -0.337 F  
HETATM   25  C   UNL     1      -9.349  17.514  66.393  1.00  0.00    -0.265 A  
HETATM   26  C   UNL     1      -8.358  16.799  67.063  1.00  0.00    -0.219 A  
HETATM   27  C   UNL     1      -8.313  15.410  66.941  1.00  0.00    -0.290 A  
HETATM   28  C   UNL     1      -9.269  14.740  66.174  1.00  0.00    -0.202 A  
HETATM   29  F   UNL     1      -9.196  13.405  66.122  1.00  0.00    -0.226 F  
ENDBRANCH  19  22
ENDBRANCH  17  19
ENDBRANCH  15  17
ENDBRANCH   7  10
BRANCH   8  30
HETATM   30  C   UNL     1      -9.535   9.967  67.427  1.00  0.00    -0.149 A  
HETATM   31  C   UNL     1      -7.668  10.757  66.377  1.00  0.00    -0.145 A  
HETATM   32  N   UNL     1      -8.412  10.705  67.490  1.00  0.00    -0.121 NA 
HETATM   33  N   UNL     1      -6.512  11.502  66.395  1.00  0.00    -0.351 NA 
HETATM   34  N   UNL     1      -7.920  10.088  65.247  1.00  0.00    -0.137 NA 
HETATM   35  C   UNL     1      -9.026   9.335  65.229  1.00  0.00    -0.213 A  
HETATM   36  H2  UNL     1      -6.228  12.005  67.236  1.00  0.00     0.000 HD 
HETATM   37  C   UNL     1      -9.880   9.243  66.296  1.00  0.00    -0.361 A  
HETATM   38  H1  UNL     1      -5.946  11.542  65.547  1.00  0.00     0.000 HD 
ENDBRANCH   8  30
ENDBRANCH   2   5
TORSDOF 6
ENDMDL
MODEL       39
REMARK 921   NORMALIZED FREE ENERGY PREDICTED BY IDOCK:   -7.33 KCAL/MOL
REMARK 922        TOTAL FREE ENERGY PREDICTED BY IDOCK:  -11.02 KCAL/MOL
REMARK 923 INTER-LIGAND FREE ENERGY PREDICTED BY IDOCK:   -9.99 KCAL/MOL
REMARK 924 INTRA-LIGAND FREE ENERGY PREDICTED BY IDOCK:   -1.03 KCAL/MOL
REMARK 927      BINDING AFFINITY PREDICTED BY RF-SCORE:    0.00 PKD
ROOT
HETATM    1  C   UNL     1      -6.434   8.172  66.976  1.00  0.00    -0.057 C  
HETATM    2  C   UNL     1      -6.431   9.313  68.009  1.00  0.00    -0.059 C  
HETATM    3  C   UNL     1      -5.413  10.377  67.534  1.00  0.00    -0.040 C  
HETATM    4  C   UNL     1      -5.941   8.732  69.355  1.00  0.00    -0.037 C  
ENDROOT
BRANCH   2   5
HETATM    5  C   UNL     1      -7.828   9.935  68.184  1.00  0.00    -0.085 A  
HETATM    6  N   UNL     1      -8.440  10.800  67.394  1.00  0.00    -0.119 NA 
HETATM    7  C   UNL     1      -9.734  11.118  67.874  1.00  0.00    -0.174 A  
HETATM    8  C   UNL     1     -10.050  10.508  69.088  1.00  0.00    -0.224 A  
HETATM    9  S   UNL     1      -8.762   9.451  69.533  1.00  0.00    -0.175 SA 
BRANCH   7  10
HETATM   10  C   UNL     1     -10.613  12.022  67.104  1.00  0.00    -0.255 A  
HETATM   11  C   UNL     1     -10.619  13.410  67.342  1.00  0.00    -0.251 A  
HETATM   12  C   UNL     1     -11.442  11.553  66.068  1.00  0.00    -0.093 A  
HETATM   13  F   UNL     1      -9.889  13.943  68.336  1.00  0.00    -0.207 F  
HETATM   14  C   UNL     1     -12.165  12.429  65.248  1.00  0.00    -0.418 A  
HETATM   15  C   UNL     1     -11.349  14.295  66.526  1.00  0.00    -0.346 A  
HETATM   16  C   UNL     1     -12.112  13.801  65.472  1.00  0.00    -0.434 A  
BRANCH  15  17
HETATM   17  N   UNL     1     -11.249  15.712  66.711  1.00  0.00    -0.165 N  
HETATM   18  H   UNL     1     -11.720  16.160  67.498  1.00  0.00     0.000 HD 
BRANCH  17  19
HETATM   19  S   UNL     1     -10.351  16.644  65.623  1.00  0.00    -0.221 S  
HETATM   20  O   UNL     1     -11.231  17.084  64.561  1.00  0.00    -1.091 OA 
HETATM   21  O   UNL     1      -9.165  15.875  65.306  1.00  0.00    -0.173 OA 
BRANCH  19  22
HETATM   22  C   UNL     1      -9.809  18.029  66.547  1.00  0.00    -0.353 A  
HETATM   23  C   UNL     1     -10.249  19.291  66.167  1.00  0.00    -0.470 A  
HETATM   24  F   UNL     1     -10.925  19.468  65.024  1.00  0.00    -0.409 F  
HETATM   25  C   UNL     1     -10.006  20.405  66.972  1.00  0.00    -0.568 A  
HETATM   26  C   UNL     1      -9.315  20.255  68.173  1.00  0.00    -0.222 A  
HETATM   27  C   UNL     1      -8.853  18.993  68.545  1.00  0.00    -0.398 A  
HETATM   28  C   UNL     1      -9.104  17.884  67.733  1.00  0.00    -0.258 A  
HETATM   29  F   UNL     1      -8.665  16.694  68.159  1.00  0.00    -0.184 F  
ENDBRANCH  19  22
ENDBRANCH  17  19
ENDBRANCH  15  17
ENDBRANCH   7  10
BRANCH   8  30
HETATM   30  C   UNL     1     -11.193  10.531  70.018  1.00  0.00    -0.315 A  
HETATM   31  C   UNL     1     -12.602   9.375  71.395  1.00  0.00    -0.348 A  
HETATM   32  N   UNL     1     -11.543   9.356  70.574  1.00  0.00    -0.259 NA 
HETATM   33  N   UNL     1     -12.996   8.196  71.983  1.00  0.00    -0.410 NA 
HETATM   34  N   UNL     1     -13.286  10.467  71.748  1.00  0.00    -0.431 NA 
HETATM   35  C   UNL     1     -12.892  11.625  71.205  1.00  0.00    -0.328 A  
HETATM   36  H2  UNL     1     -12.494   7.327  71.800  1.00  0.00     0.000 HD 
HETATM   37  C   UNL     1     -11.849  11.714  70.322  1.00  0.00    -0.414 A  
HETATM   38  H1  UNL     1     -13.803   8.211  72.608  1.00  0.00     0.000 HD 
ENDBRANCH   8  30
ENDBRANCH   2   5
TORSDOF 6
ENDMDL
MODEL       40
REMARK 921   NORMALIZED FREE ENERGY PREDICTED BY IDOCK:   -7.32 KCAL/MOL
REMARK 922        TOTAL FREE ENERGY PREDICTED BY IDOCK:  -11.01 KCAL/MOL
REMARK 923 INTER-LIGAND FREE ENERGY PREDICTED BY IDOCK:  -10.62 KCAL/MOL
REMARK 924 INTRA-LIGAND FREE ENERGY PREDICTED BY IDOCK:   -0.39 KCAL/MOL
REMARK 927      BINDING AFFINITY PREDICTED BY RF-SCORE:    0.00 PKD
ROOT
HETATM    1  C   UNL     1     -11.305  14.423  65.173  1.00  0.00    -0.359 C  
HETATM    2  C   UNL     1     -11.443  12.936  65.548  1.00  0.00    -0.361 C  
HETATM    3  C   UNL     1     -10.153  12.214  65.093  1.00  0.00    -0.288 C  
HETATM    4  C   UNL     1     -12.636  12.357  64.752  1.00  0.00    -0.419 C  
ENDROOT
BRANCH   2   5
HETATM    5  C   UNL     1     -11.676  12.741  67.056  1.00  0.00    -0.374 A  
HETATM    6  N   UNL     1     -11.654  11.613  67.745  1.00  0.00    -0.484 NA 
HETATM    7  C   UNL     1     -11.884  11.841  69.124  1.00  0.00    -0.326 A  
HETATM    8  C   UNL     1     -12.143  13.174  69.439  1.00  0.00    -0.231 A  
HETATM    9  S   UNL     1     -11.964  14.129  68.014  1.00  0.00    -0.282 SA 
BRANCH   7  10
HETATM   10  C   UNL     1     -11.839  10.717  70.082  1.00  0.00    -0.421 A  
HETATM   11  C   UNL     1     -10.646  10.004  70.315  1.00  0.00    -0.295 A  
HETATM   12  C   UNL     1     -12.961  10.339  70.842  1.00  0.00    -0.456 A  
HETATM   13  F   UNL     1      -9.534  10.270  69.607  1.00  0.00    -0.212 F  
HETATM   14  C   UNL     1     -12.877   9.369  71.850  1.00  0.00    -0.497 A  
HETATM   15  C   UNL     1     -10.556   9.024  71.320  1.00  0.00    -0.308 A  
HETATM   16  C   UNL     1     -11.672   8.717  72.094  1.00  0.00    -0.442 A  
BRANCH  15  17
HETATM   17  N   UNL     1      -9.304   8.395  71.620  1.00  0.00    -0.191 N  
HETATM   18  H   UNL     1      -8.657   8.832  72.276  1.00  0.00     0.000 HD 
BRANCH  17  19
HETATM   19  S   UNL     1      -8.901   6.926  70.886  1.00  0.00    -0.149 S  
HETATM   20  O   UNL     1      -7.463   6.874  70.726  1.00  0.00    -0.080 OA 
HETATM   21  O   UNL     1      -9.762   6.795  69.729  1.00  0.00    -0.157 OA 
BRANCH  19  22
HETATM   22  C   UNL     1      -9.409   5.693  72.021  1.00  0.00    -0.150 A  
HETATM   23  C   UNL     1      -8.470   5.184  72.909  1.00  0.00    -0.116 A  
HETATM   24  F   UNL     1      -7.171   5.495  72.790  1.00  0.00    -0.081 F  
HETATM   25  C   UNL     1      -8.856   4.344  73.955  1.00  0.00    -0.103 A  
HETATM   26  C   UNL     1     -10.199   4.009  74.115  1.00  0.00    -0.233 A  
HETATM   27  C   UNL     1     -11.140   4.501  73.211  1.00  0.00    -0.389 A  
HETATM   28  C   UNL     1     -10.743   5.343  72.169  1.00  0.00    -0.227 A  
HETATM   29  F   UNL     1     -11.695   5.811  71.354  1.00  0.00    -0.287 F  
ENDBRANCH  19  22
ENDBRANCH  17  19
ENDBRANCH  15  17
ENDBRANCH   7  10
BRANCH   8  30
HETATM   30  C   UNL     1     -12.483  13.927  70.660  1.00  0.00    -0.366 A  
HETATM   31  C   UNL     1     -12.228  15.821  71.909  1.00  0.00    -0.459 A  
HETATM   32  N   UNL     1     -11.942  15.153  70.784  1.00  0.00    -0.299 NA 
HETATM   33  N   UNL     1     -11.695  17.078  72.079  1.00  0.00    -0.200 NA 
HETATM   34  N   UNL     1     -13.050  15.395  72.873  1.00  0.00    -0.443 NA 
HETATM   35  C   UNL     1     -13.599  14.187  72.704  1.00  0.00    -0.515 A  
HETATM   36  H2  UNL     1     -11.095  17.492  71.365  1.00  0.00     0.000 HD 
HETATM   37  C   UNL     1     -13.342  13.401  71.612  1.00  0.00    -0.420 A  
HETATM   38  H1  UNL     1     -11.913  17.587  72.936  1.00  0.00     0.000 HD 
ENDBRANCH   8  30
ENDBRANCH   2   5
TORSDOF 6
ENDMDL
MODEL       41
REMARK 921   NORMALIZED FREE ENERGY PREDICTED BY IDOCK:   -7.31 KCAL/MOL
REMARK 922        TOTAL FREE ENERGY PREDICTED BY IDOCK:  -11.00 KCAL/MOL
REMARK 923 INTER-LIGAND FREE ENERGY PREDICTED BY IDOCK:  -10.03 KCAL/MOL
REMARK 924 INTRA-LIGAND FREE ENERGY PREDICTED BY IDOCK:   -0.96 KCAL/MOL
REMARK 927      BINDING AFFINITY PREDICTED BY RF-SCORE:    0.00 PKD
ROOT
HETATM    1  C   UNL     1     -10.706   5.853  66.996  1.00  0.00    -0.396 C  
HETATM    2  C   UNL     1     -10.186   6.715  68.160  1.00  0.00    -0.193 C  
HETATM    3  C   UNL     1      -8.927   6.024  68.733  1.00  0.00    -0.118 C  
HETATM    4  C   UNL     1     -11.276   6.736  69.257  1.00  0.00    -0.261 C  
ENDROOT
BRANCH   2   5
HETATM    5  C   UNL     1      -9.864   8.152  67.714  1.00  0.00    -0.166 A  
HETATM    6  N   UNL     1     -10.534   8.911  66.863  1.00  0.00    -0.262 NA 
HETATM    7  C   UNL     1      -9.942  10.191  66.731  1.00  0.00    -0.211 A  
HETATM    8  C   UNL     1      -8.767  10.347  67.465  1.00  0.00    -0.125 A  
HETATM    9  S   UNL     1      -8.503   8.925  68.404  1.00  0.00    -0.130 SA 
BRANCH   7  10
HETATM   10  C   UNL     1     -10.571  11.217  65.873  1.00  0.00    -0.309 A  
HETATM   11  C   UNL     1     -10.890  12.493  66.379  1.00  0.00    -0.261 A  
HETATM   12  C   UNL     1     -10.831  10.992  64.509  1.00  0.00    -0.257 A  
HETATM   13  F   UNL     1     -10.712  12.785  67.678  1.00  0.00    -0.211 F  
HETATM   14  C   UNL     1     -11.295  12.013  63.669  1.00  0.00    -0.536 A  
HETATM   15  C   UNL     1     -11.363  13.521  65.541  1.00  0.00    -0.296 A  
HETATM   16  C   UNL     1     -11.553  13.280  64.183  1.00  0.00    -0.451 A  
BRANCH  15  17
HETATM   17  N   UNL     1     -11.570  14.844  66.051  1.00  0.00    -0.283 N  
HETATM   18  H   UNL     1     -12.281  15.012  66.763  1.00  0.00     0.000 HD 
BRANCH  17  19
HETATM   19  S   UNL     1     -10.635  16.127  65.471  1.00  0.00    -0.334 S  
HETATM   20  O   UNL     1     -11.344  16.750  64.373  1.00  0.00    -1.089 OA 
HETATM   21  O   UNL     1      -9.301  15.603  65.265  1.00  0.00    -0.194 OA 
BRANCH  19  22
HETATM   22  C   UNL     1     -10.523  17.251  66.809  1.00  0.00    -0.261 A  
HETATM   23  C   UNL     1     -10.242  16.748  68.074  1.00  0.00    -0.300 A  
HETATM   24  F   UNL     1     -10.232  15.427  68.301  1.00  0.00    -0.219 F  
HETATM   25  C   UNL     1      -9.955  17.605  69.137  1.00  0.00    -0.192 A  
HETATM   26  C   UNL     1      -9.947  18.984  68.933  1.00  0.00    -0.460 A  
HETATM   27  C   UNL     1     -10.250  19.492  67.670  1.00  0.00    -0.556 A  
HETATM   28  C   UNL     1     -10.534  18.624  66.612  1.00  0.00    -0.413 A  
HETATM   29  F   UNL     1     -10.784  19.168  65.415  1.00  0.00    -0.515 F  
ENDBRANCH  19  22
ENDBRANCH  17  19
ENDBRANCH  15  17
ENDBRANCH   7  10
BRANCH   8  30
HETATM   30  C   UNL     1      -7.763  11.412  67.644  1.00  0.00    -0.121 A  
HETATM   31  C   UNL     1      -7.158  13.359  68.672  1.00  0.00    -0.106 A  
HETATM   32  N   UNL     1      -8.058  12.376  68.536  1.00  0.00    -0.131 NA 
HETATM   33  N   UNL     1      -7.419  14.367  69.572  1.00  0.00    -0.356 NA 
HETATM   34  N   UNL     1      -5.978  13.418  68.047  1.00  0.00    -0.115 NA 
HETATM   35  C   UNL     1      -5.700  12.427  67.193  1.00  0.00    -0.062 A  
HETATM   36  H2  UNL     1      -8.278  14.366  70.122  1.00  0.00     0.000 HD 
HETATM   37  C   UNL     1      -6.566  11.395  66.945  1.00  0.00    -0.141 A  
HETATM   38  H1  UNL     1      -6.733  15.115  69.676  1.00  0.00     0.000 HD 
ENDBRANCH   8  30
ENDBRANCH   2   5
TORSDOF 6
ENDMDL
MODEL       42
REMARK 921   NORMALIZED FREE ENERGY PREDICTED BY IDOCK:   -7.30 KCAL/MOL
REMARK 922        TOTAL FREE ENERGY PREDICTED BY IDOCK:  -10.98 KCAL/MOL
REMARK 923 INTER-LIGAND FREE ENERGY PREDICTED BY IDOCK:  -10.24 KCAL/MOL
REMARK 924 INTRA-LIGAND FREE ENERGY PREDICTED BY IDOCK:   -0.74 KCAL/MOL
REMARK 927      BINDING AFFINITY PREDICTED BY RF-SCORE:    0.00 PKD
ROOT
HETATM    1  C   UNL     1     -12.772  14.847  73.665  1.00  0.00    -0.600 C  
HETATM    2  C   UNL     1     -12.934  15.056  72.149  1.00  0.00    -0.426 C  
HETATM    3  C   UNL     1     -12.042  16.251  71.739  1.00  0.00    -0.408 C  
HETATM    4  C   UNL     1     -14.410  15.430  71.879  1.00  0.00    -0.649 C  
ENDROOT
BRANCH   2   5
HETATM    5  C   UNL     1     -12.559  13.796  71.350  1.00  0.00    -0.348 A  
HETATM    6  N   UNL     1     -12.568  12.539  71.759  1.00  0.00    -0.098 NA 
HETATM    7  C   UNL     1     -12.186  11.652  70.723  1.00  0.00    -0.344 A  
HETATM    8  C   UNL     1     -11.828  12.292  69.537  1.00  0.00    -0.315 A  
HETATM    9  S   UNL     1     -12.102  13.985  69.712  1.00  0.00    -0.349 SA 
BRANCH   7  10
HETATM   10  C   UNL     1     -12.190  10.192  70.952  1.00  0.00    -0.455 A  
HETATM   11  C   UNL     1     -10.986   9.471  71.085  1.00  0.00    -0.368 A  
HETATM   12  C   UNL     1     -13.385   9.463  71.101  1.00  0.00    -0.279 A  
HETATM   13  F   UNL     1      -9.798  10.077  70.920  1.00  0.00    -0.230 F  
HETATM   14  C   UNL     1     -13.383   8.109  71.459  1.00  0.00    -0.313 A  
HETATM   15  C   UNL     1     -10.977   8.109  71.438  1.00  0.00    -0.237 A  
HETATM   16  C   UNL     1     -12.179   7.433  71.635  1.00  0.00    -0.361 A  
BRANCH  15  17
HETATM   17  N   UNL     1      -9.744   7.424  71.683  1.00  0.00    -0.155 N  
HETATM   18  H   UNL     1      -9.087   7.786  72.374  1.00  0.00     0.000 HD 
BRANCH  17  19
HETATM   19  S   UNL     1      -9.376   6.014  70.826  1.00  0.00    -0.154 S  
HETATM   20  O   UNL     1     -10.440   5.055  71.044  1.00  0.00    -0.213 OA 
HETATM   21  O   UNL     1      -8.012   5.669  71.168  1.00  0.00    -0.107 OA 
BRANCH  19  22
HETATM   22  C   UNL     1      -9.356   6.495  69.143  1.00  0.00    -0.133 A  
HETATM   23  C   UNL     1     -10.548   6.456  68.429  1.00  0.00    -0.257 A  
HETATM   24  F   UNL     1     -11.648   5.902  68.958  1.00  0.00    -0.372 F  
HETATM   25  C   UNL     1     -10.633   7.003  67.148  1.00  0.00    -0.412 A  
HETATM   26  C   UNL     1      -9.511   7.597  66.573  1.00  0.00    -0.250 A  
HETATM   27  C   UNL     1      -8.308   7.617  67.278  1.00  0.00    -0.115 A  
HETATM   28  C   UNL     1      -8.235   7.068  68.561  1.00  0.00    -0.124 A  
HETATM   29  F   UNL     1      -7.063   7.147  69.202  1.00  0.00    -0.071 F  
ENDBRANCH  19  22
ENDBRANCH  17  19
ENDBRANCH  15  17
ENDBRANCH   7  10
BRANCH   8  30
HETATM   30  C   UNL     1     -11.326  11.871  68.216  1.00  0.00    -0.277 A  
HETATM   31  C   UNL     1     -11.602  11.847  65.949  1.00  0.00    -0.224 A  
HETATM   32  N   UNL     1     -12.044  12.258  67.146  1.00  0.00    -0.528 NA 
HETATM   33  N   UNL     1     -12.307  12.218  64.828  1.00  0.00    -0.439 NA 
HETATM   34  N   UNL     1     -10.483  11.148  65.738  1.00  0.00    -0.254 NA 
HETATM   35  C   UNL     1      -9.773  10.808  66.820  1.00  0.00    -0.187 A  
HETATM   36  H2  UNL     1     -13.147  12.792  64.904  1.00  0.00     0.000 HD 
HETATM   37  C   UNL     1     -10.155  11.139  68.093  1.00  0.00    -0.193 A  
HETATM   38  H1  UNL     1     -11.970  11.905  63.917  1.00  0.00     0.000 HD 
ENDBRANCH   8  30
ENDBRANCH   2   5
TORSDOF 6
ENDMDL
MODEL       43
REMARK 921   NORMALIZED FREE ENERGY PREDICTED BY IDOCK:   -7.27 KCAL/MOL
REMARK 922        TOTAL FREE ENERGY PREDICTED BY IDOCK:  -10.95 KCAL/MOL
REMARK 923 INTER-LIGAND FREE ENERGY PREDICTED BY IDOCK:   -9.70 KCAL/MOL
REMARK 924 INTRA-LIGAND FREE ENERGY PREDICTED BY IDOCK:   -1.25 KCAL/MOL
REMARK 927      BINDING AFFINITY PREDICTED BY RF-SCORE:    0.00 PKD
ROOT
HETATM    1  C   UNL     1      -8.389   5.499  64.668  1.00  0.00    -0.131 C  
HETATM    2  C   UNL     1      -9.154   5.266  65.983  1.00  0.00    -0.154 C  
HETATM    3  C   UNL     1      -8.325   4.282  66.842  1.00  0.00    -0.101 C  
HETATM    4  C   UNL     1     -10.502   4.595  65.633  1.00  0.00    -0.260 C  
ENDROOT
BRANCH   2   5
HETATM    5  C   UNL     1      -9.404   6.579  66.745  1.00  0.00    -0.156 A  
HETATM    6  N   UNL     1      -8.945   7.786  66.462  1.00  0.00    -0.153 NA 
HETATM    7  C   UNL     1      -9.419   8.752  67.382  1.00  0.00    -0.146 A  
HETATM    8  C   UNL     1     -10.202   8.219  68.406  1.00  0.00    -0.209 A  
HETATM    9  S   UNL     1     -10.428   6.534  68.115  1.00  0.00    -0.246 SA 
BRANCH   7  10
HETATM   10  C   UNL     1      -9.074  10.178  67.209  1.00  0.00    -0.151 A  
HETATM   11  C   UNL     1      -9.661  10.952  66.188  1.00  0.00    -0.202 A  
HETATM   12  C   UNL     1      -8.191  10.843  68.080  1.00  0.00    -0.121 A  
HETATM   13  F   UNL     1     -10.486  10.393  65.287  1.00  0.00    -0.358 F  
HETATM   14  C   UNL     1      -7.976  12.225  67.999  1.00  0.00    -0.150 A  
HETATM   15  C   UNL     1      -9.444  12.339  66.096  1.00  0.00    -0.217 A  
HETATM   16  C   UNL     1      -8.609  12.975  67.012  1.00  0.00    -0.165 A  
BRANCH  15  17
HETATM   17  N   UNL     1     -10.141  13.127  65.124  1.00  0.00    -0.460 N  
HETATM   18  H   UNL     1      -9.701  13.343  64.230  1.00  0.00     0.000 HD 
BRANCH  17  19
HETATM   19  S   UNL     1     -11.696  13.700  65.460  1.00  0.00    -0.354 S  
HETATM   20  O   UNL     1     -12.603  12.571  65.492  1.00  0.00    -0.642 OA 
HETATM   21  O   UNL     1     -11.937  14.794  64.543  1.00  0.00    -0.445 OA 
BRANCH  19  22
HETATM   22  C   UNL     1     -11.586  14.410  67.057  1.00  0.00    -0.384 A  
HETATM   23  C   UNL     1     -11.864  13.608  68.158  1.00  0.00    -0.372 A  
HETATM   24  F   UNL     1     -12.373  12.378  68.001  1.00  0.00    -0.311 F  
HETATM   25  C   UNL     1     -11.612  14.060  69.454  1.00  0.00    -0.349 A  
HETATM   26  C   UNL     1     -11.073  15.330  69.652  1.00  0.00    -0.284 A  
HETATM   27  C   UNL     1     -10.814  16.145  68.550  1.00  0.00    -0.313 A  
HETATM   28  C   UNL     1     -11.068  15.681  67.257  1.00  0.00    -0.238 A  
HETATM   29  F   UNL     1     -10.768  16.494  66.238  1.00  0.00    -0.308 F  
ENDBRANCH  19  22
ENDBRANCH  17  19
ENDBRANCH  15  17
ENDBRANCH   7  10
BRANCH   8  30
HETATM   30  C   UNL     1     -10.881   8.745  69.604  1.00  0.00    -0.169 A  
HETATM   31  C   UNL     1     -11.720   8.354  71.691  1.00  0.00    -0.298 A  
HETATM   32  N   UNL     1     -11.076   7.879  70.617  1.00  0.00    -0.257 NA 
HETATM   33  N   UNL     1     -11.944   7.503  72.749  1.00  0.00    -0.575 NA 
HETATM   34  N   UNL     1     -12.119   9.618  71.858  1.00  0.00    -0.359 NA 
HETATM   35  C   UNL     1     -11.879  10.462  70.847  1.00  0.00    -0.377 A  
HETATM   36  H2  UNL     1     -11.627   6.534  72.717  1.00  0.00     0.000 HD 
HETATM   37  C   UNL     1     -11.266  10.074  69.686  1.00  0.00    -0.285 A  
HETATM   38  H1  UNL     1     -12.434   7.864  73.568  1.00  0.00     0.000 HD 
ENDBRANCH   8  30
ENDBRANCH   2   5
TORSDOF 6
ENDMDL
MODEL       44
REMARK 921   NORMALIZED FREE ENERGY PREDICTED BY IDOCK:   -7.25 KCAL/MOL
REMARK 922        TOTAL FREE ENERGY PREDICTED BY IDOCK:  -10.92 KCAL/MOL
REMARK 923 INTER-LIGAND FREE ENERGY PREDICTED BY IDOCK:  -10.02 KCAL/MOL
REMARK 924 INTRA-LIGAND FREE ENERGY PREDICTED BY IDOCK:   -0.90 KCAL/MOL
REMARK 927      BINDING AFFINITY PREDICTED BY RF-SCORE:    0.00 PKD
ROOT
HETATM    1  C   UNL     1      -9.155  19.373  68.282  1.00  0.00    -0.397 C  
HETATM    2  C   UNL     1      -9.222  18.921  66.812  1.00  0.00    -0.335 C  
HETATM    3  C   UNL     1      -7.944  19.429  66.104  1.00  0.00    -0.320 C  
HETATM    4  C   UNL     1     -10.447  19.605  66.163  1.00  0.00    -0.624 C  
ENDROOT
BRANCH   2   5
HETATM    5  C   UNL     1      -9.346  17.393  66.684  1.00  0.00    -0.265 A  
HETATM    6  N   UNL     1      -8.638  16.463  67.302  1.00  0.00    -0.176 NA 
HETATM    7  C   UNL     1      -9.067  15.161  66.946  1.00  0.00    -0.247 A  
HETATM    8  C   UNL     1     -10.082  15.143  65.990  1.00  0.00    -0.302 A  
HETATM    9  S   UNL     1     -10.561  16.766  65.656  1.00  0.00    -0.150 SA 
BRANCH   7  10
HETATM   10  C   UNL     1      -8.447  13.975  67.574  1.00  0.00    -0.201 A  
HETATM   11  C   UNL     1      -9.226  13.026  68.266  1.00  0.00    -0.191 A  
HETATM   12  C   UNL     1      -7.070  13.709  67.468  1.00  0.00    -0.166 A  
HETATM   13  F   UNL     1     -10.543  13.217  68.451  1.00  0.00    -0.223 F  
HETATM   14  C   UNL     1      -6.511  12.514  67.941  1.00  0.00    -0.105 A  
HETATM   15  C   UNL     1      -8.669  11.828  68.751  1.00  0.00     0.024 A  
HETATM   16  C   UNL     1      -7.312  11.570  68.575  1.00  0.00    -0.104 A  
BRANCH  15  17
HETATM   17  N   UNL     1      -9.498  10.824  69.347  1.00  0.00    -0.413 N  
HETATM   18  H   UNL     1      -9.495  10.693  70.359  1.00  0.00     0.000 HD 
BRANCH  17  19
HETATM   19  S   UNL     1     -10.484   9.855  68.373  1.00  0.00    -0.219 S  
HETATM   20  O   UNL     1      -9.800   9.622  67.119  1.00  0.00    -0.168 OA 
HETATM   21  O   UNL     1     -11.796  10.468  68.379  1.00  0.00    -0.380 OA 
BRANCH  19  22
HETATM   22  C   UNL     1     -10.642   8.344  69.244  1.00  0.00    -0.182 A  
HETATM   23  C   UNL     1     -10.641   8.378  70.634  1.00  0.00    -0.208 A  
HETATM   24  F   UNL     1     -10.351   9.508  71.294  1.00  0.00    -0.357 F  
HETATM   25  C   UNL     1     -10.952   7.238  71.377  1.00  0.00    -0.256 A  
HETATM   26  C   UNL     1     -11.268   6.049  70.723  1.00  0.00    -0.340 A  
HETATM   27  C   UNL     1     -11.248   6.007  69.329  1.00  0.00    -0.367 A  
HETATM   28  C   UNL     1     -10.938   7.154  68.595  1.00  0.00    -0.035 A  
HETATM   29  F   UNL     1     -10.967   7.062  67.260  1.00  0.00    -0.339 F  
ENDBRANCH  19  22
ENDBRANCH  17  19
ENDBRANCH  15  17
ENDBRANCH   7  10
BRANCH   8  30
HETATM   30  C   UNL     1     -10.832  14.105  65.260  1.00  0.00    -0.349 A  
HETATM   31  C   UNL     1     -10.823  12.436  63.702  1.00  0.00    -0.462 A  
HETATM   32  N   UNL     1     -10.132  13.358  64.386  1.00  0.00    -0.274 NA 
HETATM   33  N   UNL     1     -10.149  11.651  62.795  1.00  0.00    -0.581 NA 
HETATM   34  N   UNL     1     -12.121  12.162  63.867  1.00  0.00    -0.468 NA 
HETATM   35  C   UNL     1     -12.780  12.899  64.769  1.00  0.00    -0.370 A  
HETATM   36  H2  UNL     1      -9.147  11.768  62.647  1.00  0.00     0.000 HD 
HETATM   37  C   UNL     1     -12.182  13.896  65.494  1.00  0.00    -0.467 A  
HETATM   38  H1  UNL     1     -10.675  10.949  62.274  1.00  0.00     0.000 HD 
ENDBRANCH   8  30
ENDBRANCH   2   5
TORSDOF 6
ENDMDL
MODEL       45
REMARK 921   NORMALIZED FREE ENERGY PREDICTED BY IDOCK:   -7.25 KCAL/MOL
REMARK 922        TOTAL FREE ENERGY PREDICTED BY IDOCK:  -10.91 KCAL/MOL
REMARK 923 INTER-LIGAND FREE ENERGY PREDICTED BY IDOCK:   -9.77 KCAL/MOL
REMARK 924 INTRA-LIGAND FREE ENERGY PREDICTED BY IDOCK:   -1.15 KCAL/MOL
REMARK 927      BINDING AFFINITY PREDICTED BY RF-SCORE:    0.00 PKD
ROOT
HETATM    1  C   UNL     1     -11.689   9.050  71.132  1.00  0.00    -0.366 C  
HETATM    2  C   UNL     1     -10.399   8.815  70.326  1.00  0.00    -0.227 C  
HETATM    3  C   UNL     1     -10.499   7.415  69.675  1.00  0.00    -0.237 C  
HETATM    4  C   UNL     1      -9.214   8.810  71.319  1.00  0.00    -0.309 C  
ENDROOT
BRANCH   2   5
HETATM    5  C   UNL     1     -10.182   9.899  69.256  1.00  0.00    -0.209 A  
HETATM    6  N   UNL     1      -9.381  10.949  69.311  1.00  0.00    -0.078 NA 
HETATM    7  C   UNL     1      -9.432  11.705  68.114  1.00  0.00    -0.191 A  
HETATM    8  C   UNL     1     -10.348  11.222  67.181  1.00  0.00    -0.209 A  
HETATM    9  S   UNL     1     -11.031   9.755  67.778  1.00  0.00    -0.075 SA 
BRANCH   7  10
HETATM   10  C   UNL     1      -8.563  12.888  67.943  1.00  0.00    -0.185 A  
HETATM   11  C   UNL     1      -9.079  14.194  68.056  1.00  0.00    -0.191 A  
HETATM   12  C   UNL     1      -7.180  12.771  67.712  1.00  0.00    -0.132 A  
HETATM   13  F   UNL     1     -10.394  14.403  68.238  1.00  0.00    -0.219 F  
HETATM   14  C   UNL     1      -6.338  13.891  67.692  1.00  0.00    -0.140 A  
HETATM   15  C   UNL     1      -8.240  15.324  68.030  1.00  0.00    -0.141 A  
HETATM   16  C   UNL     1      -6.867  15.167  67.859  1.00  0.00    -0.171 A  
BRANCH  15  17
HETATM   17  N   UNL     1      -8.768  16.634  68.265  1.00  0.00    -0.209 N  
HETATM   18  H   UNL     1      -8.781  17.019  69.210  1.00  0.00     0.000 HD 
BRANCH  17  19
HETATM   19  S   UNL     1      -9.371  17.545  66.974  1.00  0.00    -0.267 S  
HETATM   20  O   UNL     1     -10.627  18.140  67.380  1.00  0.00    -0.400 OA 
HETATM   21  O   UNL     1      -9.321  16.688  65.808  1.00  0.00    -0.501 OA 
BRANCH  19  22
HETATM   22  C   UNL     1      -8.184  18.805  66.711  1.00  0.00    -0.278 A  
HETATM   23  C   UNL     1      -8.382  20.039  67.320  1.00  0.00    -0.332 A  
HETATM   24  F   UNL     1      -9.534  20.319  67.947  1.00  0.00    -0.433 F  
HETATM   25  C   UNL     1      -7.384  21.014  67.302  1.00  0.00    -0.320 A  
HETATM   26  C   UNL     1      -6.171  20.752  66.668  1.00  0.00    -0.299 A  
HETATM   27  C   UNL     1      -5.978  19.523  66.037  1.00  0.00    -0.184 A  
HETATM   28  C   UNL     1      -6.984  18.553  66.063  1.00  0.00    -0.275 A  
HETATM   29  F   UNL     1      -6.728  17.381  65.470  1.00  0.00    -0.184 F  
ENDBRANCH  19  22
ENDBRANCH  17  19
ENDBRANCH  15  17
ENDBRANCH   7  10
BRANCH   8  30
HETATM   30  C   UNL     1     -10.820  11.636  65.847  1.00  0.00    -0.287 A  
HETATM   31  C   UNL     1     -10.773  11.323  63.585  1.00  0.00    -0.367 A  
HETATM   32  N   UNL     1     -10.367  10.924  64.798  1.00  0.00    -0.324 NA 
HETATM   33  N   UNL     1     -10.333  10.626  62.484  1.00  0.00    -0.697 NA 
HETATM   34  N   UNL     1     -11.632  12.319  63.347  1.00  0.00    -0.458 NA 
HETATM   35  C   UNL     1     -12.091  12.985  64.413  1.00  0.00    -0.411 A  
HETATM   36  H2  UNL     1      -9.712   9.823  62.588  1.00  0.00     0.000 HD 
HETATM   37  C   UNL     1     -11.709  12.688  65.695  1.00  0.00    -0.458 A  
HETATM   38  H1  UNL     1     -10.642  10.930  61.561  1.00  0.00     0.000 HD 
ENDBRANCH   8  30
ENDBRANCH   2   5
TORSDOF 6
ENDMDL
MODEL       46
REMARK 921   NORMALIZED FREE ENERGY PREDICTED BY IDOCK:   -7.24 KCAL/MOL
REMARK 922        TOTAL FREE ENERGY PREDICTED BY IDOCK:  -10.91 KCAL/MOL
REMARK 923 INTER-LIGAND FREE ENERGY PREDICTED BY IDOCK:   -9.60 KCAL/MOL
REMARK 924 INTRA-LIGAND FREE ENERGY PREDICTED BY IDOCK:   -1.31 KCAL/MOL
REMARK 927      BINDING AFFINITY PREDICTED BY RF-SCORE:    0.00 PKD
ROOT
HETATM    1  C   UNL     1     -12.162  14.090  63.334  1.00  0.00     0.132 C  
HETATM    2  C   UNL     1     -11.543  13.010  64.240  1.00  0.00    -0.437 C  
HETATM    3  C   UNL     1     -10.390  12.340  63.455  1.00  0.00    -0.443 C  
HETATM    4  C   UNL     1     -12.630  11.946  64.517  1.00  0.00    -0.049 C  
ENDROOT
BRANCH   2   5
HETATM    5  C   UNL     1     -11.032  13.596  65.568  1.00  0.00    -0.293 A  
HETATM    6  N   UNL     1      -9.803  13.979  65.870  1.00  0.00    -0.301 NA 
HETATM    7  C   UNL     1      -9.729  14.496  67.186  1.00  0.00    -0.240 A  
HETATM    8  C   UNL     1     -10.933  14.430  67.886  1.00  0.00    -0.262 A  
HETATM    9  S   UNL     1     -12.160  13.836  66.830  1.00  0.00    -0.381 SA 
BRANCH   7  10
HETATM   10  C   UNL     1      -8.455  15.040  67.702  1.00  0.00    -0.170 A  
HETATM   11  C   UNL     1      -7.778  16.074  67.027  1.00  0.00    -0.229 A  
HETATM   12  C   UNL     1      -7.888  14.593  68.910  1.00  0.00    -0.148 A  
HETATM   13  F   UNL     1      -8.225  16.537  65.847  1.00  0.00    -0.341 F  
HETATM   14  C   UNL     1      -6.759  15.208  69.466  1.00  0.00    -0.171 A  
HETATM   15  C   UNL     1      -6.638  16.691  67.577  1.00  0.00    -0.154 A  
HETATM   16  C   UNL     1      -6.138  16.262  68.804  1.00  0.00    -0.116 A  
BRANCH  15  17
HETATM   17  N   UNL     1      -6.033  17.819  66.933  1.00  0.00    -0.139 N  
HETATM   18  H   UNL     1      -5.442  17.682  66.113  1.00  0.00     0.000 HD 
BRANCH  17  19
HETATM   19  S   UNL     1      -6.299  19.377  67.532  1.00  0.00    -0.199 S  
HETATM   20  O   UNL     1      -5.652  20.324  66.649  1.00  0.00    -0.169 OA 
HETATM   21  O   UNL     1      -5.949  19.341  68.937  1.00  0.00    -0.217 OA 
BRANCH  19  22
HETATM   22  C   UNL     1      -8.035  19.602  67.463  1.00  0.00    -0.281 A  
HETATM   23  C   UNL     1      -8.627  19.802  66.222  1.00  0.00    -0.364 A  
HETATM   24  F   UNL     1      -7.879  19.994  65.126  1.00  0.00    -0.184 F  
HETATM   25  C   UNL     1     -10.016  19.799  66.083  1.00  0.00    -0.573 A  
HETATM   26  C   UNL     1     -10.823  19.591  67.200  1.00  0.00    -0.555 A  
HETATM   27  C   UNL     1     -10.231  19.413  68.450  1.00  0.00    -0.516 A  
HETATM   28  C   UNL     1      -8.840  19.416  68.577  1.00  0.00    -0.366 A  
HETATM   29  F   UNL     1      -8.329  19.205  69.796  1.00  0.00     0.078 F  
ENDBRANCH  19  22
ENDBRANCH  17  19
ENDBRANCH  15  17
ENDBRANCH   7  10
BRANCH   8  30
HETATM   30  C   UNL     1     -11.387  14.768  69.248  1.00  0.00    -0.294 A  
HETATM   31  C   UNL     1     -12.496  14.134  71.140  1.00  0.00    -0.371 A  
HETATM   32  N   UNL     1     -12.059  13.812  69.915  1.00  0.00    -0.337 NA 
HETATM   33  N   UNL     1     -13.190  13.188  71.858  1.00  0.00    -0.437 NA 
HETATM   34  N   UNL     1     -12.262  15.292  71.765  1.00  0.00    -0.328 NA 
HETATM   35  C   UNL     1     -11.561  16.209  71.088  1.00  0.00    -0.404 A  
HETATM   36  H2  UNL     1     -13.368  12.263  71.467  1.00  0.00     0.000 HD 
HETATM   37  C   UNL     1     -11.102  16.001  69.814  1.00  0.00    -0.337 A  
HETATM   38  H1  UNL     1     -13.523  13.433  72.791  1.00  0.00     0.000 HD 
ENDBRANCH   8  30
ENDBRANCH   2   5
TORSDOF 6
ENDMDL
MODEL       47
REMARK 921   NORMALIZED FREE ENERGY PREDICTED BY IDOCK:   -7.20 KCAL/MOL
REMARK 922        TOTAL FREE ENERGY PREDICTED BY IDOCK:  -10.85 KCAL/MOL
REMARK 923 INTER-LIGAND FREE ENERGY PREDICTED BY IDOCK:  -10.33 KCAL/MOL
REMARK 924 INTRA-LIGAND FREE ENERGY PREDICTED BY IDOCK:   -0.52 KCAL/MOL
REMARK 927      BINDING AFFINITY PREDICTED BY RF-SCORE:    0.00 PKD
ROOT
HETATM    1  C   UNL     1     -11.389   9.863  70.729  1.00  0.00    -0.430 C  
HETATM    2  C   UNL     1     -10.365   9.686  69.594  1.00  0.00    -0.245 C  
HETATM    3  C   UNL     1     -10.758   8.420  68.797  1.00  0.00    -0.086 C  
HETATM    4  C   UNL     1      -8.980   9.450  70.239  1.00  0.00    -0.277 C  
ENDROOT
BRANCH   2   5
HETATM    5  C   UNL     1     -10.310  10.916  68.670  1.00  0.00    -0.191 A  
HETATM    6  N   UNL     1      -9.613  12.027  68.834  1.00  0.00     0.023 NA 
HETATM    7  C   UNL     1      -9.799  12.922  67.752  1.00  0.00    -0.221 A  
HETATM    8  C   UNL     1     -10.710  12.470  66.798  1.00  0.00    -0.236 A  
HETATM    9  S   UNL     1     -11.215  10.876  67.220  1.00  0.00    -0.141 SA 
BRANCH   7  10
HETATM   10  C   UNL     1      -9.059  14.200  67.707  1.00  0.00    -0.190 A  
HETATM   11  C   UNL     1      -9.615  15.383  68.233  1.00  0.00    -0.205 A  
HETATM   12  C   UNL     1      -7.754  14.290  67.188  1.00  0.00    -0.046 A  
HETATM   13  F   UNL     1     -10.870  15.401  68.714  1.00  0.00    -0.224 F  
HETATM   14  C   UNL     1      -7.005  15.470  67.277  1.00  0.00    -0.206 A  
HETATM   15  C   UNL     1      -8.870  16.574  68.318  1.00  0.00    -0.210 A  
HETATM   16  C   UNL     1      -7.560  16.610  67.849  1.00  0.00    -0.169 A  
BRANCH  15  17
HETATM   17  N   UNL     1      -9.413  17.733  68.964  1.00  0.00    -0.161 N  
HETATM   18  H   UNL     1      -9.623  17.710  69.961  1.00  0.00     0.000 HD 
BRANCH  17  19
HETATM   19  S   UNL     1      -9.704  19.138  68.070  1.00  0.00    -0.368 S  
HETATM   20  O   UNL     1     -10.411  20.079  68.913  1.00  0.00    -0.411 OA 
HETATM   21  O   UNL     1     -10.287  18.712  66.815  1.00  0.00    -0.366 OA 
BRANCH  19  22
HETATM   22  C   UNL     1      -8.117  19.772  67.686  1.00  0.00    -0.296 A  
HETATM   23  C   UNL     1      -7.896  20.273  66.409  1.00  0.00    -0.204 A  
HETATM   24  F   UNL     1      -8.812  20.118  65.442  1.00  0.00    -0.189 F  
HETATM   25  C   UNL     1      -6.720  20.959  66.104  1.00  0.00    -0.196 A  
HETATM   26  C   UNL     1      -5.752  21.148  67.088  1.00  0.00    -0.350 A  
HETATM   27  C   UNL     1      -5.962  20.626  68.364  1.00  0.00    -0.368 A  
HETATM   28  C   UNL     1      -7.144  19.942  68.660  1.00  0.00    -0.303 A  
HETATM   29  F   UNL     1      -7.304  19.494  69.910  1.00  0.00    -0.261 F  
ENDBRANCH  19  22
ENDBRANCH  17  19
ENDBRANCH  15  17
ENDBRANCH   7  10
BRANCH   8  30
HETATM   30  C   UNL     1     -11.288  13.002  65.550  1.00  0.00    -0.300 A  
HETATM   31  C   UNL     1     -11.717  14.810  64.223  1.00  0.00    -0.258 A  
HETATM   32  N   UNL     1     -11.163  14.326  65.343  1.00  0.00    -0.317 NA 
HETATM   33  N   UNL     1     -11.616  16.159  63.972  1.00  0.00    -1.417 NA 
HETATM   34  N   UNL     1     -12.317  14.079  63.279  1.00  0.00    -0.646 NA 
HETATM   35  C   UNL     1     -12.394  12.761  63.498  1.00  0.00    -0.467 A  
HETATM   36  H2  UNL     1     -11.131  16.777  64.623  1.00  0.00     0.000 HD 
HETATM   37  C   UNL     1     -11.899  12.166  64.628  1.00  0.00    -0.400 A  
HETATM   38  H1  UNL     1     -12.037  16.528  63.119  1.00  0.00     0.000 HD 
ENDBRANCH   8  30
ENDBRANCH   2   5
TORSDOF 6
ENDMDL
MODEL       48
REMARK 921   NORMALIZED FREE ENERGY PREDICTED BY IDOCK:   -7.20 KCAL/MOL
REMARK 922        TOTAL FREE ENERGY PREDICTED BY IDOCK:  -10.85 KCAL/MOL
REMARK 923 INTER-LIGAND FREE ENERGY PREDICTED BY IDOCK:   -9.30 KCAL/MOL
REMARK 924 INTRA-LIGAND FREE ENERGY PREDICTED BY IDOCK:   -1.54 KCAL/MOL
REMARK 927      BINDING AFFINITY PREDICTED BY RF-SCORE:    0.00 PKD
ROOT
HETATM    1  C   UNL     1     -12.535  12.163  63.623  1.00  0.00    -0.658 C  
HETATM    2  C   UNL     1     -11.217  12.636  64.263  1.00  0.00    -0.410 C  
HETATM    3  C   UNL     1     -11.190  14.181  64.198  1.00  0.00    -0.056 C  
HETATM    4  C   UNL     1     -10.052  12.088  63.407  1.00  0.00    -0.437 C  
ENDROOT
BRANCH   2   5
HETATM    5  C   UNL     1     -11.074  12.148  65.715  1.00  0.00    -0.319 A  
HETATM    6  N   UNL     1     -10.230  11.250  66.194  1.00  0.00    -0.237 NA 
HETATM    7  C   UNL     1     -10.380  11.090  67.593  1.00  0.00    -0.191 A  
HETATM    8  C   UNL     1     -11.411  11.853  68.140  1.00  0.00    -0.320 A  
HETATM    9  S   UNL     1     -12.084  12.850  66.905  1.00  0.00    -0.126 SA 
BRANCH   7  10
HETATM   10  C   UNL     1      -9.488  10.177  68.338  1.00  0.00    -0.147 A  
HETATM   11  C   UNL     1      -9.674   8.781  68.296  1.00  0.00    -0.158 A  
HETATM   12  C   UNL     1      -8.387  10.648  69.077  1.00  0.00    -0.153 A  
HETATM   13  F   UNL     1     -10.721   8.243  67.647  1.00  0.00    -0.301 F  
HETATM   14  C   UNL     1      -7.464   9.773  69.664  1.00  0.00    -0.113 A  
HETATM   15  C   UNL     1      -8.754   7.896  68.889  1.00  0.00    -0.135 A  
HETATM   16  C   UNL     1      -7.642   8.397  69.563  1.00  0.00    -0.090 A  
BRANCH  15  17
HETATM   17  N   UNL     1      -8.896   6.479  68.734  1.00  0.00    -0.126 N  
HETATM   18  H   UNL     1      -8.869   6.061  67.804  1.00  0.00     0.000 HD 
BRANCH  17  19
HETATM   19  S   UNL     1      -9.110   5.499  70.095  1.00  0.00    -0.139 S  
HETATM   20  O   UNL     1      -7.842   5.391  70.786  1.00  0.00    -0.090 OA 
HETATM   21  O   UNL     1      -9.788   4.304  69.638  1.00  0.00    -0.213 OA 
BRANCH  19  22
HETATM   22  C   UNL     1     -10.254   6.361  71.103  1.00  0.00    -0.191 A  
HETATM   23  C   UNL     1      -9.801   6.912  72.296  1.00  0.00    -0.150 A  
HETATM   24  F   UNL     1      -8.570   6.646  72.752  1.00  0.00    -0.122 F  
HETATM   25  C   UNL     1     -10.615   7.765  73.043  1.00  0.00    -0.441 A  
HETATM   26  C   UNL     1     -11.897   8.072  72.592  1.00  0.00    -0.380 A  
HETATM   27  C   UNL     1     -12.362   7.502  71.407  1.00  0.00    -0.374 A  
HETATM   28  C   UNL     1     -11.538   6.651  70.665  1.00  0.00    -0.382 A  
HETATM   29  F   UNL     1     -12.026   6.162  69.520  1.00  0.00    -0.407 F  
ENDBRANCH  19  22
ENDBRANCH  17  19
ENDBRANCH  15  17
ENDBRANCH   7  10
BRANCH   8  30
HETATM   30  C   UNL     1     -12.008  12.023  69.478  1.00  0.00    -0.283 A  
HETATM   31  C   UNL     1     -12.602  13.429  71.176  1.00  0.00    -0.345 A  
HETATM   32  N   UNL     1     -12.088  13.281  69.948  1.00  0.00    -0.324 NA 
HETATM   33  N   UNL     1     -12.700  14.698  71.698  1.00  0.00    -0.315 NA 
HETATM   34  N   UNL     1     -13.093  12.441  71.932  1.00  0.00    -0.412 NA 
HETATM   35  C   UNL     1     -13.031  11.206  71.422  1.00  0.00    -0.403 A  
HETATM   36  H2  UNL     1     -12.389  15.508  71.162  1.00  0.00     0.000 HD 
HETATM   37  C   UNL     1     -12.488  10.937  70.193  1.00  0.00    -0.356 A  
HETATM   38  H1  UNL     1     -13.092  14.810  72.634  1.00  0.00     0.000 HD 
ENDBRANCH   8  30
ENDBRANCH   2   5
TORSDOF 6
ENDMDL
MODEL       49
REMARK 921   NORMALIZED FREE ENERGY PREDICTED BY IDOCK:   -7.19 KCAL/MOL
REMARK 922        TOTAL FREE ENERGY PREDICTED BY IDOCK:  -10.84 KCAL/MOL
REMARK 923 INTER-LIGAND FREE ENERGY PREDICTED BY IDOCK:   -9.79 KCAL/MOL
REMARK 924 INTRA-LIGAND FREE ENERGY PREDICTED BY IDOCK:   -1.05 KCAL/MOL
REMARK 927      BINDING AFFINITY PREDICTED BY RF-SCORE:    0.00 PKD
ROOT
HETATM    1  C   UNL     1     -10.677  13.983  64.464  1.00  0.00    -0.355 C  
HETATM    2  C   UNL     1     -10.946  12.470  64.374  1.00  0.00    -0.378 C  
HETATM    3  C   UNL     1      -9.800  11.835  63.552  1.00  0.00    -0.386 C  
HETATM    4  C   UNL     1     -12.272  12.270  63.605  1.00  0.00    -0.665 C  
ENDROOT
BRANCH   2   5
HETATM    5  C   UNL     1     -11.045  11.819  65.765  1.00  0.00    -0.297 A  
HETATM    6  N   UNL     1     -10.626  10.621  66.136  1.00  0.00    -0.187 NA 
HETATM    7  C   UNL     1     -10.867  10.388  67.512  1.00  0.00    -0.301 A  
HETATM    8  C   UNL     1     -11.539  11.430  68.150  1.00  0.00    -0.294 A  
HETATM    9  S   UNL     1     -11.739  12.731  67.035  1.00  0.00    -0.357 SA 
BRANCH   7  10
HETATM   10  C   UNL     1     -10.419   9.131  68.145  1.00  0.00    -0.260 A  
HETATM   11  C   UNL     1      -9.598   9.143  69.290  1.00  0.00    -0.159 A  
HETATM   12  C   UNL     1     -10.827   7.870  67.672  1.00  0.00    -0.125 A  
HETATM   13  F   UNL     1      -9.128  10.299  69.790  1.00  0.00    -0.210 F  
HETATM   14  C   UNL     1     -10.516   6.689  68.358  1.00  0.00    -0.248 A  
HETATM   15  C   UNL     1      -9.276   7.960  69.980  1.00  0.00    -0.153 A  
HETATM   16  C   UNL     1      -9.747   6.734  69.516  1.00  0.00    -0.154 A  
BRANCH  15  17
HETATM   17  N   UNL     1      -8.539   8.005  71.208  1.00  0.00    -0.120 N  
HETATM   18  H   UNL     1      -7.520   8.029  71.191  1.00  0.00     0.000 HD 
BRANCH  17  19
HETATM   19  S   UNL     1      -9.361   8.017  72.685  1.00  0.00    -0.277 S  
HETATM   20  O   UNL     1     -10.630   8.688  72.497  1.00  0.00    -0.300 OA 
HETATM   21  O   UNL     1      -8.423   8.509  73.672  1.00  0.00    -0.353 OA 
BRANCH  19  22
HETATM   22  C   UNL     1      -9.640   6.331  73.066  1.00  0.00    -0.153 A  
HETATM   23  C   UNL     1      -8.633   5.623  73.712  1.00  0.00    -0.119 A  
HETATM   24  F   UNL     1      -7.416   6.160  73.881  1.00  0.00    -0.090 F  
HETATM   25  C   UNL     1      -8.866   4.339  74.207  1.00  0.00    -0.094 A  
HETATM   26  C   UNL     1     -10.122   3.756  74.058  1.00  0.00    -0.198 A  
HETATM   27  C   UNL     1     -11.128   4.455  73.391  1.00  0.00    -0.394 A  
HETATM   28  C   UNL     1     -10.884   5.741  72.900  1.00  0.00    -0.261 A  
HETATM   29  F   UNL     1     -11.897   6.376  72.300  1.00  0.00    -0.316 F  
ENDBRANCH  19  22
ENDBRANCH  17  19
ENDBRANCH  15  17
ENDBRANCH   7  10
BRANCH   8  30
HETATM   30  C   UNL     1     -12.063  11.680  69.506  1.00  0.00    -0.270 A  
HETATM   31  C   UNL     1     -12.987  10.840  71.417  1.00  0.00    -0.432 A  
HETATM   32  N   UNL     1     -12.483  10.605  70.198  1.00  0.00    -0.312 NA 
HETATM   33  N   UNL     1     -13.432   9.771  72.160  1.00  0.00    -0.512 NA 
HETATM   34  N   UNL     1     -13.041  12.035  72.014  1.00  0.00    -0.427 NA 
HETATM   35  C   UNL     1     -12.583  13.078  71.313  1.00  0.00    -0.279 A  
HETATM   36  H2  UNL     1     -13.380   8.821  71.791  1.00  0.00     0.000 HD 
HETATM   37  C   UNL     1     -12.086  12.958  70.042  1.00  0.00    -0.357 A  
HETATM   38  H1  UNL     1     -13.815   9.950  73.088  1.00  0.00     0.000 HD 
ENDBRANCH   8  30
ENDBRANCH   2   5
TORSDOF 6
ENDMDL
MODEL       50
REMARK 921   NORMALIZED FREE ENERGY PREDICTED BY IDOCK:   -7.19 KCAL/MOL
REMARK 922        TOTAL FREE ENERGY PREDICTED BY IDOCK:  -10.84 KCAL/MOL
REMARK 923 INTER-LIGAND FREE ENERGY PREDICTED BY IDOCK:   -9.33 KCAL/MOL
REMARK 924 INTRA-LIGAND FREE ENERGY PREDICTED BY IDOCK:   -1.51 KCAL/MOL
REMARK 927      BINDING AFFINITY PREDICTED BY RF-SCORE:    0.00 PKD
ROOT
HETATM    1  C   UNL     1      -7.202  20.269  68.252  1.00  0.00    -0.236 C  
HETATM    2  C   UNL     1      -8.188  19.586  67.288  1.00  0.00    -0.321 C  
HETATM    3  C   UNL     1      -7.481  19.433  65.920  1.00  0.00    -0.297 C  
HETATM    4  C   UNL     1      -9.402  20.526  67.109  1.00  0.00    -0.513 C  
ENDROOT
BRANCH   2   5
HETATM    5  C   UNL     1      -8.657  18.219  67.816  1.00  0.00    -0.256 A  
HETATM    6  N   UNL     1      -8.118  17.032  67.597  1.00  0.00    -0.179 NA 
HETATM    7  C   UNL     1      -8.818  16.009  68.281  1.00  0.00    -0.182 A  
HETATM    8  C   UNL     1      -9.943  16.460  68.971  1.00  0.00    -0.267 A  
HETATM    9  S   UNL     1     -10.020  18.178  68.850  1.00  0.00    -0.274 SA 
BRANCH   7  10
HETATM   10  C   UNL     1      -8.341  14.611  68.221  1.00  0.00    -0.148 A  
HETATM   11  C   UNL     1      -8.742  13.748  67.181  1.00  0.00    -0.221 A  
HETATM   12  C   UNL     1      -7.430  14.093  69.159  1.00  0.00    -0.037 A  
HETATM   13  F   UNL     1      -9.640  14.145  66.263  1.00  0.00    -0.269 F  
HETATM   14  C   UNL     1      -6.872  12.816  69.017  1.00  0.00    -0.081 A  
HETATM   15  C   UNL     1      -8.191  12.461  67.038  1.00  0.00    -0.141 A  
HETATM   16  C   UNL     1      -7.246  12.003  67.952  1.00  0.00    -0.102 A  
BRANCH  15  17
HETATM   17  N   UNL     1      -8.524  11.644  65.909  1.00  0.00    -0.379 N  
HETATM   18  H   UNL     1      -7.896  11.603  65.106  1.00  0.00     0.000 HD 
BRANCH  17  19
HETATM   19  S   UNL     1      -9.957  10.748  65.909  1.00  0.00    -0.262 S  
HETATM   20  O   UNL     1      -9.700   9.473  65.274  1.00  0.00    -0.293 OA 
HETATM   21  O   UNL     1     -10.987  11.621  65.387  1.00  0.00    -0.299 OA 
BRANCH  19  22
HETATM   22  C   UNL     1     -10.337  10.494  67.600  1.00  0.00    -0.217 A  
HETATM   23  C   UNL     1     -11.418  11.176  68.145  1.00  0.00    -0.303 A  
HETATM   24  F   UNL     1     -12.048  12.134  67.450  1.00  0.00    -0.388 F  
HETATM   25  C   UNL     1     -11.882  10.874  69.426  1.00  0.00    -0.400 A  
HETATM   26  C   UNL     1     -11.258   9.876  70.172  1.00  0.00    -0.347 A  
HETATM   27  C   UNL     1     -10.158   9.206  69.636  1.00  0.00    -0.206 A  
HETATM   28  C   UNL     1      -9.703   9.515  68.351  1.00  0.00    -0.154 A  
HETATM   29  F   UNL     1      -8.666   8.815  67.877  1.00  0.00    -0.131 F  
ENDBRANCH  19  22
ENDBRANCH  17  19
ENDBRANCH  15  17
ENDBRANCH   7  10
BRANCH   8  30
HETATM   30  C   UNL     1     -11.012  15.839  69.775  1.00  0.00    -0.316 A  
HETATM   31  C   UNL     1     -12.148  15.741  71.753  1.00  0.00    -0.464 A  
HETATM   32  N   UNL     1     -11.196  16.328  71.015  1.00  0.00    -0.286 NA 
HETATM   33  N   UNL     1     -12.369  16.207  73.029  1.00  0.00    -0.497 NA 
HETATM   34  N   UNL     1     -12.958  14.764  71.334  1.00  0.00    -0.320 NA 
HETATM   35  C   UNL     1     -12.772  14.324  70.084  1.00  0.00    -0.192 A  
HETATM   36  H2  UNL     1     -11.821  16.982  73.404  1.00  0.00     0.000 HD 
HETATM   37  C   UNL     1     -11.802  14.824  69.257  1.00  0.00    -0.352 A  
HETATM   38  H1  UNL     1     -13.093  15.759  73.591  1.00  0.00     0.000 HD 
ENDBRANCH   8  30
ENDBRANCH   2   5
TORSDOF 6
ENDMDL
MODEL       51
REMARK 921   NORMALIZED FREE ENERGY PREDICTED BY IDOCK:   -7.18 KCAL/MOL
REMARK 922        TOTAL FREE ENERGY PREDICTED BY IDOCK:  -10.82 KCAL/MOL
REMARK 923 INTER-LIGAND FREE ENERGY PREDICTED BY IDOCK:   -9.80 KCAL/MOL
REMARK 924 INTRA-LIGAND FREE ENERGY PREDICTED BY IDOCK:   -1.02 KCAL/MOL
REMARK 927      BINDING AFFINITY PREDICTED BY RF-SCORE:    0.00 PKD
ROOT
HETATM    1  C   UNL     1      -8.318   5.708  64.709  1.00  0.00    -0.128 C  
HETATM    2  C   UNL     1      -7.785   7.109  64.360  1.00  0.00    -0.117 C  
HETATM    3  C   UNL     1      -7.876   7.279  62.825  1.00  0.00    -0.131 C  
HETATM    4  C   UNL     1      -6.296   7.164  64.772  1.00  0.00    -0.037 C  
ENDROOT
BRANCH   2   5
HETATM    5  C   UNL     1      -8.569   8.220  65.080  1.00  0.00    -0.105 A  
HETATM    6  N   UNL     1      -8.934   9.399  64.606  1.00  0.00    -0.207 NA 
HETATM    7  C   UNL     1      -9.672  10.138  65.562  1.00  0.00    -0.281 A  
HETATM    8  C   UNL     1      -9.796   9.498  66.795  1.00  0.00    -0.216 A  
HETATM    9  S   UNL     1      -9.092   7.929  66.683  1.00  0.00    -0.172 SA 
BRANCH   7  10
HETATM   10  C   UNL     1     -10.230  11.461  65.212  1.00  0.00    -0.320 A  
HETATM   11  C   UNL     1      -9.670  12.647  65.728  1.00  0.00    -0.175 A  
HETATM   12  C   UNL     1     -11.303  11.605  64.314  1.00  0.00    -0.361 A  
HETATM   13  F   UNL     1      -8.667  12.605  66.622  1.00  0.00    -0.207 F  
HETATM   14  C   UNL     1     -11.734  12.864  63.876  1.00  0.00    -0.526 A  
HETATM   15  C   UNL     1     -10.104  13.915  65.298  1.00  0.00    -0.303 A  
HETATM   16  C   UNL     1     -11.130  14.019  64.362  1.00  0.00    -0.300 A  
BRANCH  15  17
HETATM   17  N   UNL     1      -9.444  15.105  65.744  1.00  0.00    -0.429 N  
HETATM   18  H   UNL     1      -8.756  15.563  65.146  1.00  0.00     0.000 HD 
BRANCH  17  19
HETATM   19  S   UNL     1      -9.806  15.751  67.264  1.00  0.00    -0.232 S  
HETATM   20  O   UNL     1      -8.839  15.248  68.218  1.00  0.00    -0.164 OA 
HETATM   21  O   UNL     1     -11.219  15.524  67.481  1.00  0.00    -0.322 OA 
BRANCH  19  22
HETATM   22  C   UNL     1      -9.606  17.481  67.085  1.00  0.00    -0.262 A  
HETATM   23  C   UNL     1     -10.335  18.132  66.097  1.00  0.00    -0.385 A  
HETATM   24  F   UNL     1     -11.038  17.438  65.190  1.00  0.00    -0.370 F  
HETATM   25  C   UNL     1     -10.362  19.526  66.029  1.00  0.00    -0.604 A  
HETATM   26  C   UNL     1      -9.652  20.279  66.962  1.00  0.00    -0.572 A  
HETATM   27  C   UNL     1      -8.901  19.628  67.941  1.00  0.00    -0.379 A  
HETATM   28  C   UNL     1      -8.883  18.232  68.001  1.00  0.00    -0.280 A  
HETATM   29  F   UNL     1      -8.173  17.664  68.982  1.00  0.00    -0.260 F  
ENDBRANCH  19  22
ENDBRANCH  17  19
ENDBRANCH  15  17
ENDBRANCH   7  10
BRANCH   8  30
HETATM   30  C   UNL     1     -10.396   9.825  68.102  1.00  0.00    -0.202 A  
HETATM   31  C   UNL     1     -10.425   9.502  70.362  1.00  0.00    -0.278 A  
HETATM   32  N   UNL     1      -9.857   9.226  69.180  1.00  0.00    -0.162 NA 
HETATM   33  N   UNL     1      -9.908   8.910  71.491  1.00  0.00    -0.294 NA 
HETATM   34  N   UNL     1     -11.428  10.364  70.556  1.00  0.00    -0.327 NA 
HETATM   35  C   UNL     1     -11.919  10.969  69.468  1.00  0.00    -0.342 A  
HETATM   36  H2  UNL     1      -9.111   8.276  71.430  1.00  0.00     0.000 HD 
HETATM   37  C   UNL     1     -11.442  10.729  68.206  1.00  0.00    -0.353 A  
HETATM   38  H1  UNL     1     -10.340   9.120  72.391  1.00  0.00     0.000 HD 
ENDBRANCH   8  30
ENDBRANCH   2   5
TORSDOF 6
ENDMDL
MODEL       52
REMARK 921   NORMALIZED FREE ENERGY PREDICTED BY IDOCK:   -7.17 KCAL/MOL
REMARK 922        TOTAL FREE ENERGY PREDICTED BY IDOCK:  -10.81 KCAL/MOL
REMARK 923 INTER-LIGAND FREE ENERGY PREDICTED BY IDOCK:   -9.69 KCAL/MOL
REMARK 924 INTRA-LIGAND FREE ENERGY PREDICTED BY IDOCK:   -1.12 KCAL/MOL
REMARK 927      BINDING AFFINITY PREDICTED BY RF-SCORE:    0.00 PKD
ROOT
HETATM    1  C   UNL     1     -10.862   8.544  72.395  1.00  0.00    -0.378 C  
HETATM    2  C   UNL     1     -11.976   8.786  71.360  1.00  0.00    -0.367 C  
HETATM    3  C   UNL     1     -13.069   9.646  72.036  1.00  0.00    -0.537 C  
HETATM    4  C   UNL     1     -12.587   7.414  70.994  1.00  0.00    -0.264 C  
ENDROOT
BRANCH   2   5
HETATM    5  C   UNL     1     -11.444   9.477  70.092  1.00  0.00    -0.162 A  
HETATM    6  N   UNL     1     -11.924  10.550  69.486  1.00  0.00    -0.230 NA 
HETATM    7  C   UNL     1     -11.141  10.905  68.361  1.00  0.00    -0.262 A  
HETATM    8  C   UNL     1     -10.091  10.024  68.103  1.00  0.00    -0.159 A  
HETATM    9  S   UNL     1     -10.035   8.842  69.358  1.00  0.00    -0.202 SA 
BRANCH   7  10
HETATM   10  C   UNL     1     -11.470  12.114  67.577  1.00  0.00    -0.410 A  
HETATM   11  C   UNL     1     -11.173  13.402  68.065  1.00  0.00    -0.268 A  
HETATM   12  C   UNL     1     -12.041  12.039  66.293  1.00  0.00     0.103 A  
HETATM   13  F   UNL     1     -10.662  13.572  69.296  1.00  0.00    -0.231 F  
HETATM   14  C   UNL     1     -12.219  13.178  65.497  1.00  0.00    -0.513 A  
HETATM   15  C   UNL     1     -11.356  14.551  67.274  1.00  0.00    -0.350 A  
HETATM   16  C   UNL     1     -11.869  14.434  65.984  1.00  0.00    -0.379 A  
BRANCH  15  17
HETATM   17  N   UNL     1     -10.939  15.839  67.744  1.00  0.00    -0.316 N  
HETATM   18  H   UNL     1     -11.612  16.463  68.189  1.00  0.00     0.000 HD 
BRANCH  17  19
HETATM   19  S   UNL     1      -9.330  16.323  67.560  1.00  0.00    -0.218 S  
HETATM   20  O   UNL     1      -8.759  15.603  66.441  1.00  0.00    -0.286 OA 
HETATM   21  O   UNL     1      -8.720  16.225  68.870  1.00  0.00    -0.231 OA 
BRANCH  19  22
HETATM   22  C   UNL     1      -9.408  18.031  67.180  1.00  0.00    -0.259 A  
HETATM   23  C   UNL     1     -10.229  18.439  66.135  1.00  0.00    -0.389 A  
HETATM   24  F   UNL     1     -10.809  17.542  65.326  1.00  0.00    -0.395 F  
HETATM   25  C   UNL     1     -10.477  19.794  65.909  1.00  0.00    -0.587 A  
HETATM   26  C   UNL     1      -9.898  20.753  66.738  1.00  0.00    -0.189 A  
HETATM   27  C   UNL     1      -9.056  20.346  67.773  1.00  0.00    -0.319 A  
HETATM   28  C   UNL     1      -8.817  18.987  67.992  1.00  0.00    -0.309 A  
HETATM   29  F   UNL     1      -8.028  18.656  69.021  1.00  0.00    -0.324 F  
ENDBRANCH  19  22
ENDBRANCH  17  19
ENDBRANCH  15  17
ENDBRANCH   7  10
BRANCH   8  30
HETATM   30  C   UNL     1      -9.044   9.897  67.074  1.00  0.00    -0.138 A  
HETATM   31  C   UNL     1      -8.319   8.900  65.151  1.00  0.00    -0.161 A  
HETATM   32  N   UNL     1      -9.287   9.036  66.068  1.00  0.00    -0.224 NA 
HETATM   33  N   UNL     1      -8.524   8.028  64.107  1.00  0.00    -0.383 NA 
HETATM   34  N   UNL     1      -7.176   9.592  65.126  1.00  0.00    -0.109 NA 
HETATM   35  C   UNL     1      -6.980  10.465  66.120  1.00  0.00    -0.126 A  
HETATM   36  H2  UNL     1      -9.392   7.498  64.032  1.00  0.00     0.000 HD 
HETATM   37  C   UNL     1      -7.884  10.654  67.132  1.00  0.00    -0.117 A  
HETATM   38  H1  UNL     1      -7.787   7.925  63.409  1.00  0.00     0.000 HD 
ENDBRANCH   8  30
ENDBRANCH   2   5
TORSDOF 6
ENDMDL
MODEL       53
REMARK 921   NORMALIZED FREE ENERGY PREDICTED BY IDOCK:   -7.16 KCAL/MOL
REMARK 922        TOTAL FREE ENERGY PREDICTED BY IDOCK:  -10.80 KCAL/MOL
REMARK 923 INTER-LIGAND FREE ENERGY PREDICTED BY IDOCK:  -10.56 KCAL/MOL
REMARK 924 INTRA-LIGAND FREE ENERGY PREDICTED BY IDOCK:   -0.24 KCAL/MOL
REMARK 927      BINDING AFFINITY PREDICTED BY RF-SCORE:    0.00 PKD
ROOT
HETATM    1  C   UNL     1     -12.644   7.733  71.839  1.00  0.00    -0.339 C  
HETATM    2  C   UNL     1     -11.285   8.179  71.272  1.00  0.00    -0.297 C  
HETATM    3  C   UNL     1     -10.776   7.061  70.331  1.00  0.00    -0.259 C  
HETATM    4  C   UNL     1     -10.299   8.310  72.456  1.00  0.00    -0.401 C  
ENDROOT
BRANCH   2   5
HETATM    5  C   UNL     1     -11.384   9.519  70.522  1.00  0.00    -0.283 A  
HETATM    6  N   UNL     1     -11.730  10.700  71.006  1.00  0.00    -0.298 NA 
HETATM    7  C   UNL     1     -11.674  11.706  70.011  1.00  0.00    -0.321 A  
HETATM    8  C   UNL     1     -11.335  11.229  68.745  1.00  0.00    -0.270 A  
HETATM    9  S   UNL     1     -10.970   9.548  68.863  1.00  0.00    -0.017 SA 
BRANCH   7  10
HETATM   10  C   UNL     1     -11.963  13.113  70.358  1.00  0.00    -0.343 A  
HETATM   11  C   UNL     1     -11.106  14.155  69.950  1.00  0.00    -0.029 A  
HETATM   12  C   UNL     1     -13.124  13.486  71.059  1.00  0.00    -0.219 A  
HETATM   13  F   UNL     1      -9.955  13.890  69.309  1.00  0.00    -0.112 F  
HETATM   14  C   UNL     1     -13.465  14.830  71.261  1.00  0.00    -0.478 A  
HETATM   15  C   UNL     1     -11.438  15.507  70.156  1.00  0.00    -0.327 A  
HETATM   16  C   UNL     1     -12.626  15.841  70.803  1.00  0.00    -0.405 A  
BRANCH  15  17
HETATM   17  N   UNL     1     -10.612  16.553  69.631  1.00  0.00    -0.320 N  
HETATM   18  H   UNL     1     -10.342  17.337  70.225  1.00  0.00     0.000 HD 
BRANCH  17  19
HETATM   19  S   UNL     1     -10.084  16.486  68.027  1.00  0.00    -0.265 S  
HETATM   20  O   UNL     1     -11.042  15.716  67.261  1.00  0.00    -0.309 OA 
HETATM   21  O   UNL     1      -8.696  16.077  68.068  1.00  0.00    -0.168 OA 
BRANCH  19  22
HETATM   22  C   UNL     1     -10.093  18.148  67.474  1.00  0.00    -0.349 A  
HETATM   23  C   UNL     1      -9.553  19.124  68.303  1.00  0.00    -0.356 A  
HETATM   24  F   UNL     1      -9.196  18.835  69.563  1.00  0.00    -0.059 F  
HETATM   25  C   UNL     1      -9.361  20.427  67.843  1.00  0.00    -0.310 A  
HETATM   26  C   UNL     1      -9.711  20.759  66.536  1.00  0.00    -0.034 A  
HETATM   27  C   UNL     1     -10.274  19.787  65.709  1.00  0.00    -0.478 A  
HETATM   28  C   UNL     1     -10.460  18.484  66.179  1.00  0.00    -0.413 A  
HETATM   29  F   UNL     1     -10.972  17.587  65.330  1.00  0.00    -0.384 F  
ENDBRANCH  19  22
ENDBRANCH  17  19
ENDBRANCH  15  17
ENDBRANCH   7  10
BRANCH   8  30
HETATM   30  C   UNL     1     -11.188  11.810  67.399  1.00  0.00    -0.297 A  
HETATM   31  C   UNL     1     -12.109  13.014  65.691  1.00  0.00    -0.454 A  
HETATM   32  N   UNL     1     -12.234  12.514  66.928  1.00  0.00    -0.456 NA 
HETATM   33  N   UNL     1     -13.155  13.739  65.168  1.00  0.00    -0.751 NA 
HETATM   34  N   UNL     1     -11.015  12.924  64.928  1.00  0.00    -0.290 NA 
HETATM   35  C   UNL     1      -9.980  12.248  65.439  1.00  0.00    -0.244 A  
HETATM   36  H2  UNL     1     -14.007  13.891  65.709  1.00  0.00     0.000 HD 
HETATM   37  C   UNL     1     -10.015  11.659  66.675  1.00  0.00    -0.230 A  
HETATM   38  H1  UNL     1     -13.060  14.120  64.226  1.00  0.00     0.000 HD 
ENDBRANCH   8  30
ENDBRANCH   2   5
TORSDOF 6
ENDMDL
MODEL       54
REMARK 921   NORMALIZED FREE ENERGY PREDICTED BY IDOCK:   -7.16 KCAL/MOL
REMARK 922        TOTAL FREE ENERGY PREDICTED BY IDOCK:  -10.79 KCAL/MOL
REMARK 923 INTER-LIGAND FREE ENERGY PREDICTED BY IDOCK:  -10.18 KCAL/MOL
REMARK 924 INTRA-LIGAND FREE ENERGY PREDICTED BY IDOCK:   -0.61 KCAL/MOL
REMARK 927      BINDING AFFINITY PREDICTED BY RF-SCORE:    0.00 PKD
ROOT
HETATM    1  C   UNL     1     -12.650  14.804  73.840  1.00  0.00    -0.365 C  
HETATM    2  C   UNL     1     -12.837  15.122  72.345  1.00  0.00    -0.443 C  
HETATM    3  C   UNL     1     -11.911  16.311  71.996  1.00  0.00    -0.544 C  
HETATM    4  C   UNL     1     -14.303  15.563  72.135  1.00  0.00    -0.598 C  
ENDROOT
BRANCH   2   5
HETATM    5  C   UNL     1     -12.523  13.907  71.454  1.00  0.00    -0.340 A  
HETATM    6  N   UNL     1     -12.547  12.627  71.784  1.00  0.00    -0.099 NA 
HETATM    7  C   UNL     1     -12.226  11.800  70.680  1.00  0.00    -0.349 A  
HETATM    8  C   UNL     1     -11.899  12.506  69.523  1.00  0.00    -0.310 A  
HETATM    9  S   UNL     1     -12.125  14.190  69.815  1.00  0.00    -0.359 SA 
BRANCH   7  10
HETATM   10  C   UNL     1     -12.257  10.329  70.818  1.00  0.00    -0.447 A  
HETATM   11  C   UNL     1     -11.074   9.565  70.749  1.00  0.00    -0.323 A  
HETATM   12  C   UNL     1     -13.450   9.628  71.074  1.00  0.00    -0.225 A  
HETATM   13  F   UNL     1      -9.894  10.145  70.470  1.00  0.00    -0.267 F  
HETATM   14  C   UNL     1     -13.454   8.253  71.344  1.00  0.00    -0.247 A  
HETATM   15  C   UNL     1     -11.073   8.183  71.013  1.00  0.00    -0.253 A  
HETATM   16  C   UNL     1     -12.264   7.532  71.322  1.00  0.00    -0.357 A  
BRANCH  15  17
HETATM   17  N   UNL     1      -9.844   7.447  71.054  1.00  0.00    -0.180 N  
HETATM   18  H   UNL     1      -9.344   7.238  70.190  1.00  0.00     0.000 HD 
BRANCH  17  19
HETATM   19  S   UNL     1      -9.224   6.924  72.537  1.00  0.00    -0.134 S  
HETATM   20  O   UNL     1      -9.968   7.569  73.599  1.00  0.00    -0.312 OA 
HETATM   21  O   UNL     1      -7.787   7.085  72.461  1.00  0.00    -0.093 OA 
BRANCH  19  22
HETATM   22  C   UNL     1      -9.525   5.199  72.576  1.00  0.00    -0.145 A  
HETATM   23  C   UNL     1     -10.458   4.710  73.482  1.00  0.00    -0.216 A  
HETATM   24  F   UNL     1     -10.986   5.507  74.422  1.00  0.00    -0.207 F  
HETATM   25  C   UNL     1     -10.876   3.380  73.430  1.00  0.00    -0.311 A  
HETATM   26  C   UNL     1     -10.355   2.527  72.459  1.00  0.00    -0.212 A  
HETATM   27  C   UNL     1      -9.402   3.009  71.562  1.00  0.00    -0.203 A  
HETATM   28  C   UNL     1      -8.992   4.344  71.622  1.00  0.00    -0.124 A  
HETATM   29  F   UNL     1      -8.101   4.758  70.714  1.00  0.00    -0.077 F  
ENDBRANCH  19  22
ENDBRANCH  17  19
ENDBRANCH  15  17
ENDBRANCH   7  10
BRANCH   8  30
HETATM   30  C   UNL     1     -11.459  12.159  68.159  1.00  0.00    -0.317 A  
HETATM   31  C   UNL     1     -11.873  12.199  65.914  1.00  0.00    -0.272 A  
HETATM   32  N   UNL     1     -12.261  12.544  67.150  1.00  0.00    -0.416 NA 
HETATM   33  N   UNL     1     -12.665  12.569  64.851  1.00  0.00    -0.754 NA 
HETATM   34  N   UNL     1     -10.734  11.569  65.609  1.00  0.00    -0.273 NA 
HETATM   35  C   UNL     1      -9.942  11.231  66.633  1.00  0.00    -0.209 A  
HETATM   36  H2  UNL     1     -13.527  13.094  65.000  1.00  0.00     0.000 HD 
HETATM   37  C   UNL     1     -10.261  11.497  67.938  1.00  0.00    -0.200 A  
HETATM   38  H1  UNL     1     -12.369  12.307  63.911  1.00  0.00     0.000 HD 
ENDBRANCH   8  30
ENDBRANCH   2   5
TORSDOF 6
ENDMDL
MODEL       55
REMARK 921   NORMALIZED FREE ENERGY PREDICTED BY IDOCK:   -7.14 KCAL/MOL
REMARK 922        TOTAL FREE ENERGY PREDICTED BY IDOCK:  -10.78 KCAL/MOL
REMARK 923 INTER-LIGAND FREE ENERGY PREDICTED BY IDOCK:   -9.59 KCAL/MOL
REMARK 924 INTRA-LIGAND FREE ENERGY PREDICTED BY IDOCK:   -1.19 KCAL/MOL
REMARK 927      BINDING AFFINITY PREDICTED BY RF-SCORE:    0.00 PKD
ROOT
HETATM    1  C   UNL     1      -8.762   4.004  66.945  1.00  0.00    -0.118 C  
HETATM    2  C   UNL     1      -9.404   5.130  66.114  1.00  0.00    -0.160 C  
HETATM    3  C   UNL     1     -10.771   4.618  65.603  1.00  0.00    -0.193 C  
HETATM    4  C   UNL     1      -8.492   5.395  64.894  1.00  0.00    -0.148 C  
ENDROOT
BRANCH   2   5
HETATM    5  C   UNL     1      -9.576   6.423  66.931  1.00  0.00    -0.149 A  
HETATM    6  N   UNL     1      -9.055   7.614  66.691  1.00  0.00    -0.156 NA 
HETATM    7  C   UNL     1      -9.469   8.566  67.654  1.00  0.00    -0.145 A  
HETATM    8  C   UNL     1     -10.271   8.034  68.664  1.00  0.00    -0.206 A  
HETATM    9  S   UNL     1     -10.589   6.377  68.308  1.00  0.00    -0.286 SA 
BRANCH   7  10
HETATM   10  C   UNL     1      -9.049   9.978  67.534  1.00  0.00    -0.144 A  
HETATM   11  C   UNL     1      -9.562  10.807  66.516  1.00  0.00    -0.183 A  
HETATM   12  C   UNL     1      -8.166  10.574  68.452  1.00  0.00    -0.121 A  
HETATM   13  F   UNL     1     -10.381  10.314  65.572  1.00  0.00    -0.339 F  
HETATM   14  C   UNL     1      -7.882  11.946  68.419  1.00  0.00    -0.141 A  
HETATM   15  C   UNL     1      -9.275  12.184  66.472  1.00  0.00    -0.216 A  
HETATM   16  C   UNL     1      -8.443  12.752  67.433  1.00  0.00    -0.191 A  
BRANCH  15  17
HETATM   17  N   UNL     1      -9.898  13.031  65.500  1.00  0.00    -0.449 N  
HETATM   18  H   UNL     1      -9.394  13.295  64.654  1.00  0.00     0.000 HD 
BRANCH  17  19
HETATM   19  S   UNL     1     -11.472  13.594  65.757  1.00  0.00    -0.324 S  
HETATM   20  O   UNL     1     -12.385  12.479  65.620  1.00  0.00    -0.615 OA 
HETATM   21  O   UNL     1     -11.630  14.765  64.919  1.00  0.00    -0.373 OA 
BRANCH  19  22
HETATM   22  C   UNL     1     -11.488  14.166  67.412  1.00  0.00    -0.345 A  
HETATM   23  C   UNL     1     -11.176  15.498  67.655  1.00  0.00    -0.291 A  
HETATM   24  F   UNL     1     -10.703  16.283  66.676  1.00  0.00    -0.312 F  
HETATM   25  C   UNL     1     -11.355  16.055  68.922  1.00  0.00    -0.370 A  
HETATM   26  C   UNL     1     -11.854  15.270  69.960  1.00  0.00    -0.365 A  
HETATM   27  C   UNL     1     -12.146  13.927  69.724  1.00  0.00    -0.404 A  
HETATM   28  C   UNL     1     -11.966  13.380  68.451  1.00  0.00    -0.324 A  
HETATM   29  F   UNL     1     -12.296  12.095  68.276  1.00  0.00    -0.294 F  
ENDBRANCH  19  22
ENDBRANCH  17  19
ENDBRANCH  15  17
ENDBRANCH   7  10
BRANCH   8  30
HETATM   30  C   UNL     1     -10.909   8.547  69.890  1.00  0.00    -0.205 A  
HETATM   31  C   UNL     1     -11.526   8.183  72.058  1.00  0.00    -0.320 A  
HETATM   32  N   UNL     1     -10.917   7.725  70.955  1.00  0.00    -0.240 NA 
HETATM   33  N   UNL     1     -11.561   7.375  73.171  1.00  0.00    -0.588 NA 
HETATM   34  N   UNL     1     -12.059   9.401  72.197  1.00  0.00    -0.295 NA 
HETATM   35  C   UNL     1     -12.004  10.207  71.130  1.00  0.00    -0.386 A  
HETATM   36  H2  UNL     1     -11.134   6.449  73.157  1.00  0.00     0.000 HD 
HETATM   37  C   UNL     1     -11.443   9.826  69.940  1.00  0.00    -0.190 A  
HETATM   38  H1  UNL     1     -12.024   7.724  74.010  1.00  0.00     0.000 HD 
ENDBRANCH   8  30
ENDBRANCH   2   5
TORSDOF 6
ENDMDL
MODEL       56
REMARK 921   NORMALIZED FREE ENERGY PREDICTED BY IDOCK:   -7.14 KCAL/MOL
REMARK 922        TOTAL FREE ENERGY PREDICTED BY IDOCK:  -10.78 KCAL/MOL
REMARK 923 INTER-LIGAND FREE ENERGY PREDICTED BY IDOCK:   -9.58 KCAL/MOL
REMARK 924 INTRA-LIGAND FREE ENERGY PREDICTED BY IDOCK:   -1.20 KCAL/MOL
REMARK 927      BINDING AFFINITY PREDICTED BY RF-SCORE:    0.00 PKD
ROOT
HETATM    1  C   UNL     1     -10.076  20.060  68.203  1.00  0.00    -0.547 C  
HETATM    2  C   UNL     1      -9.811  19.092  67.036  1.00  0.00    -0.379 C  
HETATM    3  C   UNL     1      -8.289  19.097  66.756  1.00  0.00    -0.305 C  
HETATM    4  C   UNL     1     -10.541  19.643  65.789  1.00  0.00    -0.537 C  
ENDROOT
BRANCH   2   5
HETATM    5  C   UNL     1     -10.304  17.668  67.345  1.00  0.00    -0.360 A  
HETATM    6  N   UNL     1     -10.359  16.629  66.529  1.00  0.00    -0.305 NA 
HETATM    7  C   UNL     1     -10.845  15.474  67.190  1.00  0.00    -0.316 A  
HETATM    8  C   UNL     1     -11.213  15.697  68.516  1.00  0.00    -0.342 A  
HETATM    9  S   UNL     1     -10.820  17.321  68.939  1.00  0.00     0.033 SA 
BRANCH   7  10
HETATM   10  C   UNL     1     -10.926  14.185  66.472  1.00  0.00    -0.309 A  
HETATM   11  C   UNL     1      -9.898  13.227  66.575  1.00  0.00    -0.281 A  
HETATM   12  C   UNL     1     -12.048  13.830  65.700  1.00  0.00    -0.444 A  
HETATM   13  F   UNL     1      -8.772  13.494  67.259  1.00  0.00    -0.183 F  
HETATM   14  C   UNL     1     -12.183  12.553  65.140  1.00  0.00    -0.509 A  
HETATM   15  C   UNL     1     -10.024  11.945  66.008  1.00  0.00    -0.232 A  
HETATM   16  C   UNL     1     -11.175  11.608  65.300  1.00  0.00    -0.263 A  
BRANCH  15  17
HETATM   17  N   UNL     1      -9.020  10.947  66.224  1.00  0.00    -0.170 N  
HETATM   18  H   UNL     1      -8.446  10.623  65.445  1.00  0.00     0.000 HD 
BRANCH  17  19
HETATM   19  S   UNL     1      -8.786  10.305  67.770  1.00  0.00    -0.124 S  
HETATM   20  O   UNL     1      -9.988  10.529  68.546  1.00  0.00    -0.158 OA 
HETATM   21  O   UNL     1      -7.516  10.818  68.239  1.00  0.00    -0.086 OA 
BRANCH  19  22
HETATM   22  C   UNL     1      -8.562   8.586  67.521  1.00  0.00    -0.128 A  
HETATM   23  C   UNL     1      -9.563   7.875  66.870  1.00  0.00    -0.203 A  
HETATM   24  F   UNL     1     -10.744   8.446  66.596  1.00  0.00    -0.360 F  
HETATM   25  C   UNL     1      -9.361   6.551  66.477  1.00  0.00    -0.188 A  
HETATM   26  C   UNL     1      -8.141   5.930  66.737  1.00  0.00    -0.102 A  
HETATM   27  C   UNL     1      -7.143   6.634  67.410  1.00  0.00    -0.080 A  
HETATM   28  C   UNL     1      -7.355   7.959  67.797  1.00  0.00    -0.096 A  
HETATM   29  F   UNL     1      -6.349   8.594  68.409  1.00  0.00    -0.050 F  
ENDBRANCH  19  22
ENDBRANCH  17  19
ENDBRANCH  15  17
ENDBRANCH   7  10
BRANCH   8  30
HETATM   30  C   UNL     1     -11.800  14.890  69.602  1.00  0.00    -0.318 A  
HETATM   31  C   UNL     1     -12.116  12.833  70.542  1.00  0.00    -0.285 A  
HETATM   32  N   UNL     1     -11.555  13.567  69.571  1.00  0.00    -0.293 NA 
HETATM   33  N   UNL     1     -11.895  11.475  70.548  1.00  0.00    -0.468 NA 
HETATM   34  N   UNL     1     -12.835  13.318  71.559  1.00  0.00    -0.358 NA 
HETATM   35  C   UNL     1     -13.031  14.641  71.580  1.00  0.00    -0.335 A  
HETATM   36  H2  UNL     1     -11.318  11.037  69.830  1.00  0.00     0.000 HD 
HETATM   37  C   UNL     1     -12.539  15.480  70.616  1.00  0.00    -0.493 A  
HETATM   38  H1  UNL     1     -12.323  10.917  71.287  1.00  0.00     0.000 HD 
ENDBRANCH   8  30
ENDBRANCH   2   5
TORSDOF 6
ENDMDL
MODEL       57
REMARK 921   NORMALIZED FREE ENERGY PREDICTED BY IDOCK:   -7.14 KCAL/MOL
REMARK 922        TOTAL FREE ENERGY PREDICTED BY IDOCK:  -10.77 KCAL/MOL
REMARK 923 INTER-LIGAND FREE ENERGY PREDICTED BY IDOCK:   -9.32 KCAL/MOL
REMARK 924 INTRA-LIGAND FREE ENERGY PREDICTED BY IDOCK:   -1.45 KCAL/MOL
REMARK 927      BINDING AFFINITY PREDICTED BY RF-SCORE:    0.00 PKD
ROOT
HETATM    1  C   UNL     1     -12.123  13.998  63.450  1.00  0.00     0.157 C  
HETATM    2  C   UNL     1     -11.872  12.568  63.962  1.00  0.00    -0.510 C  
HETATM    3  C   UNL     1     -10.728  11.959  63.118  1.00  0.00    -0.309 C  
HETATM    4  C   UNL     1     -13.157  11.745  63.712  1.00  0.00    -0.063 C  
ENDROOT
BRANCH   2   5
HETATM    5  C   UNL     1     -11.518  12.546  65.459  1.00  0.00    -0.350 A  
HETATM    6  N   UNL     1     -10.672  11.746  66.084  1.00  0.00    -0.267 NA 
HETATM    7  C   UNL     1     -10.591  12.052  67.465  1.00  0.00    -0.221 A  
HETATM    8  C   UNL     1     -11.455  13.070  67.868  1.00  0.00    -0.311 A  
HETATM    9  S   UNL     1     -12.255  13.705  66.479  1.00  0.00    -0.370 SA 
BRANCH   7  10
HETATM   10  C   UNL     1      -9.653  11.315  68.337  1.00  0.00    -0.195 A  
HETATM   11  C   UNL     1     -10.012  10.082  68.918  1.00  0.00    -0.192 A  
HETATM   12  C   UNL     1      -8.347  11.776  68.587  1.00  0.00    -0.079 A  
HETATM   13  F   UNL     1     -11.251   9.583  68.765  1.00  0.00    -0.196 F  
HETATM   14  C   UNL     1      -7.416  11.007  69.297  1.00  0.00    -0.100 A  
HETATM   15  C   UNL     1      -9.084   9.308  69.638  1.00  0.00    -0.167 A  
HETATM   16  C   UNL     1      -7.782   9.769  69.816  1.00  0.00    -0.145 A  
BRANCH  15  17
HETATM   17  N   UNL     1      -9.435   8.005  70.120  1.00  0.00    -0.160 N  
HETATM   18  H   UNL     1      -9.481   7.217  69.474  1.00  0.00     0.000 HD 
BRANCH  17  19
HETATM   19  S   UNL     1      -9.772   7.774  71.760  1.00  0.00    -0.170 S  
HETATM   20  O   UNL     1      -9.168   8.856  72.509  1.00  0.00    -0.334 OA 
HETATM   21  O   UNL     1      -9.421   6.402  72.062  1.00  0.00    -0.152 OA 
BRANCH  19  22
HETATM   22  C   UNL     1     -11.516   7.876  71.886  1.00  0.00    -0.280 A  
HETATM   23  C   UNL     1     -12.114   9.127  71.792  1.00  0.00    -0.376 A  
HETATM   24  F   UNL     1     -11.374  10.244  71.782  1.00  0.00    -0.261 F  
HETATM   25  C   UNL     1     -13.501   9.250  71.695  1.00  0.00    -0.465 A  
HETATM   26  C   UNL     1     -14.301   8.109  71.692  1.00  0.00    -0.570 A  
HETATM   27  C   UNL     1     -13.704   6.854  71.809  1.00  0.00    -0.244 A  
HETATM   28  C   UNL     1     -12.314   6.741  71.902  1.00  0.00    -0.326 A  
HETATM   29  F   UNL     1     -11.797   5.510  71.978  1.00  0.00    -0.246 F  
ENDBRANCH  19  22
ENDBRANCH  17  19
ENDBRANCH  15  17
ENDBRANCH   7  10
BRANCH   8  30
HETATM   30  C   UNL     1     -11.799  13.723  69.144  1.00  0.00    -0.354 A  
HETATM   31  C   UNL     1     -12.726  13.556  71.224  1.00  0.00    -0.348 A  
HETATM   32  N   UNL     1     -12.387  12.952  70.078  1.00  0.00    -0.188 NA 
HETATM   33  N   UNL     1     -13.332  12.807  72.206  1.00  0.00    -0.520 NA 
HETATM   34  N   UNL     1     -12.470  14.832  71.530  1.00  0.00    -0.320 NA 
HETATM   35  C   UNL     1     -11.854  15.563  70.594  1.00  0.00    -0.365 A  
HETATM   36  H2  UNL     1     -13.518  11.814  72.065  1.00  0.00     0.000 HD 
HETATM   37  C   UNL     1     -11.500  15.057  69.372  1.00  0.00    -0.320 A  
HETATM   38  H1  UNL     1     -13.591  13.268  73.079  1.00  0.00     0.000 HD 
ENDBRANCH   8  30
ENDBRANCH   2   5
TORSDOF 6
ENDMDL
MODEL       58
REMARK 921   NORMALIZED FREE ENERGY PREDICTED BY IDOCK:   -7.12 KCAL/MOL
REMARK 922        TOTAL FREE ENERGY PREDICTED BY IDOCK:  -10.75 KCAL/MOL
REMARK 923 INTER-LIGAND FREE ENERGY PREDICTED BY IDOCK:   -9.85 KCAL/MOL
REMARK 924 INTRA-LIGAND FREE ENERGY PREDICTED BY IDOCK:   -0.90 KCAL/MOL
REMARK 927      BINDING AFFINITY PREDICTED BY RF-SCORE:    0.00 PKD
ROOT
HETATM    1  C   UNL     1     -12.214   9.191  71.377  1.00  0.00    -0.407 C  
HETATM    2  C   UNL     1     -10.847   8.950  70.714  1.00  0.00    -0.294 C  
HETATM    3  C   UNL     1     -10.881   7.551  70.056  1.00  0.00    -0.260 C  
HETATM    4  C   UNL     1      -9.775   8.942  71.828  1.00  0.00    -0.365 C  
ENDROOT
BRANCH   2   5
HETATM    5  C   UNL     1     -10.512  10.034  69.674  1.00  0.00    -0.248 A  
HETATM    6  N   UNL     1      -9.409  10.756  69.575  1.00  0.00     0.005 NA 
HETATM    7  C   UNL     1      -9.459  11.633  68.464  1.00  0.00    -0.173 A  
HETATM    8  C   UNL     1     -10.666  11.590  67.766  1.00  0.00    -0.207 A  
HETATM    9  S   UNL     1     -11.660  10.356  68.447  1.00  0.00     0.092 SA 
BRANCH   7  10
HETATM   10  C   UNL     1      -8.299  12.487  68.136  1.00  0.00    -0.175 A  
HETATM   11  C   UNL     1      -8.278  13.853  68.483  1.00  0.00    -0.131 A  
HETATM   12  C   UNL     1      -7.146  11.973  67.514  1.00  0.00    -0.129 A  
HETATM   13  F   UNL     1      -9.349  14.439  69.045  1.00  0.00    -0.197 F  
HETATM   14  C   UNL     1      -5.996  12.753  67.334  1.00  0.00    -0.110 A  
HETATM   15  C   UNL     1      -7.128  14.643  68.298  1.00  0.00    -0.115 A  
HETATM   16  C   UNL     1      -5.983  14.085  67.733  1.00  0.00    -0.115 A  
BRANCH  15  17
HETATM   17  N   UNL     1      -7.086  15.997  68.765  1.00  0.00    -0.137 N  
HETATM   18  H   UNL     1      -7.338  16.212  69.730  1.00  0.00     0.000 HD 
BRANCH  17  19
HETATM   19  S   UNL     1      -6.620  17.237  67.716  1.00  0.00    -0.160 S  
HETATM   20  O   UNL     1      -6.079  16.640  66.513  1.00  0.00    -0.303 OA 
HETATM   21  O   UNL     1      -5.812  18.152  68.495  1.00  0.00    -0.178 OA 
BRANCH  19  22
HETATM   22  C   UNL     1      -8.100  18.092  67.333  1.00  0.00    -0.222 A  
HETATM   23  C   UNL     1      -9.037  17.461  66.524  1.00  0.00    -0.266 A  
HETATM   24  F   UNL     1      -8.748  16.306  65.907  1.00  0.00    -0.347 F  
HETATM   25  C   UNL     1     -10.308  18.009  66.339  1.00  0.00    -0.382 A  
HETATM   26  C   UNL     1     -10.646  19.203  66.974  1.00  0.00    -0.551 A  
HETATM   27  C   UNL     1      -9.699  19.849  67.768  1.00  0.00    -0.516 A  
HETATM   28  C   UNL     1      -8.431  19.290  67.947  1.00  0.00    -0.308 A  
HETATM   29  F   UNL     1      -7.577  19.938  68.748  1.00  0.00    -0.357 F  
ENDBRANCH  19  22
ENDBRANCH  17  19
ENDBRANCH  15  17
ENDBRANCH   7  10
BRANCH   8  30
HETATM   30  C   UNL     1     -11.247  12.298  66.611  1.00  0.00    -0.316 A  
HETATM   31  C   UNL     1     -11.766  12.290  64.387  1.00  0.00    -0.365 A  
HETATM   32  N   UNL     1     -11.266  11.632  65.442  1.00  0.00    -0.246 NA 
HETATM   33  N   UNL     1     -11.803  11.649  63.171  1.00  0.00    -0.900 NA 
HETATM   34  N   UNL     1     -12.300  13.515  64.423  1.00  0.00    -0.581 NA 
HETATM   35  C   UNL     1     -12.297  14.137  65.608  1.00  0.00    -0.456 A  
HETATM   36  H2  UNL     1     -11.457  10.694  63.074  1.00  0.00     0.000 HD 
HETATM   37  C   UNL     1     -11.773  13.574  66.741  1.00  0.00    -0.430 A  
HETATM   38  H1  UNL     1     -12.184  12.150  62.368  1.00  0.00     0.000 HD 
ENDBRANCH   8  30
ENDBRANCH   2   5
TORSDOF 6
ENDMDL
MODEL       59
REMARK 921   NORMALIZED FREE ENERGY PREDICTED BY IDOCK:   -7.11 KCAL/MOL
REMARK 922        TOTAL FREE ENERGY PREDICTED BY IDOCK:  -10.73 KCAL/MOL
REMARK 923 INTER-LIGAND FREE ENERGY PREDICTED BY IDOCK:   -9.67 KCAL/MOL
REMARK 924 INTRA-LIGAND FREE ENERGY PREDICTED BY IDOCK:   -1.06 KCAL/MOL
REMARK 927      BINDING AFFINITY PREDICTED BY RF-SCORE:    0.00 PKD
ROOT
HETATM    1  C   UNL     1     -11.161   7.370  70.144  1.00  0.00    -0.265 C  
HETATM    2  C   UNL     1     -10.815   8.821  70.524  1.00  0.00    -0.268 C  
HETATM    3  C   UNL     1      -9.858   8.775  71.738  1.00  0.00    -0.391 C  
HETATM    4  C   UNL     1     -12.124   9.520  70.957  1.00  0.00    -0.398 C  
ENDROOT
BRANCH   2   5
HETATM    5  C   UNL     1     -10.175   9.586  69.352  1.00  0.00    -0.206 A  
HETATM    6  N   UNL     1      -9.298  10.574  69.407  1.00  0.00    -0.163 NA 
HETATM    7  C   UNL     1      -8.918  11.003  68.112  1.00  0.00    -0.152 A  
HETATM    8  C   UNL     1      -9.589  10.346  67.081  1.00  0.00    -0.164 A  
HETATM    9  S   UNL     1     -10.587   9.115  67.760  1.00  0.00    -0.186 SA 
BRANCH   7  10
HETATM   10  C   UNL     1      -7.897  12.058  67.947  1.00  0.00    -0.144 A  
HETATM   11  C   UNL     1      -8.254  13.364  67.556  1.00  0.00    -0.185 A  
HETATM   12  C   UNL     1      -6.536  11.829  68.220  1.00  0.00    -0.051 A  
HETATM   13  F   UNL     1      -9.525  13.665  67.237  1.00  0.00    -0.203 F  
HETATM   14  C   UNL     1      -5.594  12.866  68.199  1.00  0.00    -0.088 A  
HETATM   15  C   UNL     1      -7.312  14.409  67.526  1.00  0.00    -0.186 A  
HETATM   16  C   UNL     1      -5.984  14.158  67.860  1.00  0.00    -0.143 A  
BRANCH  15  17
HETATM   17  N   UNL     1      -7.717  15.753  67.240  1.00  0.00    -0.179 N  
HETATM   18  H   UNL     1      -7.698  16.100  66.281  1.00  0.00     0.000 HD 
BRANCH  17  19
HETATM   19  S   UNL     1      -8.229  16.765  68.494  1.00  0.00    -0.251 S  
HETATM   20  O   UNL     1      -7.061  17.364  69.104  1.00  0.00    -0.245 OA 
HETATM   21  O   UNL     1      -9.147  15.987  69.300  1.00  0.00    -0.246 OA 
BRANCH  19  22
HETATM   22  C   UNL     1      -9.187  18.007  67.716  1.00  0.00    -0.262 A  
HETATM   23  C   UNL     1      -8.944  19.335  68.048  1.00  0.00    -0.316 A  
HETATM   24  F   UNL     1      -8.125  19.652  69.061  1.00  0.00    -0.383 F  
HETATM   25  C   UNL     1      -9.539  20.372  67.328  1.00  0.00    -0.592 A  
HETATM   26  C   UNL     1     -10.388  20.078  66.262  1.00  0.00    -0.570 A  
HETATM   27  C   UNL     1     -10.651  18.747  65.942  1.00  0.00    -0.405 A  
HETATM   28  C   UNL     1     -10.047  17.716  66.668  1.00  0.00    -0.335 A  
HETATM   29  F   UNL     1     -10.311  16.459  66.293  1.00  0.00    -0.286 F  
ENDBRANCH  19  22
ENDBRANCH  17  19
ENDBRANCH  15  17
ENDBRANCH   7  10
BRANCH   8  30
HETATM   30  C   UNL     1      -9.613  10.432  65.609  1.00  0.00    -0.226 A  
HETATM   31  C   UNL     1     -10.710  11.094  63.719  1.00  0.00    -0.329 A  
HETATM   32  N   UNL     1     -10.677  11.046  65.058  1.00  0.00    -0.241 NA 
HETATM   33  N   UNL     1     -11.781  11.710  63.112  1.00  0.00    -0.881 NA 
HETATM   34  N   UNL     1      -9.750  10.645  62.905  1.00  0.00    -0.322 NA 
HETATM   35  C   UNL     1      -8.690  10.071  63.486  1.00  0.00    -0.222 A  
HETATM   36  H2  UNL     1     -12.532  12.120  63.668  1.00  0.00     0.000 HD 
HETATM   37  C   UNL     1      -8.572   9.931  64.843  1.00  0.00    -0.183 A  
HETATM   38  H1  UNL     1     -11.806  11.747  62.093  1.00  0.00     0.000 HD 
ENDBRANCH   8  30
ENDBRANCH   2   5
TORSDOF 6
ENDMDL
MODEL       60
REMARK 921   NORMALIZED FREE ENERGY PREDICTED BY IDOCK:   -7.10 KCAL/MOL
REMARK 922        TOTAL FREE ENERGY PREDICTED BY IDOCK:  -10.72 KCAL/MOL
REMARK 923 INTER-LIGAND FREE ENERGY PREDICTED BY IDOCK:  -10.14 KCAL/MOL
REMARK 924 INTRA-LIGAND FREE ENERGY PREDICTED BY IDOCK:   -0.58 KCAL/MOL
REMARK 927      BINDING AFFINITY PREDICTED BY RF-SCORE:    0.00 PKD
ROOT
HETATM    1  C   UNL     1     -11.955   9.752  71.202  1.00  0.00    -0.463 C  
HETATM    2  C   UNL     1     -10.882   9.045  70.354  1.00  0.00    -0.284 C  
HETATM    3  C   UNL     1     -11.299   7.563  70.206  1.00  0.00    -0.219 C  
HETATM    4  C   UNL     1      -9.549   9.104  71.133  1.00  0.00    -0.347 C  
ENDROOT
BRANCH   2   5
HETATM    5  C   UNL     1     -10.712   9.704  68.974  1.00  0.00    -0.211 A  
HETATM    6  N   UNL     1     -11.124  10.898  68.584  1.00  0.00    -0.230 NA 
HETATM    7  C   UNL     1     -10.752  11.165  67.244  1.00  0.00    -0.258 A  
HETATM    8  C   UNL     1     -10.101  10.103  66.618  1.00  0.00    -0.223 A  
HETATM    9  S   UNL     1      -9.858   8.842  67.768  1.00  0.00    -0.185 SA 
BRANCH   7  10
HETATM   10  C   UNL     1     -11.062  12.474  66.631  1.00  0.00    -0.327 A  
HETATM   11  C   UNL     1     -10.221  13.588  66.829  1.00  0.00    -0.264 A  
HETATM   12  C   UNL     1     -12.171  12.659  65.786  1.00  0.00    -0.427 A  
HETATM   13  F   UNL     1      -9.161  13.515  67.651  1.00  0.00    -0.174 F  
HETATM   14  C   UNL     1     -12.380  13.860  65.096  1.00  0.00    -0.471 A  
HETATM   15  C   UNL     1     -10.430  14.800  66.144  1.00  0.00    -0.304 A  
HETATM   16  C   UNL     1     -11.505  14.928  65.269  1.00  0.00    -0.336 A  
BRANCH  15  17
HETATM   17  N   UNL     1      -9.499  15.881  66.268  1.00  0.00    -0.290 N  
HETATM   18  H   UNL     1      -8.516  15.737  66.037  1.00  0.00     0.000 HD 
BRANCH  17  19
HETATM   19  S   UNL     1     -10.030  17.396  66.797  1.00  0.00    -0.320 S  
HETATM   20  O   UNL     1     -11.014  17.198  67.841  1.00  0.00    -0.343 OA 
HETATM   21  O   UNL     1     -10.378  18.147  65.609  1.00  0.00    -0.603 OA 
BRANCH  19  22
HETATM   22  C   UNL     1      -8.609  18.168  67.470  1.00  0.00    -0.249 A  
HETATM   23  C   UNL     1      -7.425  18.123  66.744  1.00  0.00    -0.216 A  
HETATM   24  F   UNL     1      -7.321  17.363  65.645  1.00  0.00    -0.298 F  
HETATM   25  C   UNL     1      -6.317  18.876  67.136  1.00  0.00    -0.187 A  
HETATM   26  C   UNL     1      -6.394  19.686  68.267  1.00  0.00    -0.277 A  
HETATM   27  C   UNL     1      -7.574  19.715  69.010  1.00  0.00    -0.320 A  
HETATM   28  C   UNL     1      -8.678  18.959  68.608  1.00  0.00    -0.339 A  
HETATM   29  F   UNL     1      -9.794  19.054  69.341  1.00  0.00    -0.365 F  
ENDBRANCH  19  22
ENDBRANCH  17  19
ENDBRANCH  15  17
ENDBRANCH   7  10
BRANCH   8  30
HETATM   30  C   UNL     1      -9.564   9.835  65.271  1.00  0.00    -0.300 A  
HETATM   31  C   UNL     1      -8.153   8.624  63.946  1.00  0.00    -0.163 A  
HETATM   32  N   UNL     1      -8.662   8.843  65.166  1.00  0.00    -0.186 NA 
HETATM   33  N   UNL     1      -7.225   7.620  63.793  1.00  0.00    -0.080 NA 
HETATM   34  N   UNL     1      -8.518   9.263  62.831  1.00  0.00    -0.199 NA 
HETATM   35  C   UNL     1      -9.443  10.221  62.962  1.00  0.00    -0.296 A  
HETATM   36  H2  UNL     1      -6.930   7.055  64.590  1.00  0.00     0.000 HD 
HETATM   37  C   UNL     1      -9.999  10.556  64.169  1.00  0.00    -0.385 A  
HETATM   38  H1  UNL     1      -6.838   7.453  62.864  1.00  0.00     0.000 HD 
ENDBRANCH   8  30
ENDBRANCH   2   5
TORSDOF 6
ENDMDL
MODEL       61
REMARK 921   NORMALIZED FREE ENERGY PREDICTED BY IDOCK:   -7.10 KCAL/MOL
REMARK 922        TOTAL FREE ENERGY PREDICTED BY IDOCK:  -10.72 KCAL/MOL
REMARK 923 INTER-LIGAND FREE ENERGY PREDICTED BY IDOCK:   -9.49 KCAL/MOL
REMARK 924 INTRA-LIGAND FREE ENERGY PREDICTED BY IDOCK:   -1.23 KCAL/MOL
REMARK 927      BINDING AFFINITY PREDICTED BY RF-SCORE:    0.00 PKD
ROOT
HETATM    1  C   UNL     1     -12.825   9.485  72.284  1.00  0.00    -0.426 C  
HETATM    2  C   UNL     1     -12.229   8.115  71.910  1.00  0.00    -0.373 C  
HETATM    3  C   UNL     1     -13.398   7.109  71.794  1.00  0.00    -0.347 C  
HETATM    4  C   UNL     1     -11.310   7.668  73.070  1.00  0.00    -0.334 C  
ENDROOT
BRANCH   2   5
HETATM    5  C   UNL     1     -11.428   8.174  70.598  1.00  0.00    -0.231 A  
HETATM    6  N   UNL     1     -10.858   9.227  70.038  1.00  0.00    -0.233 NA 
HETATM    7  C   UNL     1     -10.180   8.877  68.844  1.00  0.00    -0.206 A  
HETATM    8  C   UNL     1     -10.314   7.535  68.493  1.00  0.00    -0.199 A  
HETATM    9  S   UNL     1     -11.181   6.716  69.738  1.00  0.00    -0.351 SA 
BRANCH   7  10
HETATM   10  C   UNL     1      -9.421   9.899  68.092  1.00  0.00    -0.149 A  
HETATM   11  C   UNL     1      -9.929  10.454  66.901  1.00  0.00    -0.206 A  
HETATM   12  C   UNL     1      -8.190  10.401  68.551  1.00  0.00    -0.119 A  
HETATM   13  F   UNL     1     -11.080  10.008  66.367  1.00  0.00    -0.091 F  
HETATM   14  C   UNL     1      -7.544  11.468  67.911  1.00  0.00    -0.113 A  
HETATM   15  C   UNL     1      -9.282  11.521  66.250  1.00  0.00    -0.211 A  
HETATM   16  C   UNL     1      -8.094  12.033  66.765  1.00  0.00    -0.081 A  
BRANCH  15  17
HETATM   17  N   UNL     1      -9.875  12.149  65.107  1.00  0.00    -0.378 N  
HETATM   18  H   UNL     1      -9.493  11.982  64.176  1.00  0.00     0.000 HD 
BRANCH  17  19
HETATM   19  S   UNL     1     -11.209  13.168  65.302  1.00  0.00    -0.298 S  
HETATM   20  O   UNL     1     -12.373  12.352  65.576  1.00  0.00    -0.621 OA 
HETATM   21  O   UNL     1     -11.208  14.067  64.166  1.00  0.00    -0.276 OA 
BRANCH  19  22
HETATM   22  C   UNL     1     -10.835  14.147  66.705  1.00  0.00    -0.296 A  
HETATM   23  C   UNL     1     -11.309  13.734  67.945  1.00  0.00    -0.299 A  
HETATM   24  F   UNL     1     -12.175  12.716  68.045  1.00  0.00    -0.372 F  
HETATM   25  C   UNL     1     -10.888  14.363  69.117  1.00  0.00    -0.275 A  
HETATM   26  C   UNL     1      -9.980  15.419  69.050  1.00  0.00    -0.229 A  
HETATM   27  C   UNL     1      -9.521  15.849  67.805  1.00  0.00    -0.216 A  
HETATM   28  C   UNL     1      -9.947  15.210  66.638  1.00  0.00    -0.251 A  
HETATM   29  F   UNL     1      -9.446  15.645  65.476  1.00  0.00    -0.347 F  
ENDBRANCH  19  22
ENDBRANCH  17  19
ENDBRANCH  15  17
ENDBRANCH   7  10
BRANCH   8  30
HETATM   30  C   UNL     1      -9.874   6.684  67.371  1.00  0.00    -0.131 A  
HETATM   31  C   UNL     1     -10.408   5.136  65.781  1.00  0.00    -0.049 A  
HETATM   32  N   UNL     1     -10.818   5.930  66.779  1.00  0.00    -0.307 NA 
HETATM   33  N   UNL     1     -11.340   4.345  65.148  1.00  0.00    -1.082 NA 
HETATM   34  N   UNL     1      -9.165   5.086  65.294  1.00  0.00    -0.148 NA 
HETATM   35  C   UNL     1      -8.257   5.873  65.882  1.00  0.00    -0.127 A  
HETATM   36  H2  UNL     1     -12.319   4.363  65.432  1.00  0.00     0.000 HD 
HETATM   37  C   UNL     1      -8.558   6.693  66.937  1.00  0.00    -0.115 A  
HETATM   38  H1  UNL     1     -11.027   3.740  64.388  1.00  0.00     0.000 HD 
ENDBRANCH   8  30
ENDBRANCH   2   5
TORSDOF 6
ENDMDL
MODEL       62
REMARK 921   NORMALIZED FREE ENERGY PREDICTED BY IDOCK:   -7.09 KCAL/MOL
REMARK 922        TOTAL FREE ENERGY PREDICTED BY IDOCK:  -10.71 KCAL/MOL
REMARK 923 INTER-LIGAND FREE ENERGY PREDICTED BY IDOCK:   -9.51 KCAL/MOL
REMARK 924 INTRA-LIGAND FREE ENERGY PREDICTED BY IDOCK:   -1.20 KCAL/MOL
REMARK 927      BINDING AFFINITY PREDICTED BY RF-SCORE:    0.00 PKD
ROOT
HETATM    1  C   UNL     1     -12.751  14.949  73.617  1.00  0.00    -0.600 C  
HETATM    2  C   UNL     1     -12.866  15.052  72.086  1.00  0.00    -0.414 C  
HETATM    3  C   UNL     1     -11.848  16.114  71.607  1.00  0.00    -0.557 C  
HETATM    4  C   UNL     1     -14.290  15.552  71.752  1.00  0.00    -0.556 C  
ENDROOT
BRANCH   2   5
HETATM    5  C   UNL     1     -12.610  13.701  71.397  1.00  0.00    -0.328 A  
HETATM    6  N   UNL     1     -12.836  12.488  71.872  1.00  0.00    -0.259 NA 
HETATM    7  C   UNL     1     -12.500  11.488  70.927  1.00  0.00    -0.366 A  
HETATM    8  C   UNL     1     -11.952  11.990  69.746  1.00  0.00    -0.300 A  
HETATM    9  S   UNL     1     -11.993  13.713  69.801  1.00  0.00    -0.337 SA 
BRANCH   7  10
HETATM   10  C   UNL     1     -12.735  10.062  71.235  1.00  0.00    -0.500 A  
HETATM   11  C   UNL     1     -11.674   9.212  71.605  1.00  0.00    -0.378 A  
HETATM   12  C   UNL     1     -14.025   9.500  71.226  1.00  0.00    -0.075 A  
HETATM   13  F   UNL     1     -10.404   9.652  71.603  1.00  0.00    -0.355 F  
HETATM   14  C   UNL     1     -14.259   8.187  71.656  1.00  0.00    -0.536 A  
HETATM   15  C   UNL     1     -11.902   7.890  72.030  1.00  0.00    -0.318 A  
HETATM   16  C   UNL     1     -13.199   7.384  72.066  1.00  0.00    -0.187 A  
BRANCH  15  17
HETATM   17  N   UNL     1     -10.824   7.079  72.514  1.00  0.00    -0.238 N  
HETATM   18  H   UNL     1     -10.669   6.982  73.517  1.00  0.00     0.000 HD 
BRANCH  17  19
HETATM   19  S   UNL     1      -9.810   6.285  71.420  1.00  0.00    -0.174 S  
HETATM   20  O   UNL     1     -10.208   6.650  70.077  1.00  0.00    -0.181 OA 
HETATM   21  O   UNL     1      -9.792   4.891  71.814  1.00  0.00    -0.166 OA 
BRANCH  19  22
HETATM   22  C   UNL     1      -8.207   6.910  71.746  1.00  0.00    -0.105 A  
HETATM   23  C   UNL     1      -7.206   6.687  70.809  1.00  0.00    -0.070 A  
HETATM   24  F   UNL     1      -7.410   5.868  69.767  1.00  0.00    -0.066 F  
HETATM   25  C   UNL     1      -5.966   7.317  70.922  1.00  0.00    -0.035 A  
HETATM   26  C   UNL     1      -5.724   8.184  71.987  1.00  0.00    -0.038 A  
HETATM   27  C   UNL     1      -6.720   8.391  72.942  1.00  0.00    -0.103 A  
HETATM   28  C   UNL     1      -7.958   7.756  72.817  1.00  0.00    -0.118 A  
HETATM   29  F   UNL     1      -8.885   8.021  73.744  1.00  0.00    -0.269 F  
ENDBRANCH  19  22
ENDBRANCH  17  19
ENDBRANCH  15  17
ENDBRANCH   7  10
BRANCH   8  30
HETATM   30  C   UNL     1     -11.406  11.415  68.504  1.00  0.00    -0.271 A  
HETATM   31  C   UNL     1     -10.602   9.585  67.399  1.00  0.00    -0.271 A  
HETATM   32  N   UNL     1     -11.128  10.098  68.519  1.00  0.00    -0.237 NA 
HETATM   33  N   UNL     1     -10.300   8.243  67.370  1.00  0.00    -0.257 NA 
HETATM   34  N   UNL     1     -10.398  10.259  66.262  1.00  0.00    -0.215 NA 
HETATM   35  C   UNL     1     -10.717  11.558  66.268  1.00  0.00    -0.272 A  
HETATM   36  H2  UNL     1     -10.472   7.652  68.184  1.00  0.00     0.000 HD 
HETATM   37  C   UNL     1     -11.221  12.194  67.372  1.00  0.00    -0.362 A  
HETATM   38  H1  UNL     1      -9.900   7.853  66.517  1.00  0.00     0.000 HD 
ENDBRANCH   8  30
ENDBRANCH   2   5
TORSDOF 6
ENDMDL
MODEL       63
REMARK 921   NORMALIZED FREE ENERGY PREDICTED BY IDOCK:   -7.09 KCAL/MOL
REMARK 922        TOTAL FREE ENERGY PREDICTED BY IDOCK:  -10.71 KCAL/MOL
REMARK 923 INTER-LIGAND FREE ENERGY PREDICTED BY IDOCK:   -9.36 KCAL/MOL
REMARK 924 INTRA-LIGAND FREE ENERGY PREDICTED BY IDOCK:   -1.35 KCAL/MOL
REMARK 927      BINDING AFFINITY PREDICTED BY RF-SCORE:    0.00 PKD
ROOT
HETATM    1  C   UNL     1     -12.188  14.824  73.029  1.00  0.00    -0.348 C  
HETATM    2  C   UNL     1     -13.055  14.217  71.910  1.00  0.00    -0.456 C  
HETATM    3  C   UNL     1     -14.266  15.153  71.692  1.00  0.00    -0.664 C  
HETATM    4  C   UNL     1     -13.576  12.848  72.406  1.00  0.00    -0.577 C  
ENDROOT
BRANCH   2   5
HETATM    5  C   UNL     1     -12.264  14.034  70.603  1.00  0.00    -0.372 A  
HETATM    6  N   UNL     1     -11.859  12.905  70.047  1.00  0.00    -0.317 NA 
HETATM    7  C   UNL     1     -11.182  13.141  68.825  1.00  0.00    -0.281 A  
HETATM    8  C   UNL     1     -11.036  14.493  68.514  1.00  0.00    -0.256 A  
HETATM    9  S   UNL     1     -11.866  15.431  69.700  1.00  0.00    -0.357 SA 
BRANCH   7  10
HETATM   10  C   UNL     1     -10.702  12.007  68.009  1.00  0.00    -0.244 A  
HETATM   11  C   UNL     1      -9.455  11.401  68.264  1.00  0.00    -0.187 A  
HETATM   12  C   UNL     1     -11.480  11.446  66.979  1.00  0.00    -0.234 A  
HETATM   13  F   UNL     1      -8.628  11.894  69.203  1.00  0.00     0.018 F  
HETATM   14  C   UNL     1     -11.082  10.285  66.304  1.00  0.00     0.283 A  
HETATM   15  C   UNL     1      -9.047  10.239  67.584  1.00  0.00    -0.137 A  
HETATM   16  C   UNL     1      -9.870   9.676  66.612  1.00  0.00    -0.285 A  
BRANCH  15  17
HETATM   17  N   UNL     1      -7.830   9.571  67.940  1.00  0.00    -0.091 N  
HETATM   18  H   UNL     1      -6.931  10.013  67.750  1.00  0.00     0.000 HD 
BRANCH  17  19
HETATM   19  S   UNL     1      -7.887   8.050  68.676  1.00  0.00    -0.120 S  
HETATM   20  O   UNL     1      -6.709   7.899  69.506  1.00  0.00    -0.041 OA 
HETATM   21  O   UNL     1      -8.156   7.094  67.623  1.00  0.00    -0.112 OA 
BRANCH  19  22
HETATM   22  C   UNL     1      -9.316   8.085  69.688  1.00  0.00    -0.156 A  
HETATM   23  C   UNL     1      -9.364   8.999  70.734  1.00  0.00    -0.249 A  
HETATM   24  F   UNL     1      -8.281   9.713  71.073  1.00  0.00    -0.183 F  
HETATM   25  C   UNL     1     -10.543   9.203  71.452  1.00  0.00    -0.412 A  
HETATM   26  C   UNL     1     -11.690   8.485  71.119  1.00  0.00    -0.322 A  
HETATM   27  C   UNL     1     -11.638   7.552  70.084  1.00  0.00    -0.046 A  
HETATM   28  C   UNL     1     -10.453   7.357  69.370  1.00  0.00    -0.217 A  
HETATM   29  F   UNL     1     -10.473   6.473  68.367  1.00  0.00    -0.154 F  
ENDBRANCH  19  22
ENDBRANCH  17  19
ENDBRANCH  15  17
ENDBRANCH   7  10
BRANCH   8  30
HETATM   30  C   UNL     1     -10.398  15.268  67.435  1.00  0.00    -0.256 A  
HETATM   31  C   UNL     1     -10.549  16.185  65.349  1.00  0.00    -0.380 A  
HETATM   32  N   UNL     1     -11.144  15.507  66.340  1.00  0.00    -0.237 NA 
HETATM   33  N   UNL     1     -11.273  16.451  64.210  1.00  0.00    -1.298 NA 
HETATM   34  N   UNL     1      -9.312  16.690  65.391  1.00  0.00    -0.180 NA 
HETATM   35  C   UNL     1      -8.609  16.464  66.507  1.00  0.00    -0.294 A  
HETATM   36  H2  UNL     1     -12.241  16.138  64.122  1.00  0.00     0.000 HD 
HETATM   37  C   UNL     1      -9.103  15.747  67.565  1.00  0.00    -0.201 A  
HETATM   38  H1  UNL     1     -10.820  16.967  63.455  1.00  0.00     0.000 HD 
ENDBRANCH   8  30
ENDBRANCH   2   5
TORSDOF 6
ENDMDL
MODEL       64
REMARK 921   NORMALIZED FREE ENERGY PREDICTED BY IDOCK:   -7.09 KCAL/MOL
REMARK 922        TOTAL FREE ENERGY PREDICTED BY IDOCK:  -10.70 KCAL/MOL
REMARK 923 INTER-LIGAND FREE ENERGY PREDICTED BY IDOCK:   -9.69 KCAL/MOL
REMARK 924 INTRA-LIGAND FREE ENERGY PREDICTED BY IDOCK:   -1.01 KCAL/MOL
REMARK 927      BINDING AFFINITY PREDICTED BY RF-SCORE:    0.00 PKD
ROOT
HETATM    1  C   UNL     1      -9.879   3.277  70.986  1.00  0.00    -0.113 C  
HETATM    2  C   UNL     1      -9.054   4.068  69.956  1.00  0.00    -0.187 C  
HETATM    3  C   UNL     1      -9.432   3.548  68.549  1.00  0.00    -0.207 C  
HETATM    4  C   UNL     1      -7.560   3.759  70.208  1.00  0.00    -0.044 C  
ENDROOT
BRANCH   2   5
HETATM    5  C   UNL     1      -9.300   5.583  70.062  1.00  0.00    -0.148 A  
HETATM    6  N   UNL     1      -8.483   6.567  69.726  1.00  0.00    -0.130 NA 
HETATM    7  C   UNL     1      -9.079   7.834  69.942  1.00  0.00    -0.147 A  
HETATM    8  C   UNL     1     -10.350   7.769  70.513  1.00  0.00    -0.205 A  
HETATM    9  S   UNL     1     -10.818   6.115  70.645  1.00  0.00    -0.310 SA 
BRANCH   7  10
HETATM   10  C   UNL     1      -8.357   9.069  69.573  1.00  0.00    -0.117 A  
HETATM   11  C   UNL     1      -8.674   9.773  68.394  1.00  0.00    -0.120 A  
HETATM   12  C   UNL     1      -7.363   9.628  70.397  1.00  0.00    -0.156 A  
HETATM   13  F   UNL     1      -9.582   9.295  67.527  1.00  0.00    -0.153 F  
HETATM   14  C   UNL     1      -6.783  10.871  70.114  1.00  0.00    -0.081 A  
HETATM   15  C   UNL     1      -8.089  11.020  68.100  1.00  0.00    -0.122 A  
HETATM   16  C   UNL     1      -7.151  11.571  68.969  1.00  0.00    -0.115 A  
BRANCH  15  17
HETATM   17  N   UNL     1      -8.510  11.775  66.957  1.00  0.00    -0.169 N  
HETATM   18  H   UNL     1      -8.177  11.523  66.027  1.00  0.00     0.000 HD 
BRANCH  17  19
HETATM   19  S   UNL     1      -9.562  13.084  67.153  1.00  0.00    -0.237 S  
HETATM   20  O   UNL     1      -8.795  14.307  67.045  1.00  0.00    -0.214 OA 
HETATM   21  O   UNL     1     -10.332  12.817  68.349  1.00  0.00    -0.236 OA 
BRANCH  19  22
HETATM   22  C   UNL     1     -10.681  12.974  65.811  1.00  0.00    -0.274 A  
HETATM   23  C   UNL     1     -11.545  14.038  65.581  1.00  0.00    -0.331 A  
HETATM   24  F   UNL     1     -11.646  15.045  66.462  1.00  0.00    -0.351 F  
HETATM   25  C   UNL     1     -12.323  14.091  64.424  1.00  0.00    -0.401 A  
HETATM   26  C   UNL     1     -12.236  13.067  63.482  1.00  0.00    -0.580 A  
HETATM   27  C   UNL     1     -11.386  11.987  63.721  1.00  0.00    -0.526 A  
HETATM   28  C   UNL     1     -10.610  11.946  64.883  1.00  0.00    -0.287 A  
HETATM   29  F   UNL     1      -9.788  10.902  65.041  1.00  0.00    -0.248 F  
ENDBRANCH  19  22
ENDBRANCH  17  19
ENDBRANCH  15  17
ENDBRANCH   7  10
BRANCH   8  30
HETATM   30  C   UNL     1     -11.354   8.745  70.974  1.00  0.00    -0.278 A  
HETATM   31  C   UNL     1     -13.217   9.172  72.224  1.00  0.00    -0.461 A  
HETATM   32  N   UNL     1     -12.287   8.291  71.832  1.00  0.00    -0.319 NA 
HETATM   33  N   UNL     1     -14.192   8.752  73.099  1.00  0.00    -1.172 NA 
HETATM   34  N   UNL     1     -13.248  10.465  71.884  1.00  0.00    -0.451 NA 
HETATM   35  C   UNL     1     -12.287  10.893  71.058  1.00  0.00    -0.393 A  
HETATM   36  H2  UNL     1     -14.207   7.790  73.441  1.00  0.00     0.000 HD 
HETATM   37  C   UNL     1     -11.312  10.068  70.562  1.00  0.00    -0.409 A  
HETATM   38  H1  UNL     1     -14.899   9.423  73.397  1.00  0.00     0.000 HD 
ENDBRANCH   8  30
ENDBRANCH   2   5
TORSDOF 6
ENDMDL
MODEL       65
REMARK 921   NORMALIZED FREE ENERGY PREDICTED BY IDOCK:   -7.07 KCAL/MOL
REMARK 922        TOTAL FREE ENERGY PREDICTED BY IDOCK:  -10.68 KCAL/MOL
REMARK 923 INTER-LIGAND FREE ENERGY PREDICTED BY IDOCK:   -9.64 KCAL/MOL
REMARK 924 INTRA-LIGAND FREE ENERGY PREDICTED BY IDOCK:   -1.04 KCAL/MOL
REMARK 927      BINDING AFFINITY PREDICTED BY RF-SCORE:    0.00 PKD
ROOT
HETATM    1  C   UNL     1      -8.542   5.146  67.893  1.00  0.00    -0.103 C  
HETATM    2  C   UNL     1      -9.840   5.956  67.728  1.00  0.00    -0.138 C  
HETATM    3  C   UNL     1     -10.731   5.677  68.962  1.00  0.00    -0.307 C  
HETATM    4  C   UNL     1     -10.568   5.430  66.469  1.00  0.00    -0.353 C  
ENDROOT
BRANCH   2   5
HETATM    5  C   UNL     1      -9.565   7.463  67.583  1.00  0.00    -0.138 A  
HETATM    6  N   UNL     1     -10.364   8.393  67.088  1.00  0.00    -0.290 NA 
HETATM    7  C   UNL     1      -9.768   9.676  67.151  1.00  0.00    -0.174 A  
HETATM    8  C   UNL     1      -8.467   9.670  67.653  1.00  0.00    -0.125 A  
HETATM    9  S   UNL     1      -8.070   8.068  68.153  1.00  0.00    -0.130 SA 
BRANCH   7  10
HETATM   10  C   UNL     1     -10.519  10.869  66.705  1.00  0.00    -0.302 A  
HETATM   11  C   UNL     1     -11.200  11.688  67.628  1.00  0.00    -0.281 A  
HETATM   12  C   UNL     1     -10.547  11.273  65.358  1.00  0.00    -0.312 A  
HETATM   13  F   UNL     1     -11.259  11.359  68.930  1.00  0.00    -0.203 F  
HETATM   14  C   UNL     1     -11.139  12.479  64.962  1.00  0.00    -0.335 A  
HETATM   15  C   UNL     1     -11.804  12.897  67.235  1.00  0.00    -0.356 A  
HETATM   16  C   UNL     1     -11.761  13.295  65.901  1.00  0.00    -0.403 A  
BRANCH  15  17
HETATM   17  N   UNL     1     -12.389  13.773  68.206  1.00  0.00    -0.386 N  
HETATM   18  H   UNL     1     -13.388  13.721  68.404  1.00  0.00     0.000 HD 
BRANCH  17  19
HETATM   19  S   UNL     1     -11.422  14.892  69.024  1.00  0.00    -0.320 S  
HETATM   20  O   UNL     1     -11.681  16.207  68.478  1.00  0.00    -0.348 OA 
HETATM   21  O   UNL     1     -10.076  14.358  69.013  1.00  0.00    -0.221 OA 
BRANCH  19  22
HETATM   22  C   UNL     1     -11.962  14.832  70.689  1.00  0.00    -0.309 A  
HETATM   23  C   UNL     1     -11.826  15.972  71.471  1.00  0.00    -0.486 A  
HETATM   24  F   UNL     1     -11.142  17.035  71.023  1.00  0.00    -0.138 F  
HETATM   25  C   UNL     1     -12.407  16.045  72.738  1.00  0.00    -0.603 A  
HETATM   26  C   UNL     1     -13.134  14.962  73.229  1.00  0.00    -0.585 A  
HETATM   27  C   UNL     1     -13.253  13.808  72.456  1.00  0.00    -0.599 A  
HETATM   28  C   UNL     1     -12.670  13.748  71.188  1.00  0.00    -0.362 A  
HETATM   29  F   UNL     1     -12.846  12.627  70.478  1.00  0.00    -0.232 F  
ENDBRANCH  19  22
ENDBRANCH  17  19
ENDBRANCH  15  17
ENDBRANCH   7  10
BRANCH   8  30
HETATM   30  C   UNL     1      -7.413  10.676  67.878  1.00  0.00    -0.090 A  
HETATM   31  C   UNL     1      -6.395  12.137  69.308  1.00  0.00    -0.103 A  
HETATM   32  N   UNL     1      -7.333  11.200  69.116  1.00  0.00    -0.121 NA 
HETATM   33  N   UNL     1      -6.279  12.701  70.557  1.00  0.00    -0.495 NA 
HETATM   34  N   UNL     1      -5.504  12.537  68.395  1.00  0.00    -0.053 NA 
HETATM   35  C   UNL     1      -5.588  11.972  67.185  1.00  0.00    -0.132 A  
HETATM   36  H2  UNL     1      -6.892  12.414  71.319  1.00  0.00     0.000 HD 
HETATM   37  C   UNL     1      -6.535  11.035  66.867  1.00  0.00    -0.108 A  
HETATM   38  H1  UNL     1      -5.564  13.415  70.703  1.00  0.00     0.000 HD 
ENDBRANCH   8  30
ENDBRANCH   2   5
TORSDOF 6
ENDMDL
MODEL       66
REMARK 921   NORMALIZED FREE ENERGY PREDICTED BY IDOCK:   -7.06 KCAL/MOL
REMARK 922        TOTAL FREE ENERGY PREDICTED BY IDOCK:  -10.67 KCAL/MOL
REMARK 923 INTER-LIGAND FREE ENERGY PREDICTED BY IDOCK:   -9.32 KCAL/MOL
REMARK 924 INTRA-LIGAND FREE ENERGY PREDICTED BY IDOCK:   -1.35 KCAL/MOL
REMARK 927      BINDING AFFINITY PREDICTED BY RF-SCORE:    0.00 PKD
ROOT
HETATM    1  C   UNL     1      -6.563   6.429  73.513  1.00  0.00    -0.073 C  
HETATM    2  C   UNL     1      -6.803   5.993  72.056  1.00  0.00    -0.072 C  
HETATM    3  C   UNL     1      -7.012   4.460  72.051  1.00  0.00    -0.054 C  
HETATM    4  C   UNL     1      -5.524   6.316  71.250  1.00  0.00    -0.022 C  
ENDROOT
BRANCH   2   5
HETATM    5  C   UNL     1      -8.012   6.710  71.432  1.00  0.00    -0.107 A  
HETATM    6  N   UNL     1      -8.073   7.348  70.275  1.00  0.00    -0.115 NA 
HETATM    7  C   UNL     1      -9.372   7.855  70.029  1.00  0.00    -0.157 A  
HETATM    8  C   UNL     1     -10.271   7.631  71.071  1.00  0.00    -0.194 A  
HETATM    9  S   UNL     1      -9.497   6.676  72.280  1.00  0.00    -0.144 SA 
BRANCH   7  10
HETATM   10  C   UNL     1      -9.672   8.549  68.759  1.00  0.00    -0.168 A  
HETATM   11  C   UNL     1      -9.734   9.956  68.694  1.00  0.00    -0.157 A  
HETATM   12  C   UNL     1      -9.858   7.850  67.552  1.00  0.00    -0.221 A  
HETATM   13  F   UNL     1      -9.607  10.704  69.804  1.00  0.00    -0.191 F  
HETATM   14  C   UNL     1     -10.001   8.517  66.329  1.00  0.00    -0.251 A  
HETATM   15  C   UNL     1      -9.885  10.631  67.469  1.00  0.00    -0.168 A  
HETATM   16  C   UNL     1     -10.007   9.908  66.285  1.00  0.00    -0.322 A  
BRANCH  15  17
HETATM   17  N   UNL     1      -9.827  12.061  67.410  1.00  0.00    -0.184 N  
HETATM   18  H   UNL     1      -8.961  12.548  67.641  1.00  0.00     0.000 HD 
BRANCH  17  19
HETATM   19  S   UNL     1     -11.196  12.943  66.955  1.00  0.00    -0.304 S  
HETATM   20  O   UNL     1     -12.241  12.010  66.589  1.00  0.00    -0.550 OA 
HETATM   21  O   UNL     1     -10.747  13.936  66.002  1.00  0.00    -0.282 OA 
BRANCH  19  22
HETATM   22  C   UNL     1     -11.673  13.820  68.394  1.00  0.00    -0.358 A  
HETATM   23  C   UNL     1     -12.092  13.095  69.503  1.00  0.00    -0.238 A  
HETATM   24  F   UNL     1     -12.297  11.772  69.422  1.00  0.00    -0.307 F  
HETATM   25  C   UNL     1     -12.302  13.723  70.731  1.00  0.00    -0.451 A  
HETATM   26  C   UNL     1     -12.088  15.095  70.854  1.00  0.00    -0.388 A  
HETATM   27  C   UNL     1     -11.689  15.829  69.737  1.00  0.00    -0.355 A  
HETATM   28  C   UNL     1     -11.479  15.189  68.512  1.00  0.00    -0.320 A  
HETATM   29  F   UNL     1     -11.064  15.939  67.485  1.00  0.00    -0.320 F  
ENDBRANCH  19  22
ENDBRANCH  17  19
ENDBRANCH  15  17
ENDBRANCH   7  10
BRANCH   8  30
HETATM   30  C   UNL     1     -11.678   7.974  71.348  1.00  0.00    -0.287 A  
HETATM   31  C   UNL     1     -13.207   9.552  71.969  1.00  0.00    -0.452 A  
HETATM   32  N   UNL     1     -11.932   9.252  71.687  1.00  0.00    -0.354 NA 
HETATM   33  N   UNL     1     -13.512  10.846  72.323  1.00  0.00    -0.528 NA 
HETATM   34  N   UNL     1     -14.239   8.708  71.876  1.00  0.00    -0.432 NA 
HETATM   35  C   UNL     1     -13.958   7.454  71.503  1.00  0.00    -0.396 A  
HETATM   36  H2  UNL     1     -12.785  11.560  72.370  1.00  0.00     0.000 HD 
HETATM   37  C   UNL     1     -12.685   7.028  71.232  1.00  0.00    -0.400 A  
HETATM   38  H1  UNL     1     -14.483  11.075  72.537  1.00  0.00     0.000 HD 
ENDBRANCH   8  30
ENDBRANCH   2   5
TORSDOF 6
ENDMDL
MODEL       67
REMARK 921   NORMALIZED FREE ENERGY PREDICTED BY IDOCK:   -6.98 KCAL/MOL
REMARK 922        TOTAL FREE ENERGY PREDICTED BY IDOCK:  -10.55 KCAL/MOL
REMARK 923 INTER-LIGAND FREE ENERGY PREDICTED BY IDOCK:   -9.48 KCAL/MOL
REMARK 924 INTRA-LIGAND FREE ENERGY PREDICTED BY IDOCK:   -1.07 KCAL/MOL
REMARK 927      BINDING AFFINITY PREDICTED BY RF-SCORE:    0.00 PKD
ROOT
HETATM    1  C   UNL     1     -11.221   6.143  69.143  1.00  0.00    -0.409 C  
HETATM    2  C   UNL     1     -10.565   7.338  69.858  1.00  0.00    -0.244 C  
HETATM    3  C   UNL     1      -9.360   6.800  70.665  1.00  0.00    -0.162 C  
HETATM    4  C   UNL     1     -11.599   7.921  70.849  1.00  0.00    -0.286 C  
ENDROOT
BRANCH   2   5
HETATM    5  C   UNL     1     -10.117   8.427  68.868  1.00  0.00    -0.199 A  
HETATM    6  N   UNL     1      -9.547   9.589  69.137  1.00  0.00    -0.164 NA 
HETATM    7  C   UNL     1      -9.252  10.310  67.954  1.00  0.00    -0.138 A  
HETATM    8  C   UNL     1      -9.677   9.676  66.787  1.00  0.00    -0.197 A  
HETATM    9  S   UNL     1     -10.324   8.131  67.195  1.00  0.00    -0.326 SA 
BRANCH   7  10
HETATM   10  C   UNL     1      -8.554  11.610  68.029  1.00  0.00    -0.152 A  
HETATM   11  C   UNL     1      -9.270  12.824  68.018  1.00  0.00    -0.208 A  
HETATM   12  C   UNL     1      -7.157  11.701  68.168  1.00  0.00    -0.078 A  
HETATM   13  F   UNL     1     -10.604  12.836  67.850  1.00  0.00    -0.206 F  
HETATM   14  C   UNL     1      -6.514  12.927  68.382  1.00  0.00    -0.082 A  
HETATM   15  C   UNL     1      -8.630  14.060  68.224  1.00  0.00    -0.180 A  
HETATM   16  C   UNL     1      -7.252  14.107  68.417  1.00  0.00    -0.109 A  
BRANCH  15  17
HETATM   17  N   UNL     1      -9.390  15.270  68.326  1.00  0.00    -0.190 N  
HETATM   18  H   UNL     1      -9.521  15.716  69.234  1.00  0.00     0.000 HD 
BRANCH  17  19
HETATM   19  S   UNL     1     -10.071  15.958  66.940  1.00  0.00    -0.273 S  
HETATM   20  O   UNL     1     -11.487  15.656  66.927  1.00  0.00    -0.115 OA 
HETATM   21  O   UNL     1      -9.236  15.554  65.828  1.00  0.00    -0.317 OA 
BRANCH  19  22
HETATM   22  C   UNL     1      -9.841  17.684  67.127  1.00  0.00    -0.306 A  
HETATM   23  C   UNL     1     -10.420  18.534  66.193  1.00  0.00    -0.413 A  
HETATM   24  F   UNL     1     -10.990  18.047  65.081  1.00  0.00    -0.422 F  
HETATM   25  C   UNL     1     -10.432  19.915  66.392  1.00  0.00    -0.589 A  
HETATM   26  C   UNL     1      -9.858  20.454  67.543  1.00  0.00    -0.564 A  
HETATM   27  C   UNL     1      -9.257  19.605  68.471  1.00  0.00    -0.378 A  
HETATM   28  C   UNL     1      -9.253  18.223  68.262  1.00  0.00    -0.309 A  
HETATM   29  F   UNL     1      -8.692  17.457  69.204  1.00  0.00    -0.221 F  
ENDBRANCH  19  22
ENDBRANCH  17  19
ENDBRANCH  15  17
ENDBRANCH   7  10
BRANCH   8  30
HETATM   30  C   UNL     1      -9.669   9.993  65.347  1.00  0.00    -0.302 A  
HETATM   31  C   UNL     1     -10.674  11.034  63.581  1.00  0.00    -0.199 A  
HETATM   32  N   UNL     1     -10.667  10.774  64.895  1.00  0.00    -0.191 NA 
HETATM   33  N   UNL     1     -11.677  11.827  63.074  1.00  0.00    -0.811 NA 
HETATM   34  N   UNL     1      -9.742  10.635  62.710  1.00  0.00    -0.290 NA 
HETATM   35  C   UNL     1      -8.744   9.888  63.197  1.00  0.00    -0.222 A  
HETATM   36  H2  UNL     1     -12.400  12.208  63.685  1.00  0.00     0.000 HD 
HETATM   37  C   UNL     1      -8.661   9.528  64.516  1.00  0.00    -0.232 A  
HETATM   38  H1  UNL     1     -11.682  12.024  62.073  1.00  0.00     0.000 HD 
ENDBRANCH   8  30
ENDBRANCH   2   5
TORSDOF 6
ENDMDL
MODEL       68
REMARK 921   NORMALIZED FREE ENERGY PREDICTED BY IDOCK:   -6.97 KCAL/MOL
REMARK 922        TOTAL FREE ENERGY PREDICTED BY IDOCK:  -10.55 KCAL/MOL
REMARK 923 INTER-LIGAND FREE ENERGY PREDICTED BY IDOCK:   -9.68 KCAL/MOL
REMARK 924 INTRA-LIGAND FREE ENERGY PREDICTED BY IDOCK:   -0.87 KCAL/MOL
REMARK 927      BINDING AFFINITY PREDICTED BY RF-SCORE:    0.00 PKD
ROOT
HETATM    1  C   UNL     1      -8.010  17.976  67.924  1.00  0.00    -0.241 C  
HETATM    2  C   UNL     1      -9.461  17.596  67.581  1.00  0.00    -0.258 C  
HETATM    3  C   UNL     1      -9.937  18.530  66.443  1.00  0.00    -0.399 C  
HETATM    4  C   UNL     1     -10.329  17.866  68.832  1.00  0.00    -0.272 C  
ENDROOT
BRANCH   2   5
HETATM    5  C   UNL     1      -9.588  16.120  67.165  1.00  0.00    -0.229 A  
HETATM    6  N   UNL     1      -9.039  15.062  67.736  1.00  0.00    -0.178 NA 
HETATM    7  C   UNL     1      -9.414  13.864  67.081  1.00  0.00    -0.246 A  
HETATM    8  C   UNL     1     -10.214  14.064  65.956  1.00  0.00    -0.304 A  
HETATM    9  S   UNL     1     -10.581  15.743  65.824  1.00  0.00    -0.354 SA 
BRANCH   7  10
HETATM   10  C   UNL     1      -8.959  12.557  67.599  1.00  0.00    -0.185 A  
HETATM   11  C   UNL     1      -9.856  11.670  68.228  1.00  0.00    -0.199 A  
HETATM   12  C   UNL     1      -7.632  12.115  67.446  1.00  0.00    -0.155 A  
HETATM   13  F   UNL     1     -11.133  12.024  68.452  1.00  0.00    -0.212 F  
HETATM   14  C   UNL     1      -7.240  10.820  67.812  1.00  0.00    -0.088 A  
HETATM   15  C   UNL     1      -9.466  10.371  68.604  1.00  0.00    -0.167 A  
HETATM   16  C   UNL     1      -8.158   9.945  68.383  1.00  0.00    -0.101 A  
BRANCH  15  17
HETATM   17  N   UNL     1     -10.421   9.445  69.134  1.00  0.00    -0.213 N  
HETATM   18  H   UNL     1     -11.274   9.238  68.615  1.00  0.00     0.000 HD 
BRANCH  17  19
HETATM   19  S   UNL     1     -10.134   8.693  70.620  1.00  0.00    -0.209 S  
HETATM   20  O   UNL     1      -9.429   9.625  71.476  1.00  0.00    -0.066 OA 
HETATM   21  O   UNL     1      -9.549   7.403  70.322  1.00  0.00    -0.166 OA 
BRANCH  19  22
HETATM   22  C   UNL     1     -11.722   8.373  71.285  1.00  0.00    -0.285 A  
HETATM   23  C   UNL     1     -12.491   9.450  71.709  1.00  0.00    -0.391 A  
HETATM   24  F   UNL     1     -11.970  10.684  71.775  1.00  0.00    -0.343 F  
HETATM   25  C   UNL     1     -13.828   9.276  72.069  1.00  0.00    -0.446 A  
HETATM   26  C   UNL     1     -14.405   8.009  72.003  1.00  0.00    -0.511 A  
HETATM   27  C   UNL     1     -13.629   6.923  71.599  1.00  0.00    -0.275 A  
HETATM   28  C   UNL     1     -12.291   7.109  71.239  1.00  0.00    -0.379 A  
HETATM   29  F   UNL     1     -11.607   6.036  70.827  1.00  0.00    -0.379 F  
ENDBRANCH  19  22
ENDBRANCH  17  19
ENDBRANCH  15  17
ENDBRANCH   7  10
BRANCH   8  30
HETATM   30  C   UNL     1     -10.820  13.206  64.922  1.00  0.00    -0.332 A  
HETATM   31  C   UNL     1     -10.527  11.766  63.173  1.00  0.00    -0.305 A  
HETATM   32  N   UNL     1      -9.972  12.521  64.132  1.00  0.00    -0.256 NA 
HETATM   33  N   UNL     1      -9.698  11.051  62.341  1.00  0.00    -0.577 NA 
HETATM   34  N   UNL     1     -11.839  11.594  62.988  1.00  0.00    -0.013 NA 
HETATM   35  C   UNL     1     -12.656  12.262  63.812  1.00  0.00    -0.470 A  
HETATM   36  H2  UNL     1      -8.684  11.094  62.450  1.00  0.00     0.000 HD 
HETATM   37  C   UNL     1     -12.197  13.093  64.799  1.00  0.00    -0.477 A  
HETATM   38  H1  UNL     1     -10.120  10.477  61.611  1.00  0.00     0.000 HD 
ENDBRANCH   8  30
ENDBRANCH   2   5
TORSDOF 6
ENDMDL
MODEL       69
REMARK 921   NORMALIZED FREE ENERGY PREDICTED BY IDOCK:   -6.95 KCAL/MOL
REMARK 922        TOTAL FREE ENERGY PREDICTED BY IDOCK:  -10.52 KCAL/MOL
REMARK 923 INTER-LIGAND FREE ENERGY PREDICTED BY IDOCK:   -9.72 KCAL/MOL
REMARK 924 INTRA-LIGAND FREE ENERGY PREDICTED BY IDOCK:   -0.79 KCAL/MOL
REMARK 927      BINDING AFFINITY PREDICTED BY RF-SCORE:    0.00 PKD
ROOT
HETATM    1  C   UNL     1     -10.216  20.134  66.540  1.00  0.00    -0.558 C  
HETATM    2  C   UNL     1      -9.314  19.123  67.270  1.00  0.00    -0.351 C  
HETATM    3  C   UNL     1      -8.952  19.724  68.649  1.00  0.00    -0.255 C  
HETATM    4  C   UNL     1      -8.015  18.967  66.446  1.00  0.00    -0.300 C  
ENDROOT
BRANCH   2   5
HETATM    5  C   UNL     1      -9.997  17.754  67.434  1.00  0.00    -0.323 A  
HETATM    6  N   UNL     1     -10.239  16.847  66.503  1.00  0.00    -0.310 NA 
HETATM    7  C   UNL     1     -10.861  15.696  67.047  1.00  0.00    -0.294 A  
HETATM    8  C   UNL     1     -11.136  15.796  68.411  1.00  0.00    -0.341 A  
HETATM    9  S   UNL     1     -10.491  17.282  69.002  1.00  0.00    -0.234 SA 
BRANCH   7  10
HETATM   10  C   UNL     1     -11.161  14.534  66.185  1.00  0.00    -0.334 A  
HETATM   11  C   UNL     1     -10.136  13.682  65.728  1.00  0.00    -0.298 A  
HETATM   12  C   UNL     1     -12.477  14.192  65.825  1.00  0.00    -0.490 A  
HETATM   13  F   UNL     1      -8.845  13.951  65.991  1.00  0.00    -0.033 F  
HETATM   14  C   UNL     1     -12.768  13.012  65.128  1.00  0.00    -0.461 A  
HETATM   15  C   UNL     1     -10.421  12.498  65.021  1.00  0.00    -0.297 A  
HETATM   16  C   UNL     1     -11.741  12.161  64.733  1.00  0.00    -0.390 A  
BRANCH  15  17
HETATM   17  N   UNL     1      -9.374  11.586  64.668  1.00  0.00    -0.407 N  
HETATM   18  H   UNL     1      -8.825  11.741  63.823  1.00  0.00     0.000 HD 
BRANCH  17  19
HETATM   19  S   UNL     1      -9.050  10.252  65.654  1.00  0.00    -0.188 S  
HETATM   20  O   UNL     1     -10.271   9.490  65.810  1.00  0.00    -0.255 OA 
HETATM   21  O   UNL     1      -8.361  10.761  66.821  1.00  0.00    -0.128 OA 
BRANCH  19  22
HETATM   22  C   UNL     1      -7.877   9.302  64.765  1.00  0.00    -0.118 A  
HETATM   23  C   UNL     1      -8.092   9.085  63.409  1.00  0.00    -0.167 A  
HETATM   24  F   UNL     1      -9.249   9.437  62.832  1.00  0.00    -0.264 F  
HETATM   25  C   UNL     1      -7.105   8.501  62.613  1.00  0.00    -0.090 A  
HETATM   26  C   UNL     1      -5.886   8.132  63.179  1.00  0.00    -0.072 A  
HETATM   27  C   UNL     1      -5.677   8.329  64.544  1.00  0.00    -0.051 A  
HETATM   28  C   UNL     1      -6.671   8.916  65.331  1.00  0.00    -0.072 A  
HETATM   29  F   UNL     1      -6.399   9.111  66.627  1.00  0.00    -0.061 F  
ENDBRANCH  19  22
ENDBRANCH  17  19
ENDBRANCH  15  17
ENDBRANCH   7  10
BRANCH   8  30
HETATM   30  C   UNL     1     -11.789  14.947  69.424  1.00  0.00    -0.324 A  
HETATM   31  C   UNL     1     -13.050  14.809  71.322  1.00  0.00    -0.368 A  
HETATM   32  N   UNL     1     -12.484  15.582  70.386  1.00  0.00    -0.418 NA 
HETATM   33  N   UNL     1     -13.769  15.415  72.326  1.00  0.00    -0.479 NA 
HETATM   34  N   UNL     1     -13.031  13.472  71.336  1.00  0.00    -0.352 NA 
HETATM   35  C   UNL     1     -12.360  12.870  70.347  1.00  0.00    -0.258 A  
HETATM   36  H2  UNL     1     -13.869  16.430  72.357  1.00  0.00     0.000 HD 
HETATM   37  C   UNL     1     -11.709  13.565  69.362  1.00  0.00    -0.381 A  
HETATM   38  H1  UNL     1     -14.200  14.826  73.040  1.00  0.00     0.000 HD 
ENDBRANCH   8  30
ENDBRANCH   2   5
TORSDOF 6
ENDMDL
MODEL       70
REMARK 921   NORMALIZED FREE ENERGY PREDICTED BY IDOCK:   -6.94 KCAL/MOL
REMARK 922        TOTAL FREE ENERGY PREDICTED BY IDOCK:  -10.51 KCAL/MOL
REMARK 923 INTER-LIGAND FREE ENERGY PREDICTED BY IDOCK:   -9.29 KCAL/MOL
REMARK 924 INTRA-LIGAND FREE ENERGY PREDICTED BY IDOCK:   -1.22 KCAL/MOL
REMARK 927      BINDING AFFINITY PREDICTED BY RF-SCORE:    0.00 PKD
ROOT
HETATM    1  C   UNL     1     -13.017   6.997  71.457  1.00  0.00    -0.411 C  
HETATM    2  C   UNL     1     -12.006   8.117  71.759  1.00  0.00    -0.348 C  
HETATM    3  C   UNL     1     -11.216   7.710  73.026  1.00  0.00    -0.388 C  
HETATM    4  C   UNL     1     -12.805   9.403  72.072  1.00  0.00    -0.496 C  
ENDROOT
BRANCH   2   5
HETATM    5  C   UNL     1     -11.052   8.367  70.578  1.00  0.00    -0.252 A  
HETATM    6  N   UNL     1     -10.685   9.526  70.058  1.00  0.00    -0.227 NA 
HETATM    7  C   UNL     1      -9.766   9.350  68.995  1.00  0.00    -0.166 A  
HETATM    8  C   UNL     1      -9.501   8.015  68.693  1.00  0.00    -0.147 A  
HETATM    9  S   UNL     1     -10.317   7.013  69.835  1.00  0.00    -0.217 SA 
BRANCH   7  10
HETATM   10  C   UNL     1      -9.181  10.525  68.315  1.00  0.00    -0.152 A  
HETATM   11  C   UNL     1      -9.780  11.073  67.163  1.00  0.00    -0.174 A  
HETATM   12  C   UNL     1      -8.038  11.181  68.808  1.00  0.00    -0.140 A  
HETATM   13  F   UNL     1     -10.852  10.490  66.599  1.00  0.00    -0.293 F  
HETATM   14  C   UNL     1      -7.571  12.375  68.242  1.00  0.00    -0.131 A  
HETATM   15  C   UNL     1      -9.312  12.268  66.586  1.00  0.00    -0.228 A  
HETATM   16  C   UNL     1      -8.213  12.923  67.136  1.00  0.00    -0.142 A  
BRANCH  15  17
HETATM   17  N   UNL     1     -10.005  12.872  65.487  1.00  0.00    -0.394 N  
HETATM   18  H   UNL     1      -9.608  12.833  64.549  1.00  0.00     0.000 HD 
BRANCH  17  19
HETATM   19  S   UNL     1     -11.484  13.649  65.747  1.00  0.00    -0.324 S  
HETATM   20  O   UNL     1     -12.533  12.651  65.745  1.00  0.00    -0.607 OA 
HETATM   21  O   UNL     1     -11.536  14.754  64.813  1.00  0.00    -0.390 OA 
BRANCH  19  22
HETATM   22  C   UNL     1     -11.352  14.358  67.343  1.00  0.00    -0.337 A  
HETATM   23  C   UNL     1     -10.873  15.657  67.453  1.00  0.00    -0.315 A  
HETATM   24  F   UNL     1     -10.359  16.292  66.390  1.00  0.00    -0.276 F  
HETATM   25  C   UNL     1     -10.924  16.338  68.670  1.00  0.00    -0.340 A  
HETATM   26  C   UNL     1     -11.462  15.712  69.793  1.00  0.00    -0.346 A  
HETATM   27  C   UNL     1     -11.923  14.399  69.690  1.00  0.00    -0.385 A  
HETATM   28  C   UNL     1     -11.869  13.728  68.466  1.00  0.00    -0.370 A  
HETATM   29  F   UNL     1     -12.358  12.483  68.421  1.00  0.00    -0.279 F  
ENDBRANCH  19  22
ENDBRANCH  17  19
ENDBRANCH  15  17
ENDBRANCH   7  10
BRANCH   8  30
HETATM   30  C   UNL     1      -8.694   7.295  67.691  1.00  0.00    -0.125 A  
HETATM   31  C   UNL     1      -8.629   6.051  65.777  1.00  0.00    -0.155 A  
HETATM   32  N   UNL     1      -9.363   6.731  66.669  1.00  0.00    -0.161 NA 
HETATM   33  N   UNL     1      -9.271   5.455  64.717  1.00  0.00    -0.358 NA 
HETATM   34  N   UNL     1      -7.296   5.949  65.791  1.00  0.00    -0.075 NA 
HETATM   35  C   UNL     1      -6.657   6.551  66.801  1.00  0.00    -0.048 A  
HETATM   36  H2  UNL     1     -10.283   5.528  64.612  1.00  0.00     0.000 HD 
HETATM   37  C   UNL     1      -7.312   7.237  67.790  1.00  0.00    -0.093 A  
HETATM   38  H1  UNL     1      -8.712   4.938  64.038  1.00  0.00     0.000 HD 
ENDBRANCH   8  30
ENDBRANCH   2   5
TORSDOF 6
ENDMDL
MODEL       71
REMARK 921   NORMALIZED FREE ENERGY PREDICTED BY IDOCK:   -6.94 KCAL/MOL
REMARK 922        TOTAL FREE ENERGY PREDICTED BY IDOCK:  -10.50 KCAL/MOL
REMARK 923 INTER-LIGAND FREE ENERGY PREDICTED BY IDOCK:   -9.01 KCAL/MOL
REMARK 924 INTRA-LIGAND FREE ENERGY PREDICTED BY IDOCK:   -1.49 KCAL/MOL
REMARK 927      BINDING AFFINITY PREDICTED BY RF-SCORE:    0.00 PKD
ROOT
HETATM    1  C   UNL     1      -9.855   6.397  66.515  1.00  0.00    -0.170 C  
HETATM    2  C   UNL     1      -8.935   7.624  66.649  1.00  0.00    -0.181 C  
HETATM    3  C   UNL     1      -8.251   7.851  65.280  1.00  0.00    -0.147 C  
HETATM    4  C   UNL     1      -7.845   7.285  67.692  1.00  0.00    -0.113 C  
ENDROOT
BRANCH   2   5
HETATM    5  C   UNL     1      -9.708   8.879  67.088  1.00  0.00    -0.184 A  
HETATM    6  N   UNL     1      -9.906   9.995  66.407  1.00  0.00    -0.211 NA 
HETATM    7  C   UNL     1     -10.697  10.916  67.136  1.00  0.00    -0.270 A  
HETATM    8  C   UNL     1     -11.034  10.479  68.416  1.00  0.00    -0.261 A  
HETATM    9  S   UNL     1     -10.458   8.868  68.626  1.00  0.00    -0.158 SA 
BRANCH   7  10
HETATM   10  C   UNL     1     -11.088  12.205  66.529  1.00  0.00    -0.352 A  
HETATM   11  C   UNL     1     -10.136  13.214  66.281  1.00  0.00    -0.285 A  
HETATM   12  C   UNL     1     -12.410  12.468  66.122  1.00  0.00    -0.011 A  
HETATM   13  F   UNL     1      -8.858  13.066  66.670  1.00  0.00    -0.211 F  
HETATM   14  C   UNL     1     -12.747  13.632  65.420  1.00  0.00    -0.500 A  
HETATM   15  C   UNL     1     -10.470  14.389  65.582  1.00  0.00    -0.334 A  
HETATM   16  C   UNL     1     -11.776  14.589  65.143  1.00  0.00    -0.376 A  
BRANCH  15  17
HETATM   17  N   UNL     1      -9.464  15.348  65.238  1.00  0.00    -0.219 N  
HETATM   18  H   UNL     1      -8.779  15.132  64.513  1.00  0.00     0.000 HD 
BRANCH  17  19
HETATM   19  S   UNL     1      -9.410  16.838  66.034  1.00  0.00    -0.145 S  
HETATM   20  O   UNL     1     -10.509  17.651  65.558  1.00  0.00    -0.636 OA 
HETATM   21  O   UNL     1      -8.050  17.320  65.913  1.00  0.00    -0.529 OA 
BRANCH  19  22
HETATM   22  C   UNL     1      -9.651  16.460  67.727  1.00  0.00    -0.231 A  
HETATM   23  C   UNL     1     -10.905  16.684  68.283  1.00  0.00    -0.356 A  
HETATM   24  F   UNL     1     -11.856  17.334  67.596  1.00  0.00     0.364 F  
HETATM   25  C   UNL     1     -11.210  16.229  69.567  1.00  0.00    -0.308 A  
HETATM   26  C   UNL     1     -10.248  15.540  70.304  1.00  0.00    -0.139 A  
HETATM   27  C   UNL     1      -8.982  15.335  69.757  1.00  0.00    -0.018 A  
HETATM   28  C   UNL     1      -8.689  15.792  68.470  1.00  0.00    -0.184 A  
HETATM   29  F   UNL     1      -7.468  15.536  67.985  1.00  0.00    -0.111 F  
ENDBRANCH  19  22
ENDBRANCH  17  19
ENDBRANCH  15  17
ENDBRANCH   7  10
BRANCH   8  30
HETATM   30  C   UNL     1     -11.768  11.038  69.567  1.00  0.00    -0.329 A  
HETATM   31  C   UNL     1     -12.961  10.665  71.478  1.00  0.00    -0.461 A  
HETATM   32  N   UNL     1     -12.268  10.155  70.451  1.00  0.00    -0.248 NA 
HETATM   33  N   UNL     1     -13.492   9.798  72.405  1.00  0.00    -0.629 NA 
HETATM   34  N   UNL     1     -13.135  11.967  71.722  1.00  0.00    -0.426 NA 
HETATM   35  C   UNL     1     -12.596  12.820  70.843  1.00  0.00    -0.255 A  
HETATM   36  H2  UNL     1     -13.362   8.790  72.313  1.00  0.00     0.000 HD 
HETATM   37  C   UNL     1     -11.904  12.407  69.735  1.00  0.00    -0.387 A  
HETATM   38  H1  UNL     1     -14.020  10.187  73.187  1.00  0.00     0.000 HD 
ENDBRANCH   8  30
ENDBRANCH   2   5
TORSDOF 6
ENDMDL
MODEL       72
REMARK 921   NORMALIZED FREE ENERGY PREDICTED BY IDOCK:   -6.92 KCAL/MOL
REMARK 922        TOTAL FREE ENERGY PREDICTED BY IDOCK:  -10.47 KCAL/MOL
REMARK 923 INTER-LIGAND FREE ENERGY PREDICTED BY IDOCK:   -9.60 KCAL/MOL
REMARK 924 INTRA-LIGAND FREE ENERGY PREDICTED BY IDOCK:   -0.87 KCAL/MOL
REMARK 927      BINDING AFFINITY PREDICTED BY RF-SCORE:    0.00 PKD
ROOT
HETATM    1  C   UNL     1      -8.431   3.860  74.405  1.00  0.00    -0.092 C  
HETATM    2  C   UNL     1      -9.567   3.313  73.522  1.00  0.00    -0.139 C  
HETATM    3  C   UNL     1     -10.718   2.870  74.456  1.00  0.00    -0.093 C  
HETATM    4  C   UNL     1      -9.032   2.068  72.779  1.00  0.00    -0.079 C  
ENDROOT
BRANCH   2   5
HETATM    5  C   UNL     1     -10.061   4.358  72.506  1.00  0.00    -0.177 A  
HETATM    6  N   UNL     1     -10.991   5.282  72.673  1.00  0.00    -0.251 NA 
HETATM    7  C   UNL     1     -11.146   6.080  71.514  1.00  0.00    -0.276 A  
HETATM    8  C   UNL     1     -10.342   5.684  70.445  1.00  0.00    -0.260 A  
HETATM    9  S   UNL     1      -9.319   4.397  70.965  1.00  0.00    -0.162 SA 
BRANCH   7  10
HETATM   10  C   UNL     1     -12.093   7.215  71.511  1.00  0.00    -0.377 A  
HETATM   11  C   UNL     1     -11.639   8.544  71.399  1.00  0.00    -0.289 A  
HETATM   12  C   UNL     1     -13.486   7.024  71.568  1.00  0.00    -0.363 A  
HETATM   13  F   UNL     1     -10.325   8.824  71.378  1.00  0.00    -0.249 F  
HETATM   14  C   UNL     1     -14.383   8.090  71.422  1.00  0.00    -0.490 A  
HETATM   15  C   UNL     1     -12.535   9.620  71.259  1.00  0.00    -0.355 A  
HETATM   16  C   UNL     1     -13.908   9.387  71.260  1.00  0.00    -0.183 A  
BRANCH  15  17
HETATM   17  N   UNL     1     -12.053  10.949  71.028  1.00  0.00    -0.338 N  
HETATM   18  H   UNL     1     -12.017  11.620  71.795  1.00  0.00     0.000 HD 
BRANCH  17  19
HETATM   19  S   UNL     1     -11.543  11.405  69.482  1.00  0.00    -0.361 S  
HETATM   20  O   UNL     1     -12.387  10.745  68.508  1.00  0.00    -0.417 OA 
HETATM   21  O   UNL     1     -10.109  11.207  69.448  1.00  0.00    -0.111 OA 
BRANCH  19  22
HETATM   22  C   UNL     1     -11.804  13.135  69.407  1.00  0.00    -0.326 A  
HETATM   23  C   UNL     1     -12.288  13.781  70.538  1.00  0.00    -0.359 A  
HETATM   24  F   UNL     1     -12.712  13.082  71.601  1.00  0.00    -0.414 F  
HETATM   25  C   UNL     1     -12.337  15.174  70.600  1.00  0.00    -0.420 A  
HETATM   26  C   UNL     1     -11.894  15.932  69.518  1.00  0.00    -0.310 A  
HETATM   27  C   UNL     1     -11.429  15.286  68.373  1.00  0.00    -0.358 A  
HETATM   28  C   UNL     1     -11.383  13.890  68.322  1.00  0.00    -0.294 A  
HETATM   29  F   UNL     1     -10.895  13.327  67.211  1.00  0.00    -0.254 F  
ENDBRANCH  19  22
ENDBRANCH  17  19
ENDBRANCH  15  17
ENDBRANCH   7  10
BRANCH   8  30
HETATM   30  C   UNL     1     -10.149   6.115  69.049  1.00  0.00    -0.173 A  
HETATM   31  C   UNL     1     -10.561   5.760  66.831  1.00  0.00    -0.308 A  
HETATM   32  N   UNL     1     -10.764   5.384  68.101  1.00  0.00    -0.084 NA 
HETATM   33  N   UNL     1     -11.168   5.041  65.828  1.00  0.00    -0.867 NA 
HETATM   34  N   UNL     1      -9.857   6.829  66.445  1.00  0.00    -0.091 NA 
HETATM   35  C   UNL     1      -9.286   7.555  67.413  1.00  0.00    -0.140 A  
HETATM   36  H2  UNL     1     -11.760   4.239  66.046  1.00  0.00     0.000 HD 
HETATM   37  C   UNL     1      -9.395   7.236  68.741  1.00  0.00    -0.143 A  
HETATM   38  H1  UNL     1     -11.013   5.327  64.861  1.00  0.00     0.000 HD 
ENDBRANCH   8  30
ENDBRANCH   2   5
TORSDOF 6
ENDMDL
MODEL       73
REMARK 921   NORMALIZED FREE ENERGY PREDICTED BY IDOCK:   -6.89 KCAL/MOL
REMARK 922        TOTAL FREE ENERGY PREDICTED BY IDOCK:  -10.43 KCAL/MOL
REMARK 923 INTER-LIGAND FREE ENERGY PREDICTED BY IDOCK:   -9.68 KCAL/MOL
REMARK 924 INTRA-LIGAND FREE ENERGY PREDICTED BY IDOCK:   -0.75 KCAL/MOL
REMARK 927      BINDING AFFINITY PREDICTED BY RF-SCORE:    0.00 PKD
ROOT
HETATM    1  C   UNL     1      -7.591  17.650  68.012  1.00  0.00    -0.226 C  
HETATM    2  C   UNL     1      -9.070  17.478  67.621  1.00  0.00    -0.243 C  
HETATM    3  C   UNL     1      -9.356  18.425  66.431  1.00  0.00    -0.287 C  
HETATM    4  C   UNL     1      -9.932  17.927  68.823  1.00  0.00    -0.377 C  
ENDROOT
BRANCH   2   5
HETATM    5  C   UNL     1      -9.403  16.022  67.253  1.00  0.00    -0.210 A  
HETATM    6  N   UNL     1      -8.992  14.916  67.848  1.00  0.00    -0.173 NA 
HETATM    7  C   UNL     1      -9.538  13.762  67.236  1.00  0.00    -0.237 A  
HETATM    8  C   UNL     1     -10.325  14.036  66.118  1.00  0.00    -0.297 A  
HETATM    9  S   UNL     1     -10.464  15.745  65.940  1.00  0.00    -0.367 SA 
BRANCH   7  10
HETATM   10  C   UNL     1      -9.254  12.421  67.788  1.00  0.00    -0.193 A  
HETATM   11  C   UNL     1     -10.292  11.592  68.260  1.00  0.00    -0.197 A  
HETATM   12  C   UNL     1      -7.952  11.888  67.822  1.00  0.00    -0.144 A  
HETATM   13  F   UNL     1     -11.561  12.031  68.301  1.00  0.00    -0.289 F  
HETATM   14  C   UNL     1      -7.707  10.565  68.214  1.00  0.00    -0.101 A  
HETATM   15  C   UNL     1     -10.051  10.265  68.661  1.00  0.00    -0.174 A  
HETATM   16  C   UNL     1      -8.757   9.751  68.626  1.00  0.00    -0.122 A  
BRANCH  15  17
HETATM   17  N   UNL     1     -11.135   9.401  69.025  1.00  0.00    -0.437 N  
HETATM   18  H   UNL     1     -11.688   8.944  68.301  1.00  0.00     0.000 HD 
BRANCH  17  19
HETATM   19  S   UNL     1     -11.495   9.141  70.656  1.00  0.00    -0.239 S  
HETATM   20  O   UNL     1     -12.891   9.459  70.873  1.00  0.00    -0.219 OA 
HETATM   21  O   UNL     1     -10.471   9.826  71.417  1.00  0.00    -0.188 OA 
BRANCH  19  22
HETATM   22  C   UNL     1     -11.237   7.428  70.913  1.00  0.00    -0.270 A  
HETATM   23  C   UNL     1     -10.945   6.631  69.813  1.00  0.00    -0.313 A  
HETATM   24  F   UNL     1     -11.032   7.119  68.568  1.00  0.00    -0.216 F  
HETATM   25  C   UNL     1     -10.546   5.304  69.978  1.00  0.00    -0.300 A  
HETATM   26  C   UNL     1     -10.436   4.767  71.259  1.00  0.00    -0.121 A  
HETATM   27  C   UNL     1     -10.750   5.559  72.364  1.00  0.00    -0.286 A  
HETATM   28  C   UNL     1     -11.146   6.887  72.187  1.00  0.00    -0.243 A  
HETATM   29  F   UNL     1     -11.401   7.608  73.285  1.00  0.00    -0.419 F  
ENDBRANCH  19  22
ENDBRANCH  17  19
ENDBRANCH  15  17
ENDBRANCH   7  10
BRANCH   8  30
HETATM   30  C   UNL     1     -11.062  13.238  65.121  1.00  0.00    -0.297 A  
HETATM   31  C   UNL     1     -10.997  11.755  63.386  1.00  0.00    -0.380 A  
HETATM   32  N   UNL     1     -10.326  12.454  64.312  1.00  0.00    -0.346 NA 
HETATM   33  N   UNL     1     -10.285  10.941  62.536  1.00  0.00    -0.700 NA 
HETATM   34  N   UNL     1     -12.327  11.729  63.251  1.00  0.00    -0.441 NA 
HETATM   35  C   UNL     1     -13.032  12.493  64.093  1.00  0.00    -0.132 A  
HETATM   36  H2  UNL     1      -9.270  10.871  62.608  1.00  0.00     0.000 HD 
HETATM   37  C   UNL     1     -12.446  13.279  65.049  1.00  0.00    -0.498 A  
HETATM   38  H1  UNL     1     -10.796  10.409  61.831  1.00  0.00     0.000 HD 
ENDBRANCH   8  30
ENDBRANCH   2   5
TORSDOF 6
ENDMDL
MODEL       74
REMARK 921   NORMALIZED FREE ENERGY PREDICTED BY IDOCK:   -6.87 KCAL/MOL
REMARK 922        TOTAL FREE ENERGY PREDICTED BY IDOCK:  -10.41 KCAL/MOL
REMARK 923 INTER-LIGAND FREE ENERGY PREDICTED BY IDOCK:   -8.91 KCAL/MOL
REMARK 924 INTRA-LIGAND FREE ENERGY PREDICTED BY IDOCK:   -1.50 KCAL/MOL
REMARK 927      BINDING AFFINITY PREDICTED BY RF-SCORE:    0.00 PKD
ROOT
HETATM    1  C   UNL     1     -12.837  11.821  64.012  1.00  0.00    -0.181 C  
HETATM    2  C   UNL     1     -11.585  12.620  64.414  1.00  0.00    -0.415 C  
HETATM    3  C   UNL     1     -11.935  14.124  64.321  1.00  0.00    -0.460 C  
HETATM    4  C   UNL     1     -10.475  12.310  63.384  1.00  0.00    -0.408 C  
ENDROOT
BRANCH   2   5
HETATM    5  C   UNL     1     -11.102  12.259  65.830  1.00  0.00    -0.322 A  
HETATM    6  N   UNL     1     -11.833  11.949  66.887  1.00  0.00    -0.610 NA 
HETATM    7  C   UNL     1     -11.023  11.647  68.009  1.00  0.00    -0.224 A  
HETATM    8  C   UNL     1      -9.657  11.803  67.776  1.00  0.00    -0.184 A  
HETATM    9  S   UNL     1      -9.416  12.202  66.116  1.00  0.00    -0.194 SA 
BRANCH   7  10
HETATM   10  C   UNL     1     -11.642  11.213  69.279  1.00  0.00    -0.388 A  
HETATM   11  C   UNL     1     -11.579   9.869  69.698  1.00  0.00    -0.039 A  
HETATM   12  C   UNL     1     -12.274  12.119  70.149  1.00  0.00    -0.308 A  
HETATM   13  F   UNL     1     -11.029   8.926  68.914  1.00  0.00    -0.203 F  
HETATM   14  C   UNL     1     -12.733  11.729  71.414  1.00  0.00    -0.413 A  
HETATM   15  C   UNL     1     -12.045   9.469  70.965  1.00  0.00    -0.318 A  
HETATM   16  C   UNL     1     -12.611  10.406  71.826  1.00  0.00    -0.468 A  
BRANCH  15  17
HETATM   17  N   UNL     1     -11.865   8.123  71.420  1.00  0.00    -0.289 N  
HETATM   18  H   UNL     1     -12.577   7.419  71.226  1.00  0.00     0.000 HD 
BRANCH  17  19
HETATM   19  S   UNL     1     -10.471   7.702  72.279  1.00  0.00    -0.257 S  
HETATM   20  O   UNL     1     -10.864   7.245  73.595  1.00  0.00    -0.356 OA 
HETATM   21  O   UNL     1      -9.554   8.814  72.144  1.00  0.00    -0.305 OA 
BRANCH  19  22
HETATM   22  C   UNL     1      -9.767   6.372  71.383  1.00  0.00    -0.172 A  
HETATM   23  C   UNL     1      -8.595   5.798  71.862  1.00  0.00    -0.134 A  
HETATM   24  F   UNL     1      -7.923   6.355  72.879  1.00  0.00    -0.104 F  
HETATM   25  C   UNL     1      -8.094   4.623  71.301  1.00  0.00    -0.096 A  
HETATM   26  C   UNL     1      -8.773   4.011  70.249  1.00  0.00    -0.120 A  
HETATM   27  C   UNL     1      -9.937   4.598  69.752  1.00  0.00    -0.295 A  
HETATM   28  C   UNL     1     -10.431   5.774  70.322  1.00  0.00    -0.280 A  
HETATM   29  F   UNL     1     -11.570   6.270  69.826  1.00  0.00    -0.449 F  
ENDBRANCH  19  22
ENDBRANCH  17  19
ENDBRANCH  15  17
ENDBRANCH   7  10
BRANCH   8  30
HETATM   30  C   UNL     1      -8.426  11.676  68.577  1.00  0.00    -0.135 A  
HETATM   31  C   UNL     1      -7.175  10.442  70.036  1.00  0.00    -0.135 A  
HETATM   32  N   UNL     1      -8.280  10.540  69.285  1.00  0.00    -0.158 NA 
HETATM   33  N   UNL     1      -6.986   9.300  70.779  1.00  0.00    -0.099 NA 
HETATM   34  N   UNL     1      -6.190  11.344  70.082  1.00  0.00    -0.150 NA 
HETATM   35  C   UNL     1      -6.348  12.446  69.339  1.00  0.00    -0.119 A  
HETATM   36  H2  UNL     1      -7.672   8.545  70.759  1.00  0.00     0.000 HD 
HETATM   37  C   UNL     1      -7.458  12.668  68.568  1.00  0.00    -0.121 A  
HETATM   38  H1  UNL     1      -6.144   9.225  71.350  1.00  0.00     0.000 HD 
ENDBRANCH   8  30
ENDBRANCH   2   5
TORSDOF 6
ENDMDL
MODEL       75
REMARK 921   NORMALIZED FREE ENERGY PREDICTED BY IDOCK:   -6.85 KCAL/MOL
REMARK 922        TOTAL FREE ENERGY PREDICTED BY IDOCK:  -10.39 KCAL/MOL
REMARK 923 INTER-LIGAND FREE ENERGY PREDICTED BY IDOCK:   -9.17 KCAL/MOL
REMARK 924 INTRA-LIGAND FREE ENERGY PREDICTED BY IDOCK:   -1.22 KCAL/MOL
REMARK 927      BINDING AFFINITY PREDICTED BY RF-SCORE:    0.00 PKD
ROOT
HETATM    1  C   UNL     1     -10.728  14.351  64.487  1.00  0.00    -0.236 C  
HETATM    2  C   UNL     1     -10.991  12.835  64.529  1.00  0.00    -0.370 C  
HETATM    3  C   UNL     1      -9.943  12.149  63.620  1.00  0.00    -0.347 C  
HETATM    4  C   UNL     1     -12.396  12.582  63.935  1.00  0.00    -0.576 C  
ENDROOT
BRANCH   2   5
HETATM    5  C   UNL     1     -10.919  12.277  65.961  1.00  0.00    -0.292 A  
HETATM    6  N   UNL     1     -10.121  11.332  66.428  1.00  0.00    -0.213 NA 
HETATM    7  C   UNL     1     -10.330  11.112  67.812  1.00  0.00    -0.187 A  
HETATM    8  C   UNL     1     -11.358  11.882  68.355  1.00  0.00    -0.276 A  
HETATM    9  S   UNL     1     -11.952  12.955  67.144  1.00  0.00    -0.228 SA 
BRANCH   7  10
HETATM   10  C   UNL     1      -9.495  10.139  68.546  1.00  0.00    -0.159 A  
HETATM   11  C   UNL     1      -9.713   8.752  68.422  1.00  0.00    -0.162 A  
HETATM   12  C   UNL     1      -8.418  10.541  69.357  1.00  0.00    -0.106 A  
HETATM   13  F   UNL     1     -10.742   8.277  67.700  1.00  0.00    -0.301 F  
HETATM   14  C   UNL     1      -7.544   9.612  69.936  1.00  0.00    -0.138 A  
HETATM   15  C   UNL     1      -8.842   7.814  69.007  1.00  0.00    -0.138 A  
HETATM   16  C   UNL     1      -7.751   8.249  69.755  1.00  0.00    -0.098 A  
BRANCH  15  17
HETATM   17  N   UNL     1      -9.013   6.411  68.772  1.00  0.00    -0.127 N  
HETATM   18  H   UNL     1      -8.410   5.928  68.106  1.00  0.00     0.000 HD 
BRANCH  17  19
HETATM   19  S   UNL     1     -10.213   5.556  69.599  1.00  0.00    -0.290 S  
HETATM   20  O   UNL     1      -9.866   4.150  69.587  1.00  0.00    -0.217 OA 
HETATM   21  O   UNL     1     -11.480   5.992  69.050  1.00  0.00    -0.275 OA 
BRANCH  19  22
HETATM   22  C   UNL     1     -10.154   6.160  71.242  1.00  0.00    -0.188 A  
HETATM   23  C   UNL     1     -11.126   7.066  71.649  1.00  0.00    -0.235 A  
HETATM   24  F   UNL     1     -11.980   7.601  70.765  1.00  0.00    -0.303 F  
HETATM   25  C   UNL     1     -11.243   7.436  72.990  1.00  0.00    -0.345 A  
HETATM   26  C   UNL     1     -10.378   6.890  73.937  1.00  0.00    -0.398 A  
HETATM   27  C   UNL     1      -9.387   5.998  73.527  1.00  0.00    -0.134 A  
HETATM   28  C   UNL     1      -9.281   5.633  72.182  1.00  0.00    -0.146 A  
HETATM   29  F   UNL     1      -8.334   4.747  71.855  1.00  0.00    -0.104 F  
ENDBRANCH  19  22
ENDBRANCH  17  19
ENDBRANCH  15  17
ENDBRANCH   7  10
BRANCH   8  30
HETATM   30  C   UNL     1     -12.001  12.009  69.676  1.00  0.00    -0.293 A  
HETATM   31  C   UNL     1     -12.724  13.368  71.363  1.00  0.00    -0.322 A  
HETATM   32  N   UNL     1     -12.168  13.258  70.149  1.00  0.00    -0.328 NA 
HETATM   33  N   UNL     1     -12.911  14.627  71.886  1.00  0.00    -0.315 NA 
HETATM   34  N   UNL     1     -13.178  12.350  72.100  1.00  0.00    -0.466 NA 
HETATM   35  C   UNL     1     -13.029  11.123  71.587  1.00  0.00    -0.443 A  
HETATM   36  H2  UNL     1     -12.633  15.457  71.362  1.00  0.00     0.000 HD 
HETATM   37  C   UNL     1     -12.436  10.893  70.374  1.00  0.00    -0.411 A  
HETATM   38  H1  UNL     1     -13.335  14.710  72.811  1.00  0.00     0.000 HD 
ENDBRANCH   8  30
ENDBRANCH   2   5
TORSDOF 6
ENDMDL
MODEL       76
REMARK 921   NORMALIZED FREE ENERGY PREDICTED BY IDOCK:   -6.83 KCAL/MOL
REMARK 922        TOTAL FREE ENERGY PREDICTED BY IDOCK:  -10.35 KCAL/MOL
REMARK 923 INTER-LIGAND FREE ENERGY PREDICTED BY IDOCK:   -9.31 KCAL/MOL
REMARK 924 INTRA-LIGAND FREE ENERGY PREDICTED BY IDOCK:   -1.04 KCAL/MOL
REMARK 927      BINDING AFFINITY PREDICTED BY RF-SCORE:    0.00 PKD
ROOT
HETATM    1  C   UNL     1      -6.436  15.967  69.807  1.00  0.00    -0.164 C  
HETATM    2  C   UNL     1      -6.445  15.113  68.526  1.00  0.00    -0.093 C  
HETATM    3  C   UNL     1      -5.377  14.006  68.690  1.00  0.00    -0.089 C  
HETATM    4  C   UNL     1      -6.030  16.025  67.348  1.00  0.00    -0.160 C  
ENDROOT
BRANCH   2   5
HETATM    5  C   UNL     1      -7.829  14.500  68.252  1.00  0.00    -0.131 A  
HETATM    6  N   UNL     1      -8.576  13.777  69.069  1.00  0.00     0.158 NA 
HETATM    7  C   UNL     1      -9.806  13.416  68.465  1.00  0.00    -0.178 A  
HETATM    8  C   UNL     1      -9.930  13.839  67.142  1.00  0.00    -0.243 A  
HETATM    9  S   UNL     1      -8.552  14.791  66.729  1.00  0.00    -0.127 SA 
BRANCH   7  10
HETATM   10  C   UNL     1     -10.817  12.658  69.231  1.00  0.00    -0.045 A  
HETATM   11  C   UNL     1     -10.800  11.249  69.266  1.00  0.00    -0.212 A  
HETATM   12  C   UNL     1     -11.806  13.299  69.999  1.00  0.00    -0.365 A  
HETATM   13  F   UNL     1      -9.915  10.552  68.532  1.00  0.00    -0.151 F  
HETATM   14  C   UNL     1     -12.672  12.580  70.834  1.00  0.00    -0.270 A  
HETATM   15  C   UNL     1     -11.671  10.521  70.097  1.00  0.00    -0.326 A  
HETATM   16  C   UNL     1     -12.599  11.192  70.890  1.00  0.00    -0.483 A  
BRANCH  15  17
HETATM   17  N   UNL     1     -11.560   9.097  70.207  1.00  0.00    -0.449 N  
HETATM   18  H   UNL     1     -11.866   8.500  69.439  1.00  0.00     0.000 HD 
BRANCH  17  19
HETATM   19  S   UNL     1     -10.919   8.407  71.611  1.00  0.00    -0.301 S  
HETATM   20  O   UNL     1     -11.970   8.326  72.603  1.00  0.00    -0.399 OA 
HETATM   21  O   UNL     1      -9.701   9.133  71.906  1.00  0.00    -0.282 OA 
BRANCH  19  22
HETATM   22  C   UNL     1     -10.429   6.792  71.143  1.00  0.00    -0.214 A  
HETATM   23  C   UNL     1      -9.577   6.648  70.054  1.00  0.00    -0.156 A  
HETATM   24  F   UNL     1      -9.277   7.696  69.273  1.00  0.00    -0.144 F  
HETATM   25  C   UNL     1      -9.005   5.412  69.752  1.00  0.00    -0.146 A  
HETATM   26  C   UNL     1      -9.288   4.304  70.549  1.00  0.00    -0.216 A  
HETATM   27  C   UNL     1     -10.160   4.441  71.629  1.00  0.00    -0.230 A  
HETATM   28  C   UNL     1     -10.725   5.685  71.924  1.00  0.00    -0.241 A  
HETATM   29  F   UNL     1     -11.527   5.762  72.991  1.00  0.00    -0.302 F  
ENDBRANCH  19  22
ENDBRANCH  17  19
ENDBRANCH  15  17
ENDBRANCH   7  10
BRANCH   8  30
HETATM   30  C   UNL     1     -10.938  13.698  66.075  1.00  0.00    -0.286 A  
HETATM   31  C   UNL     1     -12.096  14.657  64.357  1.00  0.00    -0.462 A  
HETATM   32  N   UNL     1     -11.157  14.780  65.305  1.00  0.00    -0.350 NA 
HETATM   33  N   UNL     1     -12.355  15.738  63.547  1.00  0.00    -0.699 NA 
HETATM   34  N   UNL     1     -12.773  13.538  64.080  1.00  0.00    -0.651 NA 
HETATM   35  C   UNL     1     -12.507  12.471  64.842  1.00  0.00    -0.450 A  
HETATM   36  H2  UNL     1     -11.845  16.614  63.666  1.00  0.00     0.000 HD 
HETATM   37  C   UNL     1     -11.597  12.497  65.865  1.00  0.00    -0.454 A  
HETATM   38  H1  UNL     1     -13.070  15.645  62.825  1.00  0.00     0.000 HD 
ENDBRANCH   8  30
ENDBRANCH   2   5
TORSDOF 6
ENDMDL
MODEL       77
REMARK 921   NORMALIZED FREE ENERGY PREDICTED BY IDOCK:   -6.81 KCAL/MOL
REMARK 922        TOTAL FREE ENERGY PREDICTED BY IDOCK:  -10.33 KCAL/MOL
REMARK 923 INTER-LIGAND FREE ENERGY PREDICTED BY IDOCK:   -8.79 KCAL/MOL
REMARK 924 INTRA-LIGAND FREE ENERGY PREDICTED BY IDOCK:   -1.54 KCAL/MOL
REMARK 927      BINDING AFFINITY PREDICTED BY RF-SCORE:    0.00 PKD
ROOT
HETATM    1  C   UNL     1     -10.393  12.181  63.352  1.00  0.00    -0.438 C  
HETATM    2  C   UNL     1     -11.433  12.619  64.398  1.00  0.00    -0.402 C  
HETATM    3  C   UNL     1     -12.775  11.935  64.044  1.00  0.00    -0.350 C  
HETATM    4  C   UNL     1     -11.615  14.149  64.272  1.00  0.00    -0.327 C  
ENDROOT
BRANCH   2   5
HETATM    5  C   UNL     1     -10.998  12.259  65.830  1.00  0.00    -0.301 A  
HETATM    6  N   UNL     1     -11.763  12.077  66.892  1.00  0.00    -0.576 NA 
HETATM    7  C   UNL     1     -10.997  11.726  68.030  1.00  0.00    -0.225 A  
HETATM    8  C   UNL     1      -9.621  11.711  67.801  1.00  0.00    -0.178 A  
HETATM    9  S   UNL     1      -9.332  12.014  66.128  1.00  0.00    -0.175 SA 
BRANCH   7  10
HETATM   10  C   UNL     1     -11.665  11.417  69.312  1.00  0.00    -0.404 A  
HETATM   11  C   UNL     1     -11.705  10.100  69.814  1.00  0.00    -0.139 A  
HETATM   12  C   UNL     1     -12.243  12.419  70.113  1.00  0.00    -0.303 A  
HETATM   13  F   UNL     1     -11.213   9.074  69.099  1.00  0.00    -0.146 F  
HETATM   14  C   UNL     1     -12.748  12.142  71.390  1.00  0.00    -0.368 A  
HETATM   15  C   UNL     1     -12.218   9.814  71.093  1.00  0.00    -0.362 A  
HETATM   16  C   UNL     1     -12.728  10.841  71.884  1.00  0.00    -0.368 A  
BRANCH  15  17
HETATM   17  N   UNL     1     -12.143   8.490  71.633  1.00  0.00    -0.303 N  
HETATM   18  H   UNL     1     -12.973   7.896  71.648  1.00  0.00     0.000 HD 
BRANCH  17  19
HETATM   19  S   UNL     1     -10.678   7.910  72.245  1.00  0.00    -0.310 S  
HETATM   20  O   UNL     1     -10.953   7.149  73.446  1.00  0.00    -0.332 OA 
HETATM   21  O   UNL     1      -9.778   9.043  72.298  1.00  0.00    -0.260 OA 
BRANCH  19  22
HETATM   22  C   UNL     1     -10.055   6.842  71.005  1.00  0.00    -0.193 A  
HETATM   23  C   UNL     1     -10.957   6.242  70.134  1.00  0.00    -0.347 A  
HETATM   24  F   UNL     1     -12.278   6.333  70.343  1.00  0.00    -0.376 F  
HETATM   25  C   UNL     1     -10.511   5.537  69.016  1.00  0.00    -0.296 A  
HETATM   26  C   UNL     1      -9.144   5.431  68.763  1.00  0.00    -0.135 A  
HETATM   27  C   UNL     1      -8.236   6.014  69.647  1.00  0.00    -0.115 A  
HETATM   28  C   UNL     1      -8.695   6.719  70.763  1.00  0.00    -0.146 A  
HETATM   29  F   UNL     1      -7.778   7.285  71.556  1.00  0.00    -0.083 F  
ENDBRANCH  19  22
ENDBRANCH  17  19
ENDBRANCH  15  17
ENDBRANCH   7  10
BRANCH   8  30
HETATM   30  C   UNL     1      -8.415  11.471  68.613  1.00  0.00    -0.115 A  
HETATM   31  C   UNL     1      -6.436  12.261  69.435  1.00  0.00    -0.105 A  
HETATM   32  N   UNL     1      -7.547  12.494  68.722  1.00  0.00    -0.072 NA 
HETATM   33  N   UNL     1      -5.520  13.278  69.571  1.00  0.00    -0.079 NA 
HETATM   34  N   UNL     1      -6.162  11.129  70.091  1.00  0.00    -0.141 NA 
HETATM   35  C   UNL     1      -7.061  10.144  69.992  1.00  0.00    -0.154 A  
HETATM   36  H2  UNL     1      -5.681  14.188  69.138  1.00  0.00     0.000 HD 
HETATM   37  C   UNL     1      -8.210  10.259  69.254  1.00  0.00    -0.164 A  
HETATM   38  H1  UNL     1      -4.674  13.101  70.114  1.00  0.00     0.000 HD 
ENDBRANCH   8  30
ENDBRANCH   2   5
TORSDOF 6
ENDMDL
MODEL       78
REMARK 921   NORMALIZED FREE ENERGY PREDICTED BY IDOCK:   -6.81 KCAL/MOL
REMARK 922        TOTAL FREE ENERGY PREDICTED BY IDOCK:  -10.32 KCAL/MOL
REMARK 923 INTER-LIGAND FREE ENERGY PREDICTED BY IDOCK:   -9.30 KCAL/MOL
REMARK 924 INTRA-LIGAND FREE ENERGY PREDICTED BY IDOCK:   -1.02 KCAL/MOL
REMARK 927      BINDING AFFINITY PREDICTED BY RF-SCORE:    0.00 PKD
ROOT
HETATM    1  C   UNL     1     -10.431   8.569  72.346  1.00  0.00    -0.367 C  
HETATM    2  C   UNL     1     -11.566   8.646  71.310  1.00  0.00    -0.340 C  
HETATM    3  C   UNL     1     -12.767   9.357  71.977  1.00  0.00    -0.483 C  
HETATM    4  C   UNL     1     -11.985   7.200  70.959  1.00  0.00    -0.387 C  
ENDROOT
BRANCH   2   5
HETATM    5  C   UNL     1     -11.133   9.389  70.034  1.00  0.00    -0.221 A  
HETATM    6  N   UNL     1     -11.687  10.456  69.484  1.00  0.00    -0.221 NA 
HETATM    7  C   UNL     1     -10.982  10.870  68.328  1.00  0.00    -0.239 A  
HETATM    8  C   UNL     1      -9.915  10.039  67.990  1.00  0.00    -0.150 A  
HETATM    9  S   UNL     1      -9.743   8.829  69.207  1.00  0.00    -0.176 SA 
BRANCH   7  10
HETATM   10  C   UNL     1     -11.400  12.084  67.595  1.00  0.00    -0.375 A  
HETATM   11  C   UNL     1     -11.446  13.340  68.233  1.00  0.00    -0.316 A  
HETATM   12  C   UNL     1     -11.719  12.056  66.225  1.00  0.00    -0.319 A  
HETATM   13  F   UNL     1     -11.196  13.456  69.548  1.00  0.00    -0.285 F  
HETATM   14  C   UNL     1     -11.976  13.230  65.504  1.00  0.00    -0.445 A  
HETATM   15  C   UNL     1     -11.711  14.521  67.516  1.00  0.00    -0.386 A  
HETATM   16  C   UNL     1     -11.964  14.463  66.147  1.00  0.00    -0.381 A  
BRANCH  15  17
HETATM   17  N   UNL     1     -11.638  15.800  68.158  1.00  0.00    -0.311 N  
HETATM   18  H   UNL     1     -12.323  16.054  68.870  1.00  0.00     0.000 HD 
BRANCH  17  19
HETATM   19  S   UNL     1     -10.415  16.888  67.735  1.00  0.00    -0.343 S  
HETATM   20  O   UNL     1     -10.532  18.059  68.578  1.00  0.00    -0.357 OA 
HETATM   21  O   UNL     1     -10.469  17.026  66.295  1.00  0.00    -0.314 OA 
BRANCH  19  22
HETATM   22  C   UNL     1      -8.918  16.054  68.095  1.00  0.00    -0.183 A  
HETATM   23  C   UNL     1      -7.928  16.021  67.120  1.00  0.00    -0.201 A  
HETATM   24  F   UNL     1      -8.172  16.459  65.877  1.00  0.00    -0.341 F  
HETATM   25  C   UNL     1      -6.651  15.540  67.414  1.00  0.00    -0.174 A  
HETATM   26  C   UNL     1      -6.360  15.086  68.699  1.00  0.00    -0.088 A  
HETATM   27  C   UNL     1      -7.358  15.097  69.673  1.00  0.00    -0.191 A  
HETATM   28  C   UNL     1      -8.632  15.583  69.368  1.00  0.00    -0.259 A  
HETATM   29  F   UNL     1      -9.539  15.601  70.352  1.00  0.00    -0.138 F  
ENDBRANCH  19  22
ENDBRANCH  17  19
ENDBRANCH  15  17
ENDBRANCH   7  10
BRANCH   8  30
HETATM   30  C   UNL     1      -8.922   9.979  66.902  1.00  0.00    -0.135 A  
HETATM   31  C   UNL     1      -8.375   9.253  64.807  1.00  0.00    -0.162 A  
HETATM   32  N   UNL     1      -9.292   9.332  65.781  1.00  0.00    -0.226 NA 
HETATM   33  N   UNL     1      -8.710   8.599  63.644  1.00  0.00    -0.425 NA 
HETATM   34  N   UNL     1      -7.163   9.816  64.839  1.00  0.00    -0.122 NA 
HETATM   35  C   UNL     1      -6.839  10.482  65.953  1.00  0.00    -0.132 A  
HETATM   36  H2  UNL     1      -9.634   8.183  63.526  1.00  0.00     0.000 HD 
HETATM   37  C   UNL     1      -7.683  10.589  67.027  1.00  0.00    -0.110 A  
HETATM   38  H1  UNL     1      -8.011   8.539  62.902  1.00  0.00     0.000 HD 
ENDBRANCH   8  30
ENDBRANCH   2   5
TORSDOF 6
ENDMDL
MODEL       79
REMARK 921   NORMALIZED FREE ENERGY PREDICTED BY IDOCK:   -6.80 KCAL/MOL
REMARK 922        TOTAL FREE ENERGY PREDICTED BY IDOCK:  -10.31 KCAL/MOL
REMARK 923 INTER-LIGAND FREE ENERGY PREDICTED BY IDOCK:   -9.09 KCAL/MOL
REMARK 924 INTRA-LIGAND FREE ENERGY PREDICTED BY IDOCK:   -1.22 KCAL/MOL
REMARK 927      BINDING AFFINITY PREDICTED BY RF-SCORE:    0.00 PKD
ROOT
HETATM    1  C   UNL     1      -8.141  19.550  66.400  1.00  0.00    -0.331 C  
HETATM    2  C   UNL     1      -9.397  18.945  67.051  1.00  0.00    -0.329 C  
HETATM    3  C   UNL     1     -10.632  19.645  66.436  1.00  0.00    -0.592 C  
HETATM    4  C   UNL     1      -9.351  19.271  68.562  1.00  0.00    -0.443 C  
ENDROOT
BRANCH   2   5
HETATM    5  C   UNL     1      -9.475  17.422  66.846  1.00  0.00    -0.269 A  
HETATM    6  N   UNL     1      -8.756  16.482  67.436  1.00  0.00    -0.181 NA 
HETATM    7  C   UNL     1      -9.141  15.188  67.008  1.00  0.00    -0.230 A  
HETATM    8  C   UNL     1     -10.132  15.190  66.027  1.00  0.00    -0.302 A  
HETATM    9  S   UNL     1     -10.648  16.814  65.759  1.00  0.00    -0.162 SA 
BRANCH   7  10
HETATM   10  C   UNL     1      -8.503  13.990  67.592  1.00  0.00    -0.193 A  
HETATM   11  C   UNL     1      -9.254  13.049  68.325  1.00  0.00    -0.191 A  
HETATM   12  C   UNL     1      -7.139  13.703  67.404  1.00  0.00    -0.097 A  
HETATM   13  F   UNL     1     -10.555  13.259  68.588  1.00  0.00    -0.238 F  
HETATM   14  C   UNL     1      -6.571  12.498  67.838  1.00  0.00    -0.104 A  
HETATM   15  C   UNL     1      -8.688  11.840  68.771  1.00  0.00     0.024 A  
HETATM   16  C   UNL     1      -7.347  11.563  68.514  1.00  0.00    -0.104 A  
BRANCH  15  17
HETATM   17  N   UNL     1      -9.496  10.845  69.411  1.00  0.00    -0.423 N  
HETATM   18  H   UNL     1      -9.485  10.755  70.427  1.00  0.00     0.000 HD 
BRANCH  17  19
HETATM   19  S   UNL     1     -10.468   9.821  68.482  1.00  0.00    -0.218 S  
HETATM   20  O   UNL     1     -11.551  10.601  67.921  1.00  0.00    -0.491 OA 
HETATM   21  O   UNL     1     -10.759   8.669  69.309  1.00  0.00    -0.213 OA 
BRANCH  19  22
HETATM   22  C   UNL     1      -9.428   9.251  67.193  1.00  0.00    -0.149 A  
HETATM   23  C   UNL     1      -9.705   9.654  65.892  1.00  0.00    -0.275 A  
HETATM   24  F   UNL     1     -10.835  10.315  65.603  1.00  0.00    -0.177 F  
HETATM   25  C   UNL     1      -8.809   9.389  64.855  1.00  0.00    -0.240 A  
HETATM   26  C   UNL     1      -7.620   8.714  65.122  1.00  0.00    -0.093 A  
HETATM   27  C   UNL     1      -7.350   8.288  66.423  1.00  0.00    -0.080 A  
HETATM   28  C   UNL     1      -8.253   8.561  67.454  1.00  0.00    -0.109 A  
HETATM   29  F   UNL     1      -7.924   8.158  68.686  1.00  0.00    -0.106 F  
ENDBRANCH  19  22
ENDBRANCH  17  19
ENDBRANCH  15  17
ENDBRANCH   7  10
BRANCH   8  30
HETATM   30  C   UNL     1     -10.835  14.169  65.229  1.00  0.00    -0.349 A  
HETATM   31  C   UNL     1     -10.732  12.545  63.627  1.00  0.00    -0.430 A  
HETATM   32  N   UNL     1     -10.085  13.450  64.372  1.00  0.00    -0.274 NA 
HETATM   33  N   UNL     1     -10.006  11.789  62.736  1.00  0.00    -0.484 NA 
HETATM   34  N   UNL     1     -12.035  12.260  63.715  1.00  0.00    -0.474 NA 
HETATM   35  C   UNL     1     -12.747  12.968  64.600  1.00  0.00    -0.299 A  
HETATM   36  H2  UNL     1      -8.998  11.916  62.644  1.00  0.00     0.000 HD 
HETATM   37  C   UNL     1     -12.194  13.947  65.384  1.00  0.00    -0.463 A  
HETATM   38  H1  UNL     1     -10.499  11.100  62.168  1.00  0.00     0.000 HD 
ENDBRANCH   8  30
ENDBRANCH   2   5
TORSDOF 6
ENDMDL
MODEL       80
REMARK 921   NORMALIZED FREE ENERGY PREDICTED BY IDOCK:   -6.77 KCAL/MOL
REMARK 922        TOTAL FREE ENERGY PREDICTED BY IDOCK:  -10.27 KCAL/MOL
REMARK 923 INTER-LIGAND FREE ENERGY PREDICTED BY IDOCK:   -8.46 KCAL/MOL
REMARK 924 INTRA-LIGAND FREE ENERGY PREDICTED BY IDOCK:   -1.81 KCAL/MOL
REMARK 927      BINDING AFFINITY PREDICTED BY RF-SCORE:    0.00 PKD
ROOT
HETATM    1  C   UNL     1      -6.892  20.251  68.110  1.00  0.00    -0.324 C  
HETATM    2  C   UNL     1      -7.955  19.472  67.315  1.00  0.00    -0.304 C  
HETATM    3  C   UNL     1      -7.406  19.246  65.887  1.00  0.00    -0.295 C  
HETATM    4  C   UNL     1      -9.218  20.359  67.220  1.00  0.00    -0.525 C  
ENDROOT
BRANCH   2   5
HETATM    5  C   UNL     1      -8.306  18.131  67.983  1.00  0.00    -0.261 A  
HETATM    6  N   UNL     1      -7.519  17.087  68.178  1.00  0.00    -0.188 NA 
HETATM    7  C   UNL     1      -8.196  16.044  68.857  1.00  0.00    -0.223 A  
HETATM    8  C   UNL     1      -9.541  16.316  69.109  1.00  0.00    -0.251 A  
HETATM    9  S   UNL     1      -9.888  17.927  68.601  1.00  0.00    -0.370 SA 
BRANCH   7  10
HETATM   10  C   UNL     1      -7.478  14.808  69.230  1.00  0.00    -0.162 A  
HETATM   11  C   UNL     1      -7.614  13.628  68.471  1.00  0.00    -0.130 A  
HETATM   12  C   UNL     1      -6.589  14.762  70.320  1.00  0.00    -0.109 A  
HETATM   13  F   UNL     1      -8.470  13.568  67.437  1.00  0.00    -0.158 F  
HETATM   14  C   UNL     1      -5.804  13.632  70.583  1.00  0.00    -0.179 A  
HETATM   15  C   UNL     1      -6.834  12.487  68.736  1.00  0.00    -0.096 A  
HETATM   16  C   UNL     1      -5.920  12.497  69.787  1.00  0.00    -0.135 A  
BRANCH  15  17
HETATM   17  N   UNL     1      -6.902  11.339  67.882  1.00  0.00    -0.066 N  
HETATM   18  H   UNL     1      -6.187  11.189  67.170  1.00  0.00     0.000 HD 
BRANCH  17  19
HETATM   19  S   UNL     1      -8.169  10.233  68.054  1.00  0.00    -0.114 S  
HETATM   20  O   UNL     1      -8.719  10.371  69.387  1.00  0.00    -0.164 OA 
HETATM   21  O   UNL     1      -7.659   8.953  67.612  1.00  0.00    -0.092 OA 
BRANCH  19  22
HETATM   22  C   UNL     1      -9.366  10.722  66.873  1.00  0.00    -0.160 A  
HETATM   23  C   UNL     1     -10.602  11.164  67.328  1.00  0.00    -0.239 A  
HETATM   24  F   UNL     1     -10.938  11.055  68.621  1.00  0.00    -0.189 F  
HETATM   25  C   UNL     1     -11.522  11.741  66.451  1.00  0.00    -0.309 A  
HETATM   26  C   UNL     1     -11.201  11.880  65.102  1.00  0.00    -0.346 A  
HETATM   27  C   UNL     1      -9.970  11.416  64.639  1.00  0.00    -0.315 A  
HETATM   28  C   UNL     1      -9.056  10.842  65.526  1.00  0.00    -0.201 A  
HETATM   29  F   UNL     1      -7.877  10.448  65.031  1.00  0.00    -0.141 F  
ENDBRANCH  19  22
ENDBRANCH  17  19
ENDBRANCH  15  17
ENDBRANCH   7  10
BRANCH   8  30
HETATM   30  C   UNL     1     -10.672  15.591  69.714  1.00  0.00    -0.295 A  
HETATM   31  C   UNL     1     -12.196  15.432  71.408  1.00  0.00    -0.371 A  
HETATM   32  N   UNL     1     -11.188  16.112  70.844  1.00  0.00    -0.345 NA 
HETATM   33  N   UNL     1     -12.752  15.926  72.565  1.00  0.00    -0.434 NA 
HETATM   34  N   UNL     1     -12.762  14.330  70.906  1.00  0.00    -0.340 NA 
HETATM   35  C   UNL     1     -12.249  13.858  69.764  1.00  0.00    -0.332 A  
HETATM   36  H2  UNL     1     -12.406  16.790  72.984  1.00  0.00     0.000 HD 
HETATM   37  C   UNL     1     -11.191  14.449  69.125  1.00  0.00    -0.300 A  
HETATM   38  H1  UNL     1     -13.520  15.409  72.995  1.00  0.00     0.000 HD 
ENDBRANCH   8  30
ENDBRANCH   2   5
TORSDOF 6
ENDMDL
MODEL       81
REMARK 921   NORMALIZED FREE ENERGY PREDICTED BY IDOCK:   -6.77 KCAL/MOL
REMARK 922        TOTAL FREE ENERGY PREDICTED BY IDOCK:  -10.27 KCAL/MOL
REMARK 923 INTER-LIGAND FREE ENERGY PREDICTED BY IDOCK:   -9.02 KCAL/MOL
REMARK 924 INTRA-LIGAND FREE ENERGY PREDICTED BY IDOCK:   -1.24 KCAL/MOL
REMARK 927      BINDING AFFINITY PREDICTED BY RF-SCORE:    0.00 PKD
ROOT
HETATM    1  C   UNL     1      -9.332   4.235  64.748  1.00  0.00    -0.163 C  
HETATM    2  C   UNL     1      -8.210   4.563  65.750  1.00  0.00    -0.110 C  
HETATM    3  C   UNL     1      -6.897   4.734  64.949  1.00  0.00    -0.049 C  
HETATM    4  C   UNL     1      -8.052   3.351  66.697  1.00  0.00    -0.091 C  
ENDROOT
BRANCH   2   5
HETATM    5  C   UNL     1      -8.519   5.830  66.567  1.00  0.00    -0.116 A  
HETATM    6  N   UNL     1      -8.274   7.088  66.244  1.00  0.00    -0.114 NA 
HETATM    7  C   UNL     1      -8.733   7.980  67.243  1.00  0.00    -0.131 A  
HETATM    8  C   UNL     1      -9.276   7.345  68.360  1.00  0.00    -0.138 A  
HETATM    9  S   UNL     1      -9.314   5.645  68.071  1.00  0.00    -0.110 SA 
BRANCH   7  10
HETATM   10  C   UNL     1      -8.613   9.440  67.051  1.00  0.00    -0.131 A  
HETATM   11  C   UNL     1      -9.492  10.138  66.197  1.00  0.00    -0.188 A  
HETATM   12  C   UNL     1      -7.659  10.209  67.743  1.00  0.00    -0.090 A  
HETATM   13  F   UNL     1     -10.409   9.482  65.467  1.00  0.00    -0.345 F  
HETATM   14  C   UNL     1      -7.641  11.607  67.665  1.00  0.00    -0.128 A  
HETATM   15  C   UNL     1      -9.474  11.542  66.109  1.00  0.00    -0.220 A  
HETATM   16  C   UNL     1      -8.554  12.275  66.855  1.00  0.00    -0.182 A  
BRANCH  15  17
HETATM   17  N   UNL     1     -10.452  12.239  65.328  1.00  0.00    -0.274 N  
HETATM   18  H   UNL     1     -10.299  12.385  64.330  1.00  0.00     0.000 HD 
BRANCH  17  19
HETATM   19  S   UNL     1     -11.860  12.820  66.060  1.00  0.00    -0.441 S  
HETATM   20  O   UNL     1     -12.172  11.972  67.191  1.00  0.00    -0.505 OA 
HETATM   21  O   UNL     1     -12.831  12.998  65.000  1.00  0.00    -0.689 OA 
BRANCH  19  22
HETATM   22  C   UNL     1     -11.450  14.426  66.628  1.00  0.00    -0.363 A  
HETATM   23  C   UNL     1     -11.644  14.722  67.972  1.00  0.00    -0.343 A  
HETATM   24  F   UNL     1     -12.289  13.867  68.778  1.00  0.00    -0.386 F  
HETATM   25  C   UNL     1     -11.163  15.912  68.518  1.00  0.00    -0.362 A  
HETATM   26  C   UNL     1     -10.478  16.819  67.711  1.00  0.00    -0.335 A  
HETATM   27  C   UNL     1     -10.303  16.534  66.357  1.00  0.00    -0.316 A  
HETATM   28  C   UNL     1     -10.786  15.338  65.821  1.00  0.00    -0.358 A  
HETATM   29  F   UNL     1     -10.558  15.104  64.523  1.00  0.00    -0.386 F  
ENDBRANCH  19  22
ENDBRANCH  17  19
ENDBRANCH  15  17
ENDBRANCH   7  10
BRANCH   8  30
HETATM   30  C   UNL     1      -9.834   7.773  69.655  1.00  0.00    -0.182 A  
HETATM   31  C   UNL     1     -11.660   7.987  71.009  1.00  0.00    -0.283 A  
HETATM   32  N   UNL     1     -11.151   7.568  69.843  1.00  0.00    -0.217 NA 
HETATM   33  N   UNL     1     -13.003   7.800  71.243  1.00  0.00    -0.507 NA 
HETATM   34  N   UNL     1     -10.957   8.526  72.010  1.00  0.00    -0.316 NA 
HETATM   35  C   UNL     1      -9.645   8.685  71.806  1.00  0.00    -0.290 A  
HETATM   36  H2  UNL     1     -13.598   7.353  70.545  1.00  0.00     0.000 HD 
HETATM   37  C   UNL     1      -9.028   8.330  70.635  1.00  0.00    -0.161 A  
HETATM   38  H1  UNL     1     -13.391   8.120  72.132  1.00  0.00     0.000 HD 
ENDBRANCH   8  30
ENDBRANCH   2   5
TORSDOF 6
ENDMDL
MODEL       82
REMARK 921   NORMALIZED FREE ENERGY PREDICTED BY IDOCK:   -6.74 KCAL/MOL
REMARK 922        TOTAL FREE ENERGY PREDICTED BY IDOCK:  -10.23 KCAL/MOL
REMARK 923 INTER-LIGAND FREE ENERGY PREDICTED BY IDOCK:   -9.12 KCAL/MOL
REMARK 924 INTRA-LIGAND FREE ENERGY PREDICTED BY IDOCK:   -1.11 KCAL/MOL
REMARK 927      BINDING AFFINITY PREDICTED BY RF-SCORE:    0.00 PKD
ROOT
HETATM    1  C   UNL     1      -5.930   6.985  73.083  1.00  0.00    -0.056 C  
HETATM    2  C   UNL     1      -7.024   5.973  72.700  1.00  0.00    -0.079 C  
HETATM    3  C   UNL     1      -7.539   5.319  74.004  1.00  0.00    -0.097 C  
HETATM    4  C   UNL     1      -6.371   4.878  71.826  1.00  0.00    -0.030 C  
ENDROOT
BRANCH   2   5
HETATM    5  C   UNL     1      -8.179   6.637  71.930  1.00  0.00    -0.103 A  
HETATM    6  N   UNL     1      -8.177   7.090  70.688  1.00  0.00    -0.117 NA 
HETATM    7  C   UNL     1      -9.443   7.609  70.322  1.00  0.00    -0.161 A  
HETATM    8  C   UNL     1     -10.381   7.589  71.354  1.00  0.00    -0.194 A  
HETATM    9  S   UNL     1      -9.687   6.800  72.722  1.00  0.00    -0.155 SA 
BRANCH   7  10
HETATM   10  C   UNL     1      -9.674   8.110  68.951  1.00  0.00    -0.156 A  
HETATM   11  C   UNL     1      -9.810   9.488  68.692  1.00  0.00    -0.162 A  
HETATM   12  C   UNL     1      -9.718   7.248  67.839  1.00  0.00    -0.161 A  
HETATM   13  F   UNL     1      -9.819  10.381  69.696  1.00  0.00    -0.224 F  
HETATM   14  C   UNL     1      -9.794   7.739  66.529  1.00  0.00    -0.255 A  
HETATM   15  C   UNL     1      -9.895   9.987  67.378  1.00  0.00    -0.185 A  
HETATM   16  C   UNL     1      -9.875   9.108  66.298  1.00  0.00    -0.359 A  
BRANCH  15  17
HETATM   17  N   UNL     1      -9.913  11.398  67.130  1.00  0.00    -0.190 N  
HETATM   18  H   UNL     1      -9.038  11.920  67.086  1.00  0.00     0.000 HD 
BRANCH  17  19
HETATM   19  S   UNL     1     -11.387  12.196  66.910  1.00  0.00    -0.351 S  
HETATM   20  O   UNL     1     -12.171  12.051  68.119  1.00  0.00    -0.428 OA 
HETATM   21  O   UNL     1     -11.918  11.737  65.644  1.00  0.00    -0.352 OA 
BRANCH  19  22
HETATM   22  C   UNL     1     -10.964  13.881  66.685  1.00  0.00    -0.301 A  
HETATM   23  C   UNL     1     -10.161  14.495  67.639  1.00  0.00    -0.228 A  
HETATM   24  F   UNL     1      -9.861  13.873  68.788  1.00  0.00    -0.219 F  
HETATM   25  C   UNL     1      -9.638  15.770  67.420  1.00  0.00    -0.217 A  
HETATM   26  C   UNL     1      -9.920  16.440  66.231  1.00  0.00    -0.341 A  
HETATM   27  C   UNL     1     -10.745  15.835  65.282  1.00  0.00    -0.446 A  
HETATM   28  C   UNL     1     -11.261  14.557  65.511  1.00  0.00    -0.335 A  
HETATM   29  F   UNL     1     -12.017  14.014  64.550  1.00  0.00    -0.372 F  
ENDBRANCH  19  22
ENDBRANCH  17  19
ENDBRANCH  15  17
ENDBRANCH   7  10
BRANCH   8  30
HETATM   30  C   UNL     1     -11.776   8.032  71.526  1.00  0.00    -0.284 A  
HETATM   31  C   UNL     1     -13.235   9.737  71.953  1.00  0.00    -0.449 A  
HETATM   32  N   UNL     1     -11.968   9.343  71.766  1.00  0.00    -0.379 NA 
HETATM   33  N   UNL     1     -13.477  11.067  72.204  1.00  0.00    -0.529 NA 
HETATM   34  N   UNL     1     -14.311   8.950  71.855  1.00  0.00    -0.337 NA 
HETATM   35  C   UNL     1     -14.089   7.659  71.581  1.00  0.00    -0.434 A  
HETATM   36  H2  UNL     1     -12.710  11.739  72.247  1.00  0.00     0.000 HD 
HETATM   37  C   UNL     1     -12.832   7.141  71.413  1.00  0.00    -0.431 A  
HETATM   38  H1  UNL     1     -14.442  11.367  72.346  1.00  0.00     0.000 HD 
ENDBRANCH   8  30
ENDBRANCH   2   5
TORSDOF 6
ENDMDL
MODEL       83
REMARK 921   NORMALIZED FREE ENERGY PREDICTED BY IDOCK:   -6.71 KCAL/MOL
REMARK 922        TOTAL FREE ENERGY PREDICTED BY IDOCK:  -10.20 KCAL/MOL
REMARK 923 INTER-LIGAND FREE ENERGY PREDICTED BY IDOCK:   -9.87 KCAL/MOL
REMARK 924 INTRA-LIGAND FREE ENERGY PREDICTED BY IDOCK:   -0.33 KCAL/MOL
REMARK 927      BINDING AFFINITY PREDICTED BY RF-SCORE:    0.00 PKD
ROOT
HETATM    1  C   UNL     1     -10.649  13.726  64.615  1.00  0.00    -0.443 C  
HETATM    2  C   UNL     1     -11.197  12.353  65.045  1.00  0.00    -0.354 C  
HETATM    3  C   UNL     1     -10.332  11.266  64.364  1.00  0.00    -0.388 C  
HETATM    4  C   UNL     1     -12.643  12.233  64.513  1.00  0.00    -0.416 C  
ENDROOT
BRANCH   2   5
HETATM    5  C   UNL     1     -11.185  12.180  66.574  1.00  0.00    -0.328 A  
HETATM    6  N   UNL     1     -10.605  11.227  67.282  1.00  0.00    -0.221 NA 
HETATM    7  C   UNL     1     -10.791  11.426  68.672  1.00  0.00    -0.208 A  
HETATM    8  C   UNL     1     -11.585  12.529  68.982  1.00  0.00    -0.314 A  
HETATM    9  S   UNL     1     -11.974  13.364  67.525  1.00  0.00    -0.298 SA 
BRANCH   7  10
HETATM   10  C   UNL     1     -10.168  10.505  69.646  1.00  0.00    -0.207 A  
HETATM   11  C   UNL     1     -10.955   9.732  70.524  1.00  0.00    -0.321 A  
HETATM   12  C   UNL     1      -8.775  10.316  69.710  1.00  0.00    -0.069 A  
HETATM   13  F   UNL     1     -12.290   9.874  70.560  1.00  0.00    -0.315 F  
HETATM   14  C   UNL     1      -8.201   9.340  70.534  1.00  0.00    -0.219 A  
HETATM   15  C   UNL     1     -10.383   8.755  71.360  1.00  0.00    -0.278 A  
HETATM   16  C   UNL     1      -9.004   8.553  71.353  1.00  0.00    -0.262 A  
BRANCH  15  17
HETATM   17  N   UNL     1     -11.209   7.899  72.158  1.00  0.00    -0.285 N  
HETATM   18  H   UNL     1     -11.403   8.138  73.130  1.00  0.00     0.000 HD 
BRANCH  17  19
HETATM   19  S   UNL     1     -11.863   6.492  71.487  1.00  0.00    -0.313 S  
HETATM   20  O   UNL     1     -12.959   6.866  70.618  1.00  0.00    -0.104 OA 
HETATM   21  O   UNL     1     -12.093   5.580  72.588  1.00  0.00    -0.199 OA 
BRANCH  19  22
HETATM   22  C   UNL     1     -10.570   5.797  70.532  1.00  0.00    -0.289 A  
HETATM   23  C   UNL     1      -9.826   4.760  71.082  1.00  0.00    -0.190 A  
HETATM   24  F   UNL     1      -9.973   4.415  72.369  1.00  0.00    -0.189 F  
HETATM   25  C   UNL     1      -8.914   4.044  70.305  1.00  0.00    -0.158 A  
HETATM   26  C   UNL     1      -8.744   4.369  68.961  1.00  0.00    -0.116 A  
HETATM   27  C   UNL     1      -9.472   5.424  68.413  1.00  0.00    -0.153 A  
HETATM   28  C   UNL     1     -10.385   6.133  69.199  1.00  0.00    -0.218 A  
HETATM   29  F   UNL     1     -11.080   7.112  68.610  1.00  0.00    -0.190 F  
ENDBRANCH  19  22
ENDBRANCH  17  19
ENDBRANCH  15  17
ENDBRANCH   7  10
BRANCH   8  30
HETATM   30  C   UNL     1     -12.115  13.139  70.216  1.00  0.00    -0.328 A  
HETATM   31  C   UNL     1     -12.299  14.985  71.546  1.00  0.00    -0.335 A  
HETATM   32  N   UNL     1     -11.842  14.443  70.410  1.00  0.00    -0.302 NA 
HETATM   33  N   UNL     1     -12.041  16.315  71.788  1.00  0.00    -0.637 NA 
HETATM   34  N   UNL     1     -13.049  14.356  72.456  1.00  0.00    -0.418 NA 
HETATM   35  C   UNL     1     -13.332  13.071  72.217  1.00  0.00    -0.506 A  
HETATM   36  H2  UNL     1     -11.514  16.875  71.117  1.00  0.00     0.000 HD 
HETATM   37  C   UNL     1     -12.881  12.405  71.108  1.00  0.00    -0.299 A  
HETATM   38  H1  UNL     1     -12.389  16.728  72.653  1.00  0.00     0.000 HD 
ENDBRANCH   8  30
ENDBRANCH   2   5
TORSDOF 6
ENDMDL
MODEL       84
REMARK 921   NORMALIZED FREE ENERGY PREDICTED BY IDOCK:   -6.67 KCAL/MOL
REMARK 922        TOTAL FREE ENERGY PREDICTED BY IDOCK:  -10.14 KCAL/MOL
REMARK 923 INTER-LIGAND FREE ENERGY PREDICTED BY IDOCK:   -9.12 KCAL/MOL
REMARK 924 INTRA-LIGAND FREE ENERGY PREDICTED BY IDOCK:   -1.02 KCAL/MOL
REMARK 927      BINDING AFFINITY PREDICTED BY RF-SCORE:    0.00 PKD
ROOT
HETATM    1  C   UNL     1      -8.127   6.599  65.015  1.00  0.00    -0.124 C  
HETATM    2  C   UNL     1      -8.678   6.321  66.425  1.00  0.00    -0.137 C  
HETATM    3  C   UNL     1      -7.618   5.495  67.191  1.00  0.00    -0.092 C  
HETATM    4  C   UNL     1      -9.954   5.463  66.274  1.00  0.00    -0.199 C  
ENDROOT
BRANCH   2   5
HETATM    5  C   UNL     1      -9.007   7.621  67.181  1.00  0.00    -0.126 A  
HETATM    6  N   UNL     1      -8.393   8.789  67.100  1.00  0.00    -0.104 NA 
HETATM    7  C   UNL     1      -9.008   9.758  67.930  1.00  0.00    -0.118 A  
HETATM    8  C   UNL     1     -10.067   9.260  68.688  1.00  0.00    -0.189 A  
HETATM    9  S   UNL     1     -10.348   7.618  68.243  1.00  0.00    -0.181 SA 
BRANCH   7  10
HETATM   10  C   UNL     1      -8.514  11.151  67.940  1.00  0.00    -0.131 A  
HETATM   11  C   UNL     1      -9.034  12.114  67.053  1.00  0.00    -0.201 A  
HETATM   12  C   UNL     1      -7.548  11.594  68.862  1.00  0.00    -0.087 A  
HETATM   13  F   UNL     1      -9.932  11.774  66.113  1.00  0.00    -0.220 F  
HETATM   14  C   UNL     1      -7.189  12.944  68.962  1.00  0.00     0.017 A  
HETATM   15  C   UNL     1      -8.671  13.471  67.143  1.00  0.00    -0.215 A  
HETATM   16  C   UNL     1      -7.756  13.884  68.108  1.00  0.00    -0.142 A  
BRANCH  15  17
HETATM   17  N   UNL     1      -9.298  14.454  66.310  1.00  0.00    -0.449 N  
HETATM   18  H   UNL     1      -8.876  14.712  65.418  1.00  0.00     0.000 HD 
BRANCH  17  19
HETATM   19  S   UNL     1     -10.739  15.185  66.806  1.00  0.00    -0.314 S  
HETATM   20  O   UNL     1     -11.145  14.591  68.062  1.00  0.00    -0.259 OA 
HETATM   21  O   UNL     1     -11.632  15.148  65.667  1.00  0.00    -0.259 OA 
BRANCH  19  22
HETATM   22  C   UNL     1     -10.332  16.870  67.059  1.00  0.00    -0.307 A  
HETATM   23  C   UNL     1     -10.637  17.782  66.056  1.00  0.00    -0.229 A  
HETATM   24  F   UNL     1     -11.068  17.366  64.856  1.00  0.00    -0.411 F  
HETATM   25  C   UNL     1     -10.511  19.155  66.275  1.00  0.00    -0.551 A  
HETATM   26  C   UNL     1     -10.076  19.622  67.513  1.00  0.00    -0.538 A  
HETATM   27  C   UNL     1      -9.747  18.707  68.514  1.00  0.00    -0.409 A  
HETATM   28  C   UNL     1      -9.880  17.335  68.285  1.00  0.00    -0.304 A  
HETATM   29  F   UNL     1      -9.582  16.508  69.293  1.00  0.00    -0.246 F  
ENDBRANCH  19  22
ENDBRANCH  17  19
ENDBRANCH  15  17
ENDBRANCH   7  10
BRANCH   8  30
HETATM   30  C   UNL     1     -10.985   9.800  69.708  1.00  0.00    -0.256 A  
HETATM   31  C   UNL     1     -12.148   9.470  71.645  1.00  0.00    -0.398 A  
HETATM   32  N   UNL     1     -11.289   8.987  70.737  1.00  0.00    -0.269 NA 
HETATM   33  N   UNL     1     -12.489   8.672  72.713  1.00  0.00    -0.507 NA 
HETATM   34  N   UNL     1     -12.666  10.702  71.641  1.00  0.00    -0.427 NA 
HETATM   35  C   UNL     1     -12.316  11.497  70.623  1.00  0.00    -0.364 A  
HETATM   36  H2  UNL     1     -12.098   7.735  72.811  1.00  0.00     0.000 HD 
HETATM   37  C   UNL     1     -11.479  11.092  69.618  1.00  0.00    -0.375 A  
HETATM   38  H1  UNL     1     -13.143   9.040  73.404  1.00  0.00     0.000 HD 
ENDBRANCH   8  30
ENDBRANCH   2   5
TORSDOF 6
ENDMDL
MODEL       85
REMARK 921   NORMALIZED FREE ENERGY PREDICTED BY IDOCK:   -6.60 KCAL/MOL
REMARK 922        TOTAL FREE ENERGY PREDICTED BY IDOCK:  -10.04 KCAL/MOL
REMARK 923 INTER-LIGAND FREE ENERGY PREDICTED BY IDOCK:   -8.53 KCAL/MOL
REMARK 924 INTRA-LIGAND FREE ENERGY PREDICTED BY IDOCK:   -1.51 KCAL/MOL
REMARK 927      BINDING AFFINITY PREDICTED BY RF-SCORE:    0.00 PKD
ROOT
HETATM    1  C   UNL     1      -9.309  18.428  66.470  1.00  0.00    -0.311 C  
HETATM    2  C   UNL     1      -9.311  17.556  67.738  1.00  0.00    -0.257 C  
HETATM    3  C   UNL     1     -10.175  18.274  68.802  1.00  0.00    -0.342 C  
HETATM    4  C   UNL     1      -7.857  17.477  68.259  1.00  0.00    -0.253 C  
ENDROOT
BRANCH   2   5
HETATM    5  C   UNL     1      -9.847  16.140  67.465  1.00  0.00    -0.237 A  
HETATM    6  N   UNL     1      -9.969  15.136  68.316  1.00  0.00    -0.220 NA 
HETATM    7  C   UNL     1     -10.534  13.995  67.696  1.00  0.00    -0.245 A  
HETATM    8  C   UNL     1     -10.774  14.156  66.331  1.00  0.00    -0.288 A  
HETATM    9  S   UNL     1     -10.403  15.780  65.887  1.00  0.00    -0.376 SA 
BRANCH   7  10
HETATM   10  C   UNL     1     -10.814  12.779  68.488  1.00  0.00    -0.279 A  
HETATM   11  C   UNL     1      -9.807  11.828  68.744  1.00  0.00    -0.087 A  
HETATM   12  C   UNL     1     -12.075  12.539  69.065  1.00  0.00    -0.181 A  
HETATM   13  F   UNL     1      -8.584  11.955  68.203  1.00  0.00    -0.137 F  
HETATM   14  C   UNL     1     -12.296  11.460  69.930  1.00  0.00    -0.280 A  
HETATM   15  C   UNL     1     -10.025  10.738  69.607  1.00  0.00     0.036 A  
HETATM   16  C   UNL     1     -11.269  10.563  70.208  1.00  0.00    -0.391 A  
BRANCH  15  17
HETATM   17  N   UNL     1      -8.955   9.848  69.948  1.00  0.00    -0.284 N  
HETATM   18  H   UNL     1      -8.271  10.119  70.654  1.00  0.00     0.000 HD 
BRANCH  17  19
HETATM   19  S   UNL     1      -8.827   8.348  69.178  1.00  0.00    -0.143 S  
HETATM   20  O   UNL     1     -10.108   7.679  69.263  1.00  0.00    -0.181 OA 
HETATM   21  O   UNL     1      -7.642   7.712  69.714  1.00  0.00    -0.088 OA 
BRANCH  19  22
HETATM   22  C   UNL     1      -8.471   8.723  67.505  1.00  0.00    -0.120 A  
HETATM   23  C   UNL     1      -9.532   8.865  66.619  1.00  0.00    -0.202 A  
HETATM   24  F   UNL     1     -10.783   8.553  66.987  1.00  0.00    -0.359 F  
HETATM   25  C   UNL     1      -9.324   9.346  65.325  1.00  0.00    -0.303 A  
HETATM   26  C   UNL     1      -8.038   9.690  64.912  1.00  0.00    -0.133 A  
HETATM   27  C   UNL     1      -6.968   9.527  65.793  1.00  0.00    -0.095 A  
HETATM   28  C   UNL     1      -7.189   9.047  67.086  1.00  0.00    -0.083 A  
HETATM   29  F   UNL     1      -6.129   8.943  67.897  1.00  0.00    -0.047 F  
ENDBRANCH  19  22
ENDBRANCH  17  19
ENDBRANCH  15  17
ENDBRANCH   7  10
BRANCH   8  30
HETATM   30  C   UNL     1     -11.283  13.307  65.239  1.00  0.00    -0.295 A  
HETATM   31  C   UNL     1     -10.829  11.982  63.435  1.00  0.00    -0.405 A  
HETATM   32  N   UNL     1     -10.362  12.727  64.446  1.00  0.00    -0.368 NA 
HETATM   33  N   UNL     1      -9.924  11.372  62.598  1.00  0.00    -0.593 NA 
HETATM   34  N   UNL     1     -12.119  11.722  63.198  1.00  0.00    -0.299 NA 
HETATM   35  C   UNL     1     -13.007  12.285  64.025  1.00  0.00    -0.186 A  
HETATM   36  H2  UNL     1      -8.920  11.485  62.743  1.00  0.00     0.000 HD 
HETATM   37  C   UNL     1     -12.642  13.098  65.065  1.00  0.00    -0.499 A  
HETATM   38  H1  UNL     1     -10.280  10.804  61.828  1.00  0.00     0.000 HD 
ENDBRANCH   8  30
ENDBRANCH   2   5
TORSDOF 6
ENDMDL
MODEL       86
REMARK 921   NORMALIZED FREE ENERGY PREDICTED BY IDOCK:   -6.55 KCAL/MOL
REMARK 922        TOTAL FREE ENERGY PREDICTED BY IDOCK:   -9.97 KCAL/MOL
REMARK 923 INTER-LIGAND FREE ENERGY PREDICTED BY IDOCK:   -9.37 KCAL/MOL
REMARK 924 INTRA-LIGAND FREE ENERGY PREDICTED BY IDOCK:   -0.60 KCAL/MOL
REMARK 927      BINDING AFFINITY PREDICTED BY RF-SCORE:    0.00 PKD
ROOT
HETATM    1  C   UNL     1      -9.867   7.077  71.483  1.00  0.00    -0.176 C  
HETATM    2  C   UNL     1     -10.998   7.552  70.553  1.00  0.00    -0.266 C  
HETATM    3  C   UNL     1     -12.220   7.898  71.435  1.00  0.00    -0.337 C  
HETATM    4  C   UNL     1     -11.378   6.371  69.630  1.00  0.00    -0.479 C  
ENDROOT
BRANCH   2   5
HETATM    5  C   UNL     1     -10.576   8.765  69.705  1.00  0.00    -0.224 A  
HETATM    6  N   UNL     1     -11.352   9.663  69.124  1.00  0.00    -0.014 NA 
HETATM    7  C   UNL     1     -10.592  10.651  68.453  1.00  0.00    -0.199 A  
HETATM    8  C   UNL     1      -9.216  10.430  68.497  1.00  0.00    -0.145 A  
HETATM    9  S   UNL     1      -8.904   9.054  69.489  1.00  0.00    -0.152 SA 
BRANCH   7  10
HETATM   10  C   UNL     1     -11.266  11.786  67.788  1.00  0.00    -0.331 A  
HETATM   11  C   UNL     1     -11.392  13.035  68.428  1.00  0.00    -0.291 A  
HETATM   12  C   UNL     1     -11.765  11.693  66.476  1.00  0.00    -0.034 A  
HETATM   13  F   UNL     1     -10.980  13.206  69.696  1.00  0.00    -0.189 F  
HETATM   14  C   UNL     1     -12.274  12.809  65.800  1.00  0.00    -0.469 A  
HETATM   15  C   UNL     1     -11.910  14.159  67.757  1.00  0.00    -0.379 A  
HETATM   16  C   UNL     1     -12.340  14.044  66.437  1.00  0.00    -0.468 A  
BRANCH  15  17
HETATM   17  N   UNL     1     -11.921  15.446  68.385  1.00  0.00    -0.528 N  
HETATM   18  H   UNL     1     -12.805  15.932  68.538  1.00  0.00     0.000 HD 
BRANCH  17  19
HETATM   19  S   UNL     1     -10.469  16.160  68.872  1.00  0.00    -0.279 S  
HETATM   20  O   UNL     1      -9.384  15.256  68.551  1.00  0.00    -0.188 OA 
HETATM   21  O   UNL     1     -10.664  16.597  70.239  1.00  0.00    -0.202 OA 
BRANCH  19  22
HETATM   22  C   UNL     1     -10.327  17.613  67.906  1.00  0.00    -0.371 A  
HETATM   23  C   UNL     1     -10.480  17.509  66.528  1.00  0.00    -0.270 A  
HETATM   24  F   UNL     1     -10.557  16.310  65.934  1.00  0.00    -0.307 F  
HETATM   25  C   UNL     1     -10.565  18.650  65.730  1.00  0.00    -0.290 A  
HETATM   26  C   UNL     1     -10.499  19.913  66.316  1.00  0.00    -0.590 A  
HETATM   27  C   UNL     1     -10.323  20.020  67.696  1.00  0.00    -0.510 A  
HETATM   28  C   UNL     1     -10.241  18.870  68.486  1.00  0.00    -0.347 A  
HETATM   29  F   UNL     1     -10.107  19.036  69.806  1.00  0.00    -0.215 F  
ENDBRANCH  19  22
ENDBRANCH  17  19
ENDBRANCH  15  17
ENDBRANCH   7  10
BRANCH   8  30
HETATM   30  C   UNL     1      -8.019  11.091  67.946  1.00  0.00    -0.112 A  
HETATM   31  C   UNL     1      -6.526  11.292  66.230  1.00  0.00    -0.034 A  
HETATM   32  N   UNL     1      -7.632  10.712  66.714  1.00  0.00    -0.114 NA 
HETATM   33  N   UNL     1      -6.093  10.933  64.975  1.00  0.00    -0.372 NA 
HETATM   34  N   UNL     1      -5.826  12.253  66.842  1.00  0.00    -0.285 NA 
HETATM   35  C   UNL     1      -6.256  12.632  68.051  1.00  0.00    -0.094 A  
HETATM   36  H2  UNL     1      -6.601  10.240  64.425  1.00  0.00     0.000 HD 
HETATM   37  C   UNL     1      -7.351  12.076  68.658  1.00  0.00    -0.111 A  
HETATM   38  H1  UNL     1      -5.250  11.375  64.606  1.00  0.00     0.000 HD 
ENDBRANCH   8  30
ENDBRANCH   2   5
TORSDOF 6
ENDMDL
MODEL       87
REMARK 921   NORMALIZED FREE ENERGY PREDICTED BY IDOCK:   -6.55 KCAL/MOL
REMARK 922        TOTAL FREE ENERGY PREDICTED BY IDOCK:   -9.97 KCAL/MOL
REMARK 923 INTER-LIGAND FREE ENERGY PREDICTED BY IDOCK:   -8.91 KCAL/MOL
REMARK 924 INTRA-LIGAND FREE ENERGY PREDICTED BY IDOCK:   -1.06 KCAL/MOL
REMARK 927      BINDING AFFINITY PREDICTED BY RF-SCORE:    0.00 PKD
ROOT
HETATM    1  C   UNL     1     -10.181   4.488  72.222  1.00  0.00    -0.257 C  
HETATM    2  C   UNL     1     -10.487   5.965  71.917  1.00  0.00    -0.267 C  
HETATM    3  C   UNL     1      -9.738   6.828  72.959  1.00  0.00    -0.182 C  
HETATM    4  C   UNL     1     -12.007   6.182  72.102  1.00  0.00    -0.314 C  
ENDROOT
BRANCH   2   5
HETATM    5  C   UNL     1     -10.073   6.355  70.487  1.00  0.00    -0.186 A  
HETATM    6  N   UNL     1      -9.782   7.558  70.022  1.00  0.00    -0.172 NA 
HETATM    7  C   UNL     1      -9.415   7.513  68.655  1.00  0.00    -0.146 A  
HETATM    8  C   UNL     1      -9.500   6.240  68.091  1.00  0.00    -0.113 A  
HETATM    9  S   UNL     1      -9.918   5.110  69.324  1.00  0.00    -0.212 SA 
BRANCH   7  10
HETATM   10  C   UNL     1      -8.990   8.744  67.956  1.00  0.00    -0.141 A  
HETATM   11  C   UNL     1      -9.848   9.401  67.052  1.00  0.00    -0.201 A  
HETATM   12  C   UNL     1      -7.741   9.345  68.196  1.00  0.00    -0.083 A  
HETATM   13  F   UNL     1     -11.045   8.880  66.733  1.00  0.00    -0.171 F  
HETATM   14  C   UNL     1      -7.400  10.585  67.640  1.00  0.00    -0.087 A  
HETATM   15  C   UNL     1      -9.509  10.644  66.485  1.00  0.00    -0.169 A  
HETATM   16  C   UNL     1      -8.288  11.239  66.791  1.00  0.00    -0.156 A  
BRANCH  15  17
HETATM   17  N   UNL     1     -10.443  11.352  65.662  1.00  0.00    -0.256 N  
HETATM   18  H   UNL     1     -10.383  11.284  64.646  1.00  0.00     0.000 HD 
BRANCH  17  19
HETATM   19  S   UNL     1     -11.646  12.302  66.375  1.00  0.00    -0.358 S  
HETATM   20  O   UNL     1     -12.016  11.700  67.638  1.00  0.00    -0.618 OA 
HETATM   21  O   UNL     1     -12.652  12.523  65.357  1.00  0.00    -0.656 OA 
BRANCH  19  22
HETATM   22  C   UNL     1     -10.889  13.855  66.665  1.00  0.00    -0.289 A  
HETATM   23  C   UNL     1     -10.240  14.482  65.608  1.00  0.00    -0.357 A  
HETATM   24  F   UNL     1     -10.042  13.844  64.446  1.00  0.00    -0.449 F  
HETATM   25  C   UNL     1      -9.785  15.796  65.728  1.00  0.00    -0.372 A  
HETATM   26  C   UNL     1      -9.983  16.493  66.918  1.00  0.00    -0.273 A  
HETATM   27  C   UNL     1     -10.615  15.858  67.987  1.00  0.00    -0.287 A  
HETATM   28  C   UNL     1     -11.068  14.542  67.856  1.00  0.00    -0.279 A  
HETATM   29  F   UNL     1     -11.697  13.997  68.904  1.00  0.00    -0.287 F  
ENDBRANCH  19  22
ENDBRANCH  17  19
ENDBRANCH  15  17
ENDBRANCH   7  10
BRANCH   8  30
HETATM   30  C   UNL     1      -9.291   5.659  66.752  1.00  0.00    -0.134 A  
HETATM   31  C   UNL     1     -10.153   4.519  64.971  1.00  0.00    -0.085 A  
HETATM   32  N   UNL     1     -10.356   5.073  66.174  1.00  0.00    -0.265 NA 
HETATM   33  N   UNL     1     -11.214   3.907  64.344  1.00  0.00    -0.727 NA 
HETATM   34  N   UNL     1      -9.007   4.561  64.284  1.00  0.00    -0.151 NA 
HETATM   35  C   UNL     1      -7.977   5.181  64.871  1.00  0.00    -0.102 A  
HETATM   36  H2  UNL     1     -12.133   3.876  64.785  1.00  0.00     0.000 HD 
HETATM   37  C   UNL     1      -8.062   5.745  66.117  1.00  0.00    -0.108 A  
HETATM   38  H1  UNL     1     -11.059   3.485  63.428  1.00  0.00     0.000 HD 
ENDBRANCH   8  30
ENDBRANCH   2   5
TORSDOF 6
ENDMDL
MODEL       88
REMARK 921   NORMALIZED FREE ENERGY PREDICTED BY IDOCK:   -6.54 KCAL/MOL
REMARK 922        TOTAL FREE ENERGY PREDICTED BY IDOCK:   -9.97 KCAL/MOL
REMARK 923 INTER-LIGAND FREE ENERGY PREDICTED BY IDOCK:   -8.53 KCAL/MOL
REMARK 924 INTRA-LIGAND FREE ENERGY PREDICTED BY IDOCK:   -1.44 KCAL/MOL
REMARK 927      BINDING AFFINITY PREDICTED BY RF-SCORE:    0.00 PKD
ROOT
HETATM    1  C   UNL     1     -10.391  14.730  65.306  1.00  0.00    -0.425 C  
HETATM    2  C   UNL     1     -11.452  14.208  66.292  1.00  0.00    -0.358 C  
HETATM    3  C   UNL     1     -12.760  13.977  65.498  1.00  0.00    -0.517 C  
HETATM    4  C   UNL     1     -11.705  15.313  67.343  1.00  0.00    -0.120 C  
ENDROOT
BRANCH   2   5
HETATM    5  C   UNL     1     -11.002  12.913  66.990  1.00  0.00    -0.262 A  
HETATM    6  N   UNL     1     -10.200  11.972  66.524  1.00  0.00    -0.203 NA 
HETATM    7  C   UNL     1      -9.996  10.943  67.476  1.00  0.00    -0.174 A  
HETATM    8  C   UNL     1     -10.725  11.113  68.653  1.00  0.00    -0.198 A  
HETATM    9  S   UNL     1     -11.549  12.626  68.586  1.00  0.00    -0.335 SA 
BRANCH   7  10
HETATM   10  C   UNL     1      -9.080   9.823  67.178  1.00  0.00    -0.152 A  
HETATM   11  C   UNL     1      -9.564   8.601  66.670  1.00  0.00    -0.221 A  
HETATM   12  C   UNL     1      -7.686   9.937  67.334  1.00  0.00    -0.091 A  
HETATM   13  F   UNL     1     -10.883   8.388  66.525  1.00  0.00    -0.287 F  
HETATM   14  C   UNL     1      -6.812   8.924  66.917  1.00  0.00    -0.077 A  
HETATM   15  C   UNL     1      -8.692   7.577  66.256  1.00  0.00    -0.149 A  
HETATM   16  C   UNL     1      -7.314   7.747  66.370  1.00  0.00    -0.079 A  
BRANCH  15  17
HETATM   17  N   UNL     1      -9.198   6.390  65.634  1.00  0.00    -0.372 N  
HETATM   18  H   UNL     1      -9.648   6.444  64.720  1.00  0.00     0.000 HD 
BRANCH  17  19
HETATM   19  S   UNL     1      -9.051   4.899  66.417  1.00  0.00    -0.133 S  
HETATM   20  O   UNL     1      -7.731   4.369  66.149  1.00  0.00    -0.092 OA 
HETATM   21  O   UNL     1     -10.225   4.129  66.058  1.00  0.00    -0.188 OA 
BRANCH  19  22
HETATM   22  C   UNL     1      -9.203   5.262  68.123  1.00  0.00    -0.113 A  
HETATM   23  C   UNL     1     -10.436   5.687  68.602  1.00  0.00    -0.207 A  
HETATM   24  F   UNL     1     -11.436   5.982  67.759  1.00  0.00    -0.317 F  
HETATM   25  C   UNL     1     -10.668   5.808  69.973  1.00  0.00    -0.400 A  
HETATM   26  C   UNL     1      -9.654   5.499  70.877  1.00  0.00    -0.219 A  
HETATM   27  C   UNL     1      -8.408   5.094  70.398  1.00  0.00    -0.105 A  
HETATM   28  C   UNL     1      -8.188   4.974  69.024  1.00  0.00    -0.087 A  
HETATM   29  F   UNL     1      -6.984   4.548  68.625  1.00  0.00    -0.047 F  
ENDBRANCH  19  22
ENDBRANCH  17  19
ENDBRANCH  15  17
ENDBRANCH   7  10
BRANCH   8  30
HETATM   30  C   UNL     1     -10.916  10.349  69.899  1.00  0.00    -0.305 A  
HETATM   31  C   UNL     1     -12.289   9.757  71.624  1.00  0.00    -0.408 A  
HETATM   32  N   UNL     1     -12.130  10.427  70.475  1.00  0.00    -0.307 NA 
HETATM   33  N   UNL     1     -13.514   9.810  72.250  1.00  0.00    -0.586 NA 
HETATM   34  N   UNL     1     -11.369   8.976  72.198  1.00  0.00    -0.320 NA 
HETATM   35  C   UNL     1     -10.184   8.892  71.582  1.00  0.00    -0.345 A  
HETATM   36  H2  UNL     1     -14.282  10.348  71.848  1.00  0.00     0.000 HD 
HETATM   37  C   UNL     1      -9.898   9.568  70.426  1.00  0.00    -0.329 A  
HETATM   38  H1  UNL     1     -13.635   9.300  73.125  1.00  0.00     0.000 HD 
ENDBRANCH   8  30
ENDBRANCH   2   5
TORSDOF 6
ENDMDL
MODEL       89
REMARK 921   NORMALIZED FREE ENERGY PREDICTED BY IDOCK:   -6.50 KCAL/MOL
REMARK 922        TOTAL FREE ENERGY PREDICTED BY IDOCK:   -9.91 KCAL/MOL
REMARK 923 INTER-LIGAND FREE ENERGY PREDICTED BY IDOCK:   -8.68 KCAL/MOL
REMARK 924 INTRA-LIGAND FREE ENERGY PREDICTED BY IDOCK:   -1.23 KCAL/MOL
REMARK 927      BINDING AFFINITY PREDICTED BY RF-SCORE:    0.00 PKD
ROOT
HETATM    1  C   UNL     1     -11.472  14.036  64.383  1.00  0.00    -0.357 C  
HETATM    2  C   UNL     1     -11.306  12.506  64.335  1.00  0.00    -0.395 C  
HETATM    3  C   UNL     1     -10.270  12.179  63.233  1.00  0.00    -0.341 C  
HETATM    4  C   UNL     1     -12.666  11.895  63.927  1.00  0.00    -0.413 C  
ENDROOT
BRANCH   2   5
HETATM    5  C   UNL     1     -10.858  11.933  65.691  1.00  0.00    -0.286 A  
HETATM    6  N   UNL     1     -11.581  11.772  66.786  1.00  0.00    -0.536 NA 
HETATM    7  C   UNL     1     -10.824  11.182  67.827  1.00  0.00    -0.239 A  
HETATM    8  C   UNL     1      -9.487  10.962  67.496  1.00  0.00    -0.155 A  
HETATM    9  S   UNL     1      -9.245  11.385  65.842  1.00  0.00    -0.200 SA 
BRANCH   7  10
HETATM   10  C   UNL     1     -11.461  10.857  69.120  1.00  0.00    -0.373 A  
HETATM   11  C   UNL     1     -11.396   9.556  69.658  1.00  0.00    -0.035 A  
HETATM   12  C   UNL     1     -12.113  11.832  69.897  1.00  0.00    -0.359 A  
HETATM   13  F   UNL     1     -10.827   8.552  68.970  1.00  0.00    -0.224 F  
HETATM   14  C   UNL     1     -12.591  11.552  71.184  1.00  0.00    -0.463 A  
HETATM   15  C   UNL     1     -11.880   9.266  70.948  1.00  0.00    -0.282 A  
HETATM   16  C   UNL     1     -12.467  10.271  71.713  1.00  0.00    -0.431 A  
BRANCH  15  17
HETATM   17  N   UNL     1     -11.699   7.967  71.523  1.00  0.00    -0.274 N  
HETATM   18  H   UNL     1     -12.373   7.225  71.332  1.00  0.00     0.000 HD 
BRANCH  17  19
HETATM   19  S   UNL     1     -10.368   7.664  72.520  1.00  0.00    -0.282 S  
HETATM   20  O   UNL     1     -10.838   7.520  73.882  1.00  0.00    -0.244 OA 
HETATM   21  O   UNL     1      -9.377   8.670  72.199  1.00  0.00    -0.261 OA 
BRANCH  19  22
HETATM   22  C   UNL     1      -9.717   6.137  71.961  1.00  0.00    -0.151 A  
HETATM   23  C   UNL     1      -8.684   5.553  72.684  1.00  0.00    -0.123 A  
HETATM   24  F   UNL     1      -8.079   6.219  73.678  1.00  0.00    -0.108 F  
HETATM   25  C   UNL     1      -8.256   4.256  72.399  1.00  0.00    -0.100 A  
HETATM   26  C   UNL     1      -8.870   3.531  71.379  1.00  0.00    -0.137 A  
HETATM   27  C   UNL     1      -9.892   4.123  70.637  1.00  0.00    -0.249 A  
HETATM   28  C   UNL     1     -10.314   5.422  70.932  1.00  0.00    -0.242 A  
HETATM   29  F   UNL     1     -11.322   5.924  70.210  1.00  0.00    -0.400 F  
ENDBRANCH  19  22
ENDBRANCH  17  19
ENDBRANCH  15  17
ENDBRANCH   7  10
BRANCH   8  30
HETATM   30  C   UNL     1      -8.295  10.442  68.192  1.00  0.00    -0.117 A  
HETATM   31  C   UNL     1      -6.711  10.728  69.811  1.00  0.00    -0.139 A  
HETATM   32  N   UNL     1      -7.812  11.189  69.202  1.00  0.00    -0.106 NA 
HETATM   33  N   UNL     1      -6.181  11.460  70.848  1.00  0.00    -0.470 NA 
HETATM   34  N   UNL     1      -6.105   9.569  69.538  1.00  0.00    -0.039 NA 
HETATM   35  C   UNL     1      -6.630   8.833  68.552  1.00  0.00    -0.059 A  
HETATM   36  H2  UNL     1      -6.615  12.334  71.146  1.00  0.00     0.000 HD 
HETATM   37  C   UNL     1      -7.728   9.228  67.835  1.00  0.00    -0.088 A  
HETATM   38  H1  UNL     1      -5.342  11.109  71.312  1.00  0.00     0.000 HD 
ENDBRANCH   8  30
ENDBRANCH   2   5
TORSDOF 6
ENDMDL
MODEL       90
REMARK 921   NORMALIZED FREE ENERGY PREDICTED BY IDOCK:   -6.45 KCAL/MOL
REMARK 922        TOTAL FREE ENERGY PREDICTED BY IDOCK:   -9.83 KCAL/MOL
REMARK 923 INTER-LIGAND FREE ENERGY PREDICTED BY IDOCK:   -8.59 KCAL/MOL
REMARK 924 INTRA-LIGAND FREE ENERGY PREDICTED BY IDOCK:   -1.24 KCAL/MOL
REMARK 927      BINDING AFFINITY PREDICTED BY RF-SCORE:    0.00 PKD
ROOT
HETATM    1  C   UNL     1     -12.821   9.622  72.282  1.00  0.00    -0.407 C  
HETATM    2  C   UNL     1     -11.767   8.809  71.508  1.00  0.00    -0.377 C  
HETATM    3  C   UNL     1     -12.385   7.431  71.175  1.00  0.00    -0.349 C  
HETATM    4  C   UNL     1     -10.557   8.591  72.445  1.00  0.00    -0.368 C  
ENDROOT
BRANCH   2   5
HETATM    5  C   UNL     1     -11.313   9.528  70.225  1.00  0.00    -0.236 A  
HETATM    6  N   UNL     1     -10.278   9.243  69.455  1.00  0.00    -0.202 NA 
HETATM    7  C   UNL     1     -10.203  10.115  68.341  1.00  0.00    -0.169 A  
HETATM    8  C   UNL     1     -11.183  11.107  68.335  1.00  0.00    -0.262 A  
HETATM    9  S   UNL     1     -12.253  10.841  69.662  1.00  0.00    -0.169 SA 
BRANCH   7  10
HETATM   10  C   UNL     1      -9.152   9.929  67.319  1.00  0.00    -0.149 A  
HETATM   11  C   UNL     1      -9.270   8.937  66.324  1.00  0.00    -0.207 A  
HETATM   12  C   UNL     1      -8.018  10.758  67.255  1.00  0.00    -0.117 A  
HETATM   13  F   UNL     1     -10.300   8.074  66.330  1.00  0.00    -0.310 F  
HETATM   14  C   UNL     1      -7.098  10.670  66.201  1.00  0.00    -0.138 A  
HETATM   15  C   UNL     1      -8.346   8.838  65.268  1.00  0.00    -0.160 A  
HETATM   16  C   UNL     1      -7.266   9.715  65.204  1.00  0.00    -0.115 A  
BRANCH  15  17
HETATM   17  N   UNL     1      -8.547   7.901  64.204  1.00  0.00    -0.364 N  
HETATM   18  H   UNL     1      -9.240   8.091  63.480  1.00  0.00     0.000 HD 
BRANCH  17  19
HETATM   19  S   UNL     1      -7.635   6.478  64.148  1.00  0.00    -0.105 S  
HETATM   20  O   UNL     1      -6.239   6.823  64.318  1.00  0.00    -0.034 OA 
HETATM   21  O   UNL     1      -8.063   5.762  62.964  1.00  0.00    -0.107 OA 
BRANCH  19  22
HETATM   22  C   UNL     1      -8.177   5.534  65.519  1.00  0.00    -0.130 A  
HETATM   23  C   UNL     1      -7.626   5.802  66.767  1.00  0.00    -0.096 A  
HETATM   24  F   UNL     1      -6.584   6.635  66.893  1.00  0.00    -0.041 F  
HETATM   25  C   UNL     1      -8.151   5.218  67.920  1.00  0.00    -0.099 A  
HETATM   26  C   UNL     1      -9.241   4.355  67.826  1.00  0.00    -0.166 A  
HETATM   27  C   UNL     1      -9.781   4.067  66.573  1.00  0.00    -0.211 A  
HETATM   28  C   UNL     1      -9.250   4.660  65.425  1.00  0.00    -0.155 A  
HETATM   29  F   UNL     1      -9.831   4.372  64.255  1.00  0.00    -0.159 F  
ENDBRANCH  19  22
ENDBRANCH  17  19
ENDBRANCH  15  17
ENDBRANCH   7  10
BRANCH   8  30
HETATM   30  C   UNL     1     -11.522  12.255  67.476  1.00  0.00    -0.347 A  
HETATM   31  C   UNL     1     -12.327  13.018  65.480  1.00  0.00    -0.472 A  
HETATM   32  N   UNL     1     -12.049  11.973  66.270  1.00  0.00    -0.528 NA 
HETATM   33  N   UNL     1     -12.865  12.776  64.237  1.00  0.00    -0.720 NA 
HETATM   34  N   UNL     1     -12.182  14.303  65.819  1.00  0.00    -0.413 NA 
HETATM   35  C   UNL     1     -11.688  14.551  67.037  1.00  0.00    -0.393 A  
HETATM   36  H2  UNL     1     -13.049  11.823  63.924  1.00  0.00     0.000 HD 
HETATM   37  C   UNL     1     -11.331  13.558  67.910  1.00  0.00    -0.320 A  
HETATM   38  H1  UNL     1     -13.077  13.573  63.635  1.00  0.00     0.000 HD 
ENDBRANCH   8  30
ENDBRANCH   2   5
TORSDOF 6
ENDMDL
MODEL       91
REMARK 921   NORMALIZED FREE ENERGY PREDICTED BY IDOCK:   -6.44 KCAL/MOL
REMARK 922        TOTAL FREE ENERGY PREDICTED BY IDOCK:   -9.82 KCAL/MOL
REMARK 923 INTER-LIGAND FREE ENERGY PREDICTED BY IDOCK:   -8.82 KCAL/MOL
REMARK 924 INTRA-LIGAND FREE ENERGY PREDICTED BY IDOCK:   -1.01 KCAL/MOL
REMARK 927      BINDING AFFINITY PREDICTED BY RF-SCORE:    0.00 PKD
ROOT
HETATM    1  C   UNL     1      -7.773   3.129  72.007  1.00  0.00    -0.054 C  
HETATM    2  C   UNL     1      -9.080   3.712  71.441  1.00  0.00    -0.180 C  
HETATM    3  C   UNL     1     -10.235   3.274  72.373  1.00  0.00    -0.196 C  
HETATM    4  C   UNL     1      -9.312   3.086  70.046  1.00  0.00    -0.223 C  
ENDROOT
BRANCH   2   5
HETATM    5  C   UNL     1      -9.024   5.245  71.324  1.00  0.00    -0.140 A  
HETATM    6  N   UNL     1     -10.026   6.084  71.125  1.00  0.00    -0.182 NA 
HETATM    7  C   UNL     1      -9.582   7.429  71.107  1.00  0.00    -0.159 A  
HETATM    8  C   UNL     1      -8.200   7.568  71.235  1.00  0.00    -0.100 A  
HETATM    9  S   UNL     1      -7.506   6.012  71.505  1.00  0.00    -0.095 SA 
BRANCH   7  10
HETATM   10  C   UNL     1     -10.553   8.533  70.959  1.00  0.00    -0.267 A  
HETATM   11  C   UNL     1     -10.696   9.220  69.738  1.00  0.00    -0.231 A  
HETATM   12  C   UNL     1     -11.414   8.914  72.005  1.00  0.00    -0.431 A  
HETATM   13  F   UNL     1      -9.890   8.951  68.696  1.00  0.00    -0.154 F  
HETATM   14  C   UNL     1     -12.428   9.862  71.817  1.00  0.00    -0.487 A  
HETATM   15  C   UNL     1     -11.708  10.179  69.545  1.00  0.00    -0.061 A  
HETATM   16  C   UNL     1     -12.580  10.489  70.585  1.00  0.00    -0.457 A  
BRANCH  15  17
HETATM   17  N   UNL     1     -11.911  10.782  68.261  1.00  0.00    -0.399 N  
HETATM   18  H   UNL     1     -12.466  10.301  67.553  1.00  0.00     0.000 HD 
BRANCH  17  19
HETATM   19  S   UNL     1     -11.229  12.290  67.919  1.00  0.00    -0.297 S  
HETATM   20  O   UNL     1      -9.835  12.262  68.310  1.00  0.00    -0.210 OA 
HETATM   21  O   UNL     1     -12.118  13.281  68.488  1.00  0.00    -0.341 OA 
BRANCH  19  22
HETATM   22  C   UNL     1     -11.347  12.462  66.181  1.00  0.00    -0.352 A  
HETATM   23  C   UNL     1     -10.798  11.469  65.379  1.00  0.00    -0.259 A  
HETATM   24  F   UNL     1     -10.044  10.495  65.910  1.00  0.00    -0.268 F  
HETATM   25  C   UNL     1     -11.025  11.454  64.002  1.00  0.00    -0.428 A  
HETATM   26  C   UNL     1     -11.813  12.445  63.419  1.00  0.00    -0.571 A  
HETATM   27  C   UNL     1     -12.346  13.455  64.218  1.00  0.00    -0.396 A  
HETATM   28  C   UNL     1     -12.114  13.459  65.596  1.00  0.00    -0.434 A  
HETATM   29  F   UNL     1     -12.681  14.434  66.316  1.00  0.00    -0.450 F  
ENDBRANCH  19  22
ENDBRANCH  17  19
ENDBRANCH  15  17
ENDBRANCH   7  10
BRANCH   8  30
HETATM   30  C   UNL     1      -7.243   8.690  71.230  1.00  0.00    -0.089 A  
HETATM   31  C   UNL     1      -6.664  10.746  70.425  1.00  0.00     0.065 A  
HETATM   32  N   UNL     1      -7.551   9.742  70.451  1.00  0.00    -0.202 NA 
HETATM   33  N   UNL     1      -6.937  11.842  69.639  1.00  0.00    -0.342 NA 
HETATM   34  N   UNL     1      -5.546  10.808  71.154  1.00  0.00    -0.285 NA 
HETATM   35  C   UNL     1      -5.286   9.761  71.946  1.00  0.00    -0.072 A  
HETATM   36  H2  UNL     1      -7.794  11.890  69.089  1.00  0.00     0.000 HD 
HETATM   37  C   UNL     1      -6.102   8.664  72.017  1.00  0.00    -0.070 A  
HETATM   38  H1  UNL     1      -6.261  12.606  69.620  1.00  0.00     0.000 HD 
ENDBRANCH   8  30
ENDBRANCH   2   5
TORSDOF 6
ENDMDL
MODEL       92
REMARK 921   NORMALIZED FREE ENERGY PREDICTED BY IDOCK:   -6.40 KCAL/MOL
REMARK 922        TOTAL FREE ENERGY PREDICTED BY IDOCK:   -9.78 KCAL/MOL
REMARK 923 INTER-LIGAND FREE ENERGY PREDICTED BY IDOCK:   -8.54 KCAL/MOL
REMARK 924 INTRA-LIGAND FREE ENERGY PREDICTED BY IDOCK:   -1.23 KCAL/MOL
REMARK 927      BINDING AFFINITY PREDICTED BY RF-SCORE:    0.00 PKD
ROOT
HETATM    1  C   UNL     1     -12.407  14.224  65.348  1.00  0.00    -0.421 C  
HETATM    2  C   UNL     1     -11.061  13.480  65.277  1.00  0.00    -0.307 C  
HETATM    3  C   UNL     1      -9.934  14.538  65.334  1.00  0.00    -0.352 C  
HETATM    4  C   UNL     1     -10.990  12.761  63.910  1.00  0.00    -0.458 C  
ENDROOT
BRANCH   2   5
HETATM    5  C   UNL     1     -10.907  12.457  66.416  1.00  0.00    -0.258 A  
HETATM    6  N   UNL     1     -10.083  11.425  66.478  1.00  0.00    -0.209 NA 
HETATM    7  C   UNL     1     -10.212  10.730  67.706  1.00  0.00    -0.182 A  
HETATM    8  C   UNL     1     -11.208  11.239  68.539  1.00  0.00    -0.252 A  
HETATM    9  S   UNL     1     -11.870  12.657  67.815  1.00  0.00    -0.254 SA 
BRANCH   7  10
HETATM   10  C   UNL     1      -9.336   9.578  68.005  1.00  0.00    -0.143 A  
HETATM   11  C   UNL     1      -9.397   8.397  67.238  1.00  0.00    -0.146 A  
HETATM   12  C   UNL     1      -8.370   9.621  69.027  1.00  0.00    -0.122 A  
HETATM   13  F   UNL     1     -10.315   8.252  66.267  1.00  0.00    -0.343 F  
HETATM   14  C   UNL     1      -7.449   8.583  69.215  1.00  0.00    -0.082 A  
HETATM   15  C   UNL     1      -8.479   7.348  67.426  1.00  0.00    -0.119 A  
HETATM   16  C   UNL     1      -7.498   7.449  68.409  1.00  0.00    -0.105 A  
BRANCH  15  17
HETATM   17  N   UNL     1      -8.483   6.207  66.560  1.00  0.00    -0.116 N  
HETATM   18  H   UNL     1      -7.912   6.206  65.714  1.00  0.00     0.000 HD 
BRANCH  17  19
HETATM   19  S   UNL     1      -9.434   4.862  66.940  1.00  0.00    -0.161 S  
HETATM   20  O   UNL     1      -8.692   3.666  66.601  1.00  0.00    -0.110 OA 
HETATM   21  O   UNL     1     -10.734   5.098  66.347  1.00  0.00    -0.308 OA 
BRANCH  19  22
HETATM   22  C   UNL     1      -9.662   4.939  68.674  1.00  0.00    -0.160 A  
HETATM   23  C   UNL     1      -8.725   4.320  69.493  1.00  0.00    -0.082 A  
HETATM   24  F   UNL     1      -7.769   3.536  68.973  1.00  0.00    -0.052 F  
HETATM   25  C   UNL     1      -8.748   4.506  70.876  1.00  0.00    -0.131 A  
HETATM   26  C   UNL     1      -9.721   5.324  71.448  1.00  0.00    -0.219 A  
HETATM   27  C   UNL     1     -10.676   5.928  70.631  1.00  0.00    -0.353 A  
HETATM   28  C   UNL     1     -10.642   5.736  69.247  1.00  0.00    -0.306 A  
HETATM   29  F   UNL     1     -11.563   6.369  68.511  1.00  0.00    -0.358 F  
ENDBRANCH  19  22
ENDBRANCH  17  19
ENDBRANCH  15  17
ENDBRANCH   7  10
BRANCH   8  30
HETATM   30  C   UNL     1     -11.773  10.883  69.853  1.00  0.00    -0.339 A  
HETATM   31  C   UNL     1     -12.881  11.545  71.737  1.00  0.00    -0.335 A  
HETATM   32  N   UNL     1     -12.395  11.866  70.530  1.00  0.00    -0.317 NA 
HETATM   33  N   UNL     1     -13.523  12.520  72.465  1.00  0.00    -0.581 NA 
HETATM   34  N   UNL     1     -12.851  10.326  72.283  1.00  0.00    -0.264 NA 
HETATM   35  C   UNL     1     -12.256   9.362  71.570  1.00  0.00    -0.369 A  
HETATM   36  H2  UNL     1     -13.627  13.465  72.095  1.00  0.00     0.000 HD 
HETATM   37  C   UNL     1     -11.690   9.589  70.344  1.00  0.00    -0.227 A  
HETATM   38  H1  UNL     1     -13.892  12.276  73.384  1.00  0.00     0.000 HD 
ENDBRANCH   8  30
ENDBRANCH   2   5
TORSDOF 6
ENDMDL
MODEL       93
REMARK 921   NORMALIZED FREE ENERGY PREDICTED BY IDOCK:   -6.39 KCAL/MOL
REMARK 922        TOTAL FREE ENERGY PREDICTED BY IDOCK:   -9.76 KCAL/MOL
REMARK 923 INTER-LIGAND FREE ENERGY PREDICTED BY IDOCK:   -8.24 KCAL/MOL
REMARK 924 INTRA-LIGAND FREE ENERGY PREDICTED BY IDOCK:   -1.51 KCAL/MOL
REMARK 927      BINDING AFFINITY PREDICTED BY RF-SCORE:    0.00 PKD
ROOT
HETATM    1  C   UNL     1      -9.896  14.919  65.584  1.00  0.00    -0.372 C  
HETATM    2  C   UNL     1     -11.017  14.390  66.497  1.00  0.00    -0.316 C  
HETATM    3  C   UNL     1     -12.298  14.254  65.640  1.00  0.00    -0.416 C  
HETATM    4  C   UNL     1     -11.272  15.449  67.594  1.00  0.00    -0.311 C  
ENDROOT
BRANCH   2   5
HETATM    5  C   UNL     1     -10.647  13.044  67.143  1.00  0.00    -0.246 A  
HETATM    6  N   UNL     1      -9.854  12.101  66.664  1.00  0.00    -0.207 NA 
HETATM    7  C   UNL     1      -9.734  11.015  67.566  1.00  0.00    -0.172 A  
HETATM    8  C   UNL     1     -10.516  11.147  68.713  1.00  0.00    -0.203 A  
HETATM    9  S   UNL     1     -11.284  12.690  68.691  1.00  0.00    -0.302 SA 
BRANCH   7  10
HETATM   10  C   UNL     1      -8.842   9.880  67.250  1.00  0.00    -0.138 A  
HETATM   11  C   UNL     1      -9.323   8.742  66.572  1.00  0.00    -0.203 A  
HETATM   12  C   UNL     1      -7.470   9.900  67.562  1.00  0.00    -0.091 A  
HETATM   13  F   UNL     1     -10.626   8.618  66.269  1.00  0.00    -0.303 F  
HETATM   14  C   UNL     1      -6.602   8.886  67.135  1.00  0.00    -0.062 A  
HETATM   15  C   UNL     1      -8.457   7.716  66.147  1.00  0.00    -0.143 A  
HETATM   16  C   UNL     1      -7.094   7.798  66.421  1.00  0.00    -0.071 A  
BRANCH  15  17
HETATM   17  N   UNL     1      -8.946   6.626  65.357  1.00  0.00    -0.365 N  
HETATM   18  H   UNL     1      -9.151   6.764  64.367  1.00  0.00     0.000 HD 
BRANCH  17  19
HETATM   19  S   UNL     1      -9.183   5.110  66.066  1.00  0.00    -0.158 S  
HETATM   20  O   UNL     1      -7.952   4.355  65.953  1.00  0.00    -0.097 OA 
HETATM   21  O   UNL     1     -10.409   4.582  65.505  1.00  0.00    -0.254 OA 
BRANCH  19  22
HETATM   22  C   UNL     1      -9.515   5.441  67.753  1.00  0.00    -0.120 A  
HETATM   23  C   UNL     1     -10.769   5.931  68.097  1.00  0.00    -0.251 A  
HETATM   24  F   UNL     1     -11.643   6.307  67.152  1.00  0.00    -0.293 F  
HETATM   25  C   UNL     1     -11.155   6.034  69.434  1.00  0.00    -0.445 A  
HETATM   26  C   UNL     1     -10.275   5.642  70.441  1.00  0.00    -0.302 A  
HETATM   27  C   UNL     1      -9.007   5.172  70.099  1.00  0.00    -0.151 A  
HETATM   28  C   UNL     1      -8.633   5.070  68.757  1.00  0.00    -0.086 A  
HETATM   29  F   UNL     1      -7.417   4.581  68.490  1.00  0.00    -0.061 F  
ENDBRANCH  19  22
ENDBRANCH  17  19
ENDBRANCH  15  17
ENDBRANCH   7  10
BRANCH   8  30
HETATM   30  C   UNL     1     -10.796  10.324  69.904  1.00  0.00    -0.302 A  
HETATM   31  C   UNL     1      -9.992   9.025  71.602  1.00  0.00    -0.313 A  
HETATM   32  N   UNL     1      -9.731   9.798  70.538  1.00  0.00    -0.208 NA 
HETATM   33  N   UNL     1      -8.933   8.465  72.280  1.00  0.00    -0.216 NA 
HETATM   34  N   UNL     1     -11.206   8.794  72.110  1.00  0.00    -0.362 NA 
HETATM   35  C   UNL     1     -12.240   9.359  71.477  1.00  0.00    -0.369 A  
HETATM   36  H2  UNL     1      -7.973   8.634  71.980  1.00  0.00     0.000 HD 
HETATM   37  C   UNL     1     -12.092  10.133  70.357  1.00  0.00    -0.332 A  
HETATM   38  H1  UNL     1      -9.132   7.877  73.089  1.00  0.00     0.000 HD 
ENDBRANCH   8  30
ENDBRANCH   2   5
TORSDOF 6
ENDMDL
MODEL       94
REMARK 921   NORMALIZED FREE ENERGY PREDICTED BY IDOCK:   -6.38 KCAL/MOL
REMARK 922        TOTAL FREE ENERGY PREDICTED BY IDOCK:   -9.74 KCAL/MOL
REMARK 923 INTER-LIGAND FREE ENERGY PREDICTED BY IDOCK:   -8.66 KCAL/MOL
REMARK 924 INTRA-LIGAND FREE ENERGY PREDICTED BY IDOCK:   -1.08 KCAL/MOL
REMARK 927      BINDING AFFINITY PREDICTED BY RF-SCORE:    0.00 PKD
ROOT
HETATM    1  C   UNL     1      -8.948   5.013  67.959  1.00  0.00    -0.117 C  
HETATM    2  C   UNL     1     -10.162   5.953  67.852  1.00  0.00    -0.225 C  
HETATM    3  C   UNL     1     -11.017   5.767  69.127  1.00  0.00    -0.308 C  
HETATM    4  C   UNL     1     -10.999   5.508  66.630  1.00  0.00    -0.128 C  
ENDROOT
BRANCH   2   5
HETATM    5  C   UNL     1      -9.739   7.424  67.689  1.00  0.00    -0.144 A  
HETATM    6  N   UNL     1     -10.253   8.335  66.881  1.00  0.00    -0.296 NA 
HETATM    7  C   UNL     1      -9.615   9.589  67.039  1.00  0.00    -0.164 A  
HETATM    8  C   UNL     1      -8.558   9.573  67.950  1.00  0.00    -0.119 A  
HETATM    9  S   UNL     1      -8.475   8.014  68.680  1.00  0.00    -0.128 SA 
BRANCH   7  10
HETATM   10  C   UNL     1     -10.081  10.764  66.273  1.00  0.00    -0.285 A  
HETATM   11  C   UNL     1     -10.572  11.912  66.926  1.00  0.00    -0.230 A  
HETATM   12  C   UNL     1     -10.009  10.816  64.869  1.00  0.00    -0.374 A  
HETATM   13  F   UNL     1     -10.712  11.939  68.263  1.00  0.00    -0.196 F  
HETATM   14  C   UNL     1     -10.318  11.982  64.157  1.00  0.00    -0.381 A  
HETATM   15  C   UNL     1     -10.891  13.085  66.216  1.00  0.00    -0.278 A  
HETATM   16  C   UNL     1     -10.751  13.119  64.831  1.00  0.00    -0.362 A  
BRANCH  15  17
HETATM   17  N   UNL     1     -11.276  14.278  66.909  1.00  0.00    -0.315 N  
HETATM   18  H   UNL     1     -12.231  14.629  66.830  1.00  0.00     0.000 HD 
BRANCH  17  19
HETATM   19  S   UNL     1     -10.147  15.105  67.857  1.00  0.00    -0.223 S  
HETATM   20  O   UNL     1      -8.820  14.696  67.449  1.00  0.00    -0.176 OA 
HETATM   21  O   UNL     1     -10.565  14.937  69.233  1.00  0.00    -0.233 OA 
BRANCH  19  22
HETATM   22  C   UNL     1     -10.382  16.798  67.473  1.00  0.00    -0.301 A  
HETATM   23  C   UNL     1     -10.288  17.728  68.501  1.00  0.00    -0.364 A  
HETATM   24  F   UNL     1     -10.195  17.334  69.779  1.00  0.00    -0.173 F  
HETATM   25  C   UNL     1     -10.278  19.097  68.228  1.00  0.00    -0.486 A  
HETATM   26  C   UNL     1     -10.362  19.542  66.910  1.00  0.00    -0.566 A  
HETATM   27  C   UNL     1     -10.479  18.610  65.879  1.00  0.00    -0.395 A  
HETATM   28  C   UNL     1     -10.486  17.242  66.163  1.00  0.00    -0.278 A  
HETATM   29  F   UNL     1     -10.566  16.396  65.130  1.00  0.00    -0.383 F  
ENDBRANCH  19  22
ENDBRANCH  17  19
ENDBRANCH  15  17
ENDBRANCH   7  10
BRANCH   8  30
HETATM   30  C   UNL     1      -7.565  10.548  68.436  1.00  0.00    -0.097 A  
HETATM   31  C   UNL     1      -6.303  12.406  68.026  1.00  0.00    -0.082 A  
HETATM   32  N   UNL     1      -7.229  11.541  67.592  1.00  0.00    -0.097 NA 
HETATM   33  N   UNL     1      -5.927  13.436  67.194  1.00  0.00    -0.398 NA 
HETATM   34  N   UNL     1      -5.744  12.396  69.240  1.00  0.00    -0.074 NA 
HETATM   35  C   UNL     1      -6.125  11.417  70.068  1.00  0.00    -0.145 A  
HETATM   36  H2  UNL     1      -6.344  13.538  66.269  1.00  0.00     0.000 HD 
HETATM   37  C   UNL     1      -7.033  10.454  69.713  1.00  0.00    -0.138 A  
HETATM   38  H1  UNL     1      -5.222  14.095  67.525  1.00  0.00     0.000 HD 
ENDBRANCH   8  30
ENDBRANCH   2   5
TORSDOF 6
ENDMDL
MODEL       95
REMARK 921   NORMALIZED FREE ENERGY PREDICTED BY IDOCK:   -6.37 KCAL/MOL
REMARK 922        TOTAL FREE ENERGY PREDICTED BY IDOCK:   -9.74 KCAL/MOL
REMARK 923 INTER-LIGAND FREE ENERGY PREDICTED BY IDOCK:   -8.66 KCAL/MOL
REMARK 924 INTRA-LIGAND FREE ENERGY PREDICTED BY IDOCK:   -1.07 KCAL/MOL
REMARK 927      BINDING AFFINITY PREDICTED BY RF-SCORE:    0.00 PKD
ROOT
HETATM    1  C   UNL     1     -12.382   9.364  71.543  1.00  0.00    -0.452 C  
HETATM    2  C   UNL     1     -11.363   8.238  71.289  1.00  0.00    -0.308 C  
HETATM    3  C   UNL     1     -12.143   6.903  71.220  1.00  0.00    -0.419 C  
HETATM    4  C   UNL     1     -10.406   8.185  72.502  1.00  0.00    -0.401 C  
ENDROOT
BRANCH   2   5
HETATM    5  C   UNL     1     -10.559   8.468  69.998  1.00  0.00    -0.227 A  
HETATM    6  N   UNL     1     -10.831   9.300  69.006  1.00  0.00    -0.164 NA 
HETATM    7  C   UNL     1      -9.835   9.251  68.000  1.00  0.00    -0.163 A  
HETATM    8  C   UNL     1      -8.838   8.306  68.239  1.00  0.00    -0.140 A  
HETATM    9  S   UNL     1      -9.106   7.592  69.786  1.00  0.00    -0.146 SA 
BRANCH   7  10
HETATM   10  C   UNL     1      -9.914  10.150  66.830  1.00  0.00    -0.266 A  
HETATM   11  C   UNL     1      -9.848  11.550  66.980  1.00  0.00    -0.192 A  
HETATM   12  C   UNL     1     -10.006   9.658  65.515  1.00  0.00    -0.279 A  
HETATM   13  F   UNL     1      -9.798  12.111  68.200  1.00  0.00    -0.181 F  
HETATM   14  C   UNL     1      -9.938  10.507  64.403  1.00  0.00    -0.410 A  
HETATM   15  C   UNL     1      -9.786  12.409  65.867  1.00  0.00    -0.252 A  
HETATM   16  C   UNL     1      -9.820  11.882  64.578  1.00  0.00    -0.203 A  
BRANCH  15  17
HETATM   17  N   UNL     1      -9.600  13.819  66.040  1.00  0.00    -0.468 N  
HETATM   18  H   UNL     1      -8.659  14.212  66.055  1.00  0.00     0.000 HD 
BRANCH  17  19
HETATM   19  S   UNL     1     -10.942  14.831  66.219  1.00  0.00    -0.333 S  
HETATM   20  O   UNL     1     -12.128  14.092  65.839  1.00  0.00    -0.384 OA 
HETATM   21  O   UNL     1     -10.616  16.069  65.543  1.00  0.00    -0.371 OA 
BRANCH  19  22
HETATM   22  C   UNL     1     -11.007  15.205  67.928  1.00  0.00    -0.302 A  
HETATM   23  C   UNL     1     -10.380  16.362  68.377  1.00  0.00    -0.282 A  
HETATM   24  F   UNL     1      -9.597  17.081  67.559  1.00  0.00    -0.238 F  
HETATM   25  C   UNL     1     -10.556  16.809  69.687  1.00  0.00    -0.242 A  
HETATM   26  C   UNL     1     -11.372  16.092  70.560  1.00  0.00    -0.420 A  
HETATM   27  C   UNL     1     -11.984  14.919  70.119  1.00  0.00    -0.368 A  
HETATM   28  C   UNL     1     -11.802  14.481  68.805  1.00  0.00    -0.315 A  
HETATM   29  F   UNL     1     -12.442  13.368  68.429  1.00  0.00    -0.298 F  
ENDBRANCH  19  22
ENDBRANCH  17  19
ENDBRANCH  15  17
ENDBRANCH   7  10
BRANCH   8  30
HETATM   30  C   UNL     1      -7.641   7.825  67.524  1.00  0.00    -0.109 A  
HETATM   31  C   UNL     1      -6.690   6.257  66.164  1.00  0.00    -0.056 A  
HETATM   32  N   UNL     1      -7.787   6.708  66.787  1.00  0.00    -0.106 NA 
HETATM   33  N   UNL     1      -6.792   5.117  65.401  1.00  0.00    -0.059 NA 
HETATM   34  N   UNL     1      -5.497   6.859  66.167  1.00  0.00    -0.022 NA 
HETATM   35  C   UNL     1      -5.394   7.986  66.881  1.00  0.00    -0.032 A  
HETATM   36  H2  UNL     1      -7.682   4.626  65.312  1.00  0.00     0.000 HD 
HETATM   37  C   UNL     1      -6.440   8.514  67.590  1.00  0.00    -0.057 A  
HETATM   38  H1  UNL     1      -5.956   4.773  64.927  1.00  0.00     0.000 HD 
ENDBRANCH   8  30
ENDBRANCH   2   5
TORSDOF 6
ENDMDL
MODEL       96
REMARK 921   NORMALIZED FREE ENERGY PREDICTED BY IDOCK:   -6.37 KCAL/MOL
REMARK 922        TOTAL FREE ENERGY PREDICTED BY IDOCK:   -9.73 KCAL/MOL
REMARK 923 INTER-LIGAND FREE ENERGY PREDICTED BY IDOCK:   -9.52 KCAL/MOL
REMARK 924 INTRA-LIGAND FREE ENERGY PREDICTED BY IDOCK:   -0.21 KCAL/MOL
REMARK 927      BINDING AFFINITY PREDICTED BY RF-SCORE:    0.00 PKD
ROOT
HETATM    1  C   UNL     1      -9.031   5.606  73.209  1.00  0.00    -0.127 C  
HETATM    2  C   UNL     1      -9.403   7.047  72.816  1.00  0.00    -0.158 C  
HETATM    3  C   UNL     1      -8.318   7.988  73.393  1.00  0.00    -0.278 C  
HETATM    4  C   UNL     1     -10.754   7.387  73.486  1.00  0.00    -0.347 C  
ENDROOT
BRANCH   2   5
HETATM    5  C   UNL     1      -9.516   7.217  71.291  1.00  0.00    -0.155 A  
HETATM    6  N   UNL     1      -9.878   8.295  70.616  1.00  0.00    -0.181 NA 
HETATM    7  C   UNL     1      -9.832   8.072  69.218  1.00  0.00    -0.178 A  
HETATM    8  C   UNL     1      -9.484   6.769  68.866  1.00  0.00    -0.128 A  
HETATM    9  S   UNL     1      -9.098   5.889  70.298  1.00  0.00    -0.147 SA 
BRANCH   7  10
HETATM   10  C   UNL     1     -10.139   9.171  68.278  1.00  0.00    -0.221 A  
HETATM   11  C   UNL     1     -10.978  10.239  68.655  1.00  0.00    -0.244 A  
HETATM   12  C   UNL     1      -9.573   9.233  66.991  1.00  0.00    -0.223 A  
HETATM   13  F   UNL     1     -11.593  10.245  69.850  1.00  0.00    -0.265 F  
HETATM   14  C   UNL     1      -9.754  10.345  66.159  1.00  0.00    -0.262 A  
HETATM   15  C   UNL     1     -11.169  11.356  67.820  1.00  0.00    -0.283 A  
HETATM   16  C   UNL     1     -10.545  11.410  66.576  1.00  0.00    -0.309 A  
BRANCH  15  17
HETATM   17  N   UNL     1     -11.930  12.484  68.268  1.00  0.00    -0.296 N  
HETATM   18  H   UNL     1     -12.937  12.398  68.408  1.00  0.00     0.000 HD 
BRANCH  17  19
HETATM   19  S   UNL     1     -11.158  13.957  68.568  1.00  0.00    -0.279 S  
HETATM   20  O   UNL     1     -11.494  14.876  67.500  1.00  0.00    -0.336 OA 
HETATM   21  O   UNL     1      -9.771  13.646  68.843  1.00  0.00    -0.090 OA 
BRANCH  19  22
HETATM   22  C   UNL     1     -11.842  14.534  70.073  1.00  0.00    -0.313 A  
HETATM   23  C   UNL     1     -12.646  13.671  70.808  1.00  0.00    -0.325 A  
HETATM   24  F   UNL     1     -13.034  12.492  70.300  1.00  0.00    -0.015 F  
HETATM   25  C   UNL     1     -13.062  14.005  72.098  1.00  0.00    -0.501 A  
HETATM   26  C   UNL     1     -12.668  15.217  72.661  1.00  0.00    -0.474 A  
HETATM   27  C   UNL     1     -11.880  16.095  71.916  1.00  0.00    -0.605 A  
HETATM   28  C   UNL     1     -11.467  15.749  70.627  1.00  0.00    -0.390 A  
HETATM   29  F   UNL     1     -10.684  16.616  69.975  1.00  0.00    -0.318 F  
ENDBRANCH  19  22
ENDBRANCH  17  19
ENDBRANCH  15  17
ENDBRANCH   7  10
BRANCH   8  30
HETATM   30  C   UNL     1      -9.340   6.014  67.608  1.00  0.00    -0.112 A  
HETATM   31  C   UNL     1     -10.345   4.952  65.853  1.00  0.00    -0.236 A  
HETATM   32  N   UNL     1     -10.479   5.664  66.980  1.00  0.00    -0.254 NA 
HETATM   33  N   UNL     1     -11.482   4.571  65.180  1.00  0.00    -1.109 NA 
HETATM   34  N   UNL     1      -9.183   4.623  65.280  1.00  0.00    -0.153 NA 
HETATM   35  C   UNL     1      -8.070   5.015  65.911  1.00  0.00    -0.108 A  
HETATM   36  H2  UNL     1     -12.406   4.824  65.530  1.00  0.00     0.000 HD 
HETATM   37  C   UNL     1      -8.090   5.712  67.090  1.00  0.00    -0.102 A  
HETATM   38  H1  UNL     1     -11.380   4.028  64.322  1.00  0.00     0.000 HD 
ENDBRANCH   8  30
ENDBRANCH   2   5
TORSDOF 6
ENDMDL
MODEL       97
REMARK 921   NORMALIZED FREE ENERGY PREDICTED BY IDOCK:   -6.37 KCAL/MOL
REMARK 922        TOTAL FREE ENERGY PREDICTED BY IDOCK:   -9.73 KCAL/MOL
REMARK 923 INTER-LIGAND FREE ENERGY PREDICTED BY IDOCK:   -9.41 KCAL/MOL
REMARK 924 INTRA-LIGAND FREE ENERGY PREDICTED BY IDOCK:   -0.32 KCAL/MOL
REMARK 927      BINDING AFFINITY PREDICTED BY RF-SCORE:    0.00 PKD
ROOT
HETATM    1  C   UNL     1     -12.285  15.284  73.039  1.00  0.00    -0.527 C  
HETATM    2  C   UNL     1     -13.037  14.573  71.900  1.00  0.00    -0.427 C  
HETATM    3  C   UNL     1     -14.388  15.299  71.700  1.00  0.00    -0.666 C  
HETATM    4  C   UNL     1     -13.323  13.123  72.356  1.00  0.00    -0.591 C  
ENDROOT
BRANCH   2   5
HETATM    5  C   UNL     1     -12.226  14.560  70.593  1.00  0.00    -0.331 A  
HETATM    6  N   UNL     1     -11.998  13.540  69.785  1.00  0.00    -0.329 NA 
HETATM    7  C   UNL     1     -11.230  13.928  68.660  1.00  0.00    -0.270 A  
HETATM    8  C   UNL     1     -10.834  15.265  68.683  1.00  0.00    -0.253 A  
HETATM    9  S   UNL     1     -11.544  16.034  70.053  1.00  0.00    -0.262 SA 
BRANCH   7  10
HETATM   10  C   UNL     1     -10.915  12.950  67.598  1.00  0.00    -0.274 A  
HETATM   11  C   UNL     1     -10.175  11.783  67.878  1.00  0.00    -0.191 A  
HETATM   12  C   UNL     1     -11.378  13.105  66.279  1.00  0.00    -0.348 A  
HETATM   13  F   UNL     1      -9.660  11.570  69.101  1.00  0.00    -0.143 F  
HETATM   14  C   UNL     1     -11.199  12.107  65.312  1.00  0.00    -0.381 A  
HETATM   15  C   UNL     1      -9.985  10.780  66.910  1.00  0.00    -0.200 A  
HETATM   16  C   UNL     1     -10.509  10.941  65.629  1.00  0.00    -0.274 A  
BRANCH  15  17
HETATM   17  N   UNL     1      -9.332   9.551  67.247  1.00  0.00    -0.133 N  
HETATM   18  H   UNL     1      -8.353   9.407  66.998  1.00  0.00     0.000 HD 
BRANCH  17  19
HETATM   19  S   UNL     1     -10.185   8.337  68.059  1.00  0.00    -0.214 S  
HETATM   20  O   UNL     1     -10.824   7.490  67.074  1.00  0.00    -0.348 OA 
HETATM   21  O   UNL     1     -10.982   9.002  69.068  1.00  0.00    -0.120 OA 
BRANCH  19  22
HETATM   22  C   UNL     1      -8.966   7.420  68.919  1.00  0.00    -0.130 A  
HETATM   23  C   UNL     1      -8.880   7.564  70.298  1.00  0.00    -0.146 A  
HETATM   24  F   UNL     1      -9.587   8.508  70.936  1.00  0.00    -0.171 F  
HETATM   25  C   UNL     1      -8.062   6.725  71.055  1.00  0.00    -0.115 A  
HETATM   26  C   UNL     1      -7.320   5.727  70.426  1.00  0.00    -0.080 A  
HETATM   27  C   UNL     1      -7.388   5.595  69.039  1.00  0.00    -0.082 A  
HETATM   28  C   UNL     1      -8.212   6.439  68.291  1.00  0.00    -0.116 A  
HETATM   29  F   UNL     1      -8.262   6.243  66.968  1.00  0.00    -0.106 F  
ENDBRANCH  19  22
ENDBRANCH  17  19
ENDBRANCH  15  17
ENDBRANCH   7  10
BRANCH   8  30
HETATM   30  C   UNL     1     -10.015  16.142  67.826  1.00  0.00    -0.237 A  
HETATM   31  C   UNL     1      -9.496  18.259  67.144  1.00  0.00    -0.268 A  
HETATM   32  N   UNL     1     -10.220  17.467  67.947  1.00  0.00    -0.332 NA 
HETATM   33  N   UNL     1      -9.675  19.620  67.232  1.00  0.00    -0.337 NA 
HETATM   34  N   UNL     1      -8.555  17.842  66.291  1.00  0.00    -0.445 NA 
HETATM   35  C   UNL     1      -8.351  16.522  66.219  1.00  0.00    -0.329 A  
HETATM   36  H2  UNL     1     -10.342  20.018  67.893  1.00  0.00     0.000 HD 
HETATM   37  C   UNL     1      -9.064  15.619  66.964  1.00  0.00    -0.239 A  
HETATM   38  H1  UNL     1      -9.124  20.223  66.620  1.00  0.00     0.000 HD 
ENDBRANCH   8  30
ENDBRANCH   2   5
TORSDOF 6
ENDMDL
MODEL       98
REMARK 921   NORMALIZED FREE ENERGY PREDICTED BY IDOCK:   -6.37 KCAL/MOL
REMARK 922        TOTAL FREE ENERGY PREDICTED BY IDOCK:   -9.73 KCAL/MOL
REMARK 923 INTER-LIGAND FREE ENERGY PREDICTED BY IDOCK:   -8.80 KCAL/MOL
REMARK 924 INTRA-LIGAND FREE ENERGY PREDICTED BY IDOCK:   -0.93 KCAL/MOL
REMARK 927      BINDING AFFINITY PREDICTED BY RF-SCORE:    0.00 PKD
ROOT
HETATM    1  C   UNL     1      -8.309   4.760  65.811  1.00  0.00    -0.117 C  
HETATM    2  C   UNL     1      -9.387   5.413  66.694  1.00  0.00    -0.143 C  
HETATM    3  C   UNL     1      -9.302   4.767  68.097  1.00  0.00    -0.172 C  
HETATM    4  C   UNL     1     -10.766   5.078  66.082  1.00  0.00    -0.264 C  
ENDROOT
BRANCH   2   5
HETATM    5  C   UNL     1      -9.211   6.939  66.785  1.00  0.00    -0.152 A  
HETATM    6  N   UNL     1      -9.877   7.877  66.133  1.00  0.00    -0.053 NA 
HETATM    7  C   UNL     1      -9.449   9.174  66.507  1.00  0.00    -0.208 A  
HETATM    8  C   UNL     1      -8.392   9.178  67.417  1.00  0.00    -0.115 A  
HETATM    9  S   UNL     1      -8.047   7.553  67.879  1.00  0.00    -0.120 SA 
BRANCH   7  10
HETATM   10  C   UNL     1     -10.110  10.368  65.941  1.00  0.00    -0.326 A  
HETATM   11  C   UNL     1     -10.781  11.291  66.769  1.00  0.00    -0.275 A  
HETATM   12  C   UNL     1     -10.057  10.670  64.568  1.00  0.00    -0.421 A  
HETATM   13  F   UNL     1     -10.915  11.065  68.087  1.00  0.00    -0.211 F  
HETATM   14  C   UNL     1     -10.562  11.873  64.058  1.00  0.00    -0.422 A  
HETATM   15  C   UNL     1     -11.296  12.498  66.261  1.00  0.00    -0.338 A  
HETATM   16  C   UNL     1     -11.174  12.791  64.905  1.00  0.00    -0.331 A  
BRANCH  15  17
HETATM   17  N   UNL     1     -11.871  13.475  67.137  1.00  0.00    -0.376 N  
HETATM   18  H   UNL     1     -12.879  13.493  67.291  1.00  0.00     0.000 HD 
BRANCH  17  19
HETATM   19  S   UNL     1     -10.876  14.598  67.916  1.00  0.00    -0.265 S  
HETATM   20  O   UNL     1     -10.938  15.848  67.187  1.00  0.00    -0.304 OA 
HETATM   21  O   UNL     1      -9.601  13.944  68.122  1.00  0.00    -0.206 OA 
BRANCH  19  22
HETATM   22  C   UNL     1     -11.584  14.810  69.504  1.00  0.00    -0.304 A  
HETATM   23  C   UNL     1     -12.210  13.723  70.100  1.00  0.00    -0.356 A  
HETATM   24  F   UNL     1     -12.426  12.592  69.413  1.00  0.00    -0.193 F  
HETATM   25  C   UNL     1     -12.623  13.777  71.432  1.00  0.00    -0.433 A  
HETATM   26  C   UNL     1     -12.405  14.933  72.179  1.00  0.00    -0.430 A  
HETATM   27  C   UNL     1     -11.797  16.034  71.576  1.00  0.00    -0.554 A  
HETATM   28  C   UNL     1     -11.386  15.968  70.242  1.00  0.00    -0.382 A  
HETATM   29  F   UNL     1     -10.777  17.043  69.729  1.00  0.00    -0.315 F  
ENDBRANCH  19  22
ENDBRANCH  17  19
ENDBRANCH  15  17
ENDBRANCH   7  10
BRANCH   8  30
HETATM   30  C   UNL     1      -7.564  10.206  68.074  1.00  0.00    -0.088 A  
HETATM   31  C   UNL     1      -6.584  12.266  67.976  1.00  0.00    -0.076 A  
HETATM   32  N   UNL     1      -7.363  11.347  67.389  1.00  0.00    -0.111 NA 
HETATM   33  N   UNL     1      -6.349  13.447  67.311  1.00  0.00    -0.454 NA 
HETATM   34  N   UNL     1      -6.054  12.163  69.198  1.00  0.00    -0.074 NA 
HETATM   35  C   UNL     1      -6.301  11.031  69.867  1.00  0.00    -0.137 A  
HETATM   36  H2  UNL     1      -6.758  13.620  66.392  1.00  0.00     0.000 HD 
HETATM   37  C   UNL     1      -7.049  10.009  69.346  1.00  0.00    -0.074 A  
HETATM   38  H1  UNL     1      -5.756  14.147  67.758  1.00  0.00     0.000 HD 
ENDBRANCH   8  30
ENDBRANCH   2   5
TORSDOF 6
ENDMDL
MODEL       99
REMARK 921   NORMALIZED FREE ENERGY PREDICTED BY IDOCK:   -6.33 KCAL/MOL
REMARK 922        TOTAL FREE ENERGY PREDICTED BY IDOCK:   -9.68 KCAL/MOL
REMARK 923 INTER-LIGAND FREE ENERGY PREDICTED BY IDOCK:   -8.44 KCAL/MOL
REMARK 924 INTRA-LIGAND FREE ENERGY PREDICTED BY IDOCK:   -1.24 KCAL/MOL
REMARK 927      BINDING AFFINITY PREDICTED BY RF-SCORE:    0.00 PKD
ROOT
HETATM    1  C   UNL     1      -9.426  10.153  63.460  1.00  0.00    -0.310 C  
HETATM    2  C   UNL     1      -8.389   9.801  64.542  1.00  0.00    -0.168 C  
HETATM    3  C   UNL     1      -6.984  10.083  63.959  1.00  0.00    -0.124 C  
HETATM    4  C   UNL     1      -8.505   8.288  64.834  1.00  0.00    -0.115 C  
ENDROOT
BRANCH   2   5
HETATM    5  C   UNL     1      -8.613  10.603  65.837  1.00  0.00    -0.172 A  
HETATM    6  N   UNL     1      -7.748  11.368  66.481  1.00  0.00    -0.130 NA 
HETATM    7  C   UNL     1      -8.335  11.968  67.622  1.00  0.00    -0.160 A  
HETATM    8  C   UNL     1      -9.655  11.578  67.848  1.00  0.00    -0.177 A  
HETATM    9  S   UNL     1     -10.167  10.565  66.550  1.00  0.00    -0.225 SA 
BRANCH   7  10
HETATM   10  C   UNL     1      -7.557  12.912  68.450  1.00  0.00    -0.133 A  
HETATM   11  C   UNL     1      -7.860  14.289  68.466  1.00  0.00    -0.143 A  
HETATM   12  C   UNL     1      -6.518  12.482  69.296  1.00  0.00    -0.104 A  
HETATM   13  F   UNL     1      -8.810  14.795  67.662  1.00  0.00    -0.161 F  
HETATM   14  C   UNL     1      -5.879  13.358  70.184  1.00  0.00    -0.148 A  
HETATM   15  C   UNL     1      -7.216  15.175  69.350  1.00  0.00    -0.198 A  
HETATM   16  C   UNL     1      -6.233  14.703  70.216  1.00  0.00    -0.173 A  
BRANCH  15  17
HETATM   17  N   UNL     1      -7.620  16.547  69.434  1.00  0.00    -0.157 N  
HETATM   18  H   UNL     1      -8.285  16.841  70.149  1.00  0.00     0.000 HD 
BRANCH  17  19
HETATM   19  S   UNL     1      -6.993  17.680  68.347  1.00  0.00    -0.231 S  
HETATM   20  O   UNL     1      -6.303  16.968  67.292  1.00  0.00    -0.136 OA 
HETATM   21  O   UNL     1      -6.283  18.661  69.141  1.00  0.00    -0.237 OA 
BRANCH  19  22
HETATM   22  C   UNL     1      -8.391  18.500  67.684  1.00  0.00    -0.255 A  
HETATM   23  C   UNL     1      -8.197  19.409  66.652  1.00  0.00    -0.306 A  
HETATM   24  F   UNL     1      -6.962  19.783  66.288  1.00  0.00    -0.201 F  
HETATM   25  C   UNL     1      -9.283  19.948  65.960  1.00  0.00    -0.345 A  
HETATM   26  C   UNL     1     -10.580  19.573  66.305  1.00  0.00    -0.580 A  
HETATM   27  C   UNL     1     -10.778  18.678  67.356  1.00  0.00    -0.456 A  
HETATM   28  C   UNL     1      -9.683  18.142  68.040  1.00  0.00    -0.311 A  
HETATM   29  F   UNL     1      -9.934  17.262  69.016  1.00  0.00    -0.272 F  
ENDBRANCH  19  22
ENDBRANCH  17  19
ENDBRANCH  15  17
ENDBRANCH   7  10
BRANCH   8  30
HETATM   30  C   UNL     1     -10.678  11.848  68.875  1.00  0.00    -0.199 A  
HETATM   31  C   UNL     1     -12.109  13.338  69.847  1.00  0.00    -0.308 A  
HETATM   32  N   UNL     1     -11.203  13.087  68.893  1.00  0.00    -0.266 NA 
HETATM   33  N   UNL     1     -12.671  14.593  69.904  1.00  0.00    -0.569 NA 
HETATM   34  N   UNL     1     -12.572  12.445  70.727  1.00  0.00    -0.266 NA 
HETATM   35  C   UNL     1     -12.055  11.213  70.661  1.00  0.00    -0.379 A  
HETATM   36  H2  UNL     1     -12.403  15.316  69.236  1.00  0.00     0.000 HD 
HETATM   37  C   UNL     1     -11.093  10.859  69.753  1.00  0.00    -0.328 A  
HETATM   38  H1  UNL     1     -13.361  14.784  70.631  1.00  0.00     0.000 HD 
ENDBRANCH   8  30
ENDBRANCH   2   5
TORSDOF 6
ENDMDL
MODEL      100
REMARK 921   NORMALIZED FREE ENERGY PREDICTED BY IDOCK:   -6.33 KCAL/MOL
REMARK 922        TOTAL FREE ENERGY PREDICTED BY IDOCK:   -9.68 KCAL/MOL
REMARK 923 INTER-LIGAND FREE ENERGY PREDICTED BY IDOCK:   -8.60 KCAL/MOL
REMARK 924 INTRA-LIGAND FREE ENERGY PREDICTED BY IDOCK:   -1.08 KCAL/MOL
REMARK 927      BINDING AFFINITY PREDICTED BY RF-SCORE:    0.00 PKD
ROOT
HETATM    1  C   UNL     1     -11.380   9.519  71.220  1.00  0.00    -0.446 C  
HETATM    2  C   UNL     1     -10.246   8.770  70.499  1.00  0.00    -0.240 C  
HETATM    3  C   UNL     1     -10.821   7.431  69.979  1.00  0.00    -0.266 C  
HETATM    4  C   UNL     1      -9.147   8.460  71.541  1.00  0.00    -0.254 C  
ENDROOT
BRANCH   2   5
HETATM    5  C   UNL     1      -9.654   9.595  69.343  1.00  0.00    -0.191 A  
HETATM    6  N   UNL     1      -9.317  10.873  69.343  1.00  0.00    -0.007 NA 
HETATM    7  C   UNL     1      -8.776  11.268  68.095  1.00  0.00    -0.155 A  
HETATM    8  C   UNL     1      -8.775  10.257  67.136  1.00  0.00    -0.129 A  
HETATM    9  S   UNL     1      -9.337   8.798  67.863  1.00  0.00    -0.142 SA 
BRANCH   7  10
HETATM   10  C   UNL     1      -8.277  12.646  67.903  1.00  0.00    -0.170 A  
HETATM   11  C   UNL     1      -8.762  13.457  66.857  1.00  0.00    -0.142 A  
HETATM   12  C   UNL     1      -7.340  13.229  68.776  1.00  0.00    -0.070 A  
HETATM   13  F   UNL     1      -9.629  12.972  65.953  1.00  0.00    -0.258 F  
HETATM   14  C   UNL     1      -6.978  14.579  68.673  1.00  0.00    -0.103 A  
HETATM   15  C   UNL     1      -8.396  14.812  66.745  1.00  0.00    -0.079 A  
HETATM   16  C   UNL     1      -7.511  15.372  67.663  1.00  0.00    -0.195 A  
BRANCH  15  17
HETATM   17  N   UNL     1      -8.990  15.650  65.747  1.00  0.00    -0.331 N  
HETATM   18  H   UNL     1      -8.753  15.520  64.763  1.00  0.00     0.000 HD 
BRANCH  17  19
HETATM   19  S   UNL     1     -10.084  16.856  66.200  1.00  0.00    -0.319 S  
HETATM   20  O   UNL     1     -11.036  17.039  65.124  1.00  0.00    -0.528 OA 
HETATM   21  O   UNL     1      -9.292  17.976  66.663  1.00  0.00    -0.275 OA 
BRANCH  19  22
HETATM   22  C   UNL     1     -10.908  16.219  67.608  1.00  0.00    -0.293 A  
HETATM   23  C   UNL     1     -11.642  15.047  67.472  1.00  0.00    -0.301 A  
HETATM   24  F   UNL     1     -11.863  14.511  66.263  1.00  0.00    -0.363 F  
HETATM   25  C   UNL     1     -12.160  14.393  68.591  1.00  0.00    -0.274 A  
HETATM   26  C   UNL     1     -11.939  14.917  69.864  1.00  0.00    -0.376 A  
HETATM   27  C   UNL     1     -11.222  16.105  70.001  1.00  0.00    -0.359 A  
HETATM   28  C   UNL     1     -10.706  16.750  68.874  1.00  0.00    -0.333 A  
HETATM   29  F   UNL     1      -9.997  17.868  69.071  1.00  0.00    -0.328 F  
ENDBRANCH  19  22
ENDBRANCH  17  19
ENDBRANCH  15  17
ENDBRANCH   7  10
BRANCH   8  30
HETATM   30  C   UNL     1      -8.388  10.142  65.717  1.00  0.00    -0.145 A  
HETATM   31  C   UNL     1      -9.035   9.994  63.533  1.00  0.00    -0.256 A  
HETATM   32  N   UNL     1      -9.389  10.129  64.818  1.00  0.00    -0.244 NA 
HETATM   33  N   UNL     1     -10.026   9.973  62.578  1.00  0.00    -0.627 NA 
HETATM   34  N   UNL     1      -7.779   9.938  63.079  1.00  0.00    -0.133 NA 
HETATM   35  C   UNL     1      -6.806   9.988  63.996  1.00  0.00    -0.126 A  
HETATM   36  H2  UNL     1     -11.007  10.058  62.843  1.00  0.00     0.000 HD 
HETATM   37  C   UNL     1      -7.056  10.084  65.339  1.00  0.00    -0.138 A  
HETATM   38  H1  UNL     1      -9.756   9.869  61.600  1.00  0.00     0.000 HD 
ENDBRANCH   8  30
ENDBRANCH   2   5
TORSDOF 6
ENDMDL
MODEL      101
REMARK 921   NORMALIZED FREE ENERGY PREDICTED BY IDOCK:   -6.32 KCAL/MOL
REMARK 922        TOTAL FREE ENERGY PREDICTED BY IDOCK:   -9.67 KCAL/MOL
REMARK 923 INTER-LIGAND FREE ENERGY PREDICTED BY IDOCK:   -9.01 KCAL/MOL
REMARK 924 INTRA-LIGAND FREE ENERGY PREDICTED BY IDOCK:   -0.66 KCAL/MOL
REMARK 927      BINDING AFFINITY PREDICTED BY RF-SCORE:    0.00 PKD
ROOT
HETATM    1  C   UNL     1      -6.149  16.106  69.795  1.00  0.00    -0.181 C  
HETATM    2  C   UNL     1      -6.344  15.958  68.275  1.00  0.00    -0.121 C  
HETATM    3  C   UNL     1      -5.169  15.111  67.729  1.00  0.00    -0.062 C  
HETATM    4  C   UNL     1      -6.264  17.369  67.648  1.00  0.00    -0.164 C  
ENDROOT
BRANCH   2   5
HETATM    5  C   UNL     1      -7.693  15.306  67.927  1.00  0.00    -0.136 A  
HETATM    6  N   UNL     1      -8.372  14.413  68.628  1.00  0.00    -0.152 NA 
HETATM    7  C   UNL     1      -9.592  14.073  67.994  1.00  0.00    -0.217 A  
HETATM    8  C   UNL     1      -9.778  14.695  66.760  1.00  0.00    -0.257 A  
HETATM    9  S   UNL     1      -8.475  15.790  66.485  1.00  0.00    -0.276 SA 
BRANCH   7  10
HETATM   10  C   UNL     1     -10.532  13.136  68.643  1.00  0.00    -0.242 A  
HETATM   11  C   UNL     1     -10.444  11.746  68.424  1.00  0.00    -0.215 A  
HETATM   12  C   UNL     1     -11.519  13.574  69.545  1.00  0.00    -0.318 A  
HETATM   13  F   UNL     1      -9.557  11.240  67.550  1.00  0.00    -0.165 F  
HETATM   14  C   UNL     1     -12.314  12.671  70.264  1.00  0.00    -0.269 A  
HETATM   15  C   UNL     1     -11.244  10.835  69.138  1.00  0.00    -0.262 A  
HETATM   16  C   UNL     1     -12.171  11.301  70.067  1.00  0.00    -0.389 A  
BRANCH  15  17
HETATM   17  N   UNL     1     -11.058   9.422  68.987  1.00  0.00    -0.437 N  
HETATM   18  H   UNL     1     -11.742   8.869  68.471  1.00  0.00     0.000 HD 
BRANCH  17  19
HETATM   19  S   UNL     1      -9.703   8.673  69.665  1.00  0.00    -0.183 S  
HETATM   20  O   UNL     1      -8.925   9.675  70.362  1.00  0.00    -0.244 OA 
HETATM   21  O   UNL     1      -9.094   7.892  68.608  1.00  0.00    -0.137 OA 
BRANCH  19  22
HETATM   22  C   UNL     1     -10.347   7.523  70.818  1.00  0.00    -0.203 A  
HETATM   23  C   UNL     1     -10.086   7.724  72.169  1.00  0.00    -0.210 A  
HETATM   24  F   UNL     1      -9.221   8.667  72.569  1.00  0.00    -0.302 F  
HETATM   25  C   UNL     1     -10.724   6.955  73.143  1.00  0.00    -0.338 A  
HETATM   26  C   UNL     1     -11.637   5.973  72.762  1.00  0.00    -0.200 A  
HETATM   27  C   UNL     1     -11.884   5.755  71.407  1.00  0.00     0.269 A  
HETATM   28  C   UNL     1     -11.240   6.532  70.440  1.00  0.00    -0.355 A  
HETATM   29  F   UNL     1     -11.543   6.300  69.158  1.00  0.00    -0.458 F  
ENDBRANCH  19  22
ENDBRANCH  17  19
ENDBRANCH  15  17
ENDBRANCH   7  10
BRANCH   8  30
HETATM   30  C   UNL     1     -10.803  14.660  65.701  1.00  0.00    -0.331 A  
HETATM   31  C   UNL     1     -12.410  13.479  64.589  1.00  0.00    -0.372 A  
HETATM   32  N   UNL     1     -11.501  13.517  65.573  1.00  0.00    -0.301 NA 
HETATM   33  N   UNL     1     -13.146  12.329  64.420  1.00  0.00    -0.777 NA 
HETATM   34  N   UNL     1     -12.717  14.498  63.781  1.00  0.00    -0.678 NA 
HETATM   35  C   UNL     1     -12.029  15.632  63.956  1.00  0.00     0.087 A  
HETATM   36  H2  UNL     1     -13.002  11.523  65.029  1.00  0.00     0.000 HD 
HETATM   37  C   UNL     1     -11.049  15.767  64.903  1.00  0.00    -0.411 A  
HETATM   38  H1  UNL     1     -13.838  12.300  63.671  1.00  0.00     0.000 HD 
ENDBRANCH   8  30
ENDBRANCH   2   5
TORSDOF 6
ENDMDL
MODEL      102
REMARK 921   NORMALIZED FREE ENERGY PREDICTED BY IDOCK:   -6.30 KCAL/MOL
REMARK 922        TOTAL FREE ENERGY PREDICTED BY IDOCK:   -9.64 KCAL/MOL
REMARK 923 INTER-LIGAND FREE ENERGY PREDICTED BY IDOCK:   -9.17 KCAL/MOL
REMARK 924 INTRA-LIGAND FREE ENERGY PREDICTED BY IDOCK:   -0.47 KCAL/MOL
REMARK 927      BINDING AFFINITY PREDICTED BY RF-SCORE:    0.00 PKD
ROOT
HETATM    1  C   UNL     1     -10.160   5.158  70.785  1.00  0.00    -0.303 C  
HETATM    2  C   UNL     1     -10.361   6.189  71.910  1.00  0.00    -0.244 C  
HETATM    3  C   UNL     1      -9.148   6.088  72.865  1.00  0.00    -0.131 C  
HETATM    4  C   UNL     1     -11.635   5.793  72.691  1.00  0.00    -0.304 C  
ENDROOT
BRANCH   2   5
HETATM    5  C   UNL     1     -10.506   7.619  71.361  1.00  0.00    -0.208 A  
HETATM    6  N   UNL     1      -9.792   8.206  70.416  1.00  0.00    -0.186 NA 
HETATM    7  C   UNL     1     -10.246   9.523  70.163  1.00  0.00    -0.246 A  
HETATM    8  C   UNL     1     -11.288   9.930  70.997  1.00  0.00    -0.386 A  
HETATM    9  S   UNL     1     -11.756   8.602  71.992  1.00  0.00    -0.379 SA 
BRANCH   7  10
HETATM   10  C   UNL     1      -9.623  10.334  69.096  1.00  0.00    -0.229 A  
HETATM   11  C   UNL     1     -10.306  10.605  67.894  1.00  0.00    -0.199 A  
HETATM   12  C   UNL     1      -8.351  10.916  69.248  1.00  0.00    -0.023 A  
HETATM   13  F   UNL     1     -11.510  10.060  67.646  1.00  0.00    -0.331 F  
HETATM   14  C   UNL     1      -7.826  11.798  68.295  1.00  0.00    -0.137 A  
HETATM   15  C   UNL     1      -9.780  11.485  66.929  1.00  0.00    -0.186 A  
HETATM   16  C   UNL     1      -8.544  12.089  67.139  1.00  0.00    -0.182 A  
BRANCH  15  17
HETATM   17  N   UNL     1     -10.542  11.839  65.768  1.00  0.00    -0.259 N  
HETATM   18  H   UNL     1     -10.284  11.465  64.855  1.00  0.00     0.000 HD 
BRANCH  17  19
HETATM   19  S   UNL     1     -11.868  12.877  65.913  1.00  0.00    -0.442 S  
HETATM   20  O   UNL     1     -12.409  12.745  67.249  1.00  0.00    -0.335 OA 
HETATM   21  O   UNL     1     -12.712  12.627  64.763  1.00  0.00    -0.629 OA 
BRANCH  19  22
HETATM   22  C   UNL     1     -11.212  14.487  65.702  1.00  0.00    -0.335 A  
HETATM   23  C   UNL     1     -11.598  15.217  64.584  1.00  0.00    -0.333 A  
HETATM   24  F   UNL     1     -12.310  14.646  63.602  1.00  0.00    -0.396 F  
HETATM   25  C   UNL     1     -11.261  16.566  64.460  1.00  0.00    -0.033 A  
HETATM   26  C   UNL     1     -10.530  17.193  65.467  1.00  0.00    -0.158 A  
HETATM   27  C   UNL     1     -10.123  16.457  66.579  1.00  0.00    -0.304 A  
HETATM   28  C   UNL     1     -10.468  15.107  66.695  1.00  0.00    -0.287 A  
HETATM   29  F   UNL     1     -10.079  14.462  67.800  1.00  0.00    -0.219 F  
ENDBRANCH  19  22
ENDBRANCH  17  19
ENDBRANCH  15  17
ENDBRANCH   7  10
BRANCH   8  30
HETATM   30  C   UNL     1     -12.069  11.165  71.190  1.00  0.00    -0.196 A  
HETATM   31  C   UNL     1     -12.401  13.359  70.651  1.00  0.00    -0.348 A  
HETATM   32  N   UNL     1     -11.709  12.230  70.449  1.00  0.00    -0.166 NA 
HETATM   33  N   UNL     1     -12.065  14.473  69.917  1.00  0.00    -0.318 NA 
HETATM   34  N   UNL     1     -13.448  13.488  71.471  1.00  0.00    -0.288 NA 
HETATM   35  C   UNL     1     -13.803  12.402  72.167  1.00  0.00    -0.016 A  
HETATM   36  H2  UNL     1     -11.307  14.441  69.235  1.00  0.00     0.000 HD 
HETATM   37  C   UNL     1     -13.139  11.208  72.070  1.00  0.00    -0.433 A  
HETATM   38  H1  UNL     1     -12.592  15.333  70.070  1.00  0.00     0.000 HD 
ENDBRANCH   8  30
ENDBRANCH   2   5
TORSDOF 6
ENDMDL
MODEL      103
REMARK 921   NORMALIZED FREE ENERGY PREDICTED BY IDOCK:   -6.28 KCAL/MOL
REMARK 922        TOTAL FREE ENERGY PREDICTED BY IDOCK:   -9.60 KCAL/MOL
REMARK 923 INTER-LIGAND FREE ENERGY PREDICTED BY IDOCK:   -8.60 KCAL/MOL
REMARK 924 INTRA-LIGAND FREE ENERGY PREDICTED BY IDOCK:   -1.01 KCAL/MOL
REMARK 927      BINDING AFFINITY PREDICTED BY RF-SCORE:    0.00 PKD
ROOT
HETATM    1  C   UNL     1      -5.973   5.599  70.514  1.00  0.00    -0.025 C  
HETATM    2  C   UNL     1      -7.455   5.354  70.853  1.00  0.00    -0.087 C  
HETATM    3  C   UNL     1      -7.550   5.070  72.371  1.00  0.00    -0.095 C  
HETATM    4  C   UNL     1      -7.913   4.092  70.088  1.00  0.00    -0.051 C  
ENDROOT
BRANCH   2   5
HETATM    5  C   UNL     1      -8.340   6.552  70.465  1.00  0.00    -0.133 A  
HETATM    6  N   UNL     1      -8.264   7.304  69.381  1.00  0.00    -0.130 NA 
HETATM    7  C   UNL     1      -9.275   8.295  69.364  1.00  0.00    -0.155 A  
HETATM    8  C   UNL     1     -10.075   8.303  70.506  1.00  0.00    -0.195 A  
HETATM    9  S   UNL     1      -9.620   6.982  71.515  1.00  0.00    -0.156 SA 
BRANCH   7  10
HETATM   10  C   UNL     1      -9.407   9.205  68.206  1.00  0.00    -0.141 A  
HETATM   11  C   UNL     1      -8.914  10.524  68.256  1.00  0.00    -0.139 A  
HETATM   12  C   UNL     1      -9.980   8.787  66.991  1.00  0.00    -0.307 A  
HETATM   13  F   UNL     1      -8.386  11.022  69.387  1.00  0.00    -0.123 F  
HETATM   14  C   UNL     1      -9.974   9.605  65.854  1.00  0.00    -0.351 A  
HETATM   15  C   UNL     1      -8.913  11.354  67.119  1.00  0.00    -0.162 A  
HETATM   16  C   UNL     1      -9.434  10.886  65.915  1.00  0.00    -0.241 A  
BRANCH  15  17
HETATM   17  N   UNL     1      -8.300  12.648  67.158  1.00  0.00    -0.230 N  
HETATM   18  H   UNL     1      -7.333  12.765  66.857  1.00  0.00     0.000 HD 
BRANCH  17  19
HETATM   19  S   UNL     1      -9.183  13.983  67.703  1.00  0.00    -0.204 S  
HETATM   20  O   UNL     1      -8.267  15.086  67.906  1.00  0.00    -0.131 OA 
HETATM   21  O   UNL     1     -10.002  13.513  68.800  1.00  0.00    -0.182 OA 
BRANCH  19  22
HETATM   22  C   UNL     1     -10.283  14.367  66.396  1.00  0.00    -0.289 A  
HETATM   23  C   UNL     1     -11.527  13.747  66.373  1.00  0.00    -0.336 A  
HETATM   24  F   UNL     1     -11.814  12.752  67.224  1.00  0.00    -0.371 F  
HETATM   25  C   UNL     1     -12.511  14.151  65.471  1.00  0.00    -0.495 A  
HETATM   26  C   UNL     1     -12.250  15.190  64.579  1.00  0.00    -0.278 A  
HETATM   27  C   UNL     1     -10.995  15.799  64.585  1.00  0.00    -0.333 A  
HETATM   28  C   UNL     1     -10.018  15.388  65.494  1.00  0.00    -0.344 A  
HETATM   29  F   UNL     1      -8.845  16.032  65.476  1.00  0.00    -0.256 F  
ENDBRANCH  19  22
ENDBRANCH  17  19
ENDBRANCH  15  17
ENDBRANCH   7  10
BRANCH   8  30
HETATM   30  C   UNL     1     -11.194   9.121  71.009  1.00  0.00    -0.312 A  
HETATM   31  C   UNL     1     -12.220  11.158  71.111  1.00  0.00    -0.282 A  
HETATM   32  N   UNL     1     -11.219  10.411  70.627  1.00  0.00    -0.321 NA 
HETATM   33  N   UNL     1     -12.284  12.484  70.748  1.00  0.00    -0.449 NA 
HETATM   34  N   UNL     1     -13.217  10.710  71.881  1.00  0.00    -0.462 NA 
HETATM   35  C   UNL     1     -13.182   9.415  72.215  1.00  0.00    -0.446 A  
HETATM   36  H2  UNL     1     -11.585  12.889  70.125  1.00  0.00     0.000 HD 
HETATM   37  C   UNL     1     -12.183   8.570  71.810  1.00  0.00    -0.388 A  
HETATM   38  H1  UNL     1     -13.046  13.053  71.118  1.00  0.00     0.000 HD 
ENDBRANCH   8  30
ENDBRANCH   2   5
TORSDOF 6
ENDMDL
MODEL      104
REMARK 921   NORMALIZED FREE ENERGY PREDICTED BY IDOCK:   -6.26 KCAL/MOL
REMARK 922        TOTAL FREE ENERGY PREDICTED BY IDOCK:   -9.59 KCAL/MOL
REMARK 923 INTER-LIGAND FREE ENERGY PREDICTED BY IDOCK:   -8.90 KCAL/MOL
REMARK 924 INTRA-LIGAND FREE ENERGY PREDICTED BY IDOCK:   -0.69 KCAL/MOL
REMARK 927      BINDING AFFINITY PREDICTED BY RF-SCORE:    0.00 PKD
ROOT
HETATM    1  C   UNL     1     -11.118   6.210  67.067  1.00  0.00    -0.332 C  
HETATM    2  C   UNL     1     -10.418   6.618  68.376  1.00  0.00    -0.248 C  
HETATM    3  C   UNL     1      -9.191   5.693  68.562  1.00  0.00    -0.131 C  
HETATM    4  C   UNL     1     -11.404   6.363  69.539  1.00  0.00    -0.460 C  
ENDROOT
BRANCH   2   5
HETATM    5  C   UNL     1      -9.991   8.096  68.365  1.00  0.00    -0.190 A  
HETATM    6  N   UNL     1     -10.748   9.164  68.545  1.00  0.00    -0.164 NA 
HETATM    7  C   UNL     1      -9.985  10.356  68.495  1.00  0.00    -0.167 A  
HETATM    8  C   UNL     1      -8.636  10.151  68.208  1.00  0.00    -0.116 A  
HETATM    9  S   UNL     1      -8.334   8.455  68.134  1.00  0.00    -0.128 SA 
BRANCH   7  10
HETATM   10  C   UNL     1     -10.631  11.664  68.735  1.00  0.00    -0.241 A  
HETATM   11  C   UNL     1     -10.635  12.667  67.745  1.00  0.00    -0.220 A  
HETATM   12  C   UNL     1     -11.312  11.952  69.932  1.00  0.00    -0.175 A  
HETATM   13  F   UNL     1      -9.977  12.496  66.586  1.00  0.00    -0.218 F  
HETATM   14  C   UNL     1     -12.042  13.136  70.099  1.00  0.00    -0.392 A  
HETATM   15  C   UNL     1     -11.360  13.863  67.910  1.00  0.00    -0.292 A  
HETATM   16  C   UNL     1     -12.072  14.088  69.085  1.00  0.00    -0.375 A  
BRANCH  15  17
HETATM   17  N   UNL     1     -11.448  14.818  66.846  1.00  0.00    -0.358 N  
HETATM   18  H   UNL     1     -12.334  14.964  66.362  1.00  0.00     0.000 HD 
BRANCH  17  19
HETATM   19  S   UNL     1     -10.082  15.705  66.393  1.00  0.00    -0.307 S  
HETATM   20  O   UNL     1     -10.067  15.817  64.949  1.00  0.00    -0.399 OA 
HETATM   21  O   UNL     1      -8.957  15.107  67.082  1.00  0.00    -0.191 OA 
BRANCH  19  22
HETATM   22  C   UNL     1     -10.310  17.289  67.102  1.00  0.00    -0.321 A  
HETATM   23  C   UNL     1      -9.998  17.464  68.445  1.00  0.00    -0.329 A  
HETATM   24  F   UNL     1      -9.698  16.415  69.224  1.00  0.00    -0.237 F  
HETATM   25  C   UNL     1      -9.978  18.738  69.015  1.00  0.00    -0.348 A  
HETATM   26  C   UNL     1     -10.274  19.852  68.231  1.00  0.00    -0.562 A  
HETATM   27  C   UNL     1     -10.610  19.677  66.889  1.00  0.00    -0.603 A  
HETATM   28  C   UNL     1     -10.623  18.397  66.328  1.00  0.00    -0.311 A  
HETATM   29  F   UNL     1     -10.919  18.295  65.028  1.00  0.00    -0.364 F  
ENDBRANCH  19  22
ENDBRANCH  17  19
ENDBRANCH  15  17
ENDBRANCH   7  10
BRANCH   8  30
HETATM   30  C   UNL     1      -7.456  11.008  67.998  1.00  0.00    -0.090 A  
HETATM   31  C   UNL     1      -6.173  12.758  68.711  1.00  0.00    -0.075 A  
HETATM   32  N   UNL     1      -7.229  11.961  68.921  1.00  0.00    -0.112 NA 
HETATM   33  N   UNL     1      -5.905  13.748  69.628  1.00  0.00    -0.100 NA 
HETATM   34  N   UNL     1      -5.304  12.639  67.703  1.00  0.00    -0.116 NA 
HETATM   35  C   UNL     1      -5.537  11.660  66.821  1.00  0.00    -0.134 A  
HETATM   36  H2  UNL     1      -6.497  13.872  70.450  1.00  0.00     0.000 HD 
HETATM   37  C   UNL     1      -6.610  10.814  66.917  1.00  0.00    -0.091 A  
HETATM   38  H1  UNL     1      -5.101  14.355  69.468  1.00  0.00     0.000 HD 
ENDBRANCH   8  30
ENDBRANCH   2   5
TORSDOF 6
ENDMDL
MODEL      105
REMARK 921   NORMALIZED FREE ENERGY PREDICTED BY IDOCK:   -6.21 KCAL/MOL
REMARK 922        TOTAL FREE ENERGY PREDICTED BY IDOCK:   -9.52 KCAL/MOL
REMARK 923 INTER-LIGAND FREE ENERGY PREDICTED BY IDOCK:   -8.74 KCAL/MOL
REMARK 924 INTRA-LIGAND FREE ENERGY PREDICTED BY IDOCK:   -0.77 KCAL/MOL
REMARK 927      BINDING AFFINITY PREDICTED BY RF-SCORE:    0.00 PKD
ROOT
HETATM    1  C   UNL     1      -5.568   6.863  69.465  1.00  0.00    -0.015 C  
HETATM    2  C   UNL     1      -6.432   7.239  70.683  1.00  0.00    -0.043 C  
HETATM    3  C   UNL     1      -5.518   7.955  71.706  1.00  0.00    -0.035 C  
HETATM    4  C   UNL     1      -6.947   5.928  71.319  1.00  0.00    -0.068 C  
ENDROOT
BRANCH   2   5
HETATM    5  C   UNL     1      -7.620   8.135  70.292  1.00  0.00    -0.080 A  
HETATM    6  N   UNL     1      -7.805   8.797  69.163  1.00  0.00    -0.096 NA 
HETATM    7  C   UNL     1      -9.041   9.489  69.163  1.00  0.00    -0.152 A  
HETATM    8  C   UNL     1      -9.751   9.376  70.358  1.00  0.00    -0.261 A  
HETATM    9  S   UNL     1      -8.908   8.296  71.406  1.00  0.00    -0.179 SA 
BRANCH   7  10
HETATM   10  C   UNL     1      -9.471  10.244  67.968  1.00  0.00    -0.156 A  
HETATM   11  C   UNL     1      -9.417  11.652  67.936  1.00  0.00    -0.181 A  
HETATM   12  C   UNL     1      -9.904   9.600  66.794  1.00  0.00    -0.270 A  
HETATM   13  F   UNL     1      -9.053  12.353  69.023  1.00  0.00     0.021 F  
HETATM   14  C   UNL     1     -10.175  10.312  65.619  1.00  0.00    -0.301 A  
HETATM   15  C   UNL     1      -9.695  12.374  66.760  1.00  0.00    -0.223 A  
HETATM   16  C   UNL     1     -10.063  11.699  65.599  1.00  0.00    -0.278 A  
BRANCH  15  17
HETATM   17  N   UNL     1      -9.520  13.795  66.715  1.00  0.00    -0.267 N  
HETATM   18  H   UNL     1      -8.584  14.197  66.767  1.00  0.00     0.000 HD 
BRANCH  17  19
HETATM   19  S   UNL     1     -10.867  14.807  66.576  1.00  0.00    -0.324 S  
HETATM   20  O   UNL     1     -11.911  14.302  67.442  1.00  0.00    -0.395 OA 
HETATM   21  O   UNL     1     -11.117  14.965  65.158  1.00  0.00    -0.350 OA 
BRANCH  19  22
HETATM   22  C   UNL     1     -10.327  16.368  67.158  1.00  0.00    -0.290 A  
HETATM   23  C   UNL     1      -9.811  16.452  68.446  1.00  0.00    -0.233 A  
HETATM   24  F   UNL     1      -9.885  15.409  69.285  1.00  0.00    -0.201 F  
HETATM   25  C   UNL     1      -9.195  17.621  68.895  1.00  0.00    -0.143 A  
HETATM   26  C   UNL     1      -9.091  18.720  68.045  1.00  0.00    -0.328 A  
HETATM   27  C   UNL     1      -9.628  18.646  66.760  1.00  0.00    -0.332 A  
HETATM   28  C   UNL     1     -10.241  17.470  66.320  1.00  0.00    -0.355 A  
HETATM   29  F   UNL     1     -10.707  17.447  65.066  1.00  0.00    -0.301 F  
ENDBRANCH  19  22
ENDBRANCH  17  19
ENDBRANCH  15  17
ENDBRANCH   7  10
BRANCH   8  30
HETATM   30  C   UNL     1     -11.016   9.911  70.893  1.00  0.00    -0.322 A  
HETATM   31  C   UNL     1     -12.833   9.618  72.244  1.00  0.00    -0.325 A  
HETATM   32  N   UNL     1     -11.669   9.142  71.783  1.00  0.00    -0.369 NA 
HETATM   33  N   UNL     1     -13.537   8.863  73.154  1.00  0.00    -0.998 NA 
HETATM   34  N   UNL     1     -13.354  10.811  71.940  1.00  0.00    -0.403 NA 
HETATM   35  C   UNL     1     -12.663  11.567  71.080  1.00  0.00    -0.328 A  
HETATM   36  H2  UNL     1     -13.180   7.961  73.471  1.00  0.00     0.000 HD 
HETATM   37  C   UNL     1     -11.483  11.161  70.516  1.00  0.00    -0.162 A  
HETATM   38  H1  UNL     1     -14.423   9.226  73.504  1.00  0.00     0.000 HD 
ENDBRANCH   8  30
ENDBRANCH   2   5
TORSDOF 6
ENDMDL
MODEL      106
REMARK 921   NORMALIZED FREE ENERGY PREDICTED BY IDOCK:   -6.20 KCAL/MOL
REMARK 922        TOTAL FREE ENERGY PREDICTED BY IDOCK:   -9.50 KCAL/MOL
REMARK 923 INTER-LIGAND FREE ENERGY PREDICTED BY IDOCK:   -9.32 KCAL/MOL
REMARK 924 INTRA-LIGAND FREE ENERGY PREDICTED BY IDOCK:   -0.18 KCAL/MOL
REMARK 927      BINDING AFFINITY PREDICTED BY RF-SCORE:    0.00 PKD
ROOT
HETATM    1  C   UNL     1     -12.376   8.472  72.397  1.00  0.00    -0.424 C  
HETATM    2  C   UNL     1     -11.170   7.589  72.031  1.00  0.00    -0.298 C  
HETATM    3  C   UNL     1     -11.483   6.147  72.497  1.00  0.00    -0.318 C  
HETATM    4  C   UNL     1      -9.947   8.106  72.824  1.00  0.00    -0.361 C  
ENDROOT
BRANCH   2   5
HETATM    5  C   UNL     1     -10.868   7.622  70.523  1.00  0.00    -0.241 A  
HETATM    6  N   UNL     1     -10.928   8.656  69.702  1.00  0.00    -0.153 NA 
HETATM    7  C   UNL     1     -10.547   8.298  68.386  1.00  0.00    -0.099 A  
HETATM    8  C   UNL     1     -10.260   6.942  68.231  1.00  0.00    -0.180 A  
HETATM    9  S   UNL     1     -10.351   6.174  69.772  1.00  0.00    -0.235 SA 
BRANCH   7  10
HETATM   10  C   UNL     1     -10.483   9.324  67.324  1.00  0.00    -0.334 A  
HETATM   11  C   UNL     1     -11.007  10.616  67.526  1.00  0.00    -0.310 A  
HETATM   12  C   UNL     1      -9.856   9.081  66.088  1.00  0.00    -0.349 A  
HETATM   13  F   UNL     1     -11.657  10.927  68.660  1.00  0.00    -0.294 F  
HETATM   14  C   UNL     1      -9.673  10.097  65.141  1.00  0.00    -0.370 A  
HETATM   15  C   UNL     1     -10.833  11.640  66.576  1.00  0.00    -0.284 A  
HETATM   16  C   UNL     1     -10.155  11.379  65.388  1.00  0.00    -0.308 A  
BRANCH  15  17
HETATM   17  N   UNL     1     -11.269  12.976  66.851  1.00  0.00    -0.284 N  
HETATM   18  H   UNL     1     -12.045  13.379  66.325  1.00  0.00     0.000 HD 
BRANCH  17  19
HETATM   19  S   UNL     1     -10.497  13.887  68.048  1.00  0.00    -0.248 S  
HETATM   20  O   UNL     1      -9.188  13.316  68.284  1.00  0.00    -0.206 OA 
HETATM   21  O   UNL     1     -11.439  14.012  69.140  1.00  0.00    -0.259 OA 
BRANCH  19  22
HETATM   22  C   UNL     1     -10.322  15.488  67.361  1.00  0.00    -0.266 A  
HETATM   23  C   UNL     1      -9.940  16.529  68.199  1.00  0.00    -0.248 A  
HETATM   24  F   UNL     1      -9.877  16.355  69.527  1.00  0.00    -0.238 F  
HETATM   25  C   UNL     1      -9.603  17.779  67.679  1.00  0.00    -0.266 A  
HETATM   26  C   UNL     1      -9.648  17.992  66.302  1.00  0.00    -0.246 A  
HETATM   27  C   UNL     1     -10.053  16.956  65.461  1.00  0.00    -0.081 A  
HETATM   28  C   UNL     1     -10.386  15.707  65.993  1.00  0.00    -0.335 A  
HETATM   29  F   UNL     1     -10.734  14.742  65.135  1.00  0.00    -0.318 F  
ENDBRANCH  19  22
ENDBRANCH  17  19
ENDBRANCH  15  17
ENDBRANCH   7  10
BRANCH   8  30
HETATM   30  C   UNL     1      -9.878   6.061  67.112  1.00  0.00    -0.142 A  
HETATM   31  C   UNL     1     -10.533   4.710  65.392  1.00  0.00    -0.143 A  
HETATM   32  N   UNL     1     -10.883   5.535  66.388  1.00  0.00    -0.219 NA 
HETATM   33  N   UNL     1     -11.528   4.147  64.627  1.00  0.00    -0.879 NA 
HETATM   34  N   UNL     1      -9.278   4.427  65.028  1.00  0.00    -0.151 NA 
HETATM   35  C   UNL     1      -8.301   4.994  65.746  1.00  0.00    -0.118 A  
HETATM   36  H2  UNL     1     -12.509   4.352  64.814  1.00  0.00     0.000 HD 
HETATM   37  C   UNL     1      -8.546   5.820  66.811  1.00  0.00    -0.112 A  
HETATM   38  H1  UNL     1     -11.261   3.519  63.868  1.00  0.00     0.000 HD 
ENDBRANCH   8  30
ENDBRANCH   2   5
TORSDOF 6
ENDMDL
MODEL      107
REMARK 921   NORMALIZED FREE ENERGY PREDICTED BY IDOCK:   -6.18 KCAL/MOL
REMARK 922        TOTAL FREE ENERGY PREDICTED BY IDOCK:   -9.48 KCAL/MOL
REMARK 923 INTER-LIGAND FREE ENERGY PREDICTED BY IDOCK:   -7.78 KCAL/MOL
REMARK 924 INTRA-LIGAND FREE ENERGY PREDICTED BY IDOCK:   -1.70 KCAL/MOL
REMARK 927      BINDING AFFINITY PREDICTED BY RF-SCORE:    0.00 PKD
ROOT
HETATM    1  C   UNL     1     -10.457  13.913  64.736  1.00  0.00    -0.451 C  
HETATM    2  C   UNL     1     -11.315  12.678  65.064  1.00  0.00    -0.345 C  
HETATM    3  C   UNL     1     -11.619  11.947  63.735  1.00  0.00    -0.555 C  
HETATM    4  C   UNL     1     -12.650  13.176  65.666  1.00  0.00    -0.414 C  
ENDROOT
BRANCH   2   5
HETATM    5  C   UNL     1     -10.613  11.736  66.057  1.00  0.00    -0.260 A  
HETATM    6  N   UNL     1     -11.085  10.628  66.602  1.00  0.00    -0.100 NA 
HETATM    7  C   UNL     1     -10.127  10.015  67.447  1.00  0.00    -0.208 A  
HETATM    8  C   UNL     1      -8.939  10.735  67.567  1.00  0.00    -0.132 A  
HETATM    9  S   UNL     1      -9.005  12.100  66.516  1.00  0.00    -0.137 SA 
BRANCH   7  10
HETATM   10  C   UNL     1     -10.431   8.728  68.107  1.00  0.00    -0.243 A  
HETATM   11  C   UNL     1     -10.734   8.669  69.483  1.00  0.00    -0.182 A  
HETATM   12  C   UNL     1     -10.486   7.517  67.393  1.00  0.00    -0.367 A  
HETATM   13  F   UNL     1     -10.669   9.769  70.252  1.00  0.00    -0.251 F  
HETATM   14  C   UNL     1     -10.913   6.326  67.994  1.00  0.00    -0.418 A  
HETATM   15  C   UNL     1     -11.156   7.473  70.094  1.00  0.00    -0.231 A  
HETATM   16  C   UNL     1     -11.255   6.305  69.342  1.00  0.00    -0.489 A  
BRANCH  15  17
HETATM   17  N   UNL     1     -11.571   7.459  71.465  1.00  0.00    -0.265 N  
HETATM   18  H   UNL     1     -12.402   7.975  71.752  1.00  0.00     0.000 HD 
BRANCH  17  19
HETATM   19  S   UNL     1     -10.683   6.583  72.606  1.00  0.00    -0.242 S  
HETATM   20  O   UNL     1     -11.178   5.223  72.627  1.00  0.00    -0.261 OA 
HETATM   21  O   UNL     1     -10.685   7.372  73.820  1.00  0.00    -0.331 OA 
BRANCH  19  22
HETATM   22  C   UNL     1      -9.036   6.598  72.012  1.00  0.00    -0.139 A  
HETATM   23  C   UNL     1      -8.305   7.776  72.116  1.00  0.00    -0.117 A  
HETATM   24  F   UNL     1      -8.894   8.919  72.496  1.00  0.00    -0.267 F  
HETATM   25  C   UNL     1      -6.938   7.797  71.836  1.00  0.00    -0.066 A  
HETATM   26  C   UNL     1      -6.292   6.625  71.448  1.00  0.00    -0.042 A  
HETATM   27  C   UNL     1      -7.027   5.447  71.321  1.00  0.00    -0.058 A  
HETATM   28  C   UNL     1      -8.395   5.437  71.606  1.00  0.00    -0.119 A  
HETATM   29  F   UNL     1      -9.041   4.269  71.500  1.00  0.00    -0.133 F  
ENDBRANCH  19  22
ENDBRANCH  17  19
ENDBRANCH  15  17
ENDBRANCH   7  10
BRANCH   8  30
HETATM   30  C   UNL     1      -7.682  10.586  68.324  1.00  0.00    -0.101 A  
HETATM   31  C   UNL     1      -6.282  11.383  69.941  1.00  0.00    -0.143 A  
HETATM   32  N   UNL     1      -7.439  11.504  69.277  1.00  0.00    -0.028 NA 
HETATM   33  N   UNL     1      -5.990  12.301  70.924  1.00  0.00    -0.534 NA 
HETATM   34  N   UNL     1      -5.395  10.397  69.775  1.00  0.00    -0.038 NA 
HETATM   35  C   UNL     1      -5.682   9.481  68.843  1.00  0.00    -0.036 A  
HETATM   36  H2  UNL     1      -6.641  13.057  71.142  1.00  0.00     0.000 HD 
HETATM   37  C   UNL     1      -6.817   9.531  68.077  1.00  0.00    -0.074 A  
HETATM   38  H1  UNL     1      -5.109  12.209  71.429  1.00  0.00     0.000 HD 
ENDBRANCH   8  30
ENDBRANCH   2   5
TORSDOF 6
ENDMDL
MODEL      108
REMARK 921   NORMALIZED FREE ENERGY PREDICTED BY IDOCK:   -6.17 KCAL/MOL
REMARK 922        TOTAL FREE ENERGY PREDICTED BY IDOCK:   -9.47 KCAL/MOL
REMARK 923 INTER-LIGAND FREE ENERGY PREDICTED BY IDOCK:   -8.81 KCAL/MOL
REMARK 924 INTRA-LIGAND FREE ENERGY PREDICTED BY IDOCK:   -0.65 KCAL/MOL
REMARK 927      BINDING AFFINITY PREDICTED BY RF-SCORE:    0.00 PKD
ROOT
HETATM    1  C   UNL     1      -7.851   8.396  68.889  1.00  0.00    -0.113 C  
HETATM    2  C   UNL     1      -9.158   8.405  68.076  1.00  0.00    -0.140 C  
HETATM    3  C   UNL     1     -10.243   7.694  68.919  1.00  0.00    -0.217 C  
HETATM    4  C   UNL     1      -8.920   7.582  66.789  1.00  0.00    -0.164 C  
ENDROOT
BRANCH   2   5
HETATM    5  C   UNL     1      -9.600   9.832  67.710  1.00  0.00    -0.135 A  
HETATM    6  N   UNL     1      -9.451  10.938  68.419  1.00  0.00    -0.171 NA 
HETATM    7  C   UNL     1      -9.961  12.068  67.734  1.00  0.00    -0.195 A  
HETATM    8  C   UNL     1     -10.557  11.763  66.510  1.00  0.00    -0.253 A  
HETATM    9  S   UNL     1     -10.347  10.081  66.192  1.00  0.00    -0.099 SA 
BRANCH   7  10
HETATM   10  C   UNL     1      -9.838  13.416  68.325  1.00  0.00    -0.235 A  
HETATM   11  C   UNL     1      -8.598  14.085  68.363  1.00  0.00    -0.174 A  
HETATM   12  C   UNL     1     -10.951  14.116  68.827  1.00  0.00    -0.275 A  
HETATM   13  F   UNL     1      -7.475  13.480  67.942  1.00  0.00    -0.099 F  
HETATM   14  C   UNL     1     -10.854  15.446  69.256  1.00  0.00    -0.253 A  
HETATM   15  C   UNL     1      -8.493  15.419  68.799  1.00  0.00    -0.188 A  
HETATM   16  C   UNL     1      -9.627  16.101  69.234  1.00  0.00    -0.235 A  
BRANCH  15  17
HETATM   17  N   UNL     1      -7.246  16.119  68.720  1.00  0.00    -0.158 N  
HETATM   18  H   UNL     1      -6.714  16.314  69.569  1.00  0.00     0.000 HD 
BRANCH  17  19
HETATM   19  S   UNL     1      -6.654  16.623  67.219  1.00  0.00    -0.195 S  
HETATM   20  O   UNL     1      -7.645  16.312  66.209  1.00  0.00    -0.189 OA 
HETATM   21  O   UNL     1      -5.314  16.088  67.105  1.00  0.00    -0.326 OA 
BRANCH  19  22
HETATM   22  C   UNL     1      -6.482  18.360  67.356  1.00  0.00    -0.190 A  
HETATM   23  C   UNL     1      -6.821  19.147  66.262  1.00  0.00    -0.217 A  
HETATM   24  F   UNL     1      -7.105  18.590  65.076  1.00  0.00    -0.112 F  
HETATM   25  C   UNL     1      -6.885  20.537  66.372  1.00  0.00    -0.301 A  
HETATM   26  C   UNL     1      -6.607  21.148  67.594  1.00  0.00    -0.381 A  
HETATM   27  C   UNL     1      -6.244  20.362  68.687  1.00  0.00    -0.354 A  
HETATM   28  C   UNL     1      -6.186  18.971  68.565  1.00  0.00    -0.225 A  
HETATM   29  F   UNL     1      -5.865  18.268  69.657  1.00  0.00    -0.207 F  
ENDBRANCH  19  22
ENDBRANCH  17  19
ENDBRANCH  15  17
ENDBRANCH   7  10
BRANCH   8  30
HETATM   30  C   UNL     1     -11.260  12.518  65.457  1.00  0.00    -0.314 A  
HETATM   31  C   UNL     1     -11.695  14.531  64.470  1.00  0.00    -0.410 A  
HETATM   32  N   UNL     1     -11.030  13.843  65.409  1.00  0.00    -0.306 NA 
HETATM   33  N   UNL     1     -11.492  15.889  64.386  1.00  0.00    -0.699 NA 
HETATM   34  N   UNL     1     -12.506  13.998  63.551  1.00  0.00    -0.799 NA 
HETATM   35  C   UNL     1     -12.686  12.673  63.604  1.00  0.00    -0.223 A  
HETATM   36  H2  UNL     1     -10.851  16.362  65.023  1.00  0.00     0.000 HD 
HETATM   37  C   UNL     1     -12.089  11.880  64.548  1.00  0.00    -0.259 A  
HETATM   38  H1  UNL     1     -11.999  16.412  63.671  1.00  0.00     0.000 HD 
ENDBRANCH   8  30
ENDBRANCH   2   5
TORSDOF 6
ENDMDL
MODEL      109
REMARK 921   NORMALIZED FREE ENERGY PREDICTED BY IDOCK:   -6.17 KCAL/MOL
REMARK 922        TOTAL FREE ENERGY PREDICTED BY IDOCK:   -9.46 KCAL/MOL
REMARK 923 INTER-LIGAND FREE ENERGY PREDICTED BY IDOCK:   -9.16 KCAL/MOL
REMARK 924 INTRA-LIGAND FREE ENERGY PREDICTED BY IDOCK:   -0.31 KCAL/MOL
REMARK 927      BINDING AFFINITY PREDICTED BY RF-SCORE:    0.00 PKD
ROOT
HETATM    1  C   UNL     1     -10.306  18.741  66.340  1.00  0.00    -0.489 C  
HETATM    2  C   UNL     1      -9.297  18.027  67.257  1.00  0.00    -0.256 C  
HETATM    3  C   UNL     1      -8.780  19.061  68.285  1.00  0.00    -0.366 C  
HETATM    4  C   UNL     1      -8.108  17.567  66.384  1.00  0.00    -0.309 C  
ENDROOT
BRANCH   2   5
HETATM    5  C   UNL     1      -9.923  16.815  67.970  1.00  0.00    -0.272 A  
HETATM    6  N   UNL     1      -9.884  15.545  67.606  1.00  0.00    -0.213 NA 
HETATM    7  C   UNL     1     -10.553  14.716  68.538  1.00  0.00    -0.245 A  
HETATM    8  C   UNL     1     -11.153  15.415  69.585  1.00  0.00    -0.276 A  
HETATM    9  S   UNL     1     -10.753  17.086  69.442  1.00  0.00    -0.039 SA 
BRANCH   7  10
HETATM   10  C   UNL     1     -10.573  13.250  68.352  1.00  0.00    -0.263 A  
HETATM   11  C   UNL     1      -9.399  12.482  68.487  1.00  0.00    -0.082 A  
HETATM   12  C   UNL     1     -11.762  12.547  68.085  1.00  0.00    -0.400 A  
HETATM   13  F   UNL     1      -8.210  13.071  68.703  1.00  0.00    -0.145 F  
HETATM   14  C   UNL     1     -11.800  11.147  68.050  1.00  0.00    -0.203 A  
HETATM   15  C   UNL     1      -9.428  11.076  68.445  1.00  0.00    -0.182 A  
HETATM   16  C   UNL     1     -10.634  10.411  68.238  1.00  0.00    -0.245 A  
BRANCH  15  17
HETATM   17  N   UNL     1      -8.245  10.311  68.701  1.00  0.00    -0.110 N  
HETATM   18  H   UNL     1      -7.692  10.490  69.540  1.00  0.00     0.000 HD 
BRANCH  17  19
HETATM   19  S   UNL     1      -7.765   9.109  67.613  1.00  0.00    -0.089 S  
HETATM   20  O   UNL     1      -6.413   8.707  67.943  1.00  0.00    -0.056 OA 
HETATM   21  O   UNL     1      -8.067   9.611  66.289  1.00  0.00    -0.110 OA 
BRANCH  19  22
HETATM   22  C   UNL     1      -8.860   7.773  67.896  1.00  0.00    -0.123 A  
HETATM   23  C   UNL     1      -8.928   7.232  69.174  1.00  0.00    -0.135 A  
HETATM   24  F   UNL     1      -8.057   7.601  70.124  1.00  0.00    -0.108 F  
HETATM   25  C   UNL     1      -9.912   6.299  69.505  1.00  0.00    -0.198 A  
HETATM   26  C   UNL     1     -10.840   5.901  68.545  1.00  0.00    -0.323 A  
HETATM   27  C   UNL     1     -10.760   6.426  67.255  1.00  0.00    -0.426 A  
HETATM   28  C   UNL     1      -9.773   7.361  66.936  1.00  0.00    -0.205 A  
HETATM   29  F   UNL     1      -9.767   7.855  65.692  1.00  0.00    -0.055 F  
ENDBRANCH  19  22
ENDBRANCH  17  19
ENDBRANCH  15  17
ENDBRANCH   7  10
BRANCH   8  30
HETATM   30  C   UNL     1     -11.983  15.066  70.753  1.00  0.00    -0.318 A  
HETATM   31  C   UNL     1     -12.589  15.513  72.909  1.00  0.00    -0.428 A  
HETATM   32  N   UNL     1     -11.857  15.851  71.839  1.00  0.00    -0.463 NA 
HETATM   33  N   UNL     1     -12.490  16.286  74.043  1.00  0.00    -0.635 NA 
HETATM   34  N   UNL     1     -13.470  14.509  72.956  1.00  0.00    -0.609 NA 
HETATM   35  C   UNL     1     -13.597  13.768  71.849  1.00  0.00    -0.429 A  
HETATM   36  H2  UNL     1     -11.873  17.098  74.068  1.00  0.00     0.000 HD 
HETATM   37  C   UNL     1     -12.868  14.000  70.713  1.00  0.00    -0.355 A  
HETATM   38  H1  UNL     1     -13.047  16.028  74.857  1.00  0.00     0.000 HD 
ENDBRANCH   8  30
ENDBRANCH   2   5
TORSDOF 6
ENDMDL
MODEL      110
REMARK 921   NORMALIZED FREE ENERGY PREDICTED BY IDOCK:   -6.17 KCAL/MOL
REMARK 922        TOTAL FREE ENERGY PREDICTED BY IDOCK:   -9.46 KCAL/MOL
REMARK 923 INTER-LIGAND FREE ENERGY PREDICTED BY IDOCK:   -7.94 KCAL/MOL
REMARK 924 INTRA-LIGAND FREE ENERGY PREDICTED BY IDOCK:   -1.52 KCAL/MOL
REMARK 927      BINDING AFFINITY PREDICTED BY RF-SCORE:    0.00 PKD
ROOT
HETATM    1  C   UNL     1     -10.892   3.128  63.425  1.00  0.00    -0.209 C  
HETATM    2  C   UNL     1      -9.487   3.086  64.052  1.00  0.00    -0.132 C  
HETATM    3  C   UNL     1      -8.458   3.323  62.922  1.00  0.00    -0.078 C  
HETATM    4  C   UNL     1      -9.268   1.668  64.626  1.00  0.00    -0.129 C  
ENDROOT
BRANCH   2   5
HETATM    5  C   UNL     1      -9.323   4.134  65.168  1.00  0.00    -0.164 A  
HETATM    6  N   UNL     1      -9.804   4.096  66.398  1.00  0.00    -0.213 NA 
HETATM    7  C   UNL     1      -9.413   5.235  67.144  1.00  0.00    -0.127 A  
HETATM    8  C   UNL     1      -8.673   6.162  66.411  1.00  0.00    -0.138 A  
HETATM    9  S   UNL     1      -8.377   5.521  64.838  1.00  0.00    -0.133 SA 
BRANCH   7  10
HETATM   10  C   UNL     1      -9.794   5.360  68.567  1.00  0.00    -0.199 A  
HETATM   11  C   UNL     1     -10.680   6.367  68.998  1.00  0.00    -0.286 A  
HETATM   12  C   UNL     1      -9.337   4.457  69.544  1.00  0.00    -0.226 A  
HETATM   13  F   UNL     1     -11.136   7.298  68.143  1.00  0.00    -0.195 F  
HETATM   14  C   UNL     1      -9.811   4.493  70.862  1.00  0.00    -0.269 A  
HETATM   15  C   UNL     1     -11.154   6.414  70.322  1.00  0.00    -0.354 A  
HETATM   16  C   UNL     1     -10.726   5.467  71.249  1.00  0.00    -0.288 A  
BRANCH  15  17
HETATM   17  N   UNL     1     -12.144   7.374  70.712  1.00  0.00    -0.493 N  
HETATM   18  H   UNL     1     -13.103   7.284  70.376  1.00  0.00     0.000 HD 
BRANCH  17  19
HETATM   19  S   UNL     1     -11.722   8.655  71.730  1.00  0.00    -0.359 S  
HETATM   20  O   UNL     1     -10.544   8.276  72.481  1.00  0.00    -0.315 OA 
HETATM   21  O   UNL     1     -12.931   9.040  72.429  1.00  0.00    -0.408 OA 
BRANCH  19  22
HETATM   22  C   UNL     1     -11.331   9.982  70.656  1.00  0.00    -0.348 A  
HETATM   23  C   UNL     1     -10.142   9.924  69.939  1.00  0.00    -0.257 A  
HETATM   24  F   UNL     1      -9.233   8.970  70.190  1.00  0.00    -0.150 F  
HETATM   25  C   UNL     1      -9.867  10.851  68.933  1.00  0.00    -0.203 A  
HETATM   26  C   UNL     1     -10.794  11.850  68.639  1.00  0.00    -0.273 A  
HETATM   27  C   UNL     1     -11.978  11.924  69.372  1.00  0.00    -0.350 A  
HETATM   28  C   UNL     1     -12.244  10.988  70.376  1.00  0.00    -0.373 A  
HETATM   29  F   UNL     1     -13.411  11.089  71.022  1.00  0.00    -0.356 F  
ENDBRANCH  19  22
ENDBRANCH  17  19
ENDBRANCH  15  17
ENDBRANCH   7  10
BRANCH   8  30
HETATM   30  C   UNL     1      -8.081   7.487  66.670  1.00  0.00    -0.123 A  
HETATM   31  C   UNL     1      -7.846   9.668  66.037  1.00  0.00    -0.102 A  
HETATM   32  N   UNL     1      -8.411   8.473  65.816  1.00  0.00    -0.145 NA 
HETATM   33  N   UNL     1      -8.154  10.706  65.187  1.00  0.00    -0.305 NA 
HETATM   34  N   UNL     1      -7.044   9.966  67.064  1.00  0.00    -0.088 NA 
HETATM   35  C   UNL     1      -6.762   8.972  67.914  1.00  0.00    -0.068 A  
HETATM   36  H2  UNL     1      -8.796  10.568  64.407  1.00  0.00     0.000 HD 
HETATM   37  C   UNL     1      -7.251   7.702  67.760  1.00  0.00    -0.087 A  
HETATM   38  H1  UNL     1      -7.723  11.615  65.355  1.00  0.00     0.000 HD 
ENDBRANCH   8  30
ENDBRANCH   2   5
TORSDOF 6
ENDMDL
MODEL      111
REMARK 921   NORMALIZED FREE ENERGY PREDICTED BY IDOCK:   -6.17 KCAL/MOL
REMARK 922        TOTAL FREE ENERGY PREDICTED BY IDOCK:   -9.46 KCAL/MOL
REMARK 923 INTER-LIGAND FREE ENERGY PREDICTED BY IDOCK:   -8.53 KCAL/MOL
REMARK 924 INTRA-LIGAND FREE ENERGY PREDICTED BY IDOCK:   -0.93 KCAL/MOL
REMARK 927      BINDING AFFINITY PREDICTED BY RF-SCORE:    0.00 PKD
ROOT
HETATM    1  C   UNL     1      -8.094   6.735  64.865  1.00  0.00    -0.112 C  
HETATM    2  C   UNL     1      -7.846   8.252  64.951  1.00  0.00    -0.126 C  
HETATM    3  C   UNL     1      -8.393   8.893  63.654  1.00  0.00    -0.164 C  
HETATM    4  C   UNL     1      -6.318   8.479  65.005  1.00  0.00    -0.060 C  
ENDROOT
BRANCH   2   5
HETATM    5  C   UNL     1      -8.512   8.875  66.190  1.00  0.00    -0.125 A  
HETATM    6  N   UNL     1      -8.969  10.107  66.337  1.00  0.00    -0.143 NA 
HETATM    7  C   UNL     1      -9.545  10.299  67.616  1.00  0.00    -0.152 A  
HETATM    8  C   UNL     1      -9.447   9.186  68.451  1.00  0.00    -0.142 A  
HETATM    9  S   UNL     1      -8.749   7.883  67.563  1.00  0.00    -0.125 SA 
BRANCH   7  10
HETATM   10  C   UNL     1     -10.173  11.591  67.964  1.00  0.00    -0.205 A  
HETATM   11  C   UNL     1      -9.400  12.760  68.113  1.00  0.00    -0.214 A  
HETATM   12  C   UNL     1     -11.565  11.728  68.112  1.00  0.00    -0.391 A  
HETATM   13  F   UNL     1      -8.060  12.717  68.028  1.00  0.00    -0.122 F  
HETATM   14  C   UNL     1     -12.167  12.979  68.300  1.00  0.00    -0.033 A  
HETATM   15  C   UNL     1      -9.999  14.019  68.310  1.00  0.00    -0.236 A  
HETATM   16  C   UNL     1     -11.385  14.126  68.392  1.00  0.00    -0.315 A  
BRANCH  15  17
HETATM   17  N   UNL     1      -9.204  15.210  68.342  1.00  0.00    -0.184 N  
HETATM   18  H   UNL     1      -8.952  15.633  69.235  1.00  0.00     0.000 HD 
BRANCH  17  19
HETATM   19  S   UNL     1      -8.684  15.916  66.896  1.00  0.00    -0.267 S  
HETATM   20  O   UNL     1      -9.479  15.378  65.812  1.00  0.00    -0.333 OA 
HETATM   21  O   UNL     1      -7.242  15.782  66.870  1.00  0.00    -0.196 OA 
BRANCH  19  22
HETATM   22  C   UNL     1      -9.018  17.625  67.076  1.00  0.00    -0.250 A  
HETATM   23  C   UNL     1     -10.051  18.180  66.331  1.00  0.00    -0.389 A  
HETATM   24  F   UNL     1     -10.663  17.472  65.371  1.00  0.00    -0.389 F  
HETATM   25  C   UNL     1     -10.485  19.485  66.570  1.00  0.00    -0.595 A  
HETATM   26  C   UNL     1      -9.878  20.245  67.568  1.00  0.00    -0.576 A  
HETATM   27  C   UNL     1      -8.825  19.698  68.302  1.00  0.00    -0.361 A  
HETATM   28  C   UNL     1      -8.401  18.390  68.056  1.00  0.00    -0.272 A  
HETATM   29  F   UNL     1      -7.410  17.908  68.814  1.00  0.00    -0.243 F  
ENDBRANCH  19  22
ENDBRANCH  17  19
ENDBRANCH  15  17
ENDBRANCH   7  10
BRANCH   8  30
HETATM   30  C   UNL     1      -9.820   8.870  69.842  1.00  0.00    -0.182 A  
HETATM   31  C   UNL     1      -9.168   8.589  72.012  1.00  0.00    -0.256 A  
HETATM   32  N   UNL     1      -8.831   8.907  70.755  1.00  0.00    -0.188 NA 
HETATM   33  N   UNL     1      -8.189   8.612  72.979  1.00  0.00    -0.413 NA 
HETATM   34  N   UNL     1     -10.404   8.305  72.433  1.00  0.00    -0.311 NA 
HETATM   35  C   UNL     1     -11.370   8.309  71.508  1.00  0.00    -0.268 A  
HETATM   36  H2  UNL     1      -7.229   8.865  72.743  1.00  0.00     0.000 HD 
HETATM   37  C   UNL     1     -11.131   8.580  70.186  1.00  0.00    -0.192 A  
HETATM   38  H1  UNL     1      -8.445   8.369  73.936  1.00  0.00     0.000 HD 
ENDBRANCH   8  30
ENDBRANCH   2   5
TORSDOF 6
ENDMDL
MODEL      112
REMARK 921   NORMALIZED FREE ENERGY PREDICTED BY IDOCK:   -6.16 KCAL/MOL
REMARK 922        TOTAL FREE ENERGY PREDICTED BY IDOCK:   -9.44 KCAL/MOL
REMARK 923 INTER-LIGAND FREE ENERGY PREDICTED BY IDOCK:   -8.28 KCAL/MOL
REMARK 924 INTRA-LIGAND FREE ENERGY PREDICTED BY IDOCK:   -1.17 KCAL/MOL
REMARK 927      BINDING AFFINITY PREDICTED BY RF-SCORE:    0.00 PKD
ROOT
HETATM    1  C   UNL     1      -8.154   2.479  71.705  1.00  0.00    -0.056 C  
HETATM    2  C   UNL     1      -9.184   3.284  72.518  1.00  0.00    -0.140 C  
HETATM    3  C   UNL     1      -8.533   3.651  73.873  1.00  0.00    -0.086 C  
HETATM    4  C   UNL     1     -10.396   2.363  72.789  1.00  0.00    -0.240 C  
ENDROOT
BRANCH   2   5
HETATM    5  C   UNL     1      -9.644   4.549  71.773  1.00  0.00    -0.160 A  
HETATM    6  N   UNL     1      -9.360   4.914  70.534  1.00  0.00    -0.145 NA 
HETATM    7  C   UNL     1      -9.995   6.133  70.193  1.00  0.00    -0.175 A  
HETATM    8  C   UNL     1     -10.716   6.705  71.241  1.00  0.00    -0.231 A  
HETATM    9  S   UNL     1     -10.684   5.633  72.591  1.00  0.00    -0.258 SA 
BRANCH   7  10
HETATM   10  C   UNL     1      -9.859   6.688  68.830  1.00  0.00    -0.143 A  
HETATM   11  C   UNL     1      -8.818   7.582  68.508  1.00  0.00    -0.126 A  
HETATM   12  C   UNL     1     -10.722   6.315  67.783  1.00  0.00    -0.383 A  
HETATM   13  F   UNL     1      -7.970   8.023  69.452  1.00  0.00    -0.105 F  
HETATM   14  C   UNL     1     -10.504   6.733  66.464  1.00  0.00    -0.101 A  
HETATM   15  C   UNL     1      -8.598   8.010  67.185  1.00  0.00    -0.124 A  
HETATM   16  C   UNL     1      -9.437   7.574  66.163  1.00  0.00    -0.095 A  
BRANCH  15  17
HETATM   17  N   UNL     1      -7.465   8.824  66.858  1.00  0.00    -0.089 N  
HETATM   18  H   UNL     1      -6.549   8.604  67.249  1.00  0.00     0.000 HD 
BRANCH  17  19
HETATM   19  S   UNL     1      -7.648  10.148  65.824  1.00  0.00    -0.139 S  
HETATM   20  O   UNL     1      -8.036   9.659  64.517  1.00  0.00    -0.125 OA 
HETATM   21  O   UNL     1      -6.452  10.951  65.969  1.00  0.00    -0.127 OA 
BRANCH  19  22
HETATM   22  C   UNL     1      -8.958  11.086  66.510  1.00  0.00    -0.173 A  
HETATM   23  C   UNL     1     -10.108  11.270  65.753  1.00  0.00    -0.247 A  
HETATM   24  F   UNL     1     -10.152  10.894  64.467  1.00  0.00    -0.294 F  
HETATM   25  C   UNL     1     -11.250  11.843  66.314  1.00  0.00    -0.392 A  
HETATM   26  C   UNL     1     -11.243  12.236  67.651  1.00  0.00    -0.346 A  
HETATM   27  C   UNL     1     -10.082  12.073  68.407  1.00  0.00    -0.211 A  
HETATM   28  C   UNL     1      -8.945  11.497  67.836  1.00  0.00    -0.159 A  
HETATM   29  F   UNL     1      -7.873  11.335  68.619  1.00  0.00    -0.109 F  
ENDBRANCH  19  22
ENDBRANCH  17  19
ENDBRANCH  15  17
ENDBRANCH   7  10
BRANCH   8  30
HETATM   30  C   UNL     1     -11.495   7.942  71.440  1.00  0.00    -0.260 A  
HETATM   31  C   UNL     1     -13.293   8.973  72.397  1.00  0.00    -0.460 A  
HETATM   32  N   UNL     1     -12.571   7.855  72.244  1.00  0.00    -0.241 NA 
HETATM   33  N   UNL     1     -14.403   8.930  73.209  1.00  0.00    -1.177 NA 
HETATM   34  N   UNL     1     -12.993  10.165  71.872  1.00  0.00    -0.441 NA 
HETATM   35  C   UNL     1     -11.898  10.226  71.105  1.00  0.00    -0.362 A  
HETATM   36  H2  UNL     1     -14.670   8.067  73.683  1.00  0.00     0.000 HD 
HETATM   37  C   UNL     1     -11.111   9.135  70.848  1.00  0.00    -0.356 A  
HETATM   38  H1  UNL     1     -14.953   9.781  73.325  1.00  0.00     0.000 HD 
ENDBRANCH   8  30
ENDBRANCH   2   5
TORSDOF 6
ENDMDL
MODEL      113
REMARK 921   NORMALIZED FREE ENERGY PREDICTED BY IDOCK:   -6.15 KCAL/MOL
REMARK 922        TOTAL FREE ENERGY PREDICTED BY IDOCK:   -9.43 KCAL/MOL
REMARK 923 INTER-LIGAND FREE ENERGY PREDICTED BY IDOCK:   -8.32 KCAL/MOL
REMARK 924 INTRA-LIGAND FREE ENERGY PREDICTED BY IDOCK:   -1.11 KCAL/MOL
REMARK 927      BINDING AFFINITY PREDICTED BY RF-SCORE:    0.00 PKD
ROOT
HETATM    1  C   UNL     1     -12.046  13.089  63.562  1.00  0.00    -0.617 C  
HETATM    2  C   UNL     1     -11.535  13.392  64.982  1.00  0.00    -0.331 C  
HETATM    3  C   UNL     1     -12.748  13.829  65.837  1.00  0.00    -0.452 C  
HETATM    4  C   UNL     1     -10.549  14.578  64.887  1.00  0.00    -0.450 C  
ENDROOT
BRANCH   2   5
HETATM    5  C   UNL     1     -10.833  12.176  65.613  1.00  0.00    -0.284 A  
HETATM    6  N   UNL     1     -10.560  11.965  66.889  1.00  0.00    -0.222 NA 
HETATM    7  C   UNL     1      -9.931  10.711  67.085  1.00  0.00    -0.195 A  
HETATM    8  C   UNL     1      -9.681  10.015  65.903  1.00  0.00    -0.247 A  
HETATM    9  S   UNL     1     -10.360  10.894  64.584  1.00  0.00    -0.312 SA 
BRANCH   7  10
HETATM   10  C   UNL     1      -9.597  10.250  68.449  1.00  0.00    -0.155 A  
HETATM   11  C   UNL     1     -10.591   9.748  69.312  1.00  0.00    -0.221 A  
HETATM   12  C   UNL     1      -8.275  10.240  68.931  1.00  0.00    -0.130 A  
HETATM   13  F   UNL     1     -11.885   9.755  68.952  1.00  0.00     0.013 F  
HETATM   14  C   UNL     1      -7.945   9.672  70.168  1.00  0.00    -0.189 A  
HETATM   15  C   UNL     1     -10.267   9.183  70.560  1.00  0.00    -0.235 A  
HETATM   16  C   UNL     1      -8.940   9.136  70.979  1.00  0.00    -0.281 A  
BRANCH  15  17
HETATM   17  N   UNL     1     -11.277   8.572  71.371  1.00  0.00    -0.251 N  
HETATM   18  H   UNL     1     -11.720   9.103  72.122  1.00  0.00     0.000 HD 
BRANCH  17  19
HETATM   19  S   UNL     1     -11.736   6.970  71.085  1.00  0.00    -0.343 S  
HETATM   20  O   UNL     1     -11.614   6.706  69.666  1.00  0.00    -0.324 OA 
HETATM   21  O   UNL     1     -13.009   6.783  71.749  1.00  0.00    -0.349 OA 
BRANCH  19  22
HETATM   22  C   UNL     1     -10.574   5.999  71.964  1.00  0.00    -0.223 A  
HETATM   23  C   UNL     1      -9.925   4.972  71.289  1.00  0.00    -0.197 A  
HETATM   24  F   UNL     1     -10.301   4.617  70.052  1.00  0.00    -0.317 F  
HETATM   25  C   UNL     1      -8.859   4.290  71.878  1.00  0.00    -0.137 A  
HETATM   26  C   UNL     1      -8.435   4.640  73.159  1.00  0.00    -0.103 A  
HETATM   27  C   UNL     1      -9.100   5.655  73.847  1.00  0.00    -0.126 A  
HETATM   28  C   UNL     1     -10.164   6.333  73.246  1.00  0.00    -0.209 A  
HETATM   29  F   UNL     1     -10.740   7.320  73.941  1.00  0.00    -0.410 F  
ENDBRANCH  19  22
ENDBRANCH  17  19
ENDBRANCH  15  17
ENDBRANCH   7  10
BRANCH   8  30
HETATM   30  C   UNL     1      -9.034   8.741  65.540  1.00  0.00    -0.181 A  
HETATM   31  C   UNL     1      -7.722   7.574  64.080  1.00  0.00    -0.132 A  
HETATM   32  N   UNL     1      -8.284   8.741  64.423  1.00  0.00    -0.163 NA 
HETATM   33  N   UNL     1      -6.949   7.528  62.943  1.00  0.00    -0.069 NA 
HETATM   34  N   UNL     1      -7.796   6.443  64.789  1.00  0.00    -0.106 NA 
HETATM   35  C   UNL     1      -8.521   6.485  65.913  1.00  0.00    -0.147 A  
HETATM   36  H2  UNL     1      -6.806   8.362  62.374  1.00  0.00     0.000 HD 
HETATM   37  C   UNL     1      -9.172   7.614  66.335  1.00  0.00    -0.223 A  
HETATM   38  H1  UNL     1      -6.521   6.639  62.682  1.00  0.00     0.000 HD 
ENDBRANCH   8  30
ENDBRANCH   2   5
TORSDOF 6
ENDMDL
MODEL      114
REMARK 921   NORMALIZED FREE ENERGY PREDICTED BY IDOCK:   -6.15 KCAL/MOL
REMARK 922        TOTAL FREE ENERGY PREDICTED BY IDOCK:   -9.43 KCAL/MOL
REMARK 923 INTER-LIGAND FREE ENERGY PREDICTED BY IDOCK:   -8.65 KCAL/MOL
REMARK 924 INTRA-LIGAND FREE ENERGY PREDICTED BY IDOCK:   -0.78 KCAL/MOL
REMARK 927      BINDING AFFINITY PREDICTED BY RF-SCORE:    0.00 PKD
ROOT
HETATM    1  C   UNL     1      -9.729   8.827  71.824  1.00  0.00    -0.380 C  
HETATM    2  C   UNL     1     -10.707   8.878  70.637  1.00  0.00    -0.282 C  
HETATM    3  C   UNL     1     -12.106   9.233  71.193  1.00  0.00    -0.389 C  
HETATM    4  C   UNL     1     -10.771   7.464  70.015  1.00  0.00    -0.258 C  
ENDROOT
BRANCH   2   5
HETATM    5  C   UNL     1     -10.268   9.899  69.572  1.00  0.00    -0.225 A  
HETATM    6  N   UNL     1      -9.107  10.524  69.472  1.00  0.00    -0.107 NA 
HETATM    7  C   UNL     1      -9.068  11.368  68.336  1.00  0.00    -0.179 A  
HETATM    8  C   UNL     1     -10.263  11.405  67.619  1.00  0.00    -0.180 A  
HETATM    9  S   UNL     1     -11.367  10.279  68.318  1.00  0.00    -0.078 SA 
BRANCH   7  10
HETATM   10  C   UNL     1      -7.835  12.113  68.003  1.00  0.00    -0.145 A  
HETATM   11  C   UNL     1      -7.746  13.504  68.210  1.00  0.00    -0.137 A  
HETATM   12  C   UNL     1      -6.682  11.469  67.518  1.00  0.00    -0.087 A  
HETATM   13  F   UNL     1      -8.809  14.208  68.634  1.00  0.00    -0.179 F  
HETATM   14  C   UNL     1      -5.474  12.155  67.340  1.00  0.00    -0.124 A  
HETATM   15  C   UNL     1      -6.537  14.201  68.026  1.00  0.00    -0.151 A  
HETATM   16  C   UNL     1      -5.399  13.520  67.601  1.00  0.00     0.004 A  
BRANCH  15  17
HETATM   17  N   UNL     1      -6.436  15.591  68.354  1.00  0.00    -0.109 N  
HETATM   18  H   UNL     1      -6.278  15.878  69.320  1.00  0.00     0.000 HD 
BRANCH  17  19
HETATM   19  S   UNL     1      -6.579  16.758  67.138  1.00  0.00    -0.209 S  
HETATM   20  O   UNL     1      -7.858  16.582  66.483  1.00  0.00    -0.254 OA 
HETATM   21  O   UNL     1      -5.356  16.696  66.365  1.00  0.00    -0.331 OA 
BRANCH  19  22
HETATM   22  C   UNL     1      -6.555  18.295  67.976  1.00  0.00    -0.202 A  
HETATM   23  C   UNL     1      -6.275  18.303  69.337  1.00  0.00    -0.257 A  
HETATM   24  F   UNL     1      -6.198  17.158  70.030  1.00  0.00    -0.238 F  
HETATM   25  C   UNL     1      -6.057  19.503  70.015  1.00  0.00    -0.315 A  
HETATM   26  C   UNL     1      -6.119  20.711  69.324  1.00  0.00    -0.304 A  
HETATM   27  C   UNL     1      -6.422  20.707  67.963  1.00  0.00    -0.355 A  
HETATM   28  C   UNL     1      -6.636  19.500  67.293  1.00  0.00    -0.191 A  
HETATM   29  F   UNL     1      -6.890  19.557  65.980  1.00  0.00    -0.206 F  
ENDBRANCH  19  22
ENDBRANCH  17  19
ENDBRANCH  15  17
ENDBRANCH   7  10
BRANCH   8  30
HETATM   30  C   UNL     1     -10.766  12.124  66.434  1.00  0.00    -0.257 A  
HETATM   31  C   UNL     1     -11.324  12.072  64.221  1.00  0.00    -0.364 A  
HETATM   32  N   UNL     1     -10.896  11.407  65.303  1.00  0.00    -0.265 NA 
HETATM   33  N   UNL     1     -11.468  11.379  63.041  1.00  0.00    -0.852 NA 
HETATM   34  N   UNL     1     -11.688  13.358  64.198  1.00  0.00    -0.408 NA 
HETATM   35  C   UNL     1     -11.581  14.034  65.347  1.00  0.00    -0.328 A  
HETATM   36  H2  UNL     1     -11.255  10.383  62.991  1.00  0.00     0.000 HD 
HETATM   37  C   UNL     1     -11.115  13.464  66.503  1.00  0.00    -0.312 A  
HETATM   38  H1  UNL     1     -11.794  11.886  62.217  1.00  0.00     0.000 HD 
ENDBRANCH   8  30
ENDBRANCH   2   5
TORSDOF 6
ENDMDL
MODEL      115
REMARK 921   NORMALIZED FREE ENERGY PREDICTED BY IDOCK:   -6.13 KCAL/MOL
REMARK 922        TOTAL FREE ENERGY PREDICTED BY IDOCK:   -9.40 KCAL/MOL
REMARK 923 INTER-LIGAND FREE ENERGY PREDICTED BY IDOCK:   -8.40 KCAL/MOL
REMARK 924 INTRA-LIGAND FREE ENERGY PREDICTED BY IDOCK:   -1.00 KCAL/MOL
REMARK 927      BINDING AFFINITY PREDICTED BY RF-SCORE:    0.00 PKD
ROOT
HETATM    1  C   UNL     1      -9.892   5.323  68.291  1.00  0.00    -0.206 C  
HETATM    2  C   UNL     1      -9.975   6.710  68.954  1.00  0.00    -0.160 C  
HETATM    3  C   UNL     1      -8.853   6.792  70.015  1.00  0.00    -0.142 C  
HETATM    4  C   UNL     1     -11.339   6.809  69.674  1.00  0.00    -0.326 C  
ENDROOT
BRANCH   2   5
HETATM    5  C   UNL     1      -9.840   7.848  67.928  1.00  0.00    -0.165 A  
HETATM    6  N   UNL     1     -10.513   8.985  67.878  1.00  0.00    -0.240 NA 
HETATM    7  C   UNL     1     -10.085   9.797  66.800  1.00  0.00    -0.231 A  
HETATM    8  C   UNL     1      -9.108   9.203  66.001  1.00  0.00    -0.197 A  
HETATM    9  S   UNL     1      -8.661   7.691  66.699  1.00  0.00    -0.139 SA 
BRANCH   7  10
HETATM   10  C   UNL     1     -10.667  11.141  66.602  1.00  0.00    -0.322 A  
HETATM   11  C   UNL     1     -10.459  12.170  67.541  1.00  0.00    -0.209 A  
HETATM   12  C   UNL     1     -11.406  11.472  65.451  1.00  0.00    -0.147 A  
HETATM   13  F   UNL     1      -9.798  11.935  68.688  1.00  0.00    -0.197 F  
HETATM   14  C   UNL     1     -11.833  12.783  65.201  1.00  0.00    -0.428 A  
HETATM   15  C   UNL     1     -10.892  13.487  67.300  1.00  0.00    -0.276 A  
HETATM   16  C   UNL     1     -11.570  13.792  66.122  1.00  0.00    -0.369 A  
BRANCH  15  17
HETATM   17  N   UNL     1     -10.569  14.544  68.212  1.00  0.00    -0.236 N  
HETATM   18  H   UNL     1     -11.274  14.890  68.862  1.00  0.00     0.000 HD 
BRANCH  17  19
HETATM   19  S   UNL     1      -9.018  15.215  68.209  1.00  0.00    -0.180 S  
HETATM   20  O   UNL     1      -8.218  14.518  67.224  1.00  0.00    -0.192 OA 
HETATM   21  O   UNL     1      -8.587  15.258  69.591  1.00  0.00    -0.237 OA 
BRANCH  19  22
HETATM   22  C   UNL     1      -9.242  16.879  67.711  1.00  0.00    -0.230 A  
HETATM   23  C   UNL     1     -10.045  17.701  68.493  1.00  0.00    -0.375 A  
HETATM   24  F   UNL     1     -10.772  17.196  69.500  1.00  0.00    -0.322 F  
HETATM   25  C   UNL     1     -10.109  19.075  68.254  1.00  0.00    -0.466 A  
HETATM   26  C   UNL     1      -9.358  19.635  67.222  1.00  0.00    -0.429 A  
HETATM   27  C   UNL     1      -8.568  18.809  66.423  1.00  0.00    -0.294 A  
HETATM   28  C   UNL     1      -8.510  17.435  66.672  1.00  0.00    -0.261 A  
HETATM   29  F   UNL     1      -7.709  16.698  65.894  1.00  0.00    -0.311 F  
ENDBRANCH  19  22
ENDBRANCH  17  19
ENDBRANCH  15  17
ENDBRANCH   7  10
BRANCH   8  30
HETATM   30  C   UNL     1      -8.378   9.568  64.773  1.00  0.00    -0.150 A  
HETATM   31  C   UNL     1      -6.479  10.402  63.818  1.00  0.00    -0.033 A  
HETATM   32  N   UNL     1      -7.128  10.042  64.933  1.00  0.00    -0.133 NA 
HETATM   33  N   UNL     1      -5.200  10.895  63.934  1.00  0.00    -0.384 NA 
HETATM   34  N   UNL     1      -6.948  10.267  62.573  1.00  0.00    -0.130 NA 
HETATM   35  C   UNL     1      -8.180   9.761  62.446  1.00  0.00    -0.134 A  
HETATM   36  H2  UNL     1      -4.755  10.984  64.848  1.00  0.00     0.000 HD 
HETATM   37  C   UNL     1      -8.948   9.399  63.521  1.00  0.00    -0.148 A  
HETATM   38  H1  UNL     1      -4.706  11.169  63.084  1.00  0.00     0.000 HD 
ENDBRANCH   8  30
ENDBRANCH   2   5
TORSDOF 6
ENDMDL
MODEL      116
REMARK 921   NORMALIZED FREE ENERGY PREDICTED BY IDOCK:   -6.06 KCAL/MOL
REMARK 922        TOTAL FREE ENERGY PREDICTED BY IDOCK:   -9.31 KCAL/MOL
REMARK 923 INTER-LIGAND FREE ENERGY PREDICTED BY IDOCK:   -8.41 KCAL/MOL
REMARK 924 INTRA-LIGAND FREE ENERGY PREDICTED BY IDOCK:   -0.90 KCAL/MOL
REMARK 927      BINDING AFFINITY PREDICTED BY RF-SCORE:    0.00 PKD
ROOT
HETATM    1  C   UNL     1     -12.760  11.790  64.242  1.00  0.00    -0.034 C  
HETATM    2  C   UNL     1     -11.415  12.532  64.340  1.00  0.00    -0.406 C  
HETATM    3  C   UNL     1     -11.675  14.023  64.018  1.00  0.00    -0.276 C  
HETATM    4  C   UNL     1     -10.476  11.953  63.257  1.00  0.00    -0.427 C  
ENDROOT
BRANCH   2   5
HETATM    5  C   UNL     1     -10.771  12.378  65.729  1.00  0.00    -0.267 A  
HETATM    6  N   UNL     1      -9.690  12.977  66.197  1.00  0.00    -0.272 NA 
HETATM    7  C   UNL     1      -9.427  12.601  67.537  1.00  0.00    -0.186 A  
HETATM    8  C   UNL     1     -10.312  11.648  68.039  1.00  0.00    -0.192 A  
HETATM    9  S   UNL     1     -11.531  11.343  66.859  1.00  0.00     0.009 SA 
BRANCH   7  10
HETATM   10  C   UNL     1      -8.296  13.206  68.272  1.00  0.00    -0.152 A  
HETATM   11  C   UNL     1      -8.236  14.595  68.501  1.00  0.00    -0.152 A  
HETATM   12  C   UNL     1      -7.260  12.428  68.820  1.00  0.00    -0.094 A  
HETATM   13  F   UNL     1      -9.161  15.421  67.982  1.00  0.00    -0.171 F  
HETATM   14  C   UNL     1      -6.268  12.989  69.635  1.00  0.00    -0.113 A  
HETATM   15  C   UNL     1      -7.238  15.166  69.312  1.00  0.00    -0.182 A  
HETATM   16  C   UNL     1      -6.261  14.357  69.888  1.00  0.00    -0.149 A  
BRANCH  15  17
HETATM   17  N   UNL     1      -7.262  16.563  69.629  1.00  0.00    -0.045 N  
HETATM   18  H   UNL     1      -7.615  16.876  70.533  1.00  0.00     0.000 HD 
BRANCH  17  19
HETATM   19  S   UNL     1      -6.703  17.693  68.503  1.00  0.00    -0.217 S  
HETATM   20  O   UNL     1      -6.035  16.982  67.433  1.00  0.00    -0.122 OA 
HETATM   21  O   UNL     1      -5.989  18.704  69.255  1.00  0.00    -0.224 OA 
BRANCH  19  22
HETATM   22  C   UNL     1      -8.145  18.469  67.881  1.00  0.00    -0.256 A  
HETATM   23  C   UNL     1      -8.647  18.047  66.655  1.00  0.00    -0.263 A  
HETATM   24  F   UNL     1      -7.954  17.197  65.884  1.00  0.00    -0.324 F  
HETATM   25  C   UNL     1      -9.889  18.491  66.200  1.00  0.00    -0.297 A  
HETATM   26  C   UNL     1     -10.641  19.367  66.981  1.00  0.00    -0.586 A  
HETATM   27  C   UNL     1     -10.129  19.809  68.201  1.00  0.00    -0.574 A  
HETATM   28  C   UNL     1      -8.885  19.356  68.648  1.00  0.00    -0.373 A  
HETATM   29  F   UNL     1      -8.462  19.788  69.841  1.00  0.00    -0.018 F  
ENDBRANCH  19  22
ENDBRANCH  17  19
ENDBRANCH  15  17
ENDBRANCH   7  10
BRANCH   8  30
HETATM   30  C   UNL     1     -10.460  10.903  69.303  1.00  0.00    -0.202 A  
HETATM   31  C   UNL     1     -11.745  10.397  71.121  1.00  0.00    -0.296 A  
HETATM   32  N   UNL     1     -11.626  11.052  69.958  1.00  0.00    -0.318 NA 
HETATM   33  N   UNL     1     -12.919  10.523  71.827  1.00  0.00    -0.462 NA 
HETATM   34  N   UNL     1     -10.833   9.569  71.639  1.00  0.00    -0.278 NA 
HETATM   35  C   UNL     1      -9.699   9.415  70.945  1.00  0.00    -0.250 A  
HETATM   36  H2  UNL     1     -13.682  11.101  71.474  1.00  0.00     0.000 HD 
HETATM   37  C   UNL     1      -9.455  10.068  69.766  1.00  0.00    -0.239 A  
HETATM   38  H1  UNL     1     -13.010  10.024  72.713  1.00  0.00     0.000 HD 
ENDBRANCH   8  30
ENDBRANCH   2   5
TORSDOF 6
ENDMDL
MODEL      117
REMARK 921   NORMALIZED FREE ENERGY PREDICTED BY IDOCK:   -6.06 KCAL/MOL
REMARK 922        TOTAL FREE ENERGY PREDICTED BY IDOCK:   -9.31 KCAL/MOL
REMARK 923 INTER-LIGAND FREE ENERGY PREDICTED BY IDOCK:   -8.28 KCAL/MOL
REMARK 924 INTRA-LIGAND FREE ENERGY PREDICTED BY IDOCK:   -1.02 KCAL/MOL
REMARK 927      BINDING AFFINITY PREDICTED BY RF-SCORE:    0.00 PKD
ROOT
HETATM    1  C   UNL     1     -12.568  14.787  73.042  1.00  0.00    -0.504 C  
HETATM    2  C   UNL     1     -13.071  14.144  71.736  1.00  0.00    -0.434 C  
HETATM    3  C   UNL     1     -14.410  14.822  71.363  1.00  0.00    -0.516 C  
HETATM    4  C   UNL     1     -13.340  12.648  72.019  1.00  0.00    -0.555 C  
ENDROOT
BRANCH   2   5
HETATM    5  C   UNL     1     -12.050  14.286  70.594  1.00  0.00    -0.346 A  
HETATM    6  N   UNL     1     -11.918  13.526  69.520  1.00  0.00    -0.330 NA 
HETATM    7  C   UNL     1     -10.880  13.993  68.677  1.00  0.00    -0.258 A  
HETATM    8  C   UNL     1     -10.193  15.095  69.187  1.00  0.00    -0.249 A  
HETATM    9  S   UNL     1     -10.952  15.597  70.652  1.00  0.00    -0.300 SA 
BRANCH   7  10
HETATM   10  C   UNL     1     -10.606  13.322  67.390  1.00  0.00    -0.250 A  
HETATM   11  C   UNL     1     -10.297  11.948  67.336  1.00  0.00    -0.207 A  
HETATM   12  C   UNL     1     -10.693  14.001  66.160  1.00  0.00    -0.289 A  
HETATM   13  F   UNL     1     -10.155  11.228  68.461  1.00  0.00    -0.175 F  
HETATM   14  C   UNL     1     -10.573  13.329  64.937  1.00  0.00    -0.381 A  
HETATM   15  C   UNL     1     -10.168  11.269  66.110  1.00  0.00    -0.245 A  
HETATM   16  C   UNL     1     -10.318  11.962  64.911  1.00  0.00    -0.328 A  
BRANCH  15  17
HETATM   17  N   UNL     1      -9.970   9.850  66.075  1.00  0.00    -0.264 N  
HETATM   18  H   UNL     1     -10.770   9.221  66.137  1.00  0.00     0.000 HD 
BRANCH  17  19
HETATM   19  S   UNL     1      -8.408   9.220  65.933  1.00  0.00    -0.122 S  
HETATM   20  O   UNL     1      -7.462  10.248  66.314  1.00  0.00    -0.106 OA 
HETATM   21  O   UNL     1      -8.328   8.616  64.619  1.00  0.00    -0.159 OA 
BRANCH  19  22
HETATM   22  C   UNL     1      -8.340   7.903  67.085  1.00  0.00    -0.117 A  
HETATM   23  C   UNL     1      -8.274   8.212  68.439  1.00  0.00    -0.129 A  
HETATM   24  F   UNL     1      -8.090   9.475  68.848  1.00  0.00    -0.089 F  
HETATM   25  C   UNL     1      -8.408   7.215  69.407  1.00  0.00    -0.133 A  
HETATM   26  C   UNL     1      -8.611   5.893  69.017  1.00  0.00    -0.114 A  
HETATM   27  C   UNL     1      -8.655   5.578  67.659  1.00  0.00    -0.108 A  
HETATM   28  C   UNL     1      -8.522   6.584  66.698  1.00  0.00    -0.116 A  
HETATM   29  F   UNL     1      -8.606   6.226  65.412  1.00  0.00    -0.144 F  
ENDBRANCH  19  22
ENDBRANCH  17  19
ENDBRANCH  15  17
ENDBRANCH   7  10
BRANCH   8  30
HETATM   30  C   UNL     1      -9.044  15.915  68.763  1.00  0.00    -0.219 A  
HETATM   31  C   UNL     1      -6.786  16.259  68.789  1.00  0.00    -0.151 A  
HETATM   32  N   UNL     1      -7.825  15.494  69.150  1.00  0.00    -0.197 NA 
HETATM   33  N   UNL     1      -5.522  15.867  69.165  1.00  0.00    -0.108 NA 
HETATM   34  N   UNL     1      -6.861  17.356  68.030  1.00  0.00    -0.177 NA 
HETATM   35  C   UNL     1      -8.083  17.729  67.632  1.00  0.00    -0.222 A  
HETATM   36  H2  UNL     1      -5.379  15.014  69.707  1.00  0.00     0.000 HD 
HETATM   37  C   UNL     1      -9.218  17.045  67.978  1.00  0.00    -0.241 A  
HETATM   38  H1  UNL     1      -4.731  16.450  68.890  1.00  0.00     0.000 HD 
ENDBRANCH   8  30
ENDBRANCH   2   5
TORSDOF 6
ENDMDL
MODEL      118
REMARK 921   NORMALIZED FREE ENERGY PREDICTED BY IDOCK:   -6.05 KCAL/MOL
REMARK 922        TOTAL FREE ENERGY PREDICTED BY IDOCK:   -9.30 KCAL/MOL
REMARK 923 INTER-LIGAND FREE ENERGY PREDICTED BY IDOCK:   -8.18 KCAL/MOL
REMARK 924 INTRA-LIGAND FREE ENERGY PREDICTED BY IDOCK:   -1.12 KCAL/MOL
REMARK 927      BINDING AFFINITY PREDICTED BY RF-SCORE:    0.00 PKD
ROOT
HETATM    1  C   UNL     1     -10.705  13.983  64.661  1.00  0.00    -0.416 C  
HETATM    2  C   UNL     1     -11.611  13.168  65.602  1.00  0.00    -0.371 C  
HETATM    3  C   UNL     1     -12.725  12.523  64.744  1.00  0.00    -0.415 C  
HETATM    4  C   UNL     1     -12.267  14.153  66.597  1.00  0.00    -0.450 C  
ENDROOT
BRANCH   2   5
HETATM    5  C   UNL     1     -10.824  12.093  66.372  1.00  0.00    -0.271 A  
HETATM    6  N   UNL     1     -11.224  10.882  66.720  1.00  0.00    -0.256 NA 
HETATM    7  C   UNL     1     -10.202  10.171  67.395  1.00  0.00    -0.218 A  
HETATM    8  C   UNL     1      -9.039  10.912  67.597  1.00  0.00    -0.148 A  
HETATM    9  S   UNL     1      -9.211  12.443  66.823  1.00  0.00    -0.210 SA 
BRANCH   7  10
HETATM   10  C   UNL     1     -10.423   8.771  67.816  1.00  0.00    -0.292 A  
HETATM   11  C   UNL     1     -10.666   8.446  69.166  1.00  0.00    -0.106 A  
HETATM   12  C   UNL     1     -10.454   7.710  66.893  1.00  0.00    -0.388 A  
HETATM   13  F   UNL     1     -10.618   9.389  70.122  1.00  0.00    -0.203 F  
HETATM   14  C   UNL     1     -10.803   6.409  67.277  1.00  0.00    -0.463 A  
HETATM   15  C   UNL     1     -11.010   7.139  69.559  1.00  0.00    -0.191 A  
HETATM   16  C   UNL     1     -11.089   6.125  68.608  1.00  0.00    -0.378 A  
BRANCH  15  17
HETATM   17  N   UNL     1     -11.368   6.853  70.916  1.00  0.00    -0.286 N  
HETATM   18  H   UNL     1     -12.350   6.822  71.190  1.00  0.00     0.000 HD 
BRANCH  17  19
HETATM   19  S   UNL     1     -10.161   6.568  72.065  1.00  0.00    -0.193 S  
HETATM   20  O   UNL     1     -10.596   7.117  73.332  1.00  0.00    -0.325 OA 
HETATM   21  O   UNL     1      -8.917   7.014  71.473  1.00  0.00    -0.139 OA 
BRANCH  19  22
HETATM   22  C   UNL     1     -10.052   4.825  72.189  1.00  0.00    -0.191 A  
HETATM   23  C   UNL     1     -10.892   4.171  73.082  1.00  0.00    -0.197 A  
HETATM   24  F   UNL     1     -11.641   4.862  73.952  1.00  0.00    -0.261 F  
HETATM   25  C   UNL     1     -10.984   2.778  73.088  1.00  0.00    -0.214 A  
HETATM   26  C   UNL     1     -10.227   2.029  72.189  1.00  0.00    -0.214 A  
HETATM   27  C   UNL     1      -9.366   2.682  71.307  1.00  0.00    -0.207 A  
HETATM   28  C   UNL     1      -9.284   4.077  71.308  1.00  0.00    -0.131 A  
HETATM   29  F   UNL     1      -8.467   4.649  70.416  1.00  0.00    -0.075 F  
ENDBRANCH  19  22
ENDBRANCH  17  19
ENDBRANCH  15  17
ENDBRANCH   7  10
BRANCH   8  30
HETATM   30  C   UNL     1      -7.741  10.686  68.260  1.00  0.00    -0.107 A  
HETATM   31  C   UNL     1      -6.267  11.277  69.900  1.00  0.00    -0.137 A  
HETATM   32  N   UNL     1      -7.461  11.465  69.321  1.00  0.00    -0.058 NA 
HETATM   33  N   UNL     1      -5.938  12.054  70.987  1.00  0.00    -0.512 NA 
HETATM   34  N   UNL     1      -5.376  10.345  69.550  1.00  0.00    -0.038 NA 
HETATM   35  C   UNL     1      -5.699   9.564  68.513  1.00  0.00    -0.040 A  
HETATM   36  H2  UNL     1      -6.586  12.756  71.344  1.00  0.00     0.000 HD 
HETATM   37  C   UNL     1      -6.874   9.696  67.822  1.00  0.00    -0.078 A  
HETATM   38  H1  UNL     1      -5.029  11.911  71.429  1.00  0.00     0.000 HD 
ENDBRANCH   8  30
ENDBRANCH   2   5
TORSDOF 6
ENDMDL
MODEL      119
REMARK 921   NORMALIZED FREE ENERGY PREDICTED BY IDOCK:   -6.04 KCAL/MOL
REMARK 922        TOTAL FREE ENERGY PREDICTED BY IDOCK:   -9.29 KCAL/MOL
REMARK 923 INTER-LIGAND FREE ENERGY PREDICTED BY IDOCK:   -8.20 KCAL/MOL
REMARK 924 INTRA-LIGAND FREE ENERGY PREDICTED BY IDOCK:   -1.08 KCAL/MOL
REMARK 927      BINDING AFFINITY PREDICTED BY RF-SCORE:    0.00 PKD
ROOT
HETATM    1  C   UNL     1     -10.908   3.082  73.105  1.00  0.00    -0.240 C  
HETATM    2  C   UNL     1      -9.577   3.358  72.382  1.00  0.00    -0.196 C  
HETATM    3  C   UNL     1      -9.631   2.648  71.008  1.00  0.00    -0.210 C  
HETATM    4  C   UNL     1      -8.444   2.721  73.219  1.00  0.00    -0.078 C  
ENDROOT
BRANCH   2   5
HETATM    5  C   UNL     1      -9.317   4.864  72.208  1.00  0.00    -0.138 A  
HETATM    6  N   UNL     1     -10.103   5.768  71.648  1.00  0.00    -0.189 NA 
HETATM    7  C   UNL     1      -9.529   7.062  71.704  1.00  0.00    -0.156 A  
HETATM    8  C   UNL     1      -8.255   7.089  72.270  1.00  0.00    -0.099 A  
HETATM    9  S   UNL     1      -7.861   5.509  72.835  1.00  0.00    -0.098 SA 
BRANCH   7  10
HETATM   10  C   UNL     1     -10.274   8.229  71.188  1.00  0.00    -0.244 A  
HETATM   11  C   UNL     1     -10.323   8.510  69.808  1.00  0.00    -0.212 A  
HETATM   12  C   UNL     1     -11.008   9.080  72.035  1.00  0.00    -0.355 A  
HETATM   13  F   UNL     1      -9.622   7.775  68.928  1.00  0.00    -0.151 F  
HETATM   14  C   UNL     1     -11.825  10.099  71.528  1.00  0.00    -0.356 A  
HETATM   15  C   UNL     1     -11.137   9.537  69.293  1.00  0.00    -0.082 A  
HETATM   16  C   UNL     1     -11.897  10.322  70.157  1.00  0.00    -0.343 A  
BRANCH  15  17
HETATM   17  N   UNL     1     -11.264   9.731  67.879  1.00  0.00    -0.505 N  
HETATM   18  H   UNL     1     -12.094   9.394  67.390  1.00  0.00     0.000 HD 
BRANCH  17  19
HETATM   19  S   UNL     1     -10.039  10.519  67.022  1.00  0.00    -0.222 S  
HETATM   20  O   UNL     1      -9.221   9.519  66.369  1.00  0.00    -0.150 OA 
HETATM   21  O   UNL     1      -9.434  11.460  67.942  1.00  0.00    -0.164 OA 
BRANCH  19  22
HETATM   22  C   UNL     1     -10.870  11.477  65.814  1.00  0.00    -0.262 A  
HETATM   23  C   UNL     1     -11.684  12.519  66.241  1.00  0.00    -0.404 A  
HETATM   24  F   UNL     1     -11.969  12.681  67.541  1.00  0.00    -0.398 F  
HETATM   25  C   UNL     1     -12.219  13.429  65.328  1.00  0.00    -0.478 A  
HETATM   26  C   UNL     1     -11.935  13.297  63.970  1.00  0.00    -0.525 A  
HETATM   27  C   UNL     1     -11.137  12.238  63.537  1.00  0.00    -0.533 A  
HETATM   28  C   UNL     1     -10.605  11.334  64.460  1.00  0.00    -0.336 A  
HETATM   29  F   UNL     1      -9.818  10.360  63.989  1.00  0.00    -0.320 F  
ENDBRANCH  19  22
ENDBRANCH  17  19
ENDBRANCH  15  17
ENDBRANCH   7  10
BRANCH   8  30
HETATM   30  C   UNL     1      -7.229   8.119  72.518  1.00  0.00    -0.101 A  
HETATM   31  C   UNL     1      -6.011   9.880  71.726  1.00  0.00     0.218 A  
HETATM   32  N   UNL     1      -6.966   8.966  71.506  1.00  0.00    -0.175 NA 
HETATM   33  N   UNL     1      -5.708  10.765  70.718  1.00  0.00    -0.191 NA 
HETATM   34  N   UNL     1      -5.356  10.052  72.878  1.00  0.00    -0.317 NA 
HETATM   35  C   UNL     1      -5.665   9.216  73.876  1.00  0.00    -0.048 A  
HETATM   36  H2  UNL     1      -6.198  10.727  69.824  1.00  0.00     0.000 HD 
HETATM   37  C   UNL     1      -6.595   8.218  73.747  1.00  0.00    -0.143 A  
HETATM   38  H1  UNL     1      -4.980  11.461  70.885  1.00  0.00     0.000 HD 
ENDBRANCH   8  30
ENDBRANCH   2   5
TORSDOF 6
ENDMDL
MODEL      120
REMARK 921   NORMALIZED FREE ENERGY PREDICTED BY IDOCK:   -6.04 KCAL/MOL
REMARK 922        TOTAL FREE ENERGY PREDICTED BY IDOCK:   -9.28 KCAL/MOL
REMARK 923 INTER-LIGAND FREE ENERGY PREDICTED BY IDOCK:   -7.89 KCAL/MOL
REMARK 924 INTRA-LIGAND FREE ENERGY PREDICTED BY IDOCK:   -1.39 KCAL/MOL
REMARK 927      BINDING AFFINITY PREDICTED BY RF-SCORE:    0.00 PKD
ROOT
HETATM    1  C   UNL     1     -11.192   6.518  69.425  1.00  0.00    -0.418 C  
HETATM    2  C   UNL     1     -11.248   7.675  70.439  1.00  0.00    -0.258 C  
HETATM    3  C   UNL     1     -10.411   7.261  71.673  1.00  0.00    -0.218 C  
HETATM    4  C   UNL     1     -12.720   7.845  70.880  1.00  0.00     0.032 C  
ENDROOT
BRANCH   2   5
HETATM    5  C   UNL     1     -10.724   8.992  69.841  1.00  0.00    -0.229 A  
HETATM    6  N   UNL     1     -11.386  10.121  69.651  1.00  0.00    -0.248 NA 
HETATM    7  C   UNL     1     -10.552  11.125  69.102  1.00  0.00    -0.204 A  
HETATM    8  C   UNL     1      -9.255  10.693  68.827  1.00  0.00    -0.180 A  
HETATM    9  S   UNL     1      -9.078   9.070  69.382  1.00  0.00    -0.150 SA 
BRANCH   7  10
HETATM   10  C   UNL     1     -11.080  12.486  68.870  1.00  0.00    -0.309 A  
HETATM   11  C   UNL     1     -11.102  13.048  67.578  1.00  0.00    -0.268 A  
HETATM   12  C   UNL     1     -11.629  13.261  69.908  1.00  0.00    -0.260 A  
HETATM   13  F   UNL     1     -10.565  12.397  66.532  1.00  0.00    -0.241 F  
HETATM   14  C   UNL     1     -12.255  14.489  69.660  1.00  0.00    -0.336 A  
HETATM   15  C   UNL     1     -11.724  14.285  67.323  1.00  0.00    -0.395 A  
HETATM   16  C   UNL     1     -12.310  14.998  68.366  1.00  0.00     0.152 A  
BRANCH  15  17
HETATM   17  N   UNL     1     -11.840  14.784  65.985  1.00  0.00    -0.263 N  
HETATM   18  H   UNL     1     -12.702  14.640  65.459  1.00  0.00     0.000 HD 
BRANCH  17  19
HETATM   19  S   UNL     1     -10.547  15.613  65.278  1.00  0.00    -0.421 S  
HETATM   20  O   UNL     1     -11.082  16.656  64.429  1.00  0.00    -0.985 OA 
HETATM   21  O   UNL     1      -9.670  14.605  64.720  1.00  0.00    -0.009 OA 
BRANCH  19  22
HETATM   22  C   UNL     1      -9.681  16.334  66.618  1.00  0.00    -0.250 A  
HETATM   23  C   UNL     1      -8.421  15.840  66.934  1.00  0.00    -0.246 A  
HETATM   24  F   UNL     1      -7.951  14.729  66.348  1.00  0.00     0.006 F  
HETATM   25  C   UNL     1      -7.608  16.494  67.861  1.00  0.00    -0.162 A  
HETATM   26  C   UNL     1      -8.060  17.657  68.481  1.00  0.00    -0.283 A  
HETATM   27  C   UNL     1      -9.333  18.142  68.182  1.00  0.00    -0.295 A  
HETATM   28  C   UNL     1     -10.138  17.482  67.250  1.00  0.00    -0.327 A  
HETATM   29  F   UNL     1     -11.335  18.013  66.979  1.00  0.00    -0.039 F  
ENDBRANCH  19  22
ENDBRANCH  17  19
ENDBRANCH  15  17
ENDBRANCH   7  10
BRANCH   8  30
HETATM   30  C   UNL     1      -8.045  11.288  68.230  1.00  0.00    -0.137 A  
HETATM   31  C   UNL     1      -6.490  11.264  66.558  1.00  0.00    -0.111 A  
HETATM   32  N   UNL     1      -7.607  10.741  67.081  1.00  0.00    -0.102 NA 
HETATM   33  N   UNL     1      -6.005  10.735  65.385  1.00  0.00    -0.304 NA 
HETATM   34  N   UNL     1      -5.824  12.314  67.051  1.00  0.00    -0.282 NA 
HETATM   35  C   UNL     1      -6.305  12.856  68.176  1.00  0.00    -0.096 A  
HETATM   36  H2  UNL     1      -6.484   9.962  64.923  1.00  0.00     0.000 HD 
HETATM   37  C   UNL     1      -7.416  12.375  68.816  1.00  0.00    -0.056 A  
HETATM   38  H1  UNL     1      -5.153  11.133  64.987  1.00  0.00     0.000 HD 
ENDBRANCH   8  30
ENDBRANCH   2   5
TORSDOF 6
ENDMDL
MODEL      121
REMARK 921   NORMALIZED FREE ENERGY PREDICTED BY IDOCK:   -6.02 KCAL/MOL
REMARK 922        TOTAL FREE ENERGY PREDICTED BY IDOCK:   -9.26 KCAL/MOL
REMARK 923 INTER-LIGAND FREE ENERGY PREDICTED BY IDOCK:   -7.87 KCAL/MOL
REMARK 924 INTRA-LIGAND FREE ENERGY PREDICTED BY IDOCK:   -1.39 KCAL/MOL
REMARK 927      BINDING AFFINITY PREDICTED BY RF-SCORE:    0.00 PKD
ROOT
HETATM    1  C   UNL     1     -11.265   6.296  67.132  1.00  0.00    -0.260 C  
HETATM    2  C   UNL     1     -10.567   6.790  68.412  1.00  0.00    -0.270 C  
HETATM    3  C   UNL     1      -9.363   5.858  68.683  1.00  0.00    -0.126 C  
HETATM    4  C   UNL     1     -11.569   6.649  69.581  1.00  0.00    -0.305 C  
ENDROOT
BRANCH   2   5
HETATM    5  C   UNL     1     -10.108   8.254  68.289  1.00  0.00    -0.198 A  
HETATM    6  N   UNL     1     -10.852   9.346  68.312  1.00  0.00    -0.162 NA 
HETATM    7  C   UNL     1     -10.062  10.516  68.201  1.00  0.00    -0.158 A  
HETATM    8  C   UNL     1      -8.701  10.263  68.030  1.00  0.00    -0.122 A  
HETATM    9  S   UNL     1      -8.432   8.563  68.141  1.00  0.00    -0.135 SA 
BRANCH   7  10
HETATM   10  C   UNL     1     -10.693  11.851  68.268  1.00  0.00    -0.253 A  
HETATM   11  C   UNL     1     -10.947  12.597  67.100  1.00  0.00    -0.261 A  
HETATM   12  C   UNL     1     -11.116  12.416  69.485  1.00  0.00    -0.083 A  
HETATM   13  F   UNL     1     -10.543  12.154  65.897  1.00  0.00    -0.261 F  
HETATM   14  C   UNL     1     -11.840  13.614  69.530  1.00  0.00    -0.394 A  
HETATM   15  C   UNL     1     -11.667  13.805  67.138  1.00  0.00    -0.385 A  
HETATM   16  C   UNL     1     -12.123  14.305  68.356  1.00  0.00    -0.297 A  
BRANCH  15  17
HETATM   17  N   UNL     1     -12.017  14.488  65.929  1.00  0.00    -0.345 N  
HETATM   18  H   UNL     1     -12.969  14.433  65.567  1.00  0.00     0.000 HD 
BRANCH  17  19
HETATM   19  S   UNL     1     -10.850  15.387  65.100  1.00  0.00    -0.444 S  
HETATM   20  O   UNL     1     -11.512  16.478  64.416  1.00  0.00    -0.873 OA 
HETATM   21  O   UNL     1     -10.058  14.437  64.347  1.00  0.00    -0.117 OA 
BRANCH  19  22
HETATM   22  C   UNL     1      -9.798  16.028  66.345  1.00  0.00    -0.288 A  
HETATM   23  C   UNL     1     -10.108  17.263  66.902  1.00  0.00    -0.304 A  
HETATM   24  F   UNL     1     -11.080  18.027  66.383  1.00  0.00    -0.136 F  
HETATM   25  C   UNL     1      -9.421  17.735  68.021  1.00  0.00    -0.281 A  
HETATM   26  C   UNL     1      -8.412  16.962  68.592  1.00  0.00    -0.260 A  
HETATM   27  C   UNL     1      -8.084  15.733  68.021  1.00  0.00    -0.143 A  
HETATM   28  C   UNL     1      -8.779  15.269  66.902  1.00  0.00    -0.258 A  
HETATM   29  F   UNL     1      -8.444  14.067  66.419  1.00  0.00    -0.073 F  
ENDBRANCH  19  22
ENDBRANCH  17  19
ENDBRANCH  15  17
ENDBRANCH   7  10
BRANCH   8  30
HETATM   30  C   UNL     1      -7.490  11.078  67.822  1.00  0.00    -0.094 A  
HETATM   31  C   UNL     1      -6.028  12.630  68.639  1.00  0.00    -0.065 A  
HETATM   32  N   UNL     1      -7.111  11.868  68.844  1.00  0.00    -0.111 NA 
HETATM   33  N   UNL     1      -5.606  13.455  69.655  1.00  0.00    -0.093 NA 
HETATM   34  N   UNL     1      -5.270  12.616  67.538  1.00  0.00    -0.198 NA 
HETATM   35  C   UNL     1      -5.654  11.794  66.555  1.00  0.00     0.020 A  
HETATM   36  H2  UNL     1      -6.106  13.487  70.544  1.00  0.00     0.000 HD 
HETATM   37  C   UNL     1      -6.768  11.002  66.641  1.00  0.00    -0.134 A  
HETATM   38  H1  UNL     1      -4.782  14.036  69.500  1.00  0.00     0.000 HD 
ENDBRANCH   8  30
ENDBRANCH   2   5
TORSDOF 6
ENDMDL
MODEL      122
REMARK 921   NORMALIZED FREE ENERGY PREDICTED BY IDOCK:   -6.01 KCAL/MOL
REMARK 922        TOTAL FREE ENERGY PREDICTED BY IDOCK:   -9.24 KCAL/MOL
REMARK 923 INTER-LIGAND FREE ENERGY PREDICTED BY IDOCK:   -8.44 KCAL/MOL
REMARK 924 INTRA-LIGAND FREE ENERGY PREDICTED BY IDOCK:   -0.80 KCAL/MOL
REMARK 927      BINDING AFFINITY PREDICTED BY RF-SCORE:    0.00 PKD
ROOT
HETATM    1  C   UNL     1      -9.269   3.080  65.996  1.00  0.00    -0.122 C  
HETATM    2  C   UNL     1      -8.594   3.244  67.370  1.00  0.00    -0.122 C  
HETATM    3  C   UNL     1      -7.084   2.957  67.190  1.00  0.00    -0.053 C  
HETATM    4  C   UNL     1      -9.186   2.177  68.319  1.00  0.00    -0.238 C  
ENDROOT
BRANCH   2   5
HETATM    5  C   UNL     1      -8.816   4.649  67.957  1.00  0.00    -0.106 A  
HETATM    6  N   UNL     1      -8.310   5.796  67.539  1.00  0.00    -0.105 NA 
HETATM    7  C   UNL     1      -8.773   6.883  68.321  1.00  0.00    -0.123 A  
HETATM    8  C   UNL     1      -9.595   6.505  69.381  1.00  0.00    -0.144 A  
HETATM    9  S   UNL     1      -9.871   4.805  69.295  1.00  0.00    -0.181 SA 
BRANCH   7  10
HETATM   10  C   UNL     1      -8.376   8.266  67.982  1.00  0.00    -0.129 A  
HETATM   11  C   UNL     1      -9.227   9.107  67.237  1.00  0.00    -0.133 A  
HETATM   12  C   UNL     1      -7.163   8.825  68.427  1.00  0.00    -0.081 A  
HETATM   13  F   UNL     1     -10.387   8.647  66.739  1.00  0.00    -0.309 F  
HETATM   14  C   UNL     1      -6.856  10.176  68.224  1.00  0.00    -0.062 A  
HETATM   15  C   UNL     1      -8.920  10.464  67.024  1.00  0.00    -0.139 A  
HETATM   16  C   UNL     1      -7.738  10.998  67.530  1.00  0.00    -0.114 A  
BRANCH  15  17
HETATM   17  N   UNL     1      -9.852  11.331  66.366  1.00  0.00    -0.205 N  
HETATM   18  H   UNL     1      -9.883  11.369  65.348  1.00  0.00     0.000 HD 
BRANCH  17  19
HETATM   19  S   UNL     1     -10.902  12.290  67.280  1.00  0.00    -0.256 S  
HETATM   20  O   UNL     1     -10.215  12.698  68.488  1.00  0.00    -0.229 OA 
HETATM   21  O   UNL     1     -12.150  11.562  67.370  1.00  0.00    -0.593 OA 
BRANCH  19  22
HETATM   22  C   UNL     1     -11.221  13.695  66.284  1.00  0.00    -0.305 A  
HETATM   23  C   UNL     1     -10.429  14.823  66.459  1.00  0.00    -0.291 A  
HETATM   24  F   UNL     1      -9.562  14.904  67.478  1.00  0.00    -0.199 F  
HETATM   25  C   UNL     1     -10.510  15.898  65.572  1.00  0.00    -0.425 A  
HETATM   26  C   UNL     1     -11.393  15.843  64.495  1.00  0.00    -0.316 A  
HETATM   27  C   UNL     1     -12.205  14.721  64.331  1.00  0.00    -0.447 A  
HETATM   28  C   UNL     1     -12.114  13.650  65.223  1.00  0.00    -0.406 A  
HETATM   29  F   UNL     1     -12.893  12.586  64.995  1.00  0.00    -0.554 F  
ENDBRANCH  19  22
ENDBRANCH  17  19
ENDBRANCH  15  17
ENDBRANCH   7  10
BRANCH   8  30
HETATM   30  C   UNL     1     -10.282   7.197  70.488  1.00  0.00    -0.196 A  
HETATM   31  C   UNL     1     -11.955   8.595  71.165  1.00  0.00    -0.279 A  
HETATM   32  N   UNL     1     -11.353   7.943  70.161  1.00  0.00    -0.161 NA 
HETATM   33  N   UNL     1     -13.053   9.372  70.877  1.00  0.00    -0.555 NA 
HETATM   34  N   UNL     1     -11.617   8.509  72.455  1.00  0.00    -0.354 NA 
HETATM   35  C   UNL     1     -10.569   7.732  72.751  1.00  0.00    -0.341 A  
HETATM   36  H2  UNL     1     -13.401   9.451  69.921  1.00  0.00     0.000 HD 
HETATM   37  C   UNL     1      -9.855   7.054  71.799  1.00  0.00    -0.169 A  
HETATM   38  H1  UNL     1     -13.512   9.869  71.641  1.00  0.00     0.000 HD 
ENDBRANCH   8  30
ENDBRANCH   2   5
TORSDOF 6
ENDMDL
MODEL      123
REMARK 921   NORMALIZED FREE ENERGY PREDICTED BY IDOCK:   -5.98 KCAL/MOL
REMARK 922        TOTAL FREE ENERGY PREDICTED BY IDOCK:   -9.21 KCAL/MOL
REMARK 923 INTER-LIGAND FREE ENERGY PREDICTED BY IDOCK:   -7.89 KCAL/MOL
REMARK 924 INTRA-LIGAND FREE ENERGY PREDICTED BY IDOCK:   -1.31 KCAL/MOL
REMARK 927      BINDING AFFINITY PREDICTED BY RF-SCORE:    0.00 PKD
ROOT
HETATM    1  C   UNL     1     -10.296  13.394  64.521  1.00  0.00    -0.394 C  
HETATM    2  C   UNL     1     -11.010  12.039  64.670  1.00  0.00    -0.367 C  
HETATM    3  C   UNL     1     -10.253  11.009  63.798  1.00  0.00    -0.425 C  
HETATM    4  C   UNL     1     -12.443  12.195  64.112  1.00  0.00    -0.497 C  
ENDROOT
BRANCH   2   5
HETATM    5  C   UNL     1     -11.066  11.576  66.137  1.00  0.00    -0.244 A  
HETATM    6  N   UNL     1     -10.509  10.505  66.675  1.00  0.00    -0.242 NA 
HETATM    7  C   UNL     1     -10.759  10.432  68.067  1.00  0.00    -0.249 A  
HETATM    8  C   UNL     1     -11.579  11.454  68.546  1.00  0.00    -0.318 A  
HETATM    9  S   UNL     1     -11.909  12.553  67.259  1.00  0.00    -0.226 SA 
BRANCH   7  10
HETATM   10  C   UNL     1     -10.172   9.343  68.874  1.00  0.00    -0.215 A  
HETATM   11  C   UNL     1     -10.263   7.999  68.460  1.00  0.00    -0.207 A  
HETATM   12  C   UNL     1      -9.453   9.594  70.057  1.00  0.00    -0.277 A  
HETATM   13  F   UNL     1     -10.963   7.660  67.363  1.00  0.00    -0.327 F  
HETATM   14  C   UNL     1      -8.779   8.574  70.741  1.00  0.00    -0.183 A  
HETATM   15  C   UNL     1      -9.594   6.968  69.147  1.00  0.00    -0.149 A  
HETATM   16  C   UNL     1      -8.842   7.262  70.282  1.00  0.00    -0.147 A  
BRANCH  15  17
HETATM   17  N   UNL     1      -9.602   5.627  68.644  1.00  0.00    -0.125 N  
HETATM   18  H   UNL     1     -10.409   5.025  68.808  1.00  0.00     0.000 HD 
BRANCH  17  19
HETATM   19  S   UNL     1      -8.274   5.043  67.777  1.00  0.00    -0.097 S  
HETATM   20  O   UNL     1      -8.716   3.939  66.950  1.00  0.00    -0.104 OA 
HETATM   21  O   UNL     1      -7.211   4.844  68.739  1.00  0.00    -0.056 OA 
BRANCH  19  22
HETATM   22  C   UNL     1      -7.773   6.375  66.757  1.00  0.00    -0.100 A  
HETATM   23  C   UNL     1      -8.449   6.583  65.560  1.00  0.00    -0.136 A  
HETATM   24  F   UNL     1      -9.341   5.690  65.110  1.00  0.00    -0.085 F  
HETATM   25  C   UNL     1      -8.222   7.733  64.802  1.00  0.00    -0.100 A  
HETATM   26  C   UNL     1      -7.309   8.688  65.246  1.00  0.00    -0.085 A  
HETATM   27  C   UNL     1      -6.613   8.470  66.435  1.00  0.00    -0.059 A  
HETATM   28  C   UNL     1      -6.850   7.317  67.187  1.00  0.00    -0.077 A  
HETATM   29  F   UNL     1      -6.178   7.179  68.336  1.00  0.00    -0.029 F  
ENDBRANCH  19  22
ENDBRANCH  17  19
ENDBRANCH  15  17
ENDBRANCH   7  10
BRANCH   8  30
HETATM   30  C   UNL     1     -12.170  11.815  69.847  1.00  0.00    -0.223 A  
HETATM   31  C   UNL     1     -12.650  13.438  71.381  1.00  0.00    -0.283 A  
HETATM   32  N   UNL     1     -12.139  13.118  70.184  1.00  0.00    -0.345 NA 
HETATM   33  N   UNL     1     -12.637  14.758  71.768  1.00  0.00    -0.319 NA 
HETATM   34  N   UNL     1     -13.237  12.583  72.224  1.00  0.00    -0.421 NA 
HETATM   35  C   UNL     1     -13.283  11.300  71.844  1.00  0.00    -0.386 A  
HETATM   36  H2  UNL     1     -12.247  15.477  71.158  1.00  0.00     0.000 HD 
HETATM   37  C   UNL     1     -12.754  10.857  70.661  1.00  0.00    -0.396 A  
HETATM   38  H1  UNL     1     -13.025  15.001  72.679  1.00  0.00     0.000 HD 
ENDBRANCH   8  30
ENDBRANCH   2   5
TORSDOF 6
ENDMDL
MODEL      124
REMARK 921   NORMALIZED FREE ENERGY PREDICTED BY IDOCK:   -5.97 KCAL/MOL
REMARK 922        TOTAL FREE ENERGY PREDICTED BY IDOCK:   -9.19 KCAL/MOL
REMARK 923 INTER-LIGAND FREE ENERGY PREDICTED BY IDOCK:   -8.01 KCAL/MOL
REMARK 924 INTRA-LIGAND FREE ENERGY PREDICTED BY IDOCK:   -1.18 KCAL/MOL
REMARK 927      BINDING AFFINITY PREDICTED BY RF-SCORE:    0.00 PKD
ROOT
HETATM    1  C   UNL     1      -7.974   4.627  65.780  1.00  0.00    -0.099 C  
HETATM    2  C   UNL     1      -9.274   4.557  66.603  1.00  0.00    -0.138 C  
HETATM    3  C   UNL     1      -9.279   3.209  67.361  1.00  0.00    -0.224 C  
HETATM    4  C   UNL     1     -10.461   4.568  65.612  1.00  0.00    -0.261 C  
ENDROOT
BRANCH   2   5
HETATM    5  C   UNL     1      -9.399   5.736  67.584  1.00  0.00    -0.108 A  
HETATM    6  N   UNL     1      -8.804   6.915  67.522  1.00  0.00    -0.119 NA 
HETATM    7  C   UNL     1      -9.195   7.751  68.596  1.00  0.00    -0.138 A  
HETATM    8  C   UNL     1     -10.057   7.137  69.503  1.00  0.00    -0.179 A  
HETATM    9  S   UNL     1     -10.457   5.566  68.917  1.00  0.00    -0.181 SA 
BRANCH   7  10
HETATM   10  C   UNL     1      -8.692   9.138  68.680  1.00  0.00    -0.129 A  
HETATM   11  C   UNL     1      -9.552  10.238  68.489  1.00  0.00    -0.161 A  
HETATM   12  C   UNL     1      -7.354   9.429  69.005  1.00  0.00    -0.072 A  
HETATM   13  F   UNL     1     -10.836  10.057  68.137  1.00  0.00    -0.240 F  
HETATM   14  C   UNL     1      -6.916  10.742  69.223  1.00  0.00    -0.102 A  
HETATM   15  C   UNL     1      -9.116  11.560  68.699  1.00  0.00    -0.120 A  
HETATM   16  C   UNL     1      -7.799  11.807  69.078  1.00  0.00     0.064 A  
BRANCH  15  17
HETATM   17  N   UNL     1     -10.035  12.656  68.614  1.00  0.00    -0.393 N  
HETATM   18  H   UNL     1     -10.715  12.812  69.359  1.00  0.00     0.000 HD 
BRANCH  17  19
HETATM   19  S   UNL     1      -9.991  13.692  67.279  1.00  0.00    -0.243 S  
HETATM   20  O   UNL     1      -8.610  13.878  66.889  1.00  0.00    -0.201 OA 
HETATM   21  O   UNL     1     -10.806  14.839  67.623  1.00  0.00    -0.272 OA 
BRANCH  19  22
HETATM   22  C   UNL     1     -10.849  12.840  66.012  1.00  0.00    -0.276 A  
HETATM   23  C   UNL     1     -12.158  13.214  65.732  1.00  0.00    -0.447 A  
HETATM   24  F   UNL     1     -12.809  14.080  66.521  1.00  0.00    -0.412 F  
HETATM   25  C   UNL     1     -12.824  12.705  64.616  1.00  0.00    -0.361 A  
HETATM   26  C   UNL     1     -12.172  11.811  63.768  1.00  0.00    -0.448 A  
HETATM   27  C   UNL     1     -10.867  11.417  64.060  1.00  0.00    -0.450 A  
HETATM   28  C   UNL     1     -10.209  11.935  65.179  1.00  0.00    -0.277 A  
HETATM   29  F   UNL     1      -8.946  11.546  65.388  1.00  0.00    -0.193 F  
ENDBRANCH  19  22
ENDBRANCH  17  19
ENDBRANCH  15  17
ENDBRANCH   7  10
BRANCH   8  30
HETATM   30  C   UNL     1     -10.705   7.518  70.772  1.00  0.00    -0.229 A  
HETATM   31  C   UNL     1     -10.688   7.467  73.055  1.00  0.00    -0.364 A  
HETATM   32  N   UNL     1     -10.080   7.146  71.904  1.00  0.00    -0.182 NA 
HETATM   33  N   UNL     1     -10.086   7.105  74.237  1.00  0.00    -0.448 NA 
HETATM   34  N   UNL     1     -11.818   8.173  73.161  1.00  0.00    -0.070 NA 
HETATM   35  C   UNL     1     -12.396   8.558  72.017  1.00  0.00    -0.365 A  
HETATM   36  H2  UNL     1      -9.197   6.603  74.239  1.00  0.00     0.000 HD 
HETATM   37  C   UNL     1     -11.883   8.249  70.785  1.00  0.00    -0.172 A  
HETATM   38  H1  UNL     1     -10.549   7.348  75.113  1.00  0.00     0.000 HD 
ENDBRANCH   8  30
ENDBRANCH   2   5
TORSDOF 6
ENDMDL
MODEL      125
REMARK 921   NORMALIZED FREE ENERGY PREDICTED BY IDOCK:   -5.95 KCAL/MOL
REMARK 922        TOTAL FREE ENERGY PREDICTED BY IDOCK:   -9.17 KCAL/MOL
REMARK 923 INTER-LIGAND FREE ENERGY PREDICTED BY IDOCK:   -8.13 KCAL/MOL
REMARK 924 INTRA-LIGAND FREE ENERGY PREDICTED BY IDOCK:   -1.04 KCAL/MOL
REMARK 927      BINDING AFFINITY PREDICTED BY RF-SCORE:    0.00 PKD
ROOT
HETATM    1  C   UNL     1      -8.857   3.593  64.700  1.00  0.00    -0.119 C  
HETATM    2  C   UNL     1      -8.030   3.489  65.994  1.00  0.00    -0.092 C  
HETATM    3  C   UNL     1      -6.540   3.672  65.618  1.00  0.00    -0.037 C  
HETATM    4  C   UNL     1      -8.220   2.064  66.564  1.00  0.00    -0.084 C  
ENDROOT
BRANCH   2   5
HETATM    5  C   UNL     1      -8.461   4.533  67.039  1.00  0.00    -0.104 A  
HETATM    6  N   UNL     1      -8.070   5.791  67.143  1.00  0.00    -0.102 NA 
HETATM    7  C   UNL     1      -8.714   6.448  68.220  1.00  0.00    -0.116 A  
HETATM    8  C   UNL     1      -9.557   5.621  68.962  1.00  0.00    -0.135 A  
HETATM    9  S   UNL     1      -9.618   4.070  68.211  1.00  0.00    -0.081 SA 
BRANCH   7  10
HETATM   10  C   UNL     1      -8.465   7.883  68.473  1.00  0.00    -0.128 A  
HETATM   11  C   UNL     1      -8.943   8.873  67.590  1.00  0.00    -0.134 A  
HETATM   12  C   UNL     1      -7.792   8.332  69.624  1.00  0.00    -0.102 A  
HETATM   13  F   UNL     1      -9.564   8.536  66.447  1.00  0.00    -0.225 F  
HETATM   14  C   UNL     1      -7.683   9.695  69.930  1.00  0.00    -0.146 A  
HETATM   15  C   UNL     1      -8.830  10.243  67.889  1.00  0.00    -0.122 A  
HETATM   16  C   UNL     1      -8.209  10.651  69.067  1.00  0.00    -0.151 A  
BRANCH  15  17
HETATM   17  N   UNL     1      -9.426  11.229  67.037  1.00  0.00    -0.170 N  
HETATM   18  H   UNL     1      -8.929  11.556  66.208  1.00  0.00     0.000 HD 
BRANCH  17  19
HETATM   19  S   UNL     1     -10.953  11.852  67.406  1.00  0.00    -0.280 S  
HETATM   20  O   UNL     1     -10.789  12.946  68.340  1.00  0.00    -0.236 OA 
HETATM   21  O   UNL     1     -11.784  10.719  67.759  1.00  0.00    -0.547 OA 
BRANCH  19  22
HETATM   22  C   UNL     1     -11.576  12.465  65.888  1.00  0.00    -0.396 A  
HETATM   23  C   UNL     1     -12.149  13.730  65.871  1.00  0.00    -0.433 A  
HETATM   24  F   UNL     1     -12.382  14.395  67.011  1.00  0.00    -0.435 F  
HETATM   25  C   UNL     1     -12.488  14.345  64.665  1.00  0.00    -0.364 A  
HETATM   26  C   UNL     1     -12.250  13.687  63.460  1.00  0.00    -0.329 A  
HETATM   27  C   UNL     1     -11.695  12.407  63.476  1.00  0.00    -0.592 A  
HETATM   28  C   UNL     1     -11.357  11.802  64.689  1.00  0.00    -0.256 A  
HETATM   29  F   UNL     1     -10.797  10.588  64.640  1.00  0.00    -0.326 F  
ENDBRANCH  19  22
ENDBRANCH  17  19
ENDBRANCH  15  17
ENDBRANCH   7  10
BRANCH   8  30
HETATM   30  C   UNL     1     -10.397   5.770  70.164  1.00  0.00    -0.256 A  
HETATM   31  C   UNL     1     -10.799   5.197  72.338  1.00  0.00    -0.203 A  
HETATM   32  N   UNL     1     -10.015   5.083  71.257  1.00  0.00    -0.188 NA 
HETATM   33  N   UNL     1     -10.448   4.510  73.477  1.00  0.00    -0.186 NA 
HETATM   34  N   UNL     1     -11.878   5.981  72.431  1.00  0.00    -0.289 NA 
HETATM   35  C   UNL     1     -12.211   6.677  71.338  1.00  0.00    -0.324 A  
HETATM   36  H2  UNL     1      -9.611   3.927  73.498  1.00  0.00     0.000 HD 
HETATM   37  C   UNL     1     -11.505   6.604  70.167  1.00  0.00    -0.444 A  
HETATM   38  H1  UNL     1     -11.045   4.597  74.300  1.00  0.00     0.000 HD 
ENDBRANCH   8  30
ENDBRANCH   2   5
TORSDOF 6
ENDMDL
MODEL      126
REMARK 921   NORMALIZED FREE ENERGY PREDICTED BY IDOCK:   -5.95 KCAL/MOL
REMARK 922        TOTAL FREE ENERGY PREDICTED BY IDOCK:   -9.16 KCAL/MOL
REMARK 923 INTER-LIGAND FREE ENERGY PREDICTED BY IDOCK:   -8.79 KCAL/MOL
REMARK 924 INTRA-LIGAND FREE ENERGY PREDICTED BY IDOCK:   -0.36 KCAL/MOL
REMARK 927      BINDING AFFINITY PREDICTED BY RF-SCORE:    0.00 PKD
ROOT
HETATM    1  C   UNL     1      -9.997  18.324  68.903  1.00  0.00    -0.361 C  
HETATM    2  C   UNL     1      -9.752  17.870  67.452  1.00  0.00    -0.288 C  
HETATM    3  C   UNL     1      -8.250  18.072  67.142  1.00  0.00    -0.231 C  
HETATM    4  C   UNL     1     -10.573  18.793  66.523  1.00  0.00    -0.436 C  
ENDROOT
BRANCH   2   5
HETATM    5  C   UNL     1     -10.163  16.403  67.231  1.00  0.00    -0.278 A  
HETATM    6  N   UNL     1     -10.236  15.433  68.126  1.00  0.00    -0.228 NA 
HETATM    7  C   UNL     1     -10.684  14.222  67.544  1.00  0.00    -0.270 A  
HETATM    8  C   UNL     1     -10.885  14.299  66.166  1.00  0.00    -0.310 A  
HETATM    9  S   UNL     1     -10.629  15.926  65.656  1.00  0.00    -0.371 SA 
BRANCH   7  10
HETATM   10  C   UNL     1     -10.896  13.026  68.386  1.00  0.00    -0.280 A  
HETATM   11  C   UNL     1      -9.995  11.942  68.352  1.00  0.00    -0.203 A  
HETATM   12  C   UNL     1     -11.967  12.931  69.292  1.00  0.00    -0.313 A  
HETATM   13  F   UNL     1      -8.964  11.928  67.489  1.00  0.00    -0.155 F  
HETATM   14  C   UNL     1     -12.084  11.860  70.187  1.00  0.00    -0.382 A  
HETATM   15  C   UNL     1     -10.111  10.859  69.243  1.00  0.00    -0.140 A  
HETATM   16  C   UNL     1     -11.151  10.827  70.169  1.00  0.00    -0.298 A  
BRANCH  15  17
HETATM   17  N   UNL     1      -9.119   9.826  69.273  1.00  0.00    -0.172 N  
HETATM   18  H   UNL     1      -8.137  10.064  69.415  1.00  0.00     0.000 HD 
BRANCH  17  19
HETATM   19  S   UNL     1      -9.576   8.211  69.071  1.00  0.00    -0.158 S  
HETATM   20  O   UNL     1      -9.049   7.740  67.808  1.00  0.00    -0.134 OA 
HETATM   21  O   UNL     1     -11.001   8.153  69.326  1.00  0.00    -0.111 OA 
BRANCH  19  22
HETATM   22  C   UNL     1      -8.805   7.350  70.386  1.00  0.00    -0.149 A  
HETATM   23  C   UNL     1      -7.588   7.823  70.863  1.00  0.00    -0.079 A  
HETATM   24  F   UNL     1      -6.933   8.803  70.224  1.00  0.00    -0.037 F  
HETATM   25  C   UNL     1      -7.021   7.297  72.024  1.00  0.00    -0.063 A  
HETATM   26  C   UNL     1      -7.680   6.284  72.720  1.00  0.00    -0.104 A  
HETATM   27  C   UNL     1      -8.890   5.792  72.231  1.00  0.00    -0.135 A  
HETATM   28  C   UNL     1      -9.450   6.329  71.068  1.00  0.00    -0.175 A  
HETATM   29  F   UNL     1     -10.629   5.841  70.667  1.00  0.00    -0.269 F  
ENDBRANCH  19  22
ENDBRANCH  17  19
ENDBRANCH  15  17
ENDBRANCH   7  10
BRANCH   8  30
HETATM   30  C   UNL     1     -11.282  13.361  65.100  1.00  0.00    -0.305 A  
HETATM   31  C   UNL     1     -10.653  11.960  63.411  1.00  0.00    -0.430 A  
HETATM   32  N   UNL     1     -10.287  12.787  64.400  1.00  0.00    -0.368 NA 
HETATM   33  N   UNL     1      -9.669  11.352  62.667  1.00  0.00    -0.583 NA 
HETATM   34  N   UNL     1     -11.911  11.617  63.116  1.00  0.00    -0.183 NA 
HETATM   35  C   UNL     1     -12.876  12.179  63.854  1.00  0.00    -0.306 A  
HETATM   36  H2  UNL     1      -8.683  11.527  62.862  1.00  0.00     0.000 HD 
HETATM   37  C   UNL     1     -12.616  13.070  64.861  1.00  0.00    -0.490 A  
HETATM   38  H1  UNL     1      -9.948  10.722  61.914  1.00  0.00     0.000 HD 
ENDBRANCH   8  30
ENDBRANCH   2   5
TORSDOF 6
ENDMDL
MODEL      127
REMARK 921   NORMALIZED FREE ENERGY PREDICTED BY IDOCK:   -5.94 KCAL/MOL
REMARK 922        TOTAL FREE ENERGY PREDICTED BY IDOCK:   -9.15 KCAL/MOL
REMARK 923 INTER-LIGAND FREE ENERGY PREDICTED BY IDOCK:   -8.27 KCAL/MOL
REMARK 924 INTRA-LIGAND FREE ENERGY PREDICTED BY IDOCK:   -0.88 KCAL/MOL
REMARK 927      BINDING AFFINITY PREDICTED BY RF-SCORE:    0.00 PKD
ROOT
HETATM    1  C   UNL     1     -10.003   5.010  66.798  1.00  0.00    -0.242 C  
HETATM    2  C   UNL     1      -9.601   5.855  68.020  1.00  0.00    -0.122 C  
HETATM    3  C   UNL     1      -8.327   5.224  68.632  1.00  0.00    -0.089 C  
HETATM    4  C   UNL     1     -10.742   5.760  69.058  1.00  0.00    -0.354 C  
ENDROOT
BRANCH   2   5
HETATM    5  C   UNL     1      -9.354   7.328  67.646  1.00  0.00    -0.128 A  
HETATM    6  N   UNL     1      -9.891   8.017  66.654  1.00  0.00    -0.246 NA 
HETATM    7  C   UNL     1      -9.439   9.360  66.651  1.00  0.00    -0.177 A  
HETATM    8  C   UNL     1      -8.495   9.639  67.638  1.00  0.00    -0.125 A  
HETATM    9  S   UNL     1      -8.293   8.242  68.628  1.00  0.00    -0.125 SA 
BRANCH   7  10
HETATM   10  C   UNL     1      -9.966  10.320  65.658  1.00  0.00    -0.347 A  
HETATM   11  C   UNL     1     -10.722  11.440  66.058  1.00  0.00    -0.263 A  
HETATM   12  C   UNL     1      -9.697  10.195  64.283  1.00  0.00    -0.326 A  
HETATM   13  F   UNL     1     -11.060  11.620  67.346  1.00  0.00    -0.255 F  
HETATM   14  C   UNL     1     -10.077  11.182  63.364  1.00  0.00    -0.439 A  
HETATM   15  C   UNL     1     -11.113  12.432  65.139  1.00  0.00    -0.309 A  
HETATM   16  C   UNL     1     -10.778  12.305  63.793  1.00  0.00    -0.494 A  
BRANCH  15  17
HETATM   17  N   UNL     1     -11.779  13.620  65.583  1.00  0.00    -0.330 N  
HETATM   18  H   UNL     1     -12.771  13.592  65.819  1.00  0.00     0.000 HD 
BRANCH  17  19
HETATM   19  S   UNL     1     -10.919  15.069  65.716  1.00  0.00    -0.355 S  
HETATM   20  O   UNL     1     -11.622  16.089  64.967  1.00  0.00    -0.071 OA 
HETATM   21  O   UNL     1      -9.541  14.760  65.397  1.00  0.00    -0.241 OA 
BRANCH  19  22
HETATM   22  C   UNL     1     -10.953  15.465  67.422  1.00  0.00    -0.312 A  
HETATM   23  C   UNL     1     -10.232  16.570  67.859  1.00  0.00    -0.273 A  
HETATM   24  F   UNL     1      -9.392  17.213  67.035  1.00  0.00    -0.225 F  
HETATM   25  C   UNL     1     -10.371  17.044  69.164  1.00  0.00    -0.313 A  
HETATM   26  C   UNL     1     -11.244  16.406  70.044  1.00  0.00    -0.266 A  
HETATM   27  C   UNL     1     -11.952  15.284  69.614  1.00  0.00    -0.364 A  
HETATM   28  C   UNL     1     -11.806  14.819  68.304  1.00  0.00    -0.284 A  
HETATM   29  F   UNL     1     -12.537  13.760  67.939  1.00  0.00    -0.248 F  
ENDBRANCH  19  22
ENDBRANCH  17  19
ENDBRANCH  15  17
ENDBRANCH   7  10
BRANCH   8  30
HETATM   30  C   UNL     1      -7.694  10.811  68.035  1.00  0.00    -0.101 A  
HETATM   31  C   UNL     1      -7.195  13.019  67.730  1.00  0.00    -0.139 A  
HETATM   32  N   UNL     1      -7.947  11.964  67.388  1.00  0.00    -0.153 NA 
HETATM   33  N   UNL     1      -7.418  14.217  67.092  1.00  0.00    -0.319 NA 
HETATM   34  N   UNL     1      -6.272  13.029  68.697  1.00  0.00    -0.073 NA 
HETATM   35  C   UNL     1      -6.068  11.876  69.345  1.00  0.00    -0.096 A  
HETATM   36  H2  UNL     1      -8.138  14.301  66.375  1.00  0.00     0.000 HD 
HETATM   37  C   UNL     1      -6.751  10.727  69.048  1.00  0.00    -0.070 A  
HETATM   38  H1  UNL     1      -6.845  15.020  67.353  1.00  0.00     0.000 HD 
ENDBRANCH   8  30
ENDBRANCH   2   5
TORSDOF 6
ENDMDL
MODEL      128
REMARK 921   NORMALIZED FREE ENERGY PREDICTED BY IDOCK:   -5.92 KCAL/MOL
REMARK 922        TOTAL FREE ENERGY PREDICTED BY IDOCK:   -9.12 KCAL/MOL
REMARK 923 INTER-LIGAND FREE ENERGY PREDICTED BY IDOCK:   -7.64 KCAL/MOL
REMARK 924 INTRA-LIGAND FREE ENERGY PREDICTED BY IDOCK:   -1.49 KCAL/MOL
REMARK 927      BINDING AFFINITY PREDICTED BY RF-SCORE:    0.00 PKD
ROOT
HETATM    1  C   UNL     1     -12.636  12.562  64.878  1.00  0.00    -0.469 C  
HETATM    2  C   UNL     1     -11.450  13.099  65.700  1.00  0.00    -0.351 C  
HETATM    3  C   UNL     1     -12.024  13.986  66.830  1.00  0.00    -0.479 C  
HETATM    4  C   UNL     1     -10.592  13.986  64.768  1.00  0.00    -0.441 C  
ENDROOT
BRANCH   2   5
HETATM    5  C   UNL     1     -10.590  11.963  66.280  1.00  0.00    -0.253 A  
HETATM    6  N   UNL     1     -10.308  11.721  67.549  1.00  0.00    -0.194 NA 
HETATM    7  C   UNL     1      -9.507  10.562  67.691  1.00  0.00    -0.149 A  
HETATM    8  C   UNL     1      -9.143   9.976  66.480  1.00  0.00    -0.148 A  
HETATM    9  S   UNL     1      -9.922  10.822  65.195  1.00  0.00    -0.313 SA 
BRANCH   7  10
HETATM   10  C   UNL     1      -9.130  10.078  69.036  1.00  0.00    -0.172 A  
HETATM   11  C   UNL     1     -10.102   9.597  69.937  1.00  0.00    -0.246 A  
HETATM   12  C   UNL     1      -7.790  10.023  69.461  1.00  0.00    -0.155 A  
HETATM   13  F   UNL     1     -11.410   9.647  69.632  1.00  0.00    -0.232 F  
HETATM   14  C   UNL     1      -7.426   9.433  70.678  1.00  0.00    -0.150 A  
HETATM   15  C   UNL     1      -9.743   9.010  71.164  1.00  0.00    -0.299 A  
HETATM   16  C   UNL     1      -8.401   8.919  71.526  1.00  0.00    -0.163 A  
BRANCH  15  17
HETATM   17  N   UNL     1     -10.736   8.421  72.012  1.00  0.00    -0.291 N  
HETATM   18  H   UNL     1     -11.413   9.014  72.493  1.00  0.00     0.000 HD 
BRANCH  17  19
HETATM   19  S   UNL     1     -10.786   6.744  72.216  1.00  0.00    -0.228 S  
HETATM   20  O   UNL     1     -12.171   6.337  72.327  1.00  0.00    -0.286 OA 
HETATM   21  O   UNL     1      -9.853   6.432  73.279  1.00  0.00    -0.159 OA 
BRANCH  19  22
HETATM   22  C   UNL     1     -10.097   6.085  70.747  1.00  0.00    -0.197 A  
HETATM   23  C   UNL     1     -10.854   6.132  69.582  1.00  0.00    -0.356 A  
HETATM   24  F   UNL     1     -12.140   6.508  69.613  1.00  0.00    -0.393 F  
HETATM   25  C   UNL     1     -10.291   5.798  68.350  1.00  0.00    -0.269 A  
HETATM   26  C   UNL     1      -8.953   5.413  68.280  1.00  0.00    -0.112 A  
HETATM   27  C   UNL     1      -8.198   5.344  69.450  1.00  0.00    -0.096 A  
HETATM   28  C   UNL     1      -8.771   5.683  70.679  1.00  0.00    -0.134 A  
HETATM   29  F   UNL     1      -7.988   5.630  71.762  1.00  0.00    -0.104 F  
ENDBRANCH  19  22
ENDBRANCH  17  19
ENDBRANCH  15  17
ENDBRANCH   7  10
BRANCH   8  30
HETATM   30  C   UNL     1      -8.313   8.830  66.064  1.00  0.00    -0.126 A  
HETATM   31  C   UNL     1      -8.202   6.746  65.139  1.00  0.00    -0.114 A  
HETATM   32  N   UNL     1      -8.955   7.798  65.486  1.00  0.00    -0.017 NA 
HETATM   33  N   UNL     1      -8.816   5.666  64.547  1.00  0.00    -0.362 NA 
HETATM   34  N   UNL     1      -6.873   6.673  65.261  1.00  0.00    -0.053 NA 
HETATM   35  C   UNL     1      -6.261   7.729  65.808  1.00  0.00    -0.042 A  
HETATM   36  H2  UNL     1      -9.822   5.667  64.377  1.00  0.00     0.000 HD 
HETATM   37  C   UNL     1      -6.938   8.840  66.237  1.00  0.00    -0.081 A  
HETATM   38  H1  UNL     1      -8.243   4.865  64.282  1.00  0.00     0.000 HD 
ENDBRANCH   8  30
ENDBRANCH   2   5
TORSDOF 6
ENDMDL
MODEL      129
REMARK 921   NORMALIZED FREE ENERGY PREDICTED BY IDOCK:   -5.92 KCAL/MOL
REMARK 922        TOTAL FREE ENERGY PREDICTED BY IDOCK:   -9.12 KCAL/MOL
REMARK 923 INTER-LIGAND FREE ENERGY PREDICTED BY IDOCK:   -8.37 KCAL/MOL
REMARK 924 INTRA-LIGAND FREE ENERGY PREDICTED BY IDOCK:   -0.75 KCAL/MOL
REMARK 927      BINDING AFFINITY PREDICTED BY RF-SCORE:    0.00 PKD
ROOT
HETATM    1  C   UNL     1      -7.807   3.086  67.448  1.00  0.00    -0.076 C  
HETATM    2  C   UNL     1      -7.566   4.456  66.788  1.00  0.00    -0.086 C  
HETATM    3  C   UNL     1      -8.169   4.407  65.365  1.00  0.00    -0.110 C  
HETATM    4  C   UNL     1      -6.039   4.661  66.667  1.00  0.00    -0.031 C  
ENDROOT
BRANCH   2   5
HETATM    5  C   UNL     1      -8.186   5.605  67.604  1.00  0.00    -0.101 A  
HETATM    6  N   UNL     1      -8.159   6.900  67.339  1.00  0.00    -0.114 NA 
HETATM    7  C   UNL     1      -8.869   7.644  68.312  1.00  0.00    -0.125 A  
HETATM    8  C   UNL     1      -9.378   6.870  69.353  1.00  0.00    -0.146 A  
HETATM    9  S   UNL     1      -9.062   5.208  69.019  1.00  0.00    -0.110 SA 
BRANCH   7  10
HETATM   10  C   UNL     1      -9.015   9.108  68.169  1.00  0.00    -0.129 A  
HETATM   11  C   UNL     1     -10.168   9.672  67.587  1.00  0.00    -0.216 A  
HETATM   12  C   UNL     1      -8.044  10.006  68.650  1.00  0.00    -0.102 A  
HETATM   13  F   UNL     1     -11.130   8.892  67.065  1.00  0.00    -0.238 F  
HETATM   14  C   UNL     1      -8.251  11.391  68.640  1.00  0.00    -0.142 A  
HETATM   15  C   UNL     1     -10.379  11.064  67.567  1.00  0.00    -0.198 A  
HETATM   16  C   UNL     1      -9.422  11.920  68.106  1.00  0.00    -0.195 A  
BRANCH  15  17
HETATM   17  N   UNL     1     -11.609  11.611  67.078  1.00  0.00    -0.261 N  
HETATM   18  H   UNL     1     -12.495  11.337  67.503  1.00  0.00     0.000 HD 
BRANCH  17  19
HETATM   19  S   UNL     1     -11.591  12.713  65.796  1.00  0.00    -0.407 S  
HETATM   20  O   UNL     1     -12.925  12.787  65.237  1.00  0.00    -0.690 OA 
HETATM   21  O   UNL     1     -10.474  12.343  64.953  1.00  0.00    -0.281 OA 
BRANCH  19  22
HETATM   22  C   UNL     1     -11.173  14.251  66.522  1.00  0.00    -0.332 A  
HETATM   23  C   UNL     1     -10.447  15.163  65.766  1.00  0.00    -0.339 A  
HETATM   24  F   UNL     1      -9.926  14.815  64.581  1.00  0.00    -0.348 F  
HETATM   25  C   UNL     1     -10.248  16.469  66.218  1.00  0.00    -0.343 A  
HETATM   26  C   UNL     1     -10.785  16.868  67.441  1.00  0.00    -0.241 A  
HETATM   27  C   UNL     1     -11.495  15.948  68.211  1.00  0.00    -0.320 A  
HETATM   28  C   UNL     1     -11.690  14.644  67.748  1.00  0.00    -0.359 A  
HETATM   29  F   UNL     1     -12.408  13.816  68.514  1.00  0.00    -0.399 F  
ENDBRANCH  19  22
ENDBRANCH  17  19
ENDBRANCH  15  17
ENDBRANCH   7  10
BRANCH   8  30
HETATM   30  C   UNL     1     -10.122   7.128  70.600  1.00  0.00    -0.191 A  
HETATM   31  C   UNL     1     -10.071   7.676  72.816  1.00  0.00    -0.254 A  
HETATM   32  N   UNL     1      -9.394   7.472  71.678  1.00  0.00    -0.145 NA 
HETATM   33  N   UNL     1      -9.366   8.027  73.944  1.00  0.00    -0.289 NA 
HETATM   34  N   UNL     1     -11.401   7.628  72.943  1.00  0.00    -0.368 NA 
HETATM   35  C   UNL     1     -12.099   7.317  71.845  1.00  0.00    -0.314 A  
HETATM   36  H2  UNL     1      -8.352   8.130  73.915  1.00  0.00     0.000 HD 
HETATM   37  C   UNL     1     -11.506   7.049  70.639  1.00  0.00    -0.367 A  
HETATM   38  H1  UNL     1      -9.882   8.182  74.810  1.00  0.00     0.000 HD 
ENDBRANCH   8  30
ENDBRANCH   2   5
TORSDOF 6
ENDMDL
MODEL      130
REMARK 921   NORMALIZED FREE ENERGY PREDICTED BY IDOCK:   -5.91 KCAL/MOL
REMARK 922        TOTAL FREE ENERGY PREDICTED BY IDOCK:   -9.10 KCAL/MOL
REMARK 923 INTER-LIGAND FREE ENERGY PREDICTED BY IDOCK:   -8.21 KCAL/MOL
REMARK 924 INTRA-LIGAND FREE ENERGY PREDICTED BY IDOCK:   -0.90 KCAL/MOL
REMARK 927      BINDING AFFINITY PREDICTED BY RF-SCORE:    0.00 PKD
ROOT
HETATM    1  C   UNL     1      -7.561   8.016  63.036  1.00  0.00    -0.128 C  
HETATM    2  C   UNL     1      -7.948   9.498  63.191  1.00  0.00    -0.141 C  
HETATM    3  C   UNL     1      -9.213   9.747  62.336  1.00  0.00    -0.294 C  
HETATM    4  C   UNL     1      -6.793  10.351  62.618  1.00  0.00    -0.132 C  
ENDROOT
BRANCH   2   5
HETATM    5  C   UNL     1      -8.200   9.877  64.661  1.00  0.00    -0.153 A  
HETATM    6  N   UNL     1      -9.119  10.694  65.146  1.00  0.00    -0.193 NA 
HETATM    7  C   UNL     1      -9.057  10.766  66.560  1.00  0.00    -0.165 A  
HETATM    8  C   UNL     1      -8.017  10.022  67.117  1.00  0.00    -0.109 A  
HETATM    9  S   UNL     1      -7.221   9.148  65.861  1.00  0.00    -0.094 SA 
BRANCH   7  10
HETATM   10  C   UNL     1     -10.039  11.578  67.308  1.00  0.00    -0.223 A  
HETATM   11  C   UNL     1     -10.097  12.977  67.153  1.00  0.00    -0.244 A  
HETATM   12  C   UNL     1     -10.991  10.994  68.164  1.00  0.00    -0.301 A  
HETATM   13  F   UNL     1      -9.203  13.624  66.386  1.00  0.00    -0.256 F  
HETATM   14  C   UNL     1     -12.009  11.751  68.760  1.00  0.00    -0.317 A  
HETATM   15  C   UNL     1     -11.113  13.744  67.755  1.00  0.00    -0.268 A  
HETATM   16  C   UNL     1     -12.075  13.125  68.549  1.00  0.00    -0.217 A  
BRANCH  15  17
HETATM   17  N   UNL     1     -11.224  15.147  67.490  1.00  0.00    -0.327 N  
HETATM   18  H   UNL     1     -11.747  15.474  66.678  1.00  0.00     0.000 HD 
BRANCH  17  19
HETATM   19  S   UNL     1     -10.488  16.262  68.526  1.00  0.00    -0.296 S  
HETATM   20  O   UNL     1      -9.118  15.849  68.745  1.00  0.00    -0.194 OA 
HETATM   21  O   UNL     1     -11.382  16.427  69.654  1.00  0.00    -0.295 OA 
BRANCH  19  22
HETATM   22  C   UNL     1     -10.510  17.780  67.653  1.00  0.00    -0.388 A  
HETATM   23  C   UNL     1     -10.273  18.953  68.360  1.00  0.00    -0.373 A  
HETATM   24  F   UNL     1     -10.204  18.948  69.699  1.00  0.00    -0.266 F  
HETATM   25  C   UNL     1     -10.092  20.166  67.693  1.00  0.00    -0.542 A  
HETATM   26  C   UNL     1     -10.147  20.206  66.301  1.00  0.00    -0.552 A  
HETATM   27  C   UNL     1     -10.407  19.034  65.591  1.00  0.00    -0.156 A  
HETATM   28  C   UNL     1     -10.585  17.825  66.269  1.00  0.00    -0.220 A  
HETATM   29  F   UNL     1     -10.797  16.728  65.533  1.00  0.00    -0.337 F  
ENDBRANCH  19  22
ENDBRANCH  17  19
ENDBRANCH  15  17
ENDBRANCH   7  10
BRANCH   8  30
HETATM   30  C   UNL     1      -7.488   9.792  68.474  1.00  0.00    -0.079 A  
HETATM   31  C   UNL     1      -6.452  10.637  70.325  1.00  0.00    -0.138 A  
HETATM   32  N   UNL     1      -6.960  10.857  69.104  1.00  0.00    -0.085 NA 
HETATM   33  N   UNL     1      -5.900  11.697  71.006  1.00  0.00    -0.428 NA 
HETATM   34  N   UNL     1      -6.490   9.472  70.979  1.00  0.00    -0.162 NA 
HETATM   35  C   UNL     1      -7.052   8.441  70.338  1.00  0.00    -0.037 A  
HETATM   36  H2  UNL     1      -5.877  12.629  70.591  1.00  0.00     0.000 HD 
HETATM   37  C   UNL     1      -7.565   8.544  69.072  1.00  0.00    -0.094 A  
HETATM   38  H1  UNL     1      -5.513  11.529  71.935  1.00  0.00     0.000 HD 
ENDBRANCH   8  30
ENDBRANCH   2   5
TORSDOF 6
ENDMDL
MODEL      131
REMARK 921   NORMALIZED FREE ENERGY PREDICTED BY IDOCK:   -5.86 KCAL/MOL
REMARK 922        TOTAL FREE ENERGY PREDICTED BY IDOCK:   -9.04 KCAL/MOL
REMARK 923 INTER-LIGAND FREE ENERGY PREDICTED BY IDOCK:   -7.80 KCAL/MOL
REMARK 924 INTRA-LIGAND FREE ENERGY PREDICTED BY IDOCK:   -1.23 KCAL/MOL
REMARK 927      BINDING AFFINITY PREDICTED BY RF-SCORE:    0.00 PKD
ROOT
HETATM    1  C   UNL     1     -11.831  14.673  67.912  1.00  0.00    -0.352 C  
HETATM    2  C   UNL     1     -11.448  13.636  66.841  1.00  0.00    -0.369 C  
HETATM    3  C   UNL     1     -10.139  14.113  66.170  1.00  0.00    -0.324 C  
HETATM    4  C   UNL     1     -12.568  13.619  65.776  1.00  0.00    -0.511 C  
ENDROOT
BRANCH   2   5
HETATM    5  C   UNL     1     -11.272  12.229  67.440  1.00  0.00    -0.301 A  
HETATM    6  N   UNL     1     -10.953  11.110  66.812  1.00  0.00    -0.271 NA 
HETATM    7  C   UNL     1     -10.855  10.020  67.710  1.00  0.00    -0.282 A  
HETATM    8  C   UNL     1     -11.175  10.344  69.028  1.00  0.00    -0.234 A  
HETATM    9  S   UNL     1     -11.467  12.041  69.129  1.00  0.00    -0.319 SA 
BRANCH   7  10
HETATM   10  C   UNL     1     -10.446   8.686  67.221  1.00  0.00    -0.360 A  
HETATM   11  C   UNL     1      -9.286   8.522  66.438  1.00  0.00    -0.213 A  
HETATM   12  C   UNL     1     -11.157   7.519  67.553  1.00  0.00     0.025 A  
HETATM   13  F   UNL     1      -8.566   9.584  66.040  1.00  0.00    -0.123 F  
HETATM   14  C   UNL     1     -10.688   6.245  67.207  1.00  0.00    -0.424 A  
HETATM   15  C   UNL     1      -8.813   7.245  66.080  1.00  0.00    -0.158 A  
HETATM   16  C   UNL     1      -9.511   6.108  66.477  1.00  0.00    -0.178 A  
BRANCH  15  17
HETATM   17  N   UNL     1      -7.569   7.094  65.385  1.00  0.00    -0.094 N  
HETATM   18  H   UNL     1      -7.564   6.897  64.384  1.00  0.00     0.000 HD 
BRANCH  17  19
HETATM   19  S   UNL     1      -6.110   7.240  66.225  1.00  0.00    -0.037 S  
HETATM   20  O   UNL     1      -5.733   8.638  66.249  1.00  0.00    -0.042 OA 
HETATM   21  O   UNL     1      -5.209   6.258  65.656  1.00  0.00    -0.013 OA 
BRANCH  19  22
HETATM   22  C   UNL     1      -6.463   6.700  67.853  1.00  0.00    -0.056 A  
HETATM   23  C   UNL     1      -6.664   7.659  68.839  1.00  0.00    -0.050 A  
HETATM   24  F   UNL     1      -6.421   8.955  68.597  1.00  0.00    -0.050 F  
HETATM   25  C   UNL     1      -7.132   7.297  70.103  1.00  0.00    -0.065 A  
HETATM   26  C   UNL     1      -7.405   5.960  70.385  1.00  0.00    -0.087 A  
HETATM   27  C   UNL     1      -7.183   4.993  69.404  1.00  0.00    -0.056 A  
HETATM   28  C   UNL     1      -6.716   5.367  68.141  1.00  0.00    -0.054 A  
HETATM   29  F   UNL     1      -6.555   4.400  67.230  1.00  0.00    -0.041 F  
ENDBRANCH  19  22
ENDBRANCH  17  19
ENDBRANCH  15  17
ENDBRANCH   7  10
BRANCH   8  30
HETATM   30  C   UNL     1     -11.281   9.612  70.303  1.00  0.00    -0.271 A  
HETATM   31  C   UNL     1     -12.553   9.024  72.106  1.00  0.00    -0.391 A  
HETATM   32  N   UNL     1     -12.470   9.665  70.932  1.00  0.00    -0.272 NA 
HETATM   33  N   UNL     1     -13.749   9.053  72.785  1.00  0.00    -0.876 NA 
HETATM   34  N   UNL     1     -11.579   8.294  72.658  1.00  0.00    -0.392 NA 
HETATM   35  C   UNL     1     -10.421   8.233  71.991  1.00  0.00    -0.280 A  
HETATM   36  H2  UNL     1     -14.554   9.551  72.405  1.00  0.00     0.000 HD 
HETATM   37  C   UNL     1     -10.213   8.884  70.804  1.00  0.00    -0.282 A  
HETATM   38  H1  UNL     1     -13.812   8.565  73.679  1.00  0.00     0.000 HD 
ENDBRANCH   8  30
ENDBRANCH   2   5
TORSDOF 6
ENDMDL
MODEL      132
REMARK 921   NORMALIZED FREE ENERGY PREDICTED BY IDOCK:   -5.86 KCAL/MOL
REMARK 922        TOTAL FREE ENERGY PREDICTED BY IDOCK:   -9.04 KCAL/MOL
REMARK 923 INTER-LIGAND FREE ENERGY PREDICTED BY IDOCK:   -8.50 KCAL/MOL
REMARK 924 INTRA-LIGAND FREE ENERGY PREDICTED BY IDOCK:   -0.54 KCAL/MOL
REMARK 927      BINDING AFFINITY PREDICTED BY RF-SCORE:    0.00 PKD
ROOT
HETATM    1  C   UNL     1      -8.467   6.191  65.633  1.00  0.00    -0.151 C  
HETATM    2  C   UNL     1      -9.266   5.450  66.720  1.00  0.00    -0.128 C  
HETATM    3  C   UNL     1      -8.469   4.183  67.111  1.00  0.00    -0.100 C  
HETATM    4  C   UNL     1     -10.612   5.011  66.099  1.00  0.00    -0.321 C  
ENDROOT
BRANCH   2   5
HETATM    5  C   UNL     1      -9.522   6.336  67.952  1.00  0.00    -0.115 A  
HETATM    6  N   UNL     1      -9.937   7.591  67.981  1.00  0.00    -0.165 NA 
HETATM    7  C   UNL     1     -10.084   8.059  69.309  1.00  0.00    -0.198 A  
HETATM    8  C   UNL     1      -9.703   7.132  70.279  1.00  0.00    -0.175 A  
HETATM    9  S   UNL     1      -9.291   5.649  69.501  1.00  0.00    -0.137 SA 
BRANCH   7  10
HETATM   10  C   UNL     1     -10.599   9.420  69.567  1.00  0.00    -0.237 A  
HETATM   11  C   UNL     1      -9.966  10.555  69.022  1.00  0.00    -0.211 A  
HETATM   12  C   UNL     1     -11.768   9.646  70.318  1.00  0.00    -0.213 A  
HETATM   13  F   UNL     1      -8.824  10.438  68.324  1.00  0.00    -0.124 F  
HETATM   14  C   UNL     1     -12.330  10.923  70.440  1.00  0.00    -0.436 A  
HETATM   15  C   UNL     1     -10.522  11.841  69.147  1.00  0.00    -0.024 A  
HETATM   16  C   UNL     1     -11.712  12.020  69.848  1.00  0.00    -0.374 A  
BRANCH  15  17
HETATM   17  N   UNL     1      -9.926  12.964  68.487  1.00  0.00    -0.344 N  
HETATM   18  H   UNL     1      -9.075  13.384  68.860  1.00  0.00     0.000 HD 
BRANCH  17  19
HETATM   19  S   UNL     1     -10.636  13.595  67.088  1.00  0.00    -0.273 S  
HETATM   20  O   UNL     1     -12.043  13.255  67.095  1.00  0.00    -0.361 OA 
HETATM   21  O   UNL     1      -9.798  13.182  65.981  1.00  0.00    -0.280 OA 
BRANCH  19  22
HETATM   22  C   UNL     1     -10.452  15.331  67.226  1.00  0.00    -0.275 A  
HETATM   23  C   UNL     1     -10.531  16.098  66.070  1.00  0.00    -0.338 A  
HETATM   24  F   UNL     1     -10.571  15.519  64.861  1.00  0.00    -0.394 F  
HETATM   25  C   UNL     1     -10.582  17.491  66.138  1.00  0.00    -0.211 A  
HETATM   26  C   UNL     1     -10.553  18.126  67.379  1.00  0.00    -0.406 A  
HETATM   27  C   UNL     1     -10.450  17.359  68.539  1.00  0.00    -0.370 A  
HETATM   28  C   UNL     1     -10.403  15.965  68.459  1.00  0.00    -0.232 A  
HETATM   29  F   UNL     1     -10.339  15.281  69.607  1.00  0.00    -0.218 F  
ENDBRANCH  19  22
ENDBRANCH  17  19
ENDBRANCH  15  17
ENDBRANCH   7  10
BRANCH   8  30
HETATM   30  C   UNL     1      -9.611   7.116  71.750  1.00  0.00    -0.151 A  
HETATM   31  C   UNL     1      -8.614   7.913  73.644  1.00  0.00    -0.258 A  
HETATM   32  N   UNL     1      -8.717   7.953  72.308  1.00  0.00    -0.133 NA 
HETATM   33  N   UNL     1      -7.710   8.750  74.257  1.00  0.00    -0.404 NA 
HETATM   34  N   UNL     1      -9.366   7.162  74.455  1.00  0.00    -0.204 NA 
HETATM   35  C   UNL     1     -10.269   6.367  73.871  1.00  0.00    -0.313 A  
HETATM   36  H2  UNL     1      -7.132   9.386  73.708  1.00  0.00     0.000 HD 
HETATM   37  C   UNL     1     -10.430   6.298  72.512  1.00  0.00    -0.228 A  
HETATM   38  H1  UNL     1      -7.632   8.719  75.274  1.00  0.00     0.000 HD 
ENDBRANCH   8  30
ENDBRANCH   2   5
TORSDOF 6
ENDMDL
MODEL      133
REMARK 921   NORMALIZED FREE ENERGY PREDICTED BY IDOCK:   -5.79 KCAL/MOL
REMARK 922        TOTAL FREE ENERGY PREDICTED BY IDOCK:   -8.94 KCAL/MOL
REMARK 923 INTER-LIGAND FREE ENERGY PREDICTED BY IDOCK:   -7.85 KCAL/MOL
REMARK 924 INTRA-LIGAND FREE ENERGY PREDICTED BY IDOCK:   -1.09 KCAL/MOL
REMARK 927      BINDING AFFINITY PREDICTED BY RF-SCORE:    0.00 PKD
ROOT
HETATM    1  C   UNL     1     -11.029  14.417  64.828  1.00  0.00    -0.409 C  
HETATM    2  C   UNL     1     -11.693  13.241  65.566  1.00  0.00    -0.376 C  
HETATM    3  C   UNL     1     -12.772  12.645  64.631  1.00  0.00    -0.458 C  
HETATM    4  C   UNL     1     -12.393  13.806  66.824  1.00  0.00    -0.365 C  
ENDROOT
BRANCH   2   5
HETATM    5  C   UNL     1     -10.671  12.166  65.974  1.00  0.00    -0.273 A  
HETATM    6  N   UNL     1     -10.212  11.895  67.184  1.00  0.00    -0.207 NA 
HETATM    7  C   UNL     1      -9.302  10.810  67.163  1.00  0.00    -0.155 A  
HETATM    8  C   UNL     1      -9.043  10.315  65.886  1.00  0.00    -0.163 A  
HETATM    9  S   UNL     1     -10.048  11.141  64.754  1.00  0.00    -0.319 SA 
BRANCH   7  10
HETATM   10  C   UNL     1      -8.718  10.304  68.423  1.00  0.00    -0.129 A  
HETATM   11  C   UNL     1      -9.319   9.243  69.131  1.00  0.00    -0.157 A  
HETATM   12  C   UNL     1      -7.516  10.814  68.947  1.00  0.00    -0.116 A  
HETATM   13  F   UNL     1     -10.488   8.719  68.726  1.00  0.00    -0.214 F  
HETATM   14  C   UNL     1      -6.893  10.237  70.062  1.00  0.00    -0.146 A  
HETATM   15  C   UNL     1      -8.702   8.664  70.255  1.00  0.00    -0.147 A  
HETATM   16  C   UNL     1      -7.482   9.157  70.711  1.00  0.00    -0.133 A  
BRANCH  15  17
HETATM   17  N   UNL     1      -9.270   7.512  70.890  1.00  0.00    -0.153 N  
HETATM   18  H   UNL     1      -9.263   6.611  70.413  1.00  0.00     0.000 HD 
BRANCH  17  19
HETATM   19  S   UNL     1      -9.951   7.648  72.431  1.00  0.00    -0.221 S  
HETATM   20  O   UNL     1      -9.390   8.815  73.079  1.00  0.00    -0.204 OA 
HETATM   21  O   UNL     1      -9.824   6.345  73.052  1.00  0.00    -0.161 OA 
BRANCH  19  22
HETATM   22  C   UNL     1     -11.662   7.897  72.154  1.00  0.00    -0.333 A  
HETATM   23  C   UNL     1     -12.092   9.159  71.762  1.00  0.00    -0.376 A  
HETATM   24  F   UNL     1     -11.251  10.204  71.765  1.00  0.00    -0.283 F  
HETATM   25  C   UNL     1     -13.407   9.370  71.346  1.00  0.00    -0.417 A  
HETATM   26  C   UNL     1     -14.305   8.304  71.320  1.00  0.00    -0.360 A  
HETATM   27  C   UNL     1     -13.882   7.041  71.734  1.00  0.00    -0.320 A  
HETATM   28  C   UNL     1     -12.562   6.841  72.147  1.00  0.00    -0.124 A  
HETATM   29  F   UNL     1     -12.205   5.601  72.500  1.00  0.00    -0.349 F  
ENDBRANCH  19  22
ENDBRANCH  17  19
ENDBRANCH  15  17
ENDBRANCH   7  10
BRANCH   8  30
HETATM   30  C   UNL     1      -8.176   9.271  65.310  1.00  0.00    -0.134 A  
HETATM   31  C   UNL     1      -7.958   7.134  64.537  1.00  0.00    -0.104 A  
HETATM   32  N   UNL     1      -8.756   8.089  65.031  1.00  0.00    -0.010 NA 
HETATM   33  N   UNL     1      -8.508   5.908  64.239  1.00  0.00    -0.324 NA 
HETATM   34  N   UNL     1      -6.662   7.284  64.244  1.00  0.00    -0.046 NA 
HETATM   35  C   UNL     1      -6.123   8.481  64.500  1.00  0.00    -0.065 A  
HETATM   36  H2  UNL     1      -9.501   5.731  64.392  1.00  0.00     0.000 HD 
HETATM   37  C   UNL     1      -6.837   9.516  65.044  1.00  0.00    -0.097 A  
HETATM   38  H1  UNL     1      -7.900   5.181  63.863  1.00  0.00     0.000 HD 
ENDBRANCH   8  30
ENDBRANCH   2   5
TORSDOF 6
ENDMDL
MODEL      134
REMARK 921   NORMALIZED FREE ENERGY PREDICTED BY IDOCK:   -5.78 KCAL/MOL
REMARK 922        TOTAL FREE ENERGY PREDICTED BY IDOCK:   -8.93 KCAL/MOL
REMARK 923 INTER-LIGAND FREE ENERGY PREDICTED BY IDOCK:   -7.70 KCAL/MOL
REMARK 924 INTRA-LIGAND FREE ENERGY PREDICTED BY IDOCK:   -1.23 KCAL/MOL
REMARK 927      BINDING AFFINITY PREDICTED BY RF-SCORE:    0.00 PKD
ROOT
HETATM    1  C   UNL     1      -7.101  14.743  69.730  1.00  0.00    -0.132 C  
HETATM    2  C   UNL     1      -6.414  13.462  69.223  1.00  0.00    -0.111 C  
HETATM    3  C   UNL     1      -5.809  12.735  70.448  1.00  0.00    -0.153 C  
HETATM    4  C   UNL     1      -5.260  13.884  68.285  1.00  0.00    -0.110 C  
ENDROOT
BRANCH   2   5
HETATM    5  C   UNL     1      -7.391  12.542  68.470  1.00  0.00    -0.115 A  
HETATM    6  N   UNL     1      -7.706  11.288  68.746  1.00  0.00    -0.134 NA 
HETATM    7  C   UNL     1      -8.671  10.784  67.839  1.00  0.00    -0.129 A  
HETATM    8  C   UNL     1      -9.023  11.683  66.833  1.00  0.00    -0.191 A  
HETATM    9  S   UNL     1      -8.229  13.186  67.125  1.00  0.00    -0.065 SA 
BRANCH   7  10
HETATM   10  C   UNL     1      -9.208   9.418  68.008  1.00  0.00    -0.137 A  
HETATM   11  C   UNL     1     -10.166   9.128  69.000  1.00  0.00    -0.207 A  
HETATM   12  C   UNL     1      -8.835   8.359  67.160  1.00  0.00    -0.139 A  
HETATM   13  F   UNL     1     -10.553  10.068  69.880  1.00  0.00    -0.229 F  
HETATM   14  C   UNL     1      -9.451   7.103  67.232  1.00  0.00    -0.169 A  
HETATM   15  C   UNL     1     -10.784   7.867  69.084  1.00  0.00    -0.117 A  
HETATM   16  C   UNL     1     -10.432   6.859  68.189  1.00  0.00    -0.243 A  
BRANCH  15  17
HETATM   17  N   UNL     1     -11.838   7.628  70.023  1.00  0.00    -0.407 N  
HETATM   18  H   UNL     1     -12.811   7.679  69.723  1.00  0.00     0.000 HD 
BRANCH  17  19
HETATM   19  S   UNL     1     -11.468   7.262  71.632  1.00  0.00    -0.277 S  
HETATM   20  O   UNL     1     -12.301   6.155  72.052  1.00  0.00    -0.290 OA 
HETATM   21  O   UNL     1     -11.509   8.514  72.358  1.00  0.00    -0.369 OA 
BRANCH  19  22
HETATM   22  C   UNL     1      -9.791   6.759  71.611  1.00  0.00    -0.165 A  
HETATM   23  C   UNL     1      -9.488   5.485  71.146  1.00  0.00    -0.159 A  
HETATM   24  F   UNL     1     -10.459   4.599  70.885  1.00  0.00    -0.267 F  
HETATM   25  C   UNL     1      -8.164   5.099  70.929  1.00  0.00    -0.110 A  
HETATM   26  C   UNL     1      -7.130   5.998  71.180  1.00  0.00    -0.073 A  
HETATM   27  C   UNL     1      -7.430   7.270  71.668  1.00  0.00    -0.085 A  
HETATM   28  C   UNL     1      -8.759   7.646  71.879  1.00  0.00    -0.113 A  
HETATM   29  F   UNL     1      -8.988   8.890  72.316  1.00  0.00    -0.293 F  
ENDBRANCH  19  22
ENDBRANCH  17  19
ENDBRANCH  15  17
ENDBRANCH   7  10
BRANCH   8  30
HETATM   30  C   UNL     1      -9.905  11.658  65.652  1.00  0.00    -0.240 A  
HETATM   31  C   UNL     1     -11.912  12.209  64.713  1.00  0.00    -0.307 A  
HETATM   32  N   UNL     1     -11.101  12.261  65.779  1.00  0.00    -0.310 NA 
HETATM   33  N   UNL     1     -13.147  12.810  64.799  1.00  0.00    -0.836 NA 
HETATM   34  N   UNL     1     -11.601  11.669  63.531  1.00  0.00    -0.392 NA 
HETATM   35  C   UNL     1     -10.391  11.108  63.426  1.00  0.00    -0.360 A  
HETATM   36  H2  UNL     1     -13.438  13.284  65.654  1.00  0.00     0.000 HD 
HETATM   37  C   UNL     1      -9.499  11.067  64.465  1.00  0.00    -0.269 A  
HETATM   38  H1  UNL     1     -13.764  12.771  63.988  1.00  0.00     0.000 HD 
ENDBRANCH   8  30
ENDBRANCH   2   5
TORSDOF 6
ENDMDL
MODEL      135
REMARK 921   NORMALIZED FREE ENERGY PREDICTED BY IDOCK:   -5.76 KCAL/MOL
REMARK 922        TOTAL FREE ENERGY PREDICTED BY IDOCK:   -8.91 KCAL/MOL
REMARK 923 INTER-LIGAND FREE ENERGY PREDICTED BY IDOCK:   -8.35 KCAL/MOL
REMARK 924 INTRA-LIGAND FREE ENERGY PREDICTED BY IDOCK:   -0.56 KCAL/MOL
REMARK 927      BINDING AFFINITY PREDICTED BY RF-SCORE:    0.00 PKD
ROOT
HETATM    1  C   UNL     1      -8.396   5.745  73.112  1.00  0.00    -0.117 C  
HETATM    2  C   UNL     1      -9.167   6.999  72.662  1.00  0.00    -0.154 C  
HETATM    3  C   UNL     1      -8.381   8.238  73.152  1.00  0.00    -0.253 C  
HETATM    4  C   UNL     1     -10.545   6.984  73.362  1.00  0.00    -0.399 C  
ENDROOT
BRANCH   2   5
HETATM    5  C   UNL     1      -9.356   7.042  71.135  1.00  0.00    -0.158 A  
HETATM    6  N   UNL     1      -9.678   8.080  70.382  1.00  0.00    -0.178 NA 
HETATM    7  C   UNL     1      -9.728   7.732  69.011  1.00  0.00    -0.157 A  
HETATM    8  C   UNL     1      -9.493   6.379  68.763  1.00  0.00    -0.127 A  
HETATM    9  S   UNL     1      -9.089   5.603  70.249  1.00  0.00    -0.145 SA 
BRANCH   7  10
HETATM   10  C   UNL     1     -10.010   8.763  67.990  1.00  0.00    -0.220 A  
HETATM   11  C   UNL     1     -10.948   9.786  68.229  1.00  0.00    -0.164 A  
HETATM   12  C   UNL     1      -9.324   8.805  66.762  1.00  0.00    -0.229 A  
HETATM   13  F   UNL     1     -11.678   9.805  69.357  1.00  0.00    -0.144 F  
HETATM   14  C   UNL     1      -9.492   9.863  65.860  1.00  0.00    -0.272 A  
HETATM   15  C   UNL     1     -11.127  10.849  67.323  1.00  0.00    -0.283 A  
HETATM   16  C   UNL     1     -10.388  10.889  66.143  1.00  0.00    -0.305 A  
BRANCH  15  17
HETATM   17  N   UNL     1     -12.000  11.940  67.637  1.00  0.00    -0.174 N  
HETATM   18  H   UNL     1     -13.009  11.833  67.537  1.00  0.00     0.000 HD 
BRANCH  17  19
HETATM   19  S   UNL     1     -11.355  13.408  68.175  1.00  0.00    -0.308 S  
HETATM   20  O   UNL     1      -9.963  13.200  68.512  1.00  0.00    -0.232 OA 
HETATM   21  O   UNL     1     -12.272  13.918  69.172  1.00  0.00    -0.356 OA 
BRANCH  19  22
HETATM   22  C   UNL     1     -11.470  14.487  66.801  1.00  0.00    -0.367 A  
HETATM   23  C   UNL     1     -10.726  15.661  66.817  1.00  0.00    -0.300 A  
HETATM   24  F   UNL     1     -10.076  16.047  67.924  1.00  0.00    -0.229 F  
HETATM   25  C   UNL     1     -10.630  16.463  65.679  1.00  0.00    -0.337 A  
HETATM   26  C   UNL     1     -11.285  16.086  64.508  1.00  0.00    -0.309 A  
HETATM   27  C   UNL     1     -12.051  14.921  64.496  1.00  0.00    -0.420 A  
HETATM   28  C   UNL     1     -12.138  14.124  65.641  1.00  0.00    -0.415 A  
HETATM   29  F   UNL     1     -12.859  13.000  65.558  1.00  0.00    -0.518 F  
ENDBRANCH  19  22
ENDBRANCH  17  19
ENDBRANCH  15  17
ENDBRANCH   7  10
BRANCH   8  30
HETATM   30  C   UNL     1      -9.475   5.508  67.574  1.00  0.00    -0.117 A  
HETATM   31  C   UNL     1      -8.297   4.106  66.210  1.00  0.00    -0.105 A  
HETATM   32  N   UNL     1      -8.319   4.872  67.309  1.00  0.00    -0.106 NA 
HETATM   33  N   UNL     1      -7.135   3.439  65.899  1.00  0.00    -0.061 NA 
HETATM   34  N   UNL     1      -9.341   3.876  65.407  1.00  0.00    -0.150 NA 
HETATM   35  C   UNL     1     -10.486   4.495  65.718  1.00  0.00    -0.233 A  
HETATM   36  H2  UNL     1      -6.308   3.526  66.490  1.00  0.00     0.000 HD 
HETATM   37  C   UNL     1     -10.608   5.334  66.794  1.00  0.00    -0.309 A  
HETATM   38  H1  UNL     1      -7.119   2.855  65.062  1.00  0.00     0.000 HD 
ENDBRANCH   8  30
ENDBRANCH   2   5
TORSDOF 6
ENDMDL
MODEL      136
REMARK 921   NORMALIZED FREE ENERGY PREDICTED BY IDOCK:   -5.75 KCAL/MOL
REMARK 922        TOTAL FREE ENERGY PREDICTED BY IDOCK:   -8.90 KCAL/MOL
REMARK 923 INTER-LIGAND FREE ENERGY PREDICTED BY IDOCK:   -7.80 KCAL/MOL
REMARK 924 INTRA-LIGAND FREE ENERGY PREDICTED BY IDOCK:   -1.10 KCAL/MOL
REMARK 927      BINDING AFFINITY PREDICTED BY RF-SCORE:    0.00 PKD
ROOT
HETATM    1  C   UNL     1     -11.002   5.666  71.221  1.00  0.00    -0.251 C  
HETATM    2  C   UNL     1     -11.395   7.096  71.634  1.00  0.00    -0.282 C  
HETATM    3  C   UNL     1     -10.926   7.311  73.093  1.00  0.00    -0.384 C  
HETATM    4  C   UNL     1     -12.937   7.193  71.596  1.00  0.00    -0.415 C  
ENDROOT
BRANCH   2   5
HETATM    5  C   UNL     1     -10.780   8.154  70.702  1.00  0.00    -0.224 A  
HETATM    6  N   UNL     1     -11.409   9.038  69.946  1.00  0.00    -0.082 NA 
HETATM    7  C   UNL     1     -10.497   9.867  69.248  1.00  0.00    -0.221 A  
HETATM    8  C   UNL     1      -9.159   9.535  69.457  1.00  0.00    -0.185 A  
HETATM    9  S   UNL     1      -9.075   8.270  70.626  1.00  0.00    -0.157 SA 
BRANCH   7  10
HETATM   10  C   UNL     1     -10.993  10.966  68.393  1.00  0.00    -0.288 A  
HETATM   11  C   UNL     1     -11.460  12.172  68.953  1.00  0.00    -0.297 A  
HETATM   12  C   UNL     1     -10.976  10.885  66.988  1.00  0.00    -0.310 A  
HETATM   13  F   UNL     1     -11.548  12.325  70.285  1.00  0.00    -0.345 F  
HETATM   14  C   UNL     1     -11.314  11.979  66.182  1.00  0.00    -0.407 A  
HETATM   15  C   UNL     1     -11.807  13.273  68.149  1.00  0.00    -0.353 A  
HETATM   16  C   UNL     1     -11.722  13.176  66.762  1.00  0.00    -0.439 A  
BRANCH  15  17
HETATM   17  N   UNL     1     -12.167  14.528  68.739  1.00  0.00    -0.571 N  
HETATM   18  H   UNL     1     -13.143  14.821  68.761  1.00  0.00     0.000 HD 
BRANCH  17  19
HETATM   19  S   UNL     1     -10.970  15.522  69.401  1.00  0.00    -0.303 S  
HETATM   20  O   UNL     1     -10.167  14.730  70.309  1.00  0.00     0.107 OA 
HETATM   21  O   UNL     1     -11.644  16.710  69.882  1.00  0.00     0.051 OA 
BRANCH  19  22
HETATM   22  C   UNL     1      -9.991  16.026  68.040  1.00  0.00    -0.229 A  
HETATM   23  C   UNL     1     -10.219  17.282  67.491  1.00  0.00    -0.328 A  
HETATM   24  F   UNL     1     -11.272  18.019  67.872  1.00  0.00    -0.301 F  
HETATM   25  C   UNL     1      -9.352  17.813  66.534  1.00  0.00    -0.291 A  
HETATM   26  C   UNL     1      -8.241  17.078  66.122  1.00  0.00    -0.284 A  
HETATM   27  C   UNL     1      -8.023  15.808  66.656  1.00  0.00    -0.233 A  
HETATM   28  C   UNL     1      -8.897  15.288  67.614  1.00  0.00    -0.175 A  
HETATM   29  F   UNL     1      -8.618  14.079  68.115  1.00  0.00    -0.149 F  
ENDBRANCH  19  22
ENDBRANCH  17  19
ENDBRANCH  15  17
ENDBRANCH   7  10
BRANCH   8  30
HETATM   30  C   UNL     1      -7.858  10.017  68.960  1.00  0.00    -0.101 A  
HETATM   31  C   UNL     1      -6.281  11.669  68.928  1.00  0.00    -0.057 A  
HETATM   32  N   UNL     1      -7.449  11.220  69.406  1.00  0.00    -0.043 NA 
HETATM   33  N   UNL     1      -5.825  12.895  69.354  1.00  0.00    -0.089 NA 
HETATM   34  N   UNL     1      -5.472  10.994  68.105  1.00  0.00    -0.043 NA 
HETATM   35  C   UNL     1      -5.890   9.787  67.707  1.00  0.00    -0.040 A  
HETATM   36  H2  UNL     1      -6.365  13.450  70.019  1.00  0.00     0.000 HD 
HETATM   37  C   UNL     1      -7.087   9.249  68.101  1.00  0.00    -0.077 A  
HETATM   38  H1  UNL     1      -4.936  13.236  68.990  1.00  0.00     0.000 HD 
ENDBRANCH   8  30
ENDBRANCH   2   5
TORSDOF 6
ENDMDL
MODEL      137
REMARK 921   NORMALIZED FREE ENERGY PREDICTED BY IDOCK:   -5.75 KCAL/MOL
REMARK 922        TOTAL FREE ENERGY PREDICTED BY IDOCK:   -8.89 KCAL/MOL
REMARK 923 INTER-LIGAND FREE ENERGY PREDICTED BY IDOCK:   -7.39 KCAL/MOL
REMARK 924 INTRA-LIGAND FREE ENERGY PREDICTED BY IDOCK:   -1.50 KCAL/MOL
REMARK 927      BINDING AFFINITY PREDICTED BY RF-SCORE:    0.00 PKD
ROOT
HETATM    1  C   UNL     1      -7.824   8.471  63.154  1.00  0.00    -0.149 C  
HETATM    2  C   UNL     1      -8.166   9.972  63.137  1.00  0.00    -0.159 C  
HETATM    3  C   UNL     1      -9.498  10.143  62.370  1.00  0.00    -0.244 C  
HETATM    4  C   UNL     1      -7.051  10.701  62.353  1.00  0.00    -0.136 C  
ENDROOT
BRANCH   2   5
HETATM    5  C   UNL     1      -8.274  10.554  64.557  1.00  0.00    -0.077 A  
HETATM    6  N   UNL     1      -9.201  11.366  65.036  1.00  0.00    -0.137 NA 
HETATM    7  C   UNL     1      -8.978  11.660  66.404  1.00  0.00    -0.198 A  
HETATM    8  C   UNL     1      -7.814  11.091  66.920  1.00  0.00    -0.140 A  
HETATM    9  S   UNL     1      -7.096  10.095  65.709  1.00  0.00    -0.133 SA 
BRANCH   7  10
HETATM   10  C   UNL     1      -9.936  12.502  67.150  1.00  0.00    -0.217 A  
HETATM   11  C   UNL     1     -10.020  13.890  66.919  1.00  0.00    -0.264 A  
HETATM   12  C   UNL     1     -10.839  11.958  68.082  1.00  0.00    -0.259 A  
HETATM   13  F   UNL     1      -9.172  14.502  66.076  1.00  0.00    -0.288 F  
HETATM   14  C   UNL     1     -11.838  12.737  68.681  1.00  0.00    -0.341 A  
HETATM   15  C   UNL     1     -11.017  14.678  67.524  1.00  0.00    -0.298 A  
HETATM   16  C   UNL     1     -11.932  14.095  68.396  1.00  0.00    -0.366 A  
BRANCH  15  17
HETATM   17  N   UNL     1     -11.160  16.063  67.186  1.00  0.00    -0.180 N  
HETATM   18  H   UNL     1     -11.713  16.336  66.374  1.00  0.00     0.000 HD 
BRANCH  17  19
HETATM   19  S   UNL     1     -10.412  17.245  68.135  1.00  0.00    -0.390 S  
HETATM   20  O   UNL     1     -10.790  17.030  69.516  1.00  0.00    -0.264 OA 
HETATM   21  O   UNL     1     -10.687  18.517  67.500  1.00  0.00    -0.427 OA 
BRANCH  19  22
HETATM   22  C   UNL     1      -8.694  16.961  67.947  1.00  0.00    -0.213 A  
HETATM   23  C   UNL     1      -8.078  16.044  68.791  1.00  0.00    -0.212 A  
HETATM   24  F   UNL     1      -8.737  15.521  69.835  1.00  0.00    -0.252 F  
HETATM   25  C   UNL     1      -6.762  15.638  68.568  1.00  0.00    -0.114 A  
HETATM   26  C   UNL     1      -6.051  16.154  67.486  1.00  0.00    -0.190 A  
HETATM   27  C   UNL     1      -6.660  17.092  66.651  1.00  0.00    -0.272 A  
HETATM   28  C   UNL     1      -7.979  17.489  66.882  1.00  0.00    -0.226 A  
HETATM   29  F   UNL     1      -8.520  18.365  66.028  1.00  0.00    -0.274 F  
ENDBRANCH  19  22
ENDBRANCH  17  19
ENDBRANCH  15  17
ENDBRANCH   7  10
BRANCH   8  30
HETATM   30  C   UNL     1      -7.108  11.114  68.214  1.00  0.00    -0.073 A  
HETATM   31  C   UNL     1      -6.812  10.195  70.283  1.00  0.00    -0.148 A  
HETATM   32  N   UNL     1      -7.434  10.152  69.097  1.00  0.00    -0.088 NA 
HETATM   33  N   UNL     1      -7.117   9.233  71.218  1.00  0.00    -0.282 NA 
HETATM   34  N   UNL     1      -5.860  11.069  70.626  1.00  0.00    -0.240 NA 
HETATM   35  C   UNL     1      -5.534  11.991  69.713  1.00  0.00    -0.089 A  
HETATM   36  H2  UNL     1      -7.800   8.503  71.013  1.00  0.00     0.000 HD 
HETATM   37  C   UNL     1      -6.136  12.065  68.484  1.00  0.00    -0.051 A  
HETATM   38  H1  UNL     1      -6.643   9.266  72.121  1.00  0.00     0.000 HD 
ENDBRANCH   8  30
ENDBRANCH   2   5
TORSDOF 6
ENDMDL
MODEL      138
REMARK 921   NORMALIZED FREE ENERGY PREDICTED BY IDOCK:   -5.72 KCAL/MOL
REMARK 922        TOTAL FREE ENERGY PREDICTED BY IDOCK:   -8.85 KCAL/MOL
REMARK 923 INTER-LIGAND FREE ENERGY PREDICTED BY IDOCK:   -8.87 KCAL/MOL
REMARK 924 INTRA-LIGAND FREE ENERGY PREDICTED BY IDOCK:    0.01 KCAL/MOL
REMARK 927      BINDING AFFINITY PREDICTED BY RF-SCORE:    0.00 PKD
ROOT
HETATM    1  C   UNL     1      -6.437   8.804  64.684  1.00  0.00    -0.066 C  
HETATM    2  C   UNL     1      -7.427   8.011  65.557  1.00  0.00    -0.081 C  
HETATM    3  C   UNL     1      -6.601   7.135  66.528  1.00  0.00    -0.052 C  
HETATM    4  C   UNL     1      -8.238   7.081  64.625  1.00  0.00    -0.024 C  
ENDROOT
BRANCH   2   5
HETATM    5  C   UNL     1      -8.380   8.937  66.333  1.00  0.00    -0.116 A  
HETATM    6  N   UNL     1      -8.728  10.178  66.040  1.00  0.00    -0.137 NA 
HETATM    7  C   UNL     1      -9.654  10.694  66.980  1.00  0.00    -0.169 A  
HETATM    8  C   UNL     1      -9.942   9.817  68.026  1.00  0.00    -0.158 A  
HETATM    9  S   UNL     1      -9.140   8.319  67.735  1.00  0.00    -0.131 SA 
BRANCH   7  10
HETATM   10  C   UNL     1     -10.220  12.047  66.803  1.00  0.00    -0.225 A  
HETATM   11  C   UNL     1      -9.403  13.193  66.867  1.00  0.00    -0.246 A  
HETATM   12  C   UNL     1     -11.581  12.254  66.511  1.00  0.00    -0.440 A  
HETATM   13  F   UNL     1      -8.099  13.095  67.178  1.00  0.00    -0.169 F  
HETATM   14  C   UNL     1     -12.084  13.525  66.204  1.00  0.00    -0.482 A  
HETATM   15  C   UNL     1      -9.904  14.474  66.566  1.00  0.00    -0.285 A  
HETATM   16  C   UNL     1     -11.244  14.634  66.224  1.00  0.00    -0.340 A  
BRANCH  15  17
HETATM   17  N   UNL     1      -9.032  15.610  66.522  1.00  0.00    -0.281 N  
HETATM   18  H   UNL     1      -8.053  15.492  66.261  1.00  0.00     0.000 HD 
BRANCH  17  19
HETATM   19  S   UNL     1      -9.626  17.145  66.904  1.00  0.00    -0.274 S  
HETATM   20  O   UNL     1     -10.568  17.014  67.995  1.00  0.00    -0.346 OA 
HETATM   21  O   UNL     1     -10.047  17.744  65.654  1.00  0.00    -0.570 OA 
BRANCH  19  22
HETATM   22  C   UNL     1      -8.230  18.055  67.441  1.00  0.00    -0.224 A  
HETATM   23  C   UNL     1      -7.029  17.885  66.763  1.00  0.00    -0.191 A  
HETATM   24  F   UNL     1      -6.891  16.925  65.837  1.00  0.00    -0.178 F  
HETATM   25  C   UNL     1      -5.938  18.716  67.021  1.00  0.00    -0.169 A  
HETATM   26  C   UNL     1      -6.049  19.732  67.969  1.00  0.00    -0.249 A  
HETATM   27  C   UNL     1      -7.247  19.890  68.667  1.00  0.00    -0.323 A  
HETATM   28  C   UNL     1      -8.333  19.053  68.399  1.00  0.00    -0.348 A  
HETATM   29  F   UNL     1      -9.466  19.274  69.075  1.00  0.00    -0.396 F  
ENDBRANCH  19  22
ENDBRANCH  17  19
ENDBRANCH  15  17
ENDBRANCH   7  10
BRANCH   8  30
HETATM   30  C   UNL     1     -10.765   9.862  69.249  1.00  0.00    -0.224 A  
HETATM   31  C   UNL     1     -11.314   8.924  71.257  1.00  0.00    -0.300 A  
HETATM   32  N   UNL     1     -10.542   8.898  70.161  1.00  0.00    -0.216 NA 
HETATM   33  N   UNL     1     -11.123   7.956  72.216  1.00  0.00    -0.291 NA 
HETATM   34  N   UNL     1     -12.228   9.858  71.536  1.00  0.00    -0.394 NA 
HETATM   35  C   UNL     1     -12.401  10.822  70.625  1.00  0.00    -0.372 A  
HETATM   36  H2  UNL     1     -10.411   7.235  72.096  1.00  0.00     0.000 HD 
HETATM   37  C   UNL     1     -11.696  10.868  69.451  1.00  0.00    -0.397 A  
HETATM   38  H1  UNL     1     -11.710   7.975  73.050  1.00  0.00     0.000 HD 
ENDBRANCH   8  30
ENDBRANCH   2   5
TORSDOF 6
ENDMDL
MODEL      139
REMARK 921   NORMALIZED FREE ENERGY PREDICTED BY IDOCK:   -5.71 KCAL/MOL
REMARK 922        TOTAL FREE ENERGY PREDICTED BY IDOCK:   -8.83 KCAL/MOL
REMARK 923 INTER-LIGAND FREE ENERGY PREDICTED BY IDOCK:   -7.98 KCAL/MOL
REMARK 924 INTRA-LIGAND FREE ENERGY PREDICTED BY IDOCK:   -0.85 KCAL/MOL
REMARK 927      BINDING AFFINITY PREDICTED BY RF-SCORE:    0.00 PKD
ROOT
HETATM    1  C   UNL     1      -8.887   3.927  68.904  1.00  0.00    -0.153 C  
HETATM    2  C   UNL     1      -8.361   4.083  67.465  1.00  0.00    -0.098 C  
HETATM    3  C   UNL     1      -9.330   3.327  66.525  1.00  0.00    -0.145 C  
HETATM    4  C   UNL     1      -6.975   3.402  67.392  1.00  0.00    -0.054 C  
ENDROOT
BRANCH   2   5
HETATM    5  C   UNL     1      -8.242   5.560  67.052  1.00  0.00    -0.105 A  
HETATM    6  N   UNL     1      -8.234   6.627  67.833  1.00  0.00    -0.119 NA 
HETATM    7  C   UNL     1      -8.076   7.818  67.084  1.00  0.00    -0.118 A  
HETATM    8  C   UNL     1      -8.027   7.615  65.705  1.00  0.00    -0.116 A  
HETATM    9  S   UNL     1      -8.054   5.920  65.390  1.00  0.00    -0.136 SA 
BRANCH   7  10
HETATM   10  C   UNL     1      -7.979   9.123  67.772  1.00  0.00    -0.101 A  
HETATM   11  C   UNL     1      -9.088   9.988  67.853  1.00  0.00    -0.131 A  
HETATM   12  C   UNL     1      -6.801   9.539  68.419  1.00  0.00    -0.062 A  
HETATM   13  F   UNL     1     -10.242   9.691  67.232  1.00  0.00    -0.223 F  
HETATM   14  C   UNL     1      -6.757  10.709  69.189  1.00  0.00    -0.073 A  
HETATM   15  C   UNL     1      -9.048  11.169  68.619  1.00  0.00    -0.166 A  
HETATM   16  C   UNL     1      -7.883  11.520  69.295  1.00  0.00     0.153 A  
BRANCH  15  17
HETATM   17  N   UNL     1     -10.221  11.974  68.784  1.00  0.00    -0.366 N  
HETATM   18  H   UNL     1     -10.263  12.906  68.372  1.00  0.00     0.000 HD 
BRANCH  17  19
HETATM   19  S   UNL     1     -11.536  11.379  69.665  1.00  0.00    -0.310 S  
HETATM   20  O   UNL     1     -11.043  10.419  70.631  1.00  0.00    -0.313 OA 
HETATM   21  O   UNL     1     -12.533  10.980  68.694  1.00  0.00    -0.462 OA 
BRANCH  19  22
HETATM   22  C   UNL     1     -12.192  12.770  70.502  1.00  0.00    -0.307 A  
HETATM   23  C   UNL     1     -12.118  14.011  69.881  1.00  0.00    -0.345 A  
HETATM   24  F   UNL     1     -11.410  14.176  68.755  1.00  0.00    -0.244 F  
HETATM   25  C   UNL     1     -12.787  15.116  70.410  1.00  0.00    -0.346 A  
HETATM   26  C   UNL     1     -13.541  14.978  71.574  1.00  0.00    -0.536 A  
HETATM   27  C   UNL     1     -13.598  13.739  72.211  1.00  0.00    -0.656 A  
HETATM   28  C   UNL     1     -12.926  12.638  71.671  1.00  0.00    -0.299 A  
HETATM   29  F   UNL     1     -13.046  11.468  72.307  1.00  0.00    -0.587 F  
ENDBRANCH  19  22
ENDBRANCH  17  19
ENDBRANCH  15  17
ENDBRANCH   7  10
BRANCH   8  30
HETATM   30  C   UNL     1      -7.927   8.474  64.511  1.00  0.00    -0.145 A  
HETATM   31  C   UNL     1      -8.919   9.982  63.113  1.00  0.00    -0.259 A  
HETATM   32  N   UNL     1      -9.003   9.226  64.216  1.00  0.00    -0.157 NA 
HETATM   33  N   UNL     1      -9.997  10.766  62.772  1.00  0.00    -0.701 NA 
HETATM   34  N   UNL     1      -7.840  10.092  62.332  1.00  0.00    -0.128 NA 
HETATM   35  C   UNL     1      -6.775   9.358  62.672  1.00  0.00    -0.096 A  
HETATM   36  H2  UNL     1     -10.841  10.771  63.345  1.00  0.00     0.000 HD 
HETATM   37  C   UNL     1      -6.766   8.520  63.756  1.00  0.00    -0.080 A  
HETATM   38  H1  UNL     1      -9.933  11.341  61.931  1.00  0.00     0.000 HD 
ENDBRANCH   8  30
ENDBRANCH   2   5
TORSDOF 6
ENDMDL
MODEL      140
REMARK 921   NORMALIZED FREE ENERGY PREDICTED BY IDOCK:   -5.69 KCAL/MOL
REMARK 922        TOTAL FREE ENERGY PREDICTED BY IDOCK:   -8.81 KCAL/MOL
REMARK 923 INTER-LIGAND FREE ENERGY PREDICTED BY IDOCK:   -8.11 KCAL/MOL
REMARK 924 INTRA-LIGAND FREE ENERGY PREDICTED BY IDOCK:   -0.70 KCAL/MOL
REMARK 927      BINDING AFFINITY PREDICTED BY RF-SCORE:    0.00 PKD
ROOT
HETATM    1  C   UNL     1     -10.249   7.978  72.987  1.00  0.00    -0.357 C  
HETATM    2  C   UNL     1     -11.418   8.036  71.987  1.00  0.00    -0.364 C  
HETATM    3  C   UNL     1     -12.536   8.899  72.618  1.00  0.00    -0.267 C  
HETATM    4  C   UNL     1     -11.953   6.598  71.802  1.00  0.00    -0.391 C  
ENDROOT
BRANCH   2   5
HETATM    5  C   UNL     1     -10.985   8.613  70.627  1.00  0.00    -0.240 A  
HETATM    6  N   UNL     1     -11.215   9.822  70.145  1.00  0.00    -0.260 NA 
HETATM    7  C   UNL     1     -10.629   9.992  68.867  1.00  0.00    -0.218 A  
HETATM    8  C   UNL     1     -10.003   8.846  68.377  1.00  0.00    -0.178 A  
HETATM    9  S   UNL     1     -10.056   7.620  69.589  1.00  0.00    -0.199 SA 
BRANCH   7  10
HETATM   10  C   UNL     1     -10.714  11.295  68.175  1.00  0.00    -0.244 A  
HETATM   11  C   UNL     1      -9.696  12.260  68.310  1.00  0.00    -0.219 A  
HETATM   12  C   UNL     1     -11.780  11.615  67.314  1.00  0.00    -0.255 A  
HETATM   13  F   UNL     1      -8.659  12.057  69.141  1.00  0.00     0.048 F  
HETATM   14  C   UNL     1     -11.785  12.790  66.552  1.00  0.00    -0.463 A  
HETATM   15  C   UNL     1      -9.699  13.446  67.553  1.00  0.00    -0.224 A  
HETATM   16  C   UNL     1     -10.741  13.703  66.665  1.00  0.00    -0.280 A  
BRANCH  15  17
HETATM   17  N   UNL     1      -8.597  14.359  67.617  1.00  0.00    -0.173 N  
HETATM   18  H   UNL     1      -7.889  14.358  66.882  1.00  0.00     0.000 HD 
BRANCH  17  19
HETATM   19  S   UNL     1      -8.469  15.438  68.912  1.00  0.00    -0.223 S  
HETATM   20  O   UNL     1      -7.190  15.229  69.558  1.00  0.00    -0.180 OA 
HETATM   21  O   UNL     1      -9.693  15.311  69.675  1.00  0.00    -0.249 OA 
BRANCH  19  22
HETATM   22  C   UNL     1      -8.505  17.030  68.185  1.00  0.00    -0.227 A  
HETATM   23  C   UNL     1      -7.447  17.896  68.435  1.00  0.00    -0.272 A  
HETATM   24  F   UNL     1      -6.511  17.593  69.346  1.00  0.00    -0.224 F  
HETATM   25  C   UNL     1      -7.327  19.099  67.737  1.00  0.00    -0.276 A  
HETATM   26  C   UNL     1      -8.276  19.440  66.775  1.00  0.00    -0.311 A  
HETATM   27  C   UNL     1      -9.351  18.583  66.539  1.00  0.00    -0.313 A  
HETATM   28  C   UNL     1      -9.460  17.381  67.241  1.00  0.00    -0.251 A  
HETATM   29  F   UNL     1     -10.493  16.584  66.947  1.00  0.00    -0.292 F  
ENDBRANCH  19  22
ENDBRANCH  17  19
ENDBRANCH  15  17
ENDBRANCH   7  10
BRANCH   8  30
HETATM   30  C   UNL     1      -9.308   8.468  67.133  1.00  0.00    -0.152 A  
HETATM   31  C   UNL     1      -8.203   6.871  65.932  1.00  0.00    -0.129 A  
HETATM   32  N   UNL     1      -8.862   7.201  67.051  1.00  0.00    -0.121 NA 
HETATM   33  N   UNL     1      -7.728   5.586  65.805  1.00  0.00    -0.086 NA 
HETATM   34  N   UNL     1      -8.015   7.675  64.880  1.00  0.00    -0.131 NA 
HETATM   35  C   UNL     1      -8.500   8.918  64.979  1.00  0.00    -0.176 A  
HETATM   36  H2  UNL     1      -7.874   4.900  66.547  1.00  0.00     0.000 HD 
HETATM   37  C   UNL     1      -9.153   9.373  66.094  1.00  0.00    -0.214 A  
HETATM   38  H1  UNL     1      -7.226   5.335  64.953  1.00  0.00     0.000 HD 
ENDBRANCH   8  30
ENDBRANCH   2   5
TORSDOF 6
ENDMDL
MODEL      141
REMARK 921   NORMALIZED FREE ENERGY PREDICTED BY IDOCK:   -5.68 KCAL/MOL
REMARK 922        TOTAL FREE ENERGY PREDICTED BY IDOCK:   -8.80 KCAL/MOL
REMARK 923 INTER-LIGAND FREE ENERGY PREDICTED BY IDOCK:   -8.26 KCAL/MOL
REMARK 924 INTRA-LIGAND FREE ENERGY PREDICTED BY IDOCK:   -0.55 KCAL/MOL
REMARK 927      BINDING AFFINITY PREDICTED BY RF-SCORE:    0.00 PKD
ROOT
HETATM    1  C   UNL     1     -10.070  14.384  64.933  1.00  0.00    -0.253 C  
HETATM    2  C   UNL     1     -11.302  13.461  64.969  1.00  0.00    -0.330 C  
HETATM    3  C   UNL     1     -11.396  12.746  63.600  1.00  0.00    -0.514 C  
HETATM    4  C   UNL     1     -12.554  14.351  65.143  1.00  0.00    -0.323 C  
ENDROOT
BRANCH   2   5
HETATM    5  C   UNL     1     -11.222  12.438  66.115  1.00  0.00    -0.322 A  
HETATM    6  N   UNL     1     -10.589  11.278  66.129  1.00  0.00    -0.258 NA 
HETATM    7  C   UNL     1     -10.722  10.628  67.381  1.00  0.00    -0.276 A  
HETATM    8  C   UNL     1     -11.530  11.312  68.288  1.00  0.00    -0.308 A  
HETATM    9  S   UNL     1     -12.001  12.818  67.590  1.00  0.00    -0.163 SA 
BRANCH   7  10
HETATM   10  C   UNL     1     -10.036   9.343  67.629  1.00  0.00    -0.262 A  
HETATM   11  C   UNL     1      -8.911   9.268  68.475  1.00  0.00    -0.129 A  
HETATM   12  C   UNL     1     -10.499   8.132  67.082  1.00  0.00    -0.396 A  
HETATM   13  F   UNL     1      -8.377  10.379  69.011  1.00  0.00    -0.111 F  
HETATM   14  C   UNL     1      -9.933   6.900  67.433  1.00  0.00    -0.212 A  
HETATM   15  C   UNL     1      -8.333   8.034  68.826  1.00  0.00    -0.127 A  
HETATM   16  C   UNL     1      -8.855   6.850  68.311  1.00  0.00    -0.122 A  
BRANCH  15  17
HETATM   17  N   UNL     1      -7.265   7.970  69.779  1.00  0.00    -0.064 N  
HETATM   18  H   UNL     1      -6.640   8.767  69.900  1.00  0.00     0.000 HD 
BRANCH  17  19
HETATM   19  S   UNL     1      -7.041   6.573  70.703  1.00  0.00    -0.070 S  
HETATM   20  O   UNL     1      -5.813   6.714  71.456  1.00  0.00    -0.035 OA 
HETATM   21  O   UNL     1      -7.211   5.453  69.801  1.00  0.00    -0.061 OA 
BRANCH  19  22
HETATM   22  C   UNL     1      -8.403   6.530  71.803  1.00  0.00    -0.116 A  
HETATM   23  C   UNL     1      -8.605   7.615  72.648  1.00  0.00    -0.127 A  
HETATM   24  F   UNL     1      -7.689   8.589  72.748  1.00  0.00    -0.167 F  
HETATM   25  C   UNL     1      -9.771   7.723  73.408  1.00  0.00    -0.353 A  
HETATM   26  C   UNL     1     -10.749   6.734  73.320  1.00  0.00    -0.330 A  
HETATM   27  C   UNL     1     -10.538   5.633  72.490  1.00  0.00    -0.267 A  
HETATM   28  C   UNL     1      -9.368   5.536  71.732  1.00  0.00    -0.142 A  
HETATM   29  F   UNL     1      -9.237   4.475  70.928  1.00  0.00    -0.148 F  
ENDBRANCH  19  22
ENDBRANCH  17  19
ENDBRANCH  15  17
ENDBRANCH   7  10
BRANCH   8  30
HETATM   30  C   UNL     1     -12.024  11.073  69.656  1.00  0.00    -0.353 A  
HETATM   31  C   UNL     1     -12.930  11.924  71.572  1.00  0.00    -0.323 A  
HETATM   32  N   UNL     1     -12.512  12.140  70.317  1.00  0.00    -0.148 NA 
HETATM   33  N   UNL     1     -13.434  12.987  72.286  1.00  0.00    -0.569 NA 
HETATM   34  N   UNL     1     -12.959  10.736  72.184  1.00  0.00    -0.339 NA 
HETATM   35  C   UNL     1     -12.499   9.690  71.487  1.00  0.00    -0.386 A  
HETATM   36  H2  UNL     1     -13.488  13.917  71.870  1.00  0.00     0.000 HD 
HETATM   37  C   UNL     1     -12.009   9.804  70.213  1.00  0.00    -0.156 A  
HETATM   38  H1  UNL     1     -13.753  12.823  73.241  1.00  0.00     0.000 HD 
ENDBRANCH   8  30
ENDBRANCH   2   5
TORSDOF 6
ENDMDL
MODEL      142
REMARK 921   NORMALIZED FREE ENERGY PREDICTED BY IDOCK:   -5.68 KCAL/MOL
REMARK 922        TOTAL FREE ENERGY PREDICTED BY IDOCK:   -8.79 KCAL/MOL
REMARK 923 INTER-LIGAND FREE ENERGY PREDICTED BY IDOCK:   -7.28 KCAL/MOL
REMARK 924 INTRA-LIGAND FREE ENERGY PREDICTED BY IDOCK:   -1.52 KCAL/MOL
REMARK 927      BINDING AFFINITY PREDICTED BY RF-SCORE:    0.00 PKD
ROOT
HETATM    1  C   UNL     1     -10.229   4.937  67.054  1.00  0.00    -0.233 C  
HETATM    2  C   UNL     1      -9.243   5.110  68.224  1.00  0.00    -0.139 C  
HETATM    3  C   UNL     1      -7.876   4.540  67.778  1.00  0.00    -0.085 C  
HETATM    4  C   UNL     1      -9.764   4.265  69.409  1.00  0.00    -0.257 C  
ENDROOT
BRANCH   2   5
HETATM    5  C   UNL     1      -9.108   6.582  68.650  1.00  0.00    -0.128 A  
HETATM    6  N   UNL     1     -10.011   7.544  68.559  1.00  0.00    -0.163 NA 
HETATM    7  C   UNL     1      -9.524   8.765  69.086  1.00  0.00    -0.157 A  
HETATM    8  C   UNL     1      -8.200   8.705  69.518  1.00  0.00    -0.115 A  
HETATM    9  S   UNL     1      -7.638   7.081  69.370  1.00  0.00    -0.100 SA 
BRANCH   7  10
HETATM   10  C   UNL     1     -10.399   9.955  69.138  1.00  0.00    -0.225 A  
HETATM   11  C   UNL     1     -10.708  10.685  67.973  1.00  0.00    -0.233 A  
HETATM   12  C   UNL     1     -11.006  10.383  70.334  1.00  0.00    -0.320 A  
HETATM   13  F   UNL     1     -10.144  10.373  66.794  1.00  0.00    -0.220 F  
HETATM   14  C   UNL     1     -11.945  11.422  70.353  1.00  0.00    -0.465 A  
HETATM   15  C   UNL     1     -11.644  11.735  67.987  1.00  0.00    -0.316 A  
HETATM   16  C   UNL     1     -12.270  12.094  69.179  1.00  0.00    -0.086 A  
BRANCH  15  17
HETATM   17  N   UNL     1     -12.032  12.388  66.772  1.00  0.00    -0.305 N  
HETATM   18  H   UNL     1     -12.891  12.113  66.296  1.00  0.00     0.000 HD 
BRANCH  17  19
HETATM   19  S   UNL     1     -11.063  13.614  66.128  1.00  0.00    -0.298 S  
HETATM   20  O   UNL     1     -11.926  14.659  65.617  1.00  0.00    -0.329 OA 
HETATM   21  O   UNL     1     -10.113  12.967  65.247  1.00  0.00    -0.284 OA 
BRANCH  19  22
HETATM   22  C   UNL     1     -10.140  14.228  67.483  1.00  0.00    -0.236 A  
HETATM   23  C   UNL     1      -8.817  13.824  67.620  1.00  0.00    -0.189 A  
HETATM   24  F   UNL     1      -8.310  12.857  66.843  1.00  0.00    -0.181 F  
HETATM   25  C   UNL     1      -7.981  14.421  68.564  1.00  0.00    -0.144 A  
HETATM   26  C   UNL     1      -8.473  15.437  69.382  1.00  0.00    -0.253 A  
HETATM   27  C   UNL     1      -9.806  15.828  69.262  1.00  0.00    -0.265 A  
HETATM   28  C   UNL     1     -10.634  15.225  68.312  1.00  0.00    -0.244 A  
HETATM   29  F   UNL     1     -11.894  15.665  68.219  1.00  0.00    -0.355 F  
ENDBRANCH  19  22
ENDBRANCH  17  19
ENDBRANCH  15  17
ENDBRANCH   7  10
BRANCH   8  30
HETATM   30  C   UNL     1      -7.225   9.657  70.080  1.00  0.00    -0.128 A  
HETATM   31  C   UNL     1      -5.810  10.211  71.785  1.00  0.00     0.273 A  
HETATM   32  N   UNL     1      -6.672   9.328  71.262  1.00  0.00    -0.219 NA 
HETATM   33  N   UNL     1      -5.222   9.916  72.993  1.00  0.00    -0.296 NA 
HETATM   34  N   UNL     1      -5.415  11.345  71.198  1.00  0.00    -0.321 NA 
HETATM   35  C   UNL     1      -5.957  11.627  70.008  1.00  0.00    -0.152 A  
HETATM   36  H2  UNL     1      -5.437   9.046  73.481  1.00  0.00     0.000 HD 
HETATM   37  C   UNL     1      -6.879  10.816  69.402  1.00  0.00    -0.109 A  
HETATM   38  H1  UNL     1      -4.566  10.589  73.391  1.00  0.00     0.000 HD 
ENDBRANCH   8  30
ENDBRANCH   2   5
TORSDOF 6
ENDMDL
MODEL      143
REMARK 921   NORMALIZED FREE ENERGY PREDICTED BY IDOCK:   -5.67 KCAL/MOL
REMARK 922        TOTAL FREE ENERGY PREDICTED BY IDOCK:   -8.79 KCAL/MOL
REMARK 923 INTER-LIGAND FREE ENERGY PREDICTED BY IDOCK:   -7.54 KCAL/MOL
REMARK 924 INTRA-LIGAND FREE ENERGY PREDICTED BY IDOCK:   -1.24 KCAL/MOL
REMARK 927      BINDING AFFINITY PREDICTED BY RF-SCORE:    0.00 PKD
ROOT
HETATM    1  C   UNL     1     -10.035  18.341  66.326  1.00  0.00    -0.361 C  
HETATM    2  C   UNL     1      -9.275  17.362  67.239  1.00  0.00    -0.234 C  
HETATM    3  C   UNL     1      -9.556  17.770  68.705  1.00  0.00    -0.322 C  
HETATM    4  C   UNL     1      -7.764  17.534  66.963  1.00  0.00    -0.239 C  
ENDROOT
BRANCH   2   5
HETATM    5  C   UNL     1      -9.690  15.902  66.991  1.00  0.00    -0.228 A  
HETATM    6  N   UNL     1      -9.527  14.861  67.789  1.00  0.00    -0.201 NA 
HETATM    7  C   UNL     1     -10.069  13.681  67.223  1.00  0.00    -0.239 A  
HETATM    8  C   UNL     1     -10.590  13.859  65.941  1.00  0.00    -0.293 A  
HETATM    9  S   UNL     1     -10.502  15.531  65.531  1.00  0.00    -0.410 SA 
BRANCH   7  10
HETATM   10  C   UNL     1     -10.048  12.413  67.981  1.00  0.00    -0.214 A  
HETATM   11  C   UNL     1      -8.917  11.572  67.964  1.00  0.00    -0.170 A  
HETATM   12  C   UNL     1     -11.124  12.011  68.793  1.00  0.00    -0.298 A  
HETATM   13  F   UNL     1      -7.858  11.857  67.187  1.00  0.00    -0.137 F  
HETATM   14  C   UNL     1     -11.043  10.882  69.619  1.00  0.00    -0.328 A  
HETATM   15  C   UNL     1      -8.832  10.433  68.786  1.00  0.00    -0.157 A  
HETATM   16  C   UNL     1      -9.895  10.097  69.622  1.00  0.00    -0.254 A  
BRANCH  15  17
HETATM   17  N   UNL     1      -7.629   9.657  68.841  1.00  0.00    -0.074 N  
HETATM   18  H   UNL     1      -6.889   9.910  69.495  1.00  0.00     0.000 HD 
BRANCH  17  19
HETATM   19  S   UNL     1      -7.438   8.323  67.821  1.00  0.00    -0.095 S  
HETATM   20  O   UNL     1      -6.047   7.920  67.850  1.00  0.00    -0.043 OA 
HETATM   21  O   UNL     1      -8.061   8.676  66.562  1.00  0.00    -0.101 OA 
BRANCH  19  22
HETATM   22  C   UNL     1      -8.428   7.063  68.526  1.00  0.00    -0.121 A  
HETATM   23  C   UNL     1      -8.049   6.532  69.752  1.00  0.00    -0.125 A  
HETATM   24  F   UNL     1      -6.866   6.844  70.300  1.00  0.00    -0.051 F  
HETATM   25  C   UNL     1      -8.893   5.666  70.449  1.00  0.00    -0.143 A  
HETATM   26  C   UNL     1     -10.135   5.329  69.914  1.00  0.00    -0.333 A  
HETATM   27  C   UNL     1     -10.509   5.844  68.672  1.00  0.00    -0.302 A  
HETATM   28  C   UNL     1      -9.656   6.711  67.984  1.00  0.00    -0.123 A  
HETATM   29  F   UNL     1     -10.083   7.200  66.815  1.00  0.00    -0.238 F  
ENDBRANCH  19  22
ENDBRANCH  17  19
ENDBRANCH  15  17
ENDBRANCH   7  10
BRANCH   8  30
HETATM   30  C   UNL     1     -11.204  12.993  64.918  1.00  0.00    -0.302 A  
HETATM   31  C   UNL     1     -10.978  11.261  63.448  1.00  0.00    -0.171 A  
HETATM   32  N   UNL     1     -10.426  12.026  64.400  1.00  0.00    -0.291 NA 
HETATM   33  N   UNL     1     -10.218  10.260  62.888  1.00  0.00    -0.537 NA 
HETATM   34  N   UNL     1     -12.244  11.344  63.028  1.00  0.00     0.173 NA 
HETATM   35  C   UNL     1     -13.002  12.293  63.588  1.00  0.00    -0.173 A  
HETATM   36  H2  UNL     1      -9.256  10.104  63.190  1.00  0.00     0.000 HD 
HETATM   37  C   UNL     1     -12.528  13.157  64.540  1.00  0.00    -0.406 A  
HETATM   38  H1  UNL     1     -10.638   9.678  62.163  1.00  0.00     0.000 HD 
ENDBRANCH   8  30
ENDBRANCH   2   5
TORSDOF 6
ENDMDL
MODEL      144
REMARK 921   NORMALIZED FREE ENERGY PREDICTED BY IDOCK:   -5.67 KCAL/MOL
REMARK 922        TOTAL FREE ENERGY PREDICTED BY IDOCK:   -8.79 KCAL/MOL
REMARK 923 INTER-LIGAND FREE ENERGY PREDICTED BY IDOCK:   -8.13 KCAL/MOL
REMARK 924 INTRA-LIGAND FREE ENERGY PREDICTED BY IDOCK:   -0.65 KCAL/MOL
REMARK 927      BINDING AFFINITY PREDICTED BY RF-SCORE:    0.00 PKD
ROOT
HETATM    1  C   UNL     1      -9.737   6.516  69.382  1.00  0.00    -0.155 C  
HETATM    2  C   UNL     1     -10.163   7.951  69.742  1.00  0.00    -0.212 C  
HETATM    3  C   UNL     1      -9.195   8.471  70.831  1.00  0.00    -0.213 C  
HETATM    4  C   UNL     1     -11.586   7.885  70.342  1.00  0.00    -0.092 C  
ENDROOT
BRANCH   2   5
HETATM    5  C   UNL     1     -10.154   8.880  68.515  1.00  0.00    -0.188 A  
HETATM    6  N   UNL     1     -10.910   9.940  68.291  1.00  0.00    -0.242 NA 
HETATM    7  C   UNL     1     -10.587  10.558  67.058  1.00  0.00    -0.253 A  
HETATM    8  C   UNL     1      -9.603   9.887  66.332  1.00  0.00    -0.200 A  
HETATM    9  S   UNL     1      -9.018   8.567  67.275  1.00  0.00    -0.131 SA 
BRANCH   7  10
HETATM   10  C   UNL     1     -11.274  11.799  66.644  1.00  0.00    -0.383 A  
HETATM   11  C   UNL     1     -11.284  12.938  67.474  1.00  0.00    -0.290 A  
HETATM   12  C   UNL     1     -11.900  11.924  65.390  1.00  0.00    -0.149 A  
HETATM   13  F   UNL     1     -10.745  12.900  68.705  1.00  0.00    -0.235 F  
HETATM   14  C   UNL     1     -12.424  13.144  64.945  1.00  0.00    -0.490 A  
HETATM   15  C   UNL     1     -11.816  14.165  67.036  1.00  0.00    -0.429 A  
HETATM   16  C   UNL     1     -12.375  14.267  65.765  1.00  0.00    -0.420 A  
BRANCH  15  17
HETATM   17  N   UNL     1     -11.712  15.340  67.849  1.00  0.00    -0.375 N  
HETATM   18  H   UNL     1     -12.287  15.434  68.687  1.00  0.00     0.000 HD 
BRANCH  17  19
HETATM   19  S   UNL     1     -10.636  16.571  67.419  1.00  0.00    -0.266 S  
HETATM   20  O   UNL     1     -11.032  17.785  68.103  1.00  0.00    -0.271 OA 
HETATM   21  O   UNL     1     -10.547  16.552  65.974  1.00  0.00    -0.315 OA 
BRANCH  19  22
HETATM   22  C   UNL     1      -9.077  16.044  68.017  1.00  0.00    -0.189 A  
HETATM   23  C   UNL     1      -8.976  15.651  69.346  1.00  0.00    -0.265 A  
HETATM   24  F   UNL     1      -9.996  15.835  70.197  1.00  0.00    -0.281 F  
HETATM   25  C   UNL     1      -7.814  15.046  69.827  1.00  0.00    -0.007 A  
HETATM   26  C   UNL     1      -6.738  14.830  68.967  1.00  0.00    -0.105 A  
HETATM   27  C   UNL     1      -6.829  15.244  67.638  1.00  0.00    -0.205 A  
HETATM   28  C   UNL     1      -7.999  15.846  67.167  1.00  0.00    -0.209 A  
HETATM   29  F   UNL     1      -8.040  16.191  65.875  1.00  0.00    -0.292 F  
ENDBRANCH  19  22
ENDBRANCH  17  19
ENDBRANCH  15  17
ENDBRANCH   7  10
BRANCH   8  30
HETATM   30  C   UNL     1      -8.953  10.058  65.020  1.00  0.00    -0.199 A  
HETATM   31  C   UNL     1      -7.020  10.158  63.808  1.00  0.00    -0.105 A  
HETATM   32  N   UNL     1      -7.610   9.971  64.997  1.00  0.00    -0.135 NA 
HETATM   33  N   UNL     1      -5.648  10.080  63.737  1.00  0.00    -0.105 NA 
HETATM   34  N   UNL     1      -7.659  10.358  62.651  1.00  0.00    -0.143 NA 
HETATM   35  C   UNL     1      -8.995  10.405  62.703  1.00  0.00    -0.264 A  
HETATM   36  H2  UNL     1      -5.093   9.884  64.570  1.00  0.00     0.000 HD 
HETATM   37  C   UNL     1      -9.698  10.268  63.871  1.00  0.00    -0.325 A  
HETATM   38  H1  UNL     1      -5.200  10.223  62.832  1.00  0.00     0.000 HD 
ENDBRANCH   8  30
ENDBRANCH   2   5
TORSDOF 6
ENDMDL
MODEL      145
REMARK 921   NORMALIZED FREE ENERGY PREDICTED BY IDOCK:   -5.66 KCAL/MOL
REMARK 922        TOTAL FREE ENERGY PREDICTED BY IDOCK:   -8.77 KCAL/MOL
REMARK 923 INTER-LIGAND FREE ENERGY PREDICTED BY IDOCK:   -7.87 KCAL/MOL
REMARK 924 INTRA-LIGAND FREE ENERGY PREDICTED BY IDOCK:   -0.91 KCAL/MOL
REMARK 927      BINDING AFFINITY PREDICTED BY RF-SCORE:    0.00 PKD
ROOT
HETATM    1  C   UNL     1      -8.614   2.112  64.231  1.00  0.00    -0.088 C  
HETATM    2  C   UNL     1      -9.262   3.463  63.879  1.00  0.00    -0.118 C  
HETATM    3  C   UNL     1     -10.753   3.202  63.561  1.00  0.00    -0.246 C  
HETATM    4  C   UNL     1      -8.575   3.998  62.601  1.00  0.00    -0.087 C  
ENDROOT
BRANCH   2   5
HETATM    5  C   UNL     1      -9.118   4.487  65.019  1.00  0.00    -0.152 A  
HETATM    6  N   UNL     1      -9.715   4.482  66.198  1.00  0.00    -0.186 NA 
HETATM    7  C   UNL     1      -9.303   5.580  66.993  1.00  0.00    -0.118 A  
HETATM    8  C   UNL     1      -8.423   6.446  66.346  1.00  0.00    -0.123 A  
HETATM    9  S   UNL     1      -8.034   5.792  64.799  1.00  0.00    -0.129 SA 
BRANCH   7  10
HETATM   10  C   UNL     1      -9.805   5.728  68.375  1.00  0.00    -0.174 A  
HETATM   11  C   UNL     1     -10.613   6.822  68.744  1.00  0.00    -0.226 A  
HETATM   12  C   UNL     1      -9.549   4.766  69.370  1.00  0.00    -0.249 A  
HETATM   13  F   UNL     1     -10.878   7.809  67.871  1.00  0.00    -0.262 F  
HETATM   14  C   UNL     1     -10.143   4.838  70.636  1.00  0.00    -0.288 A  
HETATM   15  C   UNL     1     -11.207   6.905  70.018  1.00  0.00    -0.299 A  
HETATM   16  C   UNL     1     -10.978   5.903  70.958  1.00  0.00    -0.335 A  
BRANCH  15  17
HETATM   17  N   UNL     1     -12.118   7.964  70.334  1.00  0.00    -0.465 N  
HETATM   18  H   UNL     1     -13.027   8.009  69.874  1.00  0.00     0.000 HD 
BRANCH  17  19
HETATM   19  S   UNL     1     -11.685   9.138  71.470  1.00  0.00    -0.389 S  
HETATM   20  O   UNL     1     -10.294   8.946  71.821  1.00  0.00    -0.310 OA 
HETATM   21  O   UNL     1     -12.701   9.106  72.501  1.00  0.00    -0.367 OA 
BRANCH  19  22
HETATM   22  C   UNL     1     -11.874  10.668  70.639  1.00  0.00    -0.363 A  
HETATM   23  C   UNL     1     -12.608  11.672  71.259  1.00  0.00    -0.320 A  
HETATM   24  F   UNL     1     -13.302  11.424  72.379  1.00  0.00    -0.573 F  
HETATM   25  C   UNL     1     -12.634  12.966  70.737  1.00  0.00    -0.314 A  
HETATM   26  C   UNL     1     -11.916  13.261  69.580  1.00  0.00    -0.366 A  
HETATM   27  C   UNL     1     -11.196  12.250  68.943  1.00  0.00    -0.323 A  
HETATM   28  C   UNL     1     -11.175  10.958  69.476  1.00  0.00    -0.277 A  
HETATM   29  F   UNL     1     -10.439  10.039  68.841  1.00  0.00    -0.180 F  
ENDBRANCH  19  22
ENDBRANCH  17  19
ENDBRANCH  15  17
ENDBRANCH   7  10
BRANCH   8  30
HETATM   30  C   UNL     1      -7.751   7.716  66.677  1.00  0.00    -0.098 A  
HETATM   31  C   UNL     1      -6.359   8.872  68.070  1.00  0.00    -0.056 A  
HETATM   32  N   UNL     1      -6.943   7.708  67.754  1.00  0.00    -0.075 NA 
HETATM   33  N   UNL     1      -5.527   8.911  69.165  1.00  0.00    -0.036 NA 
HETATM   34  N   UNL     1      -6.465  10.005  67.370  1.00  0.00    -0.067 NA 
HETATM   35  C   UNL     1      -7.247   9.971  66.285  1.00  0.00    -0.106 A  
HETATM   36  H2  UNL     1      -5.358   8.074  69.723  1.00  0.00     0.000 HD 
HETATM   37  C   UNL     1      -7.925   8.846  65.894  1.00  0.00    -0.107 A  
HETATM   38  H1  UNL     1      -5.082   9.797  69.406  1.00  0.00     0.000 HD 
ENDBRANCH   8  30
ENDBRANCH   2   5
TORSDOF 6
ENDMDL
MODEL      146
REMARK 921   NORMALIZED FREE ENERGY PREDICTED BY IDOCK:   -5.66 KCAL/MOL
REMARK 922        TOTAL FREE ENERGY PREDICTED BY IDOCK:   -8.77 KCAL/MOL
REMARK 923 INTER-LIGAND FREE ENERGY PREDICTED BY IDOCK:   -7.86 KCAL/MOL
REMARK 924 INTRA-LIGAND FREE ENERGY PREDICTED BY IDOCK:   -0.92 KCAL/MOL
REMARK 927      BINDING AFFINITY PREDICTED BY RF-SCORE:    0.00 PKD
ROOT
HETATM    1  C   UNL     1     -11.430  15.273  64.398  1.00  0.00    -0.244 C  
HETATM    2  C   UNL     1     -11.979  13.853  64.625  1.00  0.00    -0.443 C  
HETATM    3  C   UNL     1     -12.285  13.238  63.239  1.00  0.00    -0.387 C  
HETATM    4  C   UNL     1     -13.305  13.978  65.409  1.00  0.00     0.235 C  
ENDROOT
BRANCH   2   5
HETATM    5  C   UNL     1     -10.990  12.970  65.407  1.00  0.00    -0.275 A  
HETATM    6  N   UNL     1     -11.009  11.657  65.553  1.00  0.00    -0.291 NA 
HETATM    7  C   UNL     1      -9.909  11.203  66.321  1.00  0.00    -0.214 A  
HETATM    8  C   UNL     1      -9.095  12.228  66.801  1.00  0.00    -0.211 A  
HETATM    9  S   UNL     1      -9.660  13.730  66.169  1.00  0.00    -0.161 SA 
BRANCH   7  10
HETATM   10  C   UNL     1      -9.707   9.757  66.551  1.00  0.00    -0.267 A  
HETATM   11  C   UNL     1     -10.424   9.071  67.553  1.00  0.00    -0.272 A  
HETATM   12  C   UNL     1      -8.838   8.989  65.755  1.00  0.00    -0.216 A  
HETATM   13  F   UNL     1     -11.247   9.730  68.385  1.00  0.00    -0.255 F  
HETATM   14  C   UNL     1      -8.757   7.596  65.885  1.00  0.00    -0.176 A  
HETATM   15  C   UNL     1     -10.341   7.673  67.692  1.00  0.00    -0.237 A  
HETATM   16  C   UNL     1      -9.515   6.937  66.848  1.00  0.00    -0.194 A  
BRANCH  15  17
HETATM   17  N   UNL     1     -11.166   6.982  68.638  1.00  0.00    -0.497 N  
HETATM   18  H   UNL     1     -11.972   6.446  68.317  1.00  0.00     0.000 HD 
BRANCH  17  19
HETATM   19  S   UNL     1     -10.801   7.054  70.287  1.00  0.00    -0.265 S  
HETATM   20  O   UNL     1      -9.478   7.622  70.439  1.00  0.00    -0.164 OA 
HETATM   21  O   UNL     1     -11.092   5.744  70.830  1.00  0.00    -0.275 OA 
BRANCH  19  22
HETATM   22  C   UNL     1     -11.989   8.145  70.970  1.00  0.00    -0.240 A  
HETATM   23  C   UNL     1     -13.244   7.641  71.290  1.00  0.00    -0.226 A  
HETATM   24  F   UNL     1     -13.599   6.400  70.926  1.00  0.00     0.105 F  
HETATM   25  C   UNL     1     -14.162   8.409  72.006  1.00  0.00    -0.528 A  
HETATM   26  C   UNL     1     -13.822   9.699  72.409  1.00  0.00    -0.270 A  
HETATM   27  C   UNL     1     -12.571  10.215  72.070  1.00  0.00    -0.351 A  
HETATM   28  C   UNL     1     -11.658   9.436  71.355  1.00  0.00    -0.381 A  
HETATM   29  F   UNL     1     -10.462   9.973  71.088  1.00  0.00    -0.335 F  
ENDBRANCH  19  22
ENDBRANCH  17  19
ENDBRANCH  15  17
ENDBRANCH   7  10
BRANCH   8  30
HETATM   30  C   UNL     1      -7.896  12.318  67.655  1.00  0.00    -0.156 A  
HETATM   31  C   UNL     1      -6.623  11.409  69.318  1.00  0.00    -0.106 A  
HETATM   32  N   UNL     1      -7.697  11.308  68.522  1.00  0.00    -0.123 NA 
HETATM   33  N   UNL     1      -6.381  10.401  70.222  1.00  0.00    -0.118 NA 
HETATM   34  N   UNL     1      -5.715  12.388  69.270  1.00  0.00    -0.074 NA 
HETATM   35  C   UNL     1      -5.924  13.359  68.373  1.00  0.00    -0.092 A  
HETATM   36  H2  UNL     1      -7.005   9.595  70.286  1.00  0.00     0.000 HD 
HETATM   37  C   UNL     1      -7.010  13.377  67.539  1.00  0.00    -0.153 A  
HETATM   38  H1  UNL     1      -5.564  10.477  70.828  1.00  0.00     0.000 HD 
ENDBRANCH   8  30
ENDBRANCH   2   5
TORSDOF 6
ENDMDL
MODEL      147
REMARK 921   NORMALIZED FREE ENERGY PREDICTED BY IDOCK:   -5.64 KCAL/MOL
REMARK 922        TOTAL FREE ENERGY PREDICTED BY IDOCK:   -8.74 KCAL/MOL
REMARK 923 INTER-LIGAND FREE ENERGY PREDICTED BY IDOCK:   -7.58 KCAL/MOL
REMARK 924 INTRA-LIGAND FREE ENERGY PREDICTED BY IDOCK:   -1.16 KCAL/MOL
REMARK 927      BINDING AFFINITY PREDICTED BY RF-SCORE:    0.00 PKD
ROOT
HETATM    1  C   UNL     1      -7.191   4.751  73.371  1.00  0.00    -0.081 C  
HETATM    2  C   UNL     1      -8.222   5.874  73.580  1.00  0.00    -0.110 C  
HETATM    3  C   UNL     1      -7.541   6.993  74.404  1.00  0.00    -0.129 C  
HETATM    4  C   UNL     1      -9.390   5.296  74.411  1.00  0.00    -0.134 C  
ENDROOT
BRANCH   2   5
HETATM    5  C   UNL     1      -8.751   6.426  72.245  1.00  0.00    -0.131 A  
HETATM    6  N   UNL     1      -9.161   7.654  71.975  1.00  0.00    -0.134 NA 
HETATM    7  C   UNL     1      -9.549   7.787  70.620  1.00  0.00    -0.166 A  
HETATM    8  C   UNL     1      -9.475   6.598  69.893  1.00  0.00    -0.156 A  
HETATM    9  S   UNL     1      -8.800   5.371  70.899  1.00  0.00    -0.139 SA 
BRANCH   7  10
HETATM   10  C   UNL     1      -9.981   9.098  70.093  1.00  0.00    -0.231 A  
HETATM   11  C   UNL     1      -9.258   9.749  69.074  1.00  0.00    -0.165 A  
HETATM   12  C   UNL     1     -11.154   9.732  70.542  1.00  0.00    -0.384 A  
HETATM   13  F   UNL     1      -8.104   9.237  68.612  1.00  0.00    -0.099 F  
HETATM   14  C   UNL     1     -11.636  10.903  69.942  1.00  0.00    -0.410 A  
HETATM   15  C   UNL     1      -9.732  10.930  68.472  1.00  0.00    -0.183 A  
HETATM   16  C   UNL     1     -10.929  11.498  68.902  1.00  0.00    -0.279 A  
BRANCH  15  17
HETATM   17  N   UNL     1      -9.043  11.512  67.359  1.00  0.00    -0.164 N  
HETATM   18  H   UNL     1      -8.313  12.206  67.516  1.00  0.00     0.000 HD 
BRANCH  17  19
HETATM   19  S   UNL     1      -9.441  11.046  65.784  1.00  0.00    -0.220 S  
HETATM   20  O   UNL     1     -10.317   9.895  65.853  1.00  0.00    -0.223 OA 
HETATM   21  O   UNL     1      -8.194  10.962  65.053  1.00  0.00    -0.069 OA 
BRANCH  19  22
HETATM   22  C   UNL     1     -10.314  12.407  65.112  1.00  0.00    -0.287 A  
HETATM   23  C   UNL     1     -11.073  12.206  63.965  1.00  0.00    -0.386 A  
HETATM   24  F   UNL     1     -11.002  11.052  63.287  1.00  0.00    -0.389 F  
HETATM   25  C   UNL     1     -11.935  13.198  63.495  1.00  0.00    -0.580 A  
HETATM   26  C   UNL     1     -12.041  14.406  64.181  1.00  0.00    -0.405 A  
HETATM   27  C   UNL     1     -11.264  14.619  65.319  1.00  0.00    -0.358 A  
HETATM   28  C   UNL     1     -10.406  13.618  65.783  1.00  0.00    -0.298 A  
HETATM   29  F   UNL     1      -9.712  13.867  66.899  1.00  0.00    -0.236 F  
ENDBRANCH  19  22
ENDBRANCH  17  19
ENDBRANCH  15  17
ENDBRANCH   7  10
BRANCH   8  30
HETATM   30  C   UNL     1      -9.794   6.177  68.517  1.00  0.00    -0.137 A  
HETATM   31  C   UNL     1      -9.193   4.993  66.659  1.00  0.00    -0.129 A  
HETATM   32  N   UNL     1      -8.916   5.349  67.921  1.00  0.00    -0.109 NA 
HETATM   33  N   UNL     1      -8.322   4.149  66.009  1.00  0.00    -0.108 NA 
HETATM   34  N   UNL     1     -10.291   5.341  65.981  1.00  0.00    -0.164 NA 
HETATM   35  C   UNL     1     -11.161   6.137  66.614  1.00  0.00    -0.049 A  
HETATM   36  H2  UNL     1      -7.484   3.802  66.477  1.00  0.00     0.000 HD 
HETATM   37  C   UNL     1     -10.957   6.594  67.889  1.00  0.00    -0.342 A  
HETATM   38  H1  UNL     1      -8.533   3.879  65.049  1.00  0.00     0.000 HD 
ENDBRANCH   8  30
ENDBRANCH   2   5
TORSDOF 6
ENDMDL
MODEL      148
REMARK 921   NORMALIZED FREE ENERGY PREDICTED BY IDOCK:   -5.63 KCAL/MOL
REMARK 922        TOTAL FREE ENERGY PREDICTED BY IDOCK:   -8.73 KCAL/MOL
REMARK 923 INTER-LIGAND FREE ENERGY PREDICTED BY IDOCK:   -7.83 KCAL/MOL
REMARK 924 INTRA-LIGAND FREE ENERGY PREDICTED BY IDOCK:   -0.90 KCAL/MOL
REMARK 927      BINDING AFFINITY PREDICTED BY RF-SCORE:    0.00 PKD
ROOT
HETATM    1  C   UNL     1      -9.600   3.305  70.494  1.00  0.00    -0.218 C  
HETATM    2  C   UNL     1      -8.860   3.894  69.279  1.00  0.00    -0.145 C  
HETATM    3  C   UNL     1      -9.596   3.420  68.004  1.00  0.00    -0.160 C  
HETATM    4  C   UNL     1      -7.430   3.307  69.267  1.00  0.00    -0.048 C  
ENDROOT
BRANCH   2   5
HETATM    5  C   UNL     1      -8.795   5.430  69.333  1.00  0.00    -0.105 A  
HETATM    6  N   UNL     1      -9.754   6.275  69.675  1.00  0.00    -0.151 NA 
HETATM    7  C   UNL     1      -9.304   7.617  69.631  1.00  0.00    -0.156 A  
HETATM    8  C   UNL     1      -7.990   7.757  69.184  1.00  0.00    -0.119 A  
HETATM    9  S   UNL     1      -7.311   6.189  68.950  1.00  0.00    -0.087 SA 
BRANCH   7  10
HETATM   10  C   UNL     1     -10.202   8.717  70.038  1.00  0.00    -0.208 A  
HETATM   11  C   UNL     1     -10.688   9.647  69.097  1.00  0.00    -0.217 A  
HETATM   12  C   UNL     1     -10.656   8.860  71.362  1.00  0.00    -0.374 A  
HETATM   13  F   UNL     1     -10.279   9.612  67.817  1.00  0.00    -0.188 F  
HETATM   14  C   UNL     1     -11.617   9.817  71.713  1.00  0.00    -0.212 A  
HETATM   15  C   UNL     1     -11.648  10.616  69.445  1.00  0.00    -0.280 A  
HETATM   16  C   UNL     1     -12.120  10.689  70.753  1.00  0.00    -0.474 A  
BRANCH  15  17
HETATM   17  N   UNL     1     -12.217  11.474  68.449  1.00  0.00    -0.021 N  
HETATM   18  H   UNL     1     -13.161  11.303  68.105  1.00  0.00     0.000 HD 
BRANCH  17  19
HETATM   19  S   UNL     1     -11.320  12.773  67.844  1.00  0.00    -0.315 S  
HETATM   20  O   UNL     1     -10.001  12.737  68.440  1.00  0.00    -0.226 OA 
HETATM   21  O   UNL     1     -12.149  13.951  67.995  1.00  0.00    -0.367 OA 
BRANCH  19  22
HETATM   22  C   UNL     1     -11.193  12.477  66.122  1.00  0.00    -0.321 A  
HETATM   23  C   UNL     1     -12.164  13.014  65.285  1.00  0.00    -0.466 A  
HETATM   24  F   UNL     1     -13.263  13.593  65.790  1.00  0.00    -0.445 F  
HETATM   25  C   UNL     1     -12.014  12.973  63.898  1.00  0.00    -0.551 A  
HETATM   26  C   UNL     1     -10.879  12.389  63.340  1.00  0.00    -0.417 A  
HETATM   27  C   UNL     1      -9.914  11.829  64.178  1.00  0.00    -0.300 A  
HETATM   28  C   UNL     1     -10.073  11.878  65.565  1.00  0.00    -0.245 A  
HETATM   29  F   UNL     1      -9.098  11.356  66.318  1.00  0.00    -0.179 F  
ENDBRANCH  19  22
ENDBRANCH  17  19
ENDBRANCH  15  17
ENDBRANCH   7  10
BRANCH   8  30
HETATM   30  C   UNL     1      -7.078   8.883  68.912  1.00  0.00    -0.066 A  
HETATM   31  C   UNL     1      -6.281  10.931  69.530  1.00  0.00    -0.073 A  
HETATM   32  N   UNL     1      -7.089   9.896  69.798  1.00  0.00    -0.090 NA 
HETATM   33  N   UNL     1      -6.261  11.990  70.408  1.00  0.00    -0.469 NA 
HETATM   34  N   UNL     1      -5.432  11.003  68.500  1.00  0.00    -0.043 NA 
HETATM   35  C   UNL     1      -5.421   9.965  67.657  1.00  0.00    -0.035 A  
HETATM   36  H2  UNL     1      -6.847  11.988  71.243  1.00  0.00     0.000 HD 
HETATM   37  C   UNL     1      -6.235   8.874  67.811  1.00  0.00    -0.055 A  
HETATM   38  H1  UNL     1      -5.646  12.779  70.204  1.00  0.00     0.000 HD 
ENDBRANCH   8  30
ENDBRANCH   2   5
TORSDOF 6
ENDMDL
MODEL      149
REMARK 921   NORMALIZED FREE ENERGY PREDICTED BY IDOCK:   -5.62 KCAL/MOL
REMARK 922        TOTAL FREE ENERGY PREDICTED BY IDOCK:   -8.71 KCAL/MOL
REMARK 923 INTER-LIGAND FREE ENERGY PREDICTED BY IDOCK:   -8.42 KCAL/MOL
REMARK 924 INTRA-LIGAND FREE ENERGY PREDICTED BY IDOCK:   -0.30 KCAL/MOL
REMARK 927      BINDING AFFINITY PREDICTED BY RF-SCORE:    0.00 PKD
ROOT
HETATM    1  C   UNL     1     -10.401   4.670  66.057  1.00  0.00    -0.318 C  
HETATM    2  C   UNL     1      -9.274   4.453  67.084  1.00  0.00    -0.157 C  
HETATM    3  C   UNL     1      -7.925   4.653  66.353  1.00  0.00    -0.103 C  
HETATM    4  C   UNL     1      -9.355   2.988  67.572  1.00  0.00    -0.229 C  
ENDROOT
BRANCH   2   5
HETATM    5  C   UNL     1      -9.393   5.412  68.282  1.00  0.00    -0.114 A  
HETATM    6  N   UNL     1      -9.968   6.602  68.319  1.00  0.00    -0.140 NA 
HETATM    7  C   UNL     1      -9.902   7.170  69.615  1.00  0.00    -0.162 A  
HETATM    8  C   UNL     1      -9.202   6.392  70.536  1.00  0.00    -0.158 A  
HETATM    9  S   UNL     1      -8.753   4.907  69.785  1.00  0.00    -0.087 SA 
BRANCH   7  10
HETATM   10  C   UNL     1     -10.541   8.474  69.889  1.00  0.00    -0.228 A  
HETATM   11  C   UNL     1     -10.766   9.407  68.857  1.00  0.00    -0.178 A  
HETATM   12  C   UNL     1     -11.002   8.824  71.172  1.00  0.00    -0.334 A  
HETATM   13  F   UNL     1     -10.326   9.175  67.609  1.00  0.00    -0.238 F  
HETATM   14  C   UNL     1     -11.732   9.998  71.398  1.00  0.00    -0.414 A  
HETATM   15  C   UNL     1     -11.493  10.592  69.080  1.00  0.00    -0.237 A  
HETATM   16  C   UNL     1     -11.985  10.878  70.351  1.00  0.00    -0.453 A  
BRANCH  15  17
HETATM   17  N   UNL     1     -11.811  11.470  67.994  1.00  0.00    -0.267 N  
HETATM   18  H   UNL     1     -12.722  11.410  67.539  1.00  0.00     0.000 HD 
BRANCH  17  19
HETATM   19  S   UNL     1     -10.676  12.607  67.468  1.00  0.00    -0.230 S  
HETATM   20  O   UNL     1      -9.362  12.002  67.523  1.00  0.00    -0.172 OA 
HETATM   21  O   UNL     1     -10.943  13.825  68.205  1.00  0.00    -0.235 OA 
BRANCH  19  22
HETATM   22  C   UNL     1     -11.100  12.937  65.801  1.00  0.00    -0.284 A  
HETATM   23  C   UNL     1     -11.146  11.874  64.907  1.00  0.00    -0.307 A  
HETATM   24  F   UNL     1     -10.710  10.657  65.263  1.00  0.00    -0.325 F  
HETATM   25  C   UNL     1     -11.658  12.043  63.620  1.00  0.00    -0.578 A  
HETATM   26  C   UNL     1     -12.130  13.292  63.220  1.00  0.00    -0.407 A  
HETATM   27  C   UNL     1     -12.063  14.366  64.108  1.00  0.00    -0.405 A  
HETATM   28  C   UNL     1     -11.551  14.184  65.395  1.00  0.00    -0.334 A  
HETATM   29  F   UNL     1     -11.545  15.243  66.214  1.00  0.00    -0.291 F  
ENDBRANCH  19  22
ENDBRANCH  17  19
ENDBRANCH  15  17
ENDBRANCH   7  10
BRANCH   8  30
HETATM   30  C   UNL     1      -8.806   6.526  71.950  1.00  0.00    -0.134 A  
HETATM   31  C   UNL     1      -7.594   7.640  73.533  1.00  0.00    -0.114 A  
HETATM   32  N   UNL     1      -7.976   7.541  72.252  1.00  0.00    -0.099 NA 
HETATM   33  N   UNL     1      -6.743   8.662  73.886  1.00  0.00    -0.292 NA 
HETATM   34  N   UNL     1      -8.021   6.858  74.529  1.00  0.00    -0.127 NA 
HETATM   35  C   UNL     1      -8.873   5.879  74.202  1.00  0.00    -0.123 A  
HETATM   36  H2  UNL     1      -6.410   9.328  73.189  1.00  0.00     0.000 HD 
HETATM   37  C   UNL     1      -9.296   5.662  72.917  1.00  0.00    -0.144 A  
HETATM   38  H1  UNL     1      -6.453   8.737  74.861  1.00  0.00     0.000 HD 
ENDBRANCH   8  30
ENDBRANCH   2   5
TORSDOF 6
ENDMDL
MODEL      150
REMARK 921   NORMALIZED FREE ENERGY PREDICTED BY IDOCK:   -5.61 KCAL/MOL
REMARK 922        TOTAL FREE ENERGY PREDICTED BY IDOCK:   -8.70 KCAL/MOL
REMARK 923 INTER-LIGAND FREE ENERGY PREDICTED BY IDOCK:   -7.75 KCAL/MOL
REMARK 924 INTRA-LIGAND FREE ENERGY PREDICTED BY IDOCK:   -0.95 KCAL/MOL
REMARK 927      BINDING AFFINITY PREDICTED BY RF-SCORE:    0.00 PKD
ROOT
HETATM    1  C   UNL     1     -10.279  13.769  65.729  1.00  0.00    -0.322 C  
HETATM    2  C   UNL     1     -11.584  13.123  66.229  1.00  0.00    -0.399 C  
HETATM    3  C   UNL     1     -12.492  12.882  64.999  1.00  0.00    -0.553 C  
HETATM    4  C   UNL     1     -12.285  14.136  67.164  1.00  0.00    -0.348 C  
ENDROOT
BRANCH   2   5
HETATM    5  C   UNL     1     -11.325  11.807  66.983  1.00  0.00    -0.321 A  
HETATM    6  N   UNL     1     -11.005  10.628  66.477  1.00  0.00    -0.100 NA 
HETATM    7  C   UNL     1     -10.816   9.661  67.495  1.00  0.00    -0.198 A  
HETATM    8  C   UNL     1     -11.068  10.139  68.780  1.00  0.00    -0.203 A  
HETATM    9  S   UNL     1     -11.411  11.826  68.691  1.00  0.00    -0.316 SA 
BRANCH   7  10
HETATM   10  C   UNL     1     -10.391   8.289  67.148  1.00  0.00    -0.387 A  
HETATM   11  C   UNL     1      -9.167   8.049  66.491  1.00  0.00    -0.188 A  
HETATM   12  C   UNL     1     -11.153   7.160  67.499  1.00  0.00    -0.170 A  
HETATM   13  F   UNL     1      -8.392   9.068  66.083  1.00  0.00    -0.110 F  
HETATM   14  C   UNL     1     -10.680   5.857  67.295  1.00  0.00    -0.380 A  
HETATM   15  C   UNL     1      -8.689   6.743  66.277  1.00  0.00    -0.146 A  
HETATM   16  C   UNL     1      -9.444   5.648  66.691  1.00  0.00    -0.158 A  
BRANCH  15  17
HETATM   17  N   UNL     1      -7.390   6.522  65.714  1.00  0.00    -0.077 N  
HETATM   18  H   UNL     1      -6.557   6.635  66.292  1.00  0.00     0.000 HD 
BRANCH  17  19
HETATM   19  S   UNL     1      -7.239   6.072  64.092  1.00  0.00    -0.061 S  
HETATM   20  O   UNL     1      -5.831   6.045  63.753  1.00  0.00    -0.021 OA 
HETATM   21  O   UNL     1      -8.146   6.918  63.345  1.00  0.00    -0.096 OA 
BRANCH  19  22
HETATM   22  C   UNL     1      -7.893   4.450  64.005  1.00  0.00    -0.085 A  
HETATM   23  C   UNL     1      -7.347   3.471  64.825  1.00  0.00    -0.071 A  
HETATM   24  F   UNL     1      -6.235   3.711  65.536  1.00  0.00    -0.027 F  
HETATM   25  C   UNL     1      -7.946   2.215  64.938  1.00  0.00    -0.078 A  
HETATM   26  C   UNL     1      -9.108   1.935  64.221  1.00  0.00    -0.114 A  
HETATM   27  C   UNL     1      -9.646   2.909  63.380  1.00  0.00    -0.098 A  
HETATM   28  C   UNL     1      -9.039   4.163  63.277  1.00  0.00    -0.128 A  
HETATM   29  F   UNL     1      -9.620   5.068  62.480  1.00  0.00    -0.083 F  
ENDBRANCH  19  22
ENDBRANCH  17  19
ENDBRANCH  15  17
ENDBRANCH   7  10
BRANCH   8  30
HETATM   30  C   UNL     1     -11.072   9.568  70.140  1.00  0.00    -0.255 A  
HETATM   31  C   UNL     1     -12.261   8.999  72.005  1.00  0.00    -0.375 A  
HETATM   32  N   UNL     1     -12.266   9.489  70.758  1.00  0.00    -0.241 NA 
HETATM   33  N   UNL     1     -13.458   8.903  72.675  1.00  0.00    -0.721 NA 
HETATM   34  N   UNL     1     -11.187   8.530  72.647  1.00  0.00    -0.270 NA 
HETATM   35  C   UNL     1     -10.021   8.591  71.992  1.00  0.00    -0.313 A  
HETATM   36  H2  UNL     1     -14.330   9.198  72.234  1.00  0.00     0.000 HD 
HETATM   37  C   UNL     1      -9.905   9.111  70.730  1.00  0.00    -0.334 A  
HETATM   38  H1  UNL     1     -13.455   8.530  73.625  1.00  0.00     0.000 HD 
ENDBRANCH   8  30
ENDBRANCH   2   5
TORSDOF 6
ENDMDL
MODEL      151
REMARK 921   NORMALIZED FREE ENERGY PREDICTED BY IDOCK:   -5.60 KCAL/MOL
REMARK 922        TOTAL FREE ENERGY PREDICTED BY IDOCK:   -8.69 KCAL/MOL
REMARK 923 INTER-LIGAND FREE ENERGY PREDICTED BY IDOCK:   -7.42 KCAL/MOL
REMARK 924 INTRA-LIGAND FREE ENERGY PREDICTED BY IDOCK:   -1.27 KCAL/MOL
REMARK 927      BINDING AFFINITY PREDICTED BY RF-SCORE:    0.00 PKD
ROOT
HETATM    1  C   UNL     1     -12.526   9.234  71.787  1.00  0.00    -0.458 C  
HETATM    2  C   UNL     1     -11.464   8.140  71.574  1.00  0.00    -0.310 C  
HETATM    3  C   UNL     1     -12.202   6.832  71.202  1.00  0.00    -0.413 C  
HETATM    4  C   UNL     1     -10.731   7.925  72.918  1.00  0.00    -0.440 C  
ENDROOT
BRANCH   2   5
HETATM    5  C   UNL     1     -10.451   8.525  70.481  1.00  0.00    -0.204 A  
HETATM    6  N   UNL     1      -9.761   9.647  70.369  1.00  0.00    -0.262 NA 
HETATM    7  C   UNL     1      -8.904   9.619  69.242  1.00  0.00    -0.164 A  
HETATM    8  C   UNL     1      -9.021   8.461  68.473  1.00  0.00    -0.136 A  
HETATM    9  S   UNL     1     -10.112   7.380  69.257  1.00  0.00    -0.190 SA 
BRANCH   7  10
HETATM   10  C   UNL     1      -7.996  10.753  68.968  1.00  0.00    -0.137 A  
HETATM   11  C   UNL     1      -8.249  11.650  67.911  1.00  0.00    -0.141 A  
HETATM   12  C   UNL     1      -6.873  11.021  69.773  1.00  0.00    -0.116 A  
HETATM   13  F   UNL     1      -9.276  11.451  67.068  1.00  0.00    -0.160 F  
HETATM   14  C   UNL     1      -6.098  12.175  69.597  1.00  0.00    -0.129 A  
HETATM   15  C   UNL     1      -7.469  12.807  67.725  1.00  0.00    -0.135 A  
HETATM   16  C   UNL     1      -6.401  13.072  68.578  1.00  0.00    -0.081 A  
BRANCH  15  17
HETATM   17  N   UNL     1      -7.814  13.768  66.719  1.00  0.00    -0.252 N  
HETATM   18  H   UNL     1      -7.305  13.786  65.835  1.00  0.00     0.000 HD 
BRANCH  17  19
HETATM   19  S   UNL     1      -9.065  14.870  66.997  1.00  0.00    -0.251 S  
HETATM   20  O   UNL     1      -8.768  16.091  66.278  1.00  0.00    -0.298 OA 
HETATM   21  O   UNL     1      -9.268  14.906  68.430  1.00  0.00    -0.177 OA 
BRANCH  19  22
HETATM   22  C   UNL     1     -10.493  14.121  66.315  1.00  0.00    -0.286 A  
HETATM   23  C   UNL     1     -11.719  14.357  66.926  1.00  0.00    -0.402 A  
HETATM   24  F   UNL     1     -11.790  14.993  68.104  1.00  0.00    -0.337 F  
HETATM   25  C   UNL     1     -12.909  13.945  66.323  1.00  0.00    -0.083 A  
HETATM   26  C   UNL     1     -12.873  13.290  65.093  1.00  0.00    -0.376 A  
HETATM   27  C   UNL     1     -11.642  13.033  64.490  1.00  0.00    -0.406 A  
HETATM   28  C   UNL     1     -10.457  13.451  65.101  1.00  0.00    -0.347 A  
HETATM   29  F   UNL     1      -9.310  13.206  64.458  1.00  0.00     0.180 F  
ENDBRANCH  19  22
ENDBRANCH  17  19
ENDBRANCH  15  17
ENDBRANCH   7  10
BRANCH   8  30
HETATM   30  C   UNL     1      -8.427   7.956  67.222  1.00  0.00    -0.121 A  
HETATM   31  C   UNL     1      -8.399   7.973  64.939  1.00  0.00    -0.099 A  
HETATM   32  N   UNL     1      -8.920   8.458  66.074  1.00  0.00    -0.176 NA 
HETATM   33  N   UNL     1      -8.874   8.456  63.741  1.00  0.00    -0.297 NA 
HETATM   34  N   UNL     1      -7.397   7.091  64.863  1.00  0.00    -0.078 NA 
HETATM   35  C   UNL     1      -6.906   6.638  66.022  1.00  0.00    -0.053 A  
HETATM   36  H2  UNL     1      -9.606   9.166  63.718  1.00  0.00     0.000 HD 
HETATM   37  C   UNL     1      -7.392   7.034  67.240  1.00  0.00    -0.091 A  
HETATM   38  H1  UNL     1      -8.477   8.086  62.877  1.00  0.00     0.000 HD 
ENDBRANCH   8  30
ENDBRANCH   2   5
TORSDOF 6
ENDMDL
MODEL      152
REMARK 921   NORMALIZED FREE ENERGY PREDICTED BY IDOCK:   -5.58 KCAL/MOL
REMARK 922        TOTAL FREE ENERGY PREDICTED BY IDOCK:   -8.67 KCAL/MOL
REMARK 923 INTER-LIGAND FREE ENERGY PREDICTED BY IDOCK:   -7.79 KCAL/MOL
REMARK 924 INTRA-LIGAND FREE ENERGY PREDICTED BY IDOCK:   -0.88 KCAL/MOL
REMARK 927      BINDING AFFINITY PREDICTED BY RF-SCORE:    0.00 PKD
ROOT
HETATM    1  C   UNL     1      -8.961   1.998  65.380  1.00  0.00    -0.120 C  
HETATM    2  C   UNL     1      -8.973   3.310  64.575  1.00  0.00    -0.123 C  
HETATM    3  C   UNL     1     -10.195   3.270  63.626  1.00  0.00    -0.204 C  
HETATM    4  C   UNL     1      -7.688   3.350  63.718  1.00  0.00    -0.079 C  
ENDROOT
BRANCH   2   5
HETATM    5  C   UNL     1      -9.033   4.546  65.489  1.00  0.00    -0.138 A  
HETATM    6  N   UNL     1      -8.893   5.817  65.151  1.00  0.00    -0.074 NA 
HETATM    7  C   UNL     1      -9.043   6.672  66.270  1.00  0.00    -0.145 A  
HETATM    8  C   UNL     1      -9.238   5.995  67.474  1.00  0.00    -0.111 A  
HETATM    9  S   UNL     1      -9.356   4.305  67.152  1.00  0.00    -0.180 SA 
BRANCH   7  10
HETATM   10  C   UNL     1      -8.985   8.139  66.100  1.00  0.00    -0.218 A  
HETATM   11  C   UNL     1     -10.030   8.967  66.558  1.00  0.00    -0.288 A  
HETATM   12  C   UNL     1      -7.873   8.780  65.526  1.00  0.00    -0.098 A  
HETATM   13  F   UNL     1     -11.148   8.440  67.085  1.00  0.00    -0.277 F  
HETATM   14  C   UNL     1      -7.761  10.176  65.496  1.00  0.00    -0.145 A  
HETATM   15  C   UNL     1      -9.927  10.370  66.524  1.00  0.00    -0.217 A  
HETATM   16  C   UNL     1      -8.784  10.972  66.002  1.00  0.00    -0.192 A  
BRANCH  15  17
HETATM   17  N   UNL     1     -10.947  11.194  67.101  1.00  0.00    -0.280 N  
HETATM   18  H   UNL     1     -11.926  11.040  66.858  1.00  0.00     0.000 HD 
BRANCH  17  19
HETATM   19  S   UNL     1     -10.528  12.421  68.186  1.00  0.00    -0.225 S  
HETATM   20  O   UNL     1     -10.761  13.698  67.545  1.00  0.00    -0.256 OA 
HETATM   21  O   UNL     1      -9.209  12.093  68.686  1.00  0.00    -0.135 OA 
BRANCH  19  22
HETATM   22  C   UNL     1     -11.628  12.233  69.535  1.00  0.00    -0.298 A  
HETATM   23  C   UNL     1     -11.841  10.956  70.042  1.00  0.00    -0.347 A  
HETATM   24  F   UNL     1     -11.359   9.876  69.411  1.00  0.00    -0.240 F  
HETATM   25  C   UNL     1     -12.553  10.767  71.228  1.00  0.00    -0.532 A  
HETATM   26  C   UNL     1     -13.059  11.869  71.916  1.00  0.00    -0.474 A  
HETATM   27  C   UNL     1     -12.866  13.149  71.396  1.00  0.00    -0.401 A  
HETATM   28  C   UNL     1     -12.149  13.327  70.210  1.00  0.00    -0.335 A  
HETATM   29  F   UNL     1     -11.967  14.580  69.779  1.00  0.00    -0.292 F  
ENDBRANCH  19  22
ENDBRANCH  17  19
ENDBRANCH  15  17
ENDBRANCH   7  10
BRANCH   8  30
HETATM   30  C   UNL     1      -9.395   6.376  68.890  1.00  0.00    -0.130 A  
HETATM   31  C   UNL     1     -10.765   6.590  70.704  1.00  0.00    -0.248 A  
HETATM   32  N   UNL     1     -10.618   6.213  69.427  1.00  0.00    -0.252 NA 
HETATM   33  N   UNL     1     -12.000   6.443  71.293  1.00  0.00    -0.293 NA 
HETATM   34  N   UNL     1      -9.787   7.047  71.492  1.00  0.00    -0.173 NA 
HETATM   35  C   UNL     1      -8.575   7.165  70.938  1.00  0.00    -0.138 A  
HETATM   36  H2  UNL     1     -12.785   6.056  70.770  1.00  0.00     0.000 HD 
HETATM   37  C   UNL     1      -8.322   6.849  69.630  1.00  0.00    -0.133 A  
HETATM   38  H1  UNL     1     -12.111   6.730  72.266  1.00  0.00     0.000 HD 
ENDBRANCH   8  30
ENDBRANCH   2   5
TORSDOF 6
ENDMDL
MODEL      153
REMARK 921   NORMALIZED FREE ENERGY PREDICTED BY IDOCK:   -5.58 KCAL/MOL
REMARK 922        TOTAL FREE ENERGY PREDICTED BY IDOCK:   -8.66 KCAL/MOL
REMARK 923 INTER-LIGAND FREE ENERGY PREDICTED BY IDOCK:   -7.91 KCAL/MOL
REMARK 924 INTRA-LIGAND FREE ENERGY PREDICTED BY IDOCK:   -0.75 KCAL/MOL
REMARK 927      BINDING AFFINITY PREDICTED BY RF-SCORE:    0.00 PKD
ROOT
HETATM    1  C   UNL     1     -12.371  14.470  72.835  1.00  0.00    -0.259 C  
HETATM    2  C   UNL     1     -13.028  13.956  71.541  1.00  0.00    -0.436 C  
HETATM    3  C   UNL     1     -14.386  14.680  71.382  1.00  0.00    -0.466 C  
HETATM    4  C   UNL     1     -13.296  12.444  71.716  1.00  0.00    -0.368 C  
ENDROOT
BRANCH   2   5
HETATM    5  C   UNL     1     -12.136  14.192  70.310  1.00  0.00    -0.342 A  
HETATM    6  N   UNL     1     -12.094  13.493  69.188  1.00  0.00    -0.320 NA 
HETATM    7  C   UNL     1     -11.163  14.038  68.271  1.00  0.00    -0.268 A  
HETATM    8  C   UNL     1     -10.460  15.135  68.767  1.00  0.00    -0.234 A  
HETATM    9  S   UNL     1     -11.076  15.535  70.327  1.00  0.00    -0.354 SA 
BRANCH   7  10
HETATM   10  C   UNL     1     -11.006  13.443  66.927  1.00  0.00    -0.295 A  
HETATM   11  C   UNL     1     -10.479  12.146  66.762  1.00  0.00    -0.218 A  
HETATM   12  C   UNL     1     -11.418  14.113  65.761  1.00  0.00    -0.327 A  
HETATM   13  F   UNL     1     -10.024  11.447  67.815  1.00  0.00    -0.170 F  
HETATM   14  C   UNL     1     -11.399  13.490  64.506  1.00  0.00    -0.386 A  
HETATM   15  C   UNL     1     -10.450  11.518  65.503  1.00  0.00    -0.275 A  
HETATM   16  C   UNL     1     -10.922  12.190  64.378  1.00  0.00    -0.375 A  
BRANCH  15  17
HETATM   17  N   UNL     1     -10.020  10.157  65.373  1.00  0.00    -0.307 N  
HETATM   18  H   UNL     1     -10.709   9.410  65.290  1.00  0.00     0.000 HD 
BRANCH  17  19
HETATM   19  S   UNL     1      -8.370   9.791  65.358  1.00  0.00    -0.147 S  
HETATM   20  O   UNL     1      -7.906   9.708  66.727  1.00  0.00    -0.101 OA 
HETATM   21  O   UNL     1      -7.751  10.725  64.441  1.00  0.00     0.072 OA 
BRANCH  19  22
HETATM   22  C   UNL     1      -8.259   8.214  64.605  1.00  0.00    -0.125 A  
HETATM   23  C   UNL     1      -7.589   8.106  63.392  1.00  0.00    -0.132 A  
HETATM   24  F   UNL     1      -7.191   9.199  62.726  1.00  0.00    -0.100 F  
HETATM   25  C   UNL     1      -7.306   6.855  62.841  1.00  0.00    -0.073 A  
HETATM   26  C   UNL     1      -7.696   5.697  63.512  1.00  0.00    -0.091 A  
HETATM   27  C   UNL     1      -8.388   5.804  64.718  1.00  0.00    -0.116 A  
HETATM   28  C   UNL     1      -8.664   7.062  65.262  1.00  0.00     0.092 A  
HETATM   29  F   UNL     1      -9.301   7.101  66.438  1.00  0.00    -0.179 F  
ENDBRANCH  19  22
ENDBRANCH  17  19
ENDBRANCH  15  17
ENDBRANCH   7  10
BRANCH   8  30
HETATM   30  C   UNL     1      -9.385  16.015  68.273  1.00  0.00    -0.199 A  
HETATM   31  C   UNL     1      -8.716  17.628  66.801  1.00  0.00    -0.258 A  
HETATM   32  N   UNL     1      -9.704  16.852  67.268  1.00  0.00    -0.246 NA 
HETATM   33  N   UNL     1      -8.996  18.498  65.772  1.00  0.00    -0.312 NA 
HETATM   34  N   UNL     1      -7.474  17.679  67.294  1.00  0.00    -0.187 NA 
HETATM   35  C   UNL     1      -7.199  16.860  68.315  1.00  0.00    -0.186 A  
HETATM   36  H2  UNL     1      -9.933  18.551  65.374  1.00  0.00     0.000 HD 
HETATM   37  C   UNL     1      -8.121  15.995  68.843  1.00  0.00    -0.218 A  
HETATM   38  H1  UNL     1      -8.243  19.088  65.417  1.00  0.00     0.000 HD 
ENDBRANCH   8  30
ENDBRANCH   2   5
TORSDOF 6
ENDMDL
MODEL      154
REMARK 921   NORMALIZED FREE ENERGY PREDICTED BY IDOCK:   -5.58 KCAL/MOL
REMARK 922        TOTAL FREE ENERGY PREDICTED BY IDOCK:   -8.66 KCAL/MOL
REMARK 923 INTER-LIGAND FREE ENERGY PREDICTED BY IDOCK:   -8.57 KCAL/MOL
REMARK 924 INTRA-LIGAND FREE ENERGY PREDICTED BY IDOCK:   -0.09 KCAL/MOL
REMARK 927      BINDING AFFINITY PREDICTED BY RF-SCORE:    0.00 PKD
ROOT
HETATM    1  C   UNL     1      -8.391   4.920  65.438  1.00  0.00    -0.125 C  
HETATM    2  C   UNL     1      -9.624   4.664  66.323  1.00  0.00    -0.187 C  
HETATM    3  C   UNL     1      -9.433   3.292  67.012  1.00  0.00    -0.161 C  
HETATM    4  C   UNL     1     -10.860   4.581  65.399  1.00  0.00    -0.096 C  
ENDROOT
BRANCH   2   5
HETATM    5  C   UNL     1      -9.824   5.776  67.367  1.00  0.00    -0.138 A  
HETATM    6  N   UNL     1     -10.105   7.051  67.157  1.00  0.00    -0.195 NA 
HETATM    7  C   UNL     1     -10.245   7.760  68.375  1.00  0.00    -0.200 A  
HETATM    8  C   UNL     1      -9.997   6.988  69.509  1.00  0.00    -0.162 A  
HETATM    9  S   UNL     1      -9.719   5.357  69.023  1.00  0.00    -0.165 SA 
BRANCH   7  10
HETATM   10  C   UNL     1     -10.621   9.189  68.365  1.00  0.00    -0.217 A  
HETATM   11  C   UNL     1     -10.830   9.880  67.155  1.00  0.00    -0.157 A  
HETATM   12  C   UNL     1     -10.839   9.912  69.553  1.00  0.00    -0.274 A  
HETATM   13  F   UNL     1     -10.607   9.282  65.972  1.00  0.00    -0.247 F  
HETATM   14  C   UNL     1     -11.333  11.223  69.539  1.00  0.00    -0.362 A  
HETATM   15  C   UNL     1     -11.318  11.200  67.134  1.00  0.00    -0.181 A  
HETATM   16  C   UNL     1     -11.580  11.865  68.329  1.00  0.00    -0.390 A  
BRANCH  15  17
HETATM   17  N   UNL     1     -11.635  11.844  65.894  1.00  0.00    -0.299 N  
HETATM   18  H   UNL     1     -12.596  11.850  65.553  1.00  0.00     0.000 HD 
BRANCH  17  19
HETATM   19  S   UNL     1     -10.414  12.594  64.996  1.00  0.00    -0.317 S  
HETATM   20  O   UNL     1     -10.853  12.694  63.620  1.00  0.00    -0.426 OA 
HETATM   21  O   UNL     1      -9.185  11.898  65.314  1.00  0.00    -0.076 OA 
BRANCH  19  22
HETATM   22  C   UNL     1     -10.264  14.198  65.682  1.00  0.00    -0.339 A  
HETATM   23  C   UNL     1      -9.317  14.406  66.677  1.00  0.00    -0.278 A  
HETATM   24  F   UNL     1      -8.657  13.376  67.225  1.00  0.00    -0.176 F  
HETATM   25  C   UNL     1      -9.021  15.695  67.125  1.00  0.00    -0.232 A  
HETATM   26  C   UNL     1      -9.680  16.790  66.569  1.00  0.00    -0.298 A  
HETATM   27  C   UNL     1     -10.647  16.582  65.586  1.00  0.00    -0.317 A  
HETATM   28  C   UNL     1     -10.934  15.287  65.144  1.00  0.00    -0.416 A  
HETATM   29  F   UNL     1     -11.846  15.153  64.174  1.00  0.00    -0.389 F  
ENDBRANCH  19  22
ENDBRANCH  17  19
ENDBRANCH  15  17
ENDBRANCH   7  10
BRANCH   8  30
HETATM   30  C   UNL     1      -9.956   7.224  70.964  1.00  0.00    -0.187 A  
HETATM   31  C   UNL     1      -8.779   7.949  72.782  1.00  0.00    -0.174 A  
HETATM   32  N   UNL     1      -8.825   7.764  71.455  1.00  0.00    -0.126 NA 
HETATM   33  N   UNL     1      -7.642   8.495  73.329  1.00  0.00    -0.359 NA 
HETATM   34  N   UNL     1      -9.781   7.702  73.631  1.00  0.00    -0.290 NA 
HETATM   35  C   UNL     1     -10.904   7.198  73.106  1.00  0.00    -0.335 A  
HETATM   36  H2  UNL     1      -6.851   8.754  72.738  1.00  0.00     0.000 HD 
HETATM   37  C   UNL     1     -11.044   6.931  71.770  1.00  0.00    -0.275 A  
HETATM   38  H1  UNL     1      -7.607   8.636  74.339  1.00  0.00     0.000 HD 
ENDBRANCH   8  30
ENDBRANCH   2   5
TORSDOF 6
ENDMDL
MODEL      155
REMARK 921   NORMALIZED FREE ENERGY PREDICTED BY IDOCK:   -5.58 KCAL/MOL
REMARK 922        TOTAL FREE ENERGY PREDICTED BY IDOCK:   -8.66 KCAL/MOL
REMARK 923 INTER-LIGAND FREE ENERGY PREDICTED BY IDOCK:   -7.16 KCAL/MOL
REMARK 924 INTRA-LIGAND FREE ENERGY PREDICTED BY IDOCK:   -1.49 KCAL/MOL
REMARK 927      BINDING AFFINITY PREDICTED BY RF-SCORE:    0.00 PKD
ROOT
HETATM    1  C   UNL     1      -8.607   8.572  62.880  1.00  0.00    -0.026 C  
HETATM    2  C   UNL     1      -8.220   9.972  63.389  1.00  0.00    -0.164 C  
HETATM    3  C   UNL     1      -8.991  11.012  62.542  1.00  0.00    -0.366 C  
HETATM    4  C   UNL     1      -6.706  10.163  63.142  1.00  0.00    -0.133 C  
ENDROOT
BRANCH   2   5
HETATM    5  C   UNL     1      -8.532  10.148  64.886  1.00  0.00    -0.172 A  
HETATM    6  N   UNL     1      -7.911   9.603  65.917  1.00  0.00    -0.110 NA 
HETATM    7  C   UNL     1      -8.472  10.029  67.146  1.00  0.00    -0.125 A  
HETATM    8  C   UNL     1      -9.578  10.866  67.001  1.00  0.00    -0.173 A  
HETATM    9  S   UNL     1      -9.809  11.199  65.325  1.00  0.00    -0.264 SA 
BRANCH   7  10
HETATM   10  C   UNL     1      -7.883   9.585  68.427  1.00  0.00    -0.086 A  
HETATM   11  C   UNL     1      -8.025   8.255  68.872  1.00  0.00    -0.113 A  
HETATM   12  C   UNL     1      -7.115  10.445  69.233  1.00  0.00    -0.090 A  
HETATM   13  F   UNL     1      -8.773   7.374  68.187  1.00  0.00    -0.122 F  
HETATM   14  C   UNL     1      -6.443   9.983  70.372  1.00  0.00    -0.125 A  
HETATM   15  C   UNL     1      -7.358   7.787  70.019  1.00  0.00    -0.075 A  
HETATM   16  C   UNL     1      -6.557   8.652  70.761  1.00  0.00    -0.045 A  
BRANCH  15  17
HETATM   17  N   UNL     1      -7.420   6.404  70.389  1.00  0.00    -0.092 N  
HETATM   18  H   UNL     1      -6.993   5.696  69.792  1.00  0.00     0.000 HD 
BRANCH  17  19
HETATM   19  S   UNL     1      -8.202   5.947  71.816  1.00  0.00    -0.119 S  
HETATM   20  O   UNL     1      -7.486   6.523  72.936  1.00  0.00    -0.092 OA 
HETATM   21  O   UNL     1      -8.390   4.513  71.740  1.00  0.00    -0.103 OA 
BRANCH  19  22
HETATM   22  C   UNL     1      -9.798   6.660  71.711  1.00  0.00    -0.161 A  
HETATM   23  C   UNL     1     -10.006   7.905  72.293  1.00  0.00    -0.219 A  
HETATM   24  F   UNL     1      -9.066   8.469  73.065  1.00  0.00    -0.305 F  
HETATM   25  C   UNL     1     -11.195   8.604  72.080  1.00  0.00    -0.438 A  
HETATM   26  C   UNL     1     -12.189   8.051  71.275  1.00  0.00    -0.308 A  
HETATM   27  C   UNL     1     -11.992   6.792  70.709  1.00  0.00    -0.433 A  
HETATM   28  C   UNL     1     -10.796   6.102  70.926  1.00  0.00    -0.281 A  
HETATM   29  F   UNL     1     -10.650   4.914  70.329  1.00  0.00    -0.322 F  
ENDBRANCH  19  22
ENDBRANCH  17  19
ENDBRANCH  15  17
ENDBRANCH   7  10
BRANCH   8  30
HETATM   30  C   UNL     1     -10.530  11.530  67.910  1.00  0.00    -0.184 A  
HETATM   31  C   UNL     1     -11.656  13.428  68.495  1.00  0.00    -0.333 A  
HETATM   32  N   UNL     1     -10.815  12.819  67.648  1.00  0.00    -0.224 NA 
HETATM   33  N   UNL     1     -11.974  14.747  68.268  1.00  0.00    -0.529 NA 
HETATM   34  N   UNL     1     -12.275  12.842  69.525  1.00  0.00    -0.185 NA 
HETATM   35  C   UNL     1     -11.997  11.551  69.737  1.00  0.00    -0.346 A  
HETATM   36  H2  UNL     1     -11.578  15.251  67.473  1.00  0.00     0.000 HD 
HETATM   37  C   UNL     1     -11.120  10.843  68.959  1.00  0.00    -0.302 A  
HETATM   38  H1  UNL     1     -12.614  15.211  68.912  1.00  0.00     0.000 HD 
ENDBRANCH   8  30
ENDBRANCH   2   5
TORSDOF 6
ENDMDL
MODEL      156
REMARK 921   NORMALIZED FREE ENERGY PREDICTED BY IDOCK:   -5.57 KCAL/MOL
REMARK 922        TOTAL FREE ENERGY PREDICTED BY IDOCK:   -8.65 KCAL/MOL
REMARK 923 INTER-LIGAND FREE ENERGY PREDICTED BY IDOCK:   -7.66 KCAL/MOL
REMARK 924 INTRA-LIGAND FREE ENERGY PREDICTED BY IDOCK:   -0.99 KCAL/MOL
REMARK 927      BINDING AFFINITY PREDICTED BY RF-SCORE:    0.00 PKD
ROOT
HETATM    1  C   UNL     1      -9.571  15.395  67.849  1.00  0.00    -0.206 C  
HETATM    2  C   UNL     1     -10.940  14.693  67.878  1.00  0.00    -0.283 C  
HETATM    3  C   UNL     1     -11.519  14.728  66.443  1.00  0.00    -0.319 C  
HETATM    4  C   UNL     1     -11.871  15.512  68.802  1.00  0.00    -0.335 C  
ENDROOT
BRANCH   2   5
HETATM    5  C   UNL     1     -10.836  13.246  68.389  1.00  0.00    -0.258 A  
HETATM    6  N   UNL     1     -10.039  12.284  67.956  1.00  0.00    -0.200 NA 
HETATM    7  C   UNL     1     -10.212  11.092  68.700  1.00  0.00    -0.199 A  
HETATM    8  C   UNL     1     -11.212  11.171  69.669  1.00  0.00    -0.264 A  
HETATM    9  S   UNL     1     -11.824  12.783  69.707  1.00  0.00    -0.258 SA 
BRANCH   7  10
HETATM   10  C   UNL     1      -9.371   9.909  68.418  1.00  0.00    -0.135 A  
HETATM   11  C   UNL     1      -9.830   8.871  67.583  1.00  0.00    -0.182 A  
HETATM   12  C   UNL     1      -8.062   9.787  68.920  1.00  0.00    -0.101 A  
HETATM   13  F   UNL     1     -11.080   8.884  67.089  1.00  0.00    -0.263 F  
HETATM   14  C   UNL     1      -7.220   8.735  68.536  1.00  0.00    -0.074 A  
HETATM   15  C   UNL     1      -8.991   7.808  67.198  1.00  0.00    -0.126 A  
HETATM   16  C   UNL     1      -7.681   7.750  67.668  1.00  0.00    -0.121 A  
BRANCH  15  17
HETATM   17  N   UNL     1      -9.438   6.826  66.256  1.00  0.00    -0.335 N  
HETATM   18  H   UNL     1      -9.246   6.948  65.262  1.00  0.00     0.000 HD 
BRANCH  17  19
HETATM   19  S   UNL     1     -10.284   5.465  66.794  1.00  0.00    -0.267 S  
HETATM   20  O   UNL     1     -10.840   4.786  65.642  1.00  0.00    -0.274 OA 
HETATM   21  O   UNL     1     -11.158   5.918  67.856  1.00  0.00    -0.250 OA 
BRANCH  19  22
HETATM   22  C   UNL     1      -9.077   4.446  67.548  1.00  0.00    -0.129 A  
HETATM   23  C   UNL     1      -8.953   4.480  68.932  1.00  0.00    -0.110 A  
HETATM   24  F   UNL     1      -9.612   5.394  69.659  1.00  0.00    -0.160 F  
HETATM   25  C   UNL     1      -8.146   3.559  69.601  1.00  0.00    -0.064 A  
HETATM   26  C   UNL     1      -7.454   2.589  68.878  1.00  0.00    -0.047 A  
HETATM   27  C   UNL     1      -7.560   2.567  67.487  1.00  0.00    -0.061 A  
HETATM   28  C   UNL     1      -8.372   3.492  66.828  1.00  0.00    -0.100 A  
HETATM   29  F   UNL     1      -8.461   3.400  65.496  1.00  0.00    -0.101 F  
ENDBRANCH  19  22
ENDBRANCH  17  19
ENDBRANCH  15  17
ENDBRANCH   7  10
BRANCH   8  30
HETATM   30  C   UNL     1     -11.814  10.248  70.648  1.00  0.00    -0.347 A  
HETATM   31  C   UNL     1     -11.513   8.672  72.272  1.00  0.00    -0.353 A  
HETATM   32  N   UNL     1     -10.962   9.533  71.406  1.00  0.00    -0.365 NA 
HETATM   33  N   UNL     1     -10.680   7.918  73.067  1.00  0.00    -0.376 NA 
HETATM   34  N   UNL     1     -12.824   8.520  72.483  1.00  0.00    -0.316 NA 
HETATM   35  C   UNL     1     -13.644   9.271  71.738  1.00  0.00    -0.398 A  
HETATM   36  H2  UNL     1      -9.667   8.012  72.997  1.00  0.00     0.000 HD 
HETATM   37  C   UNL     1     -13.189  10.152  70.793  1.00  0.00    -0.290 A  
HETATM   38  H1  UNL     1     -11.100   7.263  73.726  1.00  0.00     0.000 HD 
ENDBRANCH   8  30
ENDBRANCH   2   5
TORSDOF 6
ENDMDL
MODEL      157
REMARK 921   NORMALIZED FREE ENERGY PREDICTED BY IDOCK:   -5.55 KCAL/MOL
REMARK 922        TOTAL FREE ENERGY PREDICTED BY IDOCK:   -8.62 KCAL/MOL
REMARK 923 INTER-LIGAND FREE ENERGY PREDICTED BY IDOCK:   -7.08 KCAL/MOL
REMARK 924 INTRA-LIGAND FREE ENERGY PREDICTED BY IDOCK:   -1.53 KCAL/MOL
REMARK 927      BINDING AFFINITY PREDICTED BY RF-SCORE:    0.00 PKD
ROOT
HETATM    1  C   UNL     1     -10.871  14.836  64.961  1.00  0.00    -0.440 C  
HETATM    2  C   UNL     1     -11.333  13.813  66.014  1.00  0.00    -0.319 C  
HETATM    3  C   UNL     1     -12.601  13.115  65.469  1.00  0.00    -0.468 C  
HETATM    4  C   UNL     1     -11.714  14.592  67.294  1.00  0.00    -0.429 C  
ENDROOT
BRANCH   2   5
HETATM    5  C   UNL     1     -10.237  12.782  66.335  1.00  0.00    -0.253 A  
HETATM    6  N   UNL     1      -9.527  12.665  67.443  1.00  0.00    -0.184 NA 
HETATM    7  C   UNL     1      -8.632  11.570  67.375  1.00  0.00    -0.145 A  
HETATM    8  C   UNL     1      -8.649  10.904  66.150  1.00  0.00    -0.169 A  
HETATM    9  S   UNL     1      -9.881  11.591  65.159  1.00  0.00    -0.258 SA 
BRANCH   7  10
HETATM   10  C   UNL     1      -7.787  11.224  68.537  1.00  0.00    -0.138 A  
HETATM   11  C   UNL     1      -7.830   9.939  69.113  1.00  0.00    -0.105 A  
HETATM   12  C   UNL     1      -6.868  12.135  69.088  1.00  0.00    -0.078 A  
HETATM   13  F   UNL     1      -8.704   9.016  68.676  1.00  0.00    -0.127 F  
HETATM   14  C   UNL     1      -5.970  11.759  70.096  1.00  0.00    -0.162 A  
HETATM   15  C   UNL     1      -6.936   9.556  70.130  1.00  0.00    -0.092 A  
HETATM   16  C   UNL     1      -5.998  10.467  70.611  1.00  0.00    -0.105 A  
BRANCH  15  17
HETATM   17  N   UNL     1      -6.916   8.210  70.620  1.00  0.00    -0.037 N  
HETATM   18  H   UNL     1      -6.299   7.520  70.194  1.00  0.00     0.000 HD 
BRANCH  17  19
HETATM   19  S   UNL     1      -7.918   7.767  71.908  1.00  0.00    -0.111 S  
HETATM   20  O   UNL     1      -8.260   8.959  72.654  1.00  0.00    -0.387 OA 
HETATM   21  O   UNL     1      -7.264   6.660  72.574  1.00  0.00    -0.082 OA 
BRANCH  19  22
HETATM   22  C   UNL     1      -9.359   7.110  71.159  1.00  0.00    -0.157 A  
HETATM   23  C   UNL     1     -10.571   7.753  71.381  1.00  0.00    -0.213 A  
HETATM   24  F   UNL     1     -10.671   8.741  72.282  1.00  0.00    -0.384 F  
HETATM   25  C   UNL     1     -11.714   7.392  70.666  1.00  0.00    -0.270 A  
HETATM   26  C   UNL     1     -11.643   6.376  69.714  1.00  0.00    -0.397 A  
HETATM   27  C   UNL     1     -10.433   5.714  69.506  1.00  0.00    -0.372 A  
HETATM   28  C   UNL     1      -9.295   6.086  70.227  1.00  0.00    -0.159 A  
HETATM   29  F   UNL     1      -8.155   5.438  69.959  1.00  0.00    -0.079 F  
ENDBRANCH  19  22
ENDBRANCH  17  19
ENDBRANCH  15  17
ENDBRANCH   7  10
BRANCH   8  30
HETATM   30  C   UNL     1      -7.916   9.776  65.547  1.00  0.00    -0.123 A  
HETATM   31  C   UNL     1      -7.894   7.575  64.939  1.00  0.00    -0.128 A  
HETATM   32  N   UNL     1      -8.575   8.605  65.459  1.00  0.00    -0.167 NA 
HETATM   33  N   UNL     1      -8.528   6.358  64.832  1.00  0.00    -0.319 NA 
HETATM   34  N   UNL     1      -6.652   7.637  64.449  1.00  0.00    -0.048 NA 
HETATM   35  C   UNL     1      -6.037   8.823  64.520  1.00  0.00    -0.066 A  
HETATM   36  H2  UNL     1      -9.493   6.243  65.141  1.00  0.00     0.000 HD 
HETATM   37  C   UNL     1      -6.624   9.932  65.070  1.00  0.00    -0.110 A  
HETATM   38  H1  UNL     1      -8.009   5.574  64.436  1.00  0.00     0.000 HD 
ENDBRANCH   8  30
ENDBRANCH   2   5
TORSDOF 6
ENDMDL
MODEL      158
REMARK 921   NORMALIZED FREE ENERGY PREDICTED BY IDOCK:   -5.52 KCAL/MOL
REMARK 922        TOTAL FREE ENERGY PREDICTED BY IDOCK:   -8.58 KCAL/MOL
REMARK 923 INTER-LIGAND FREE ENERGY PREDICTED BY IDOCK:   -7.49 KCAL/MOL
REMARK 924 INTRA-LIGAND FREE ENERGY PREDICTED BY IDOCK:   -1.09 KCAL/MOL
REMARK 927      BINDING AFFINITY PREDICTED BY RF-SCORE:    0.00 PKD
ROOT
HETATM    1  C   UNL     1      -7.041   3.535  67.721  1.00  0.00    -0.051 C  
HETATM    2  C   UNL     1      -8.416   4.147  68.043  1.00  0.00    -0.103 C  
HETATM    3  C   UNL     1      -8.846   3.634  69.438  1.00  0.00    -0.150 C  
HETATM    4  C   UNL     1      -9.425   3.622  66.995  1.00  0.00    -0.219 C  
ENDROOT
BRANCH   2   5
HETATM    5  C   UNL     1      -8.384   5.685  68.013  1.00  0.00    -0.100 A  
HETATM    6  N   UNL     1      -9.177   6.504  67.344  1.00  0.00    -0.121 NA 
HETATM    7  C   UNL     1      -8.855   7.860  67.595  1.00  0.00    -0.128 A  
HETATM    8  C   UNL     1      -7.749   8.032  68.428  1.00  0.00    -0.117 A  
HETATM    9  S   UNL     1      -7.220   6.486  68.978  1.00  0.00    -0.094 SA 
BRANCH   7  10
HETATM   10  C   UNL     1      -9.662   8.942  66.993  1.00  0.00    -0.249 A  
HETATM   11  C   UNL     1     -10.549   9.710  67.773  1.00  0.00    -0.264 A  
HETATM   12  C   UNL     1      -9.548   9.291  65.635  1.00  0.00    -0.324 A  
HETATM   13  F   UNL     1     -10.752   9.424  69.071  1.00  0.00    -0.223 F  
HETATM   14  C   UNL     1     -10.208  10.406  65.102  1.00  0.00    -0.326 A  
HETATM   15  C   UNL     1     -11.221  10.827  67.242  1.00  0.00    -0.197 A  
HETATM   16  C   UNL     1     -11.038  11.179  65.907  1.00  0.00    -0.105 A  
BRANCH  15  17
HETATM   17  N   UNL     1     -12.027  11.664  68.080  1.00  0.00    -0.218 N  
HETATM   18  H   UNL     1     -12.936  11.337  68.406  1.00  0.00     0.000 HD 
BRANCH  17  19
HETATM   19  S   UNL     1     -11.469  13.195  68.529  1.00  0.00    -0.327 S  
HETATM   20  O   UNL     1     -11.967  14.162  67.573  1.00  0.00    -0.383 OA 
HETATM   21  O   UNL     1     -10.044  13.064  68.749  1.00  0.00    -0.175 OA 
BRANCH  19  22
HETATM   22  C   UNL     1     -12.184  13.500  70.098  1.00  0.00    -0.330 A  
HETATM   23  C   UNL     1     -12.357  14.818  70.502  1.00  0.00    -0.337 A  
HETATM   24  F   UNL     1     -11.834  15.828  69.793  1.00  0.00    -0.300 F  
HETATM   25  C   UNL     1     -13.089  15.124  71.650  1.00  0.00    -0.471 A  
HETATM   26  C   UNL     1     -13.656  14.099  72.405  1.00  0.00    -0.632 A  
HETATM   27  C   UNL     1     -13.464  12.774  72.014  1.00  0.00    -0.540 A  
HETATM   28  C   UNL     1     -12.732  12.479  70.861  1.00  0.00    -0.182 A  
HETATM   29  F   UNL     1     -12.611  11.191  70.517  1.00  0.00    -0.357 F  
ENDBRANCH  19  22
ENDBRANCH  17  19
ENDBRANCH  15  17
ENDBRANCH   7  10
BRANCH   8  30
HETATM   30  C   UNL     1      -6.986   9.180  68.951  1.00  0.00    -0.064 A  
HETATM   31  C   UNL     1      -5.752  10.082  70.648  1.00  0.00    -0.080 A  
HETATM   32  N   UNL     1      -6.419   9.026  70.162  1.00  0.00    -0.041 NA 
HETATM   33  N   UNL     1      -5.158   9.970  71.884  1.00  0.00    -0.089 NA 
HETATM   34  N   UNL     1      -5.556  11.235  70.002  1.00  0.00    -0.082 NA 
HETATM   35  C   UNL     1      -6.103  11.344  68.786  1.00  0.00    -0.048 A  
HETATM   36  H2  UNL     1      -5.224   9.104  72.418  1.00  0.00     0.000 HD 
HETATM   37  C   UNL     1      -6.839  10.342  68.211  1.00  0.00    -0.065 A  
HETATM   38  H1  UNL     1      -4.651  10.774  72.253  1.00  0.00     0.000 HD 
ENDBRANCH   8  30
ENDBRANCH   2   5
TORSDOF 6
ENDMDL
MODEL      159
REMARK 921   NORMALIZED FREE ENERGY PREDICTED BY IDOCK:   -5.51 KCAL/MOL
REMARK 922        TOTAL FREE ENERGY PREDICTED BY IDOCK:   -8.57 KCAL/MOL
REMARK 923 INTER-LIGAND FREE ENERGY PREDICTED BY IDOCK:   -7.96 KCAL/MOL
REMARK 924 INTRA-LIGAND FREE ENERGY PREDICTED BY IDOCK:   -0.61 KCAL/MOL
REMARK 927      BINDING AFFINITY PREDICTED BY RF-SCORE:    0.00 PKD
ROOT
HETATM    1  C   UNL     1     -11.523   6.180  70.333  1.00  0.00    -0.342 C  
HETATM    2  C   UNL     1     -12.008   7.294  71.278  1.00  0.00    -0.359 C  
HETATM    3  C   UNL     1     -11.360   7.054  72.662  1.00  0.00    -0.290 C  
HETATM    4  C   UNL     1     -13.541   7.157  71.423  1.00  0.00    -0.368 C  
ENDROOT
BRANCH   2   5
HETATM    5  C   UNL     1     -11.656   8.695  70.746  1.00  0.00    -0.242 A  
HETATM    6  N   UNL     1     -10.637   9.042  69.978  1.00  0.00    -0.221 NA 
HETATM    7  C   UNL     1     -10.666  10.425  69.671  1.00  0.00    -0.265 A  
HETATM    8  C   UNL     1     -11.707  11.118  70.288  1.00  0.00    -0.341 A  
HETATM    9  S   UNL     1     -12.701   9.992  71.136  1.00  0.00    -0.405 SA 
BRANCH   7  10
HETATM   10  C   UNL     1      -9.649  11.009  68.772  1.00  0.00    -0.194 A  
HETATM   11  C   UNL     1      -9.921  11.221  67.405  1.00  0.00    -0.182 A  
HETATM   12  C   UNL     1      -8.391  11.428  69.240  1.00  0.00     0.243 A  
HETATM   13  F   UNL     1     -11.082  10.818  66.862  1.00  0.00    -0.322 F  
HETATM   14  C   UNL     1      -7.486  12.110  68.415  1.00  0.00    -0.114 A  
HETATM   15  C   UNL     1      -9.014  11.899  66.569  1.00  0.00    -0.199 A  
HETATM   16  C   UNL     1      -7.801  12.353  67.082  1.00  0.00    -0.138 A  
BRANCH  15  17
HETATM   17  N   UNL     1      -9.357  12.208  65.214  1.00  0.00    -0.433 N  
HETATM   18  H   UNL     1      -9.639  13.156  64.961  1.00  0.00     0.000 HD 
BRANCH  17  19
HETATM   19  S   UNL     1      -9.296  11.002  64.031  1.00  0.00    -0.184 S  
HETATM   20  O   UNL     1      -8.953  11.617  62.766  1.00  0.00    -0.283 OA 
HETATM   21  O   UNL     1     -10.523  10.243  64.156  1.00  0.00    -0.019 OA 
BRANCH  19  22
HETATM   22  C   UNL     1      -8.003   9.934  64.535  1.00  0.00    -0.145 A  
HETATM   23  C   UNL     1      -8.321   8.835  65.323  1.00  0.00    -0.160 A  
HETATM   24  F   UNL     1      -9.552   8.687  65.832  1.00  0.00    -0.277 F  
HETATM   25  C   UNL     1      -7.369   7.851  65.596  1.00  0.00    -0.079 A  
HETATM   26  C   UNL     1      -6.083   7.967  65.073  1.00  0.00    -0.041 A  
HETATM   27  C   UNL     1      -5.755   9.081  64.301  1.00  0.00    -0.069 A  
HETATM   28  C   UNL     1      -6.716  10.059  64.032  1.00  0.00    -0.128 A  
HETATM   29  F   UNL     1      -6.352  11.087  63.257  1.00  0.00     0.002 F  
ENDBRANCH  19  22
ENDBRANCH  17  19
ENDBRANCH  15  17
ENDBRANCH   7  10
BRANCH   8  30
HETATM   30  C   UNL     1     -12.155  12.521  70.350  1.00  0.00    -0.297 A  
HETATM   31  C   UNL     1     -12.247  14.577  69.361  1.00  0.00    -0.247 A  
HETATM   32  N   UNL     1     -11.866  13.295  69.287  1.00  0.00    -0.322 NA 
HETATM   33  N   UNL     1     -11.970  15.405  68.298  1.00  0.00    -0.501 NA 
HETATM   34  N   UNL     1     -12.940  15.121  70.366  1.00  0.00    -0.302 NA 
HETATM   35  C   UNL     1     -13.242  14.317  71.392  1.00  0.00    -0.349 A  
HETATM   36  H2  UNL     1     -11.485  15.052  67.473  1.00  0.00     0.000 HD 
HETATM   37  C   UNL     1     -12.866  13.000  71.439  1.00  0.00    -0.385 A  
HETATM   38  H1  UNL     1     -12.260  16.382  68.354  1.00  0.00     0.000 HD 
ENDBRANCH   8  30
ENDBRANCH   2   5
TORSDOF 6
ENDMDL
MODEL      160
REMARK 921   NORMALIZED FREE ENERGY PREDICTED BY IDOCK:   -5.50 KCAL/MOL
REMARK 922        TOTAL FREE ENERGY PREDICTED BY IDOCK:   -8.56 KCAL/MOL
REMARK 923 INTER-LIGAND FREE ENERGY PREDICTED BY IDOCK:   -7.48 KCAL/MOL
REMARK 924 INTRA-LIGAND FREE ENERGY PREDICTED BY IDOCK:   -1.08 KCAL/MOL
REMARK 927      BINDING AFFINITY PREDICTED BY RF-SCORE:    0.00 PKD
ROOT
HETATM    1  C   UNL     1      -8.439   2.478  64.388  1.00  0.00    -0.087 C  
HETATM    2  C   UNL     1      -9.279   3.747  64.152  1.00  0.00    -0.140 C  
HETATM    3  C   UNL     1     -10.712   3.300  63.775  1.00  0.00    -0.225 C  
HETATM    4  C   UNL     1      -8.668   4.501  62.949  1.00  0.00    -0.118 C  
ENDROOT
BRANCH   2   5
HETATM    5  C   UNL     1      -9.301   4.662  65.388  1.00  0.00    -0.158 A  
HETATM    6  N   UNL     1      -8.759   5.860  65.525  1.00  0.00    -0.150 NA 
HETATM    7  C   UNL     1      -9.018   6.405  66.806  1.00  0.00    -0.130 A  
HETATM    8  C   UNL     1      -9.721   5.547  67.652  1.00  0.00    -0.129 A  
HETATM    9  S   UNL     1     -10.150   4.127  66.773  1.00  0.00     0.167 SA 
BRANCH   7  10
HETATM   10  C   UNL     1      -8.553   7.766  67.145  1.00  0.00    -0.128 A  
HETATM   11  C   UNL     1      -9.446   8.857  67.167  1.00  0.00    -0.157 A  
HETATM   12  C   UNL     1      -7.221   8.031  67.510  1.00  0.00    -0.088 A  
HETATM   13  F   UNL     1     -10.729   8.706  66.795  1.00  0.00    -0.349 F  
HETATM   14  C   UNL     1      -6.818   9.293  67.966  1.00  0.00    -0.068 A  
HETATM   15  C   UNL     1      -9.046  10.129  67.617  1.00  0.00    -0.137 A  
HETATM   16  C   UNL     1      -7.732  10.340  68.028  1.00  0.00    -0.089 A  
BRANCH  15  17
HETATM   17  N   UNL     1      -9.996  11.193  67.743  1.00  0.00    -0.172 N  
HETATM   18  H   UNL     1     -10.419  11.395  68.649  1.00  0.00     0.000 HD 
BRANCH  17  19
HETATM   19  S   UNL     1     -10.414  12.116  66.390  1.00  0.00    -0.237 S  
HETATM   20  O   UNL     1     -11.816  11.900  66.103  1.00  0.00    -0.528 OA 
HETATM   21  O   UNL     1      -9.418  11.834  65.377  1.00  0.00    -0.218 OA 
BRANCH  19  22
HETATM   22  C   UNL     1     -10.165  13.780  66.877  1.00  0.00    -0.261 A  
HETATM   23  C   UNL     1      -8.880  14.184  67.217  1.00  0.00    -0.218 A  
HETATM   24  F   UNL     1      -7.888  13.291  67.341  1.00  0.00    -0.141 F  
HETATM   25  C   UNL     1      -8.587  15.532  67.428  1.00  0.00    -0.196 A  
HETATM   26  C   UNL     1      -9.592  16.489  67.297  1.00  0.00    -0.242 A  
HETATM   27  C   UNL     1     -10.887  16.083  66.978  1.00  0.00    -0.227 A  
HETATM   28  C   UNL     1     -11.169  14.731  66.766  1.00  0.00    -0.344 A  
HETATM   29  F   UNL     1     -12.422  14.405  66.429  1.00  0.00    -0.450 F  
ENDBRANCH  19  22
ENDBRANCH  17  19
ENDBRANCH  15  17
ENDBRANCH   7  10
BRANCH   8  30
HETATM   30  C   UNL     1     -10.192   5.588  69.048  1.00  0.00    -0.228 A  
HETATM   31  C   UNL     1     -11.705   6.375  70.567  1.00  0.00    -0.317 A  
HETATM   32  N   UNL     1     -11.298   6.315  69.292  1.00  0.00    -0.407 NA 
HETATM   33  N   UNL     1     -12.830   7.109  70.862  1.00  0.00    -0.585 NA 
HETATM   34  N   UNL     1     -11.141   5.724  71.589  1.00  0.00    -0.254 NA 
HETATM   35  C   UNL     1     -10.064   4.981  71.308  1.00  0.00    -0.206 A  
HETATM   36  H2  UNL     1     -13.343   7.597  70.128  1.00  0.00     0.000 HD 
HETATM   37  C   UNL     1      -9.538   4.883  70.047  1.00  0.00    -0.261 A  
HETATM   38  H1  UNL     1     -13.139   7.155  71.833  1.00  0.00     0.000 HD 
ENDBRANCH   8  30
ENDBRANCH   2   5
TORSDOF 6
ENDMDL
MODEL      161
REMARK 921   NORMALIZED FREE ENERGY PREDICTED BY IDOCK:   -5.47 KCAL/MOL
REMARK 922        TOTAL FREE ENERGY PREDICTED BY IDOCK:   -8.52 KCAL/MOL
REMARK 923 INTER-LIGAND FREE ENERGY PREDICTED BY IDOCK:   -7.57 KCAL/MOL
REMARK 924 INTRA-LIGAND FREE ENERGY PREDICTED BY IDOCK:   -0.95 KCAL/MOL
REMARK 927      BINDING AFFINITY PREDICTED BY RF-SCORE:    0.00 PKD
ROOT
HETATM    1  C   UNL     1      -7.233  20.311  68.093  1.00  0.00    -0.266 C  
HETATM    2  C   UNL     1      -8.324  19.609  67.265  1.00  0.00    -0.337 C  
HETATM    3  C   UNL     1      -7.833  19.542  65.799  1.00  0.00    -0.161 C  
HETATM    4  C   UNL     1      -9.595  20.487  67.316  1.00  0.00    -0.580 C  
ENDROOT
BRANCH   2   5
HETATM    5  C   UNL     1      -8.637  18.201  67.800  1.00  0.00    -0.255 A  
HETATM    6  N   UNL     1      -7.933  17.093  67.643  1.00  0.00    -0.176 NA 
HETATM    7  C   UNL     1      -8.530  15.998  68.312  1.00  0.00    -0.177 A  
HETATM    8  C   UNL     1      -9.743  16.306  68.927  1.00  0.00    -0.248 A  
HETATM    9  S   UNL     1     -10.041  17.996  68.757  1.00  0.00    -0.334 SA 
BRANCH   7  10
HETATM   10  C   UNL     1      -7.868  14.676  68.315  1.00  0.00    -0.128 A  
HETATM   11  C   UNL     1      -8.226  13.680  67.384  1.00  0.00    -0.179 A  
HETATM   12  C   UNL     1      -6.822  14.367  69.203  1.00  0.00    -0.120 A  
HETATM   13  F   UNL     1      -9.240  13.872  66.523  1.00  0.00    -0.258 F  
HETATM   14  C   UNL     1      -6.104  13.168  69.108  1.00  0.00    -0.095 A  
HETATM   15  C   UNL     1      -7.514  12.470  67.289  1.00  0.00    -0.125 A  
HETATM   16  C   UNL     1      -6.444  12.222  68.146  1.00  0.00    -0.062 A  
BRANCH  15  17
HETATM   17  N   UNL     1      -7.817  11.521  66.260  1.00  0.00    -0.370 N  
HETATM   18  H   UNL     1      -7.228  11.462  65.429  1.00  0.00     0.000 HD 
BRANCH  17  19
HETATM   19  S   UNL     1      -9.153  10.497  66.423  1.00  0.00    -0.166 S  
HETATM   20  O   UNL     1      -9.695  10.238  65.106  1.00  0.00    -0.254 OA 
HETATM   21  O   UNL     1      -9.993  11.080  67.448  1.00  0.00    -0.178 OA 
BRANCH  19  22
HETATM   22  C   UNL     1      -8.512   9.013  67.096  1.00  0.00    -0.113 A  
HETATM   23  C   UNL     1      -7.322   8.513  66.581  1.00  0.00    -0.081 A  
HETATM   24  F   UNL     1      -6.768   9.049  65.484  1.00  0.00    -0.068 F  
HETATM   25  C   UNL     1      -6.667   7.446  67.199  1.00  0.00    -0.069 A  
HETATM   26  C   UNL     1      -7.209   6.872  68.347  1.00  0.00    -0.088 A  
HETATM   27  C   UNL     1      -8.415   7.358  68.853  1.00  0.00    -0.129 A  
HETATM   28  C   UNL     1      -9.060   8.428  68.228  1.00  0.00    -0.139 A  
HETATM   29  F   UNL     1     -10.196   8.873  68.778  1.00  0.00    -0.186 F  
ENDBRANCH  19  22
ENDBRANCH  17  19
ENDBRANCH  15  17
ENDBRANCH   7  10
BRANCH   8  30
HETATM   30  C   UNL     1     -10.766  15.562  69.685  1.00  0.00    -0.271 A  
HETATM   31  C   UNL     1     -11.853  13.590  70.061  1.00  0.00    -0.301 A  
HETATM   32  N   UNL     1     -10.902  14.255  69.393  1.00  0.00    -0.210 NA 
HETATM   33  N   UNL     1     -12.029  12.252  69.793  1.00  0.00    -0.313 NA 
HETATM   34  N   UNL     1     -12.621  14.103  71.028  1.00  0.00    -0.347 NA 
HETATM   35  C   UNL     1     -12.437  15.396  71.319  1.00  0.00    -0.397 A  
HETATM   36  H2  UNL     1     -11.449  11.777  69.101  1.00  0.00     0.000 HD 
HETATM   37  C   UNL     1     -11.522  16.180  70.668  1.00  0.00    -0.386 A  
HETATM   38  H1  UNL     1     -12.754  11.745  70.303  1.00  0.00     0.000 HD 
ENDBRANCH   8  30
ENDBRANCH   2   5
TORSDOF 6
ENDMDL
MODEL      162
REMARK 921   NORMALIZED FREE ENERGY PREDICTED BY IDOCK:   -5.44 KCAL/MOL
REMARK 922        TOTAL FREE ENERGY PREDICTED BY IDOCK:   -8.48 KCAL/MOL
REMARK 923 INTER-LIGAND FREE ENERGY PREDICTED BY IDOCK:   -8.59 KCAL/MOL
REMARK 924 INTRA-LIGAND FREE ENERGY PREDICTED BY IDOCK:    0.11 KCAL/MOL
REMARK 927      BINDING AFFINITY PREDICTED BY RF-SCORE:    0.00 PKD
ROOT
HETATM    1  C   UNL     1      -9.887   5.282  68.323  1.00  0.00    -0.206 C  
HETATM    2  C   UNL     1      -9.911   6.613  69.095  1.00  0.00    -0.155 C  
HETATM    3  C   UNL     1      -8.732   6.599  70.097  1.00  0.00    -0.141 C  
HETATM    4  C   UNL     1     -11.233   6.673  69.895  1.00  0.00    -0.421 C  
ENDROOT
BRANCH   2   5
HETATM    5  C   UNL     1      -9.812   7.827  68.155  1.00  0.00    -0.167 A  
HETATM    6  N   UNL     1     -10.434   8.989  68.255  1.00  0.00    -0.214 NA 
HETATM    7  C   UNL     1     -10.062   9.870  67.211  1.00  0.00    -0.211 A  
HETATM    8  C   UNL     1      -9.186   9.307  66.284  1.00  0.00    -0.186 A  
HETATM    9  S   UNL     1      -8.750   7.726  66.818  1.00  0.00    -0.142 SA 
BRANCH   7  10
HETATM   10  C   UNL     1     -10.597  11.247  67.172  1.00  0.00    -0.274 A  
HETATM   11  C   UNL     1     -10.306  12.171  68.196  1.00  0.00    -0.207 A  
HETATM   12  C   UNL     1     -11.372  11.717  66.096  1.00  0.00    -0.275 A  
HETATM   13  F   UNL     1      -9.605  11.800  69.281  1.00  0.00    -0.007 F  
HETATM   14  C   UNL     1     -11.757  13.060  65.995  1.00  0.00    -0.442 A  
HETATM   15  C   UNL     1     -10.696  13.520  68.104  1.00  0.00    -0.252 A  
HETATM   16  C   UNL     1     -11.412  13.964  66.995  1.00  0.00    -0.367 A  
BRANCH  15  17
HETATM   17  N   UNL     1     -10.289  14.469  69.097  1.00  0.00    -0.333 N  
HETATM   18  H   UNL     1      -9.441  14.308  69.641  1.00  0.00     0.000 HD 
BRANCH  17  19
HETATM   19  S   UNL     1     -11.217  15.856  69.368  1.00  0.00    -0.359 S  
HETATM   20  O   UNL     1     -12.149  16.005  68.271  1.00  0.00    -0.030 OA 
HETATM   21  O   UNL     1     -10.283  16.920  69.673  1.00  0.00    -0.185 OA 
BRANCH  19  22
HETATM   22  C   UNL     1     -12.098  15.535  70.847  1.00  0.00    -0.385 A  
HETATM   23  C   UNL     1     -12.845  14.366  70.931  1.00  0.00    -0.351 A  
HETATM   24  F   UNL     1     -13.033  13.591  69.854  1.00  0.00    -0.122 F  
HETATM   25  C   UNL     1     -13.411  13.965  72.143  1.00  0.00    -0.555 A  
HETATM   26  C   UNL     1     -13.227  14.742  73.285  1.00  0.00    -0.456 A  
HETATM   27  C   UNL     1     -12.496  15.927  73.197  1.00  0.00    -0.608 A  
HETATM   28  C   UNL     1     -11.932  16.317  71.980  1.00  0.00    -0.467 A  
HETATM   29  F   UNL     1     -11.213  17.446  71.966  1.00  0.00     0.074 F  
ENDBRANCH  19  22
ENDBRANCH  17  19
ENDBRANCH  15  17
ENDBRANCH   7  10
BRANCH   8  30
HETATM   30  C   UNL     1      -8.546   9.744  65.029  1.00  0.00    -0.162 A  
HETATM   31  C   UNL     1      -6.687  10.544  63.972  1.00  0.00     0.104 A  
HETATM   32  N   UNL     1      -7.256  10.118  65.108  1.00  0.00    -0.139 NA 
HETATM   33  N   UNL     1      -5.370  10.938  64.006  1.00  0.00    -0.410 NA 
HETATM   34  N   UNL     1      -7.277  10.564  62.773  1.00  0.00    -0.117 NA 
HETATM   35  C   UNL     1      -8.550  10.154  62.722  1.00  0.00    -0.190 A  
HETATM   36  H2  UNL     1      -4.838  10.907  64.876  1.00  0.00     0.000 HD 
HETATM   37  C   UNL     1      -9.240   9.737  63.829  1.00  0.00    -0.237 A  
HETATM   38  H1  UNL     1      -4.937  11.263  63.141  1.00  0.00     0.000 HD 
ENDBRANCH   8  30
ENDBRANCH   2   5
TORSDOF 6
ENDMDL
MODEL      163
REMARK 921   NORMALIZED FREE ENERGY PREDICTED BY IDOCK:   -5.42 KCAL/MOL
REMARK 922        TOTAL FREE ENERGY PREDICTED BY IDOCK:   -8.44 KCAL/MOL
REMARK 923 INTER-LIGAND FREE ENERGY PREDICTED BY IDOCK:   -7.29 KCAL/MOL
REMARK 924 INTRA-LIGAND FREE ENERGY PREDICTED BY IDOCK:   -1.15 KCAL/MOL
REMARK 927      BINDING AFFINITY PREDICTED BY RF-SCORE:    0.00 PKD
ROOT
HETATM    1  C   UNL     1     -10.393  15.048  69.586  1.00  0.00    -0.201 C  
HETATM    2  C   UNL     1     -11.370  13.983  69.055  1.00  0.00    -0.319 C  
HETATM    3  C   UNL     1     -12.022  14.541  67.768  1.00  0.00    -0.345 C  
HETATM    4  C   UNL     1     -12.475  13.784  70.117  1.00  0.00    -0.332 C  
ENDROOT
BRANCH   2   5
HETATM    5  C   UNL     1     -10.665  12.644  68.774  1.00  0.00    -0.207 A  
HETATM    6  N   UNL     1     -11.076  11.427  69.083  1.00  0.00    -0.242 NA 
HETATM    7  C   UNL     1     -10.166  10.440  68.630  1.00  0.00    -0.181 A  
HETATM    8  C   UNL     1      -9.024  10.963  68.025  1.00  0.00    -0.145 A  
HETATM    9  S   UNL     1      -9.181  12.677  67.925  1.00  0.00    -0.207 SA 
BRANCH   7  10
HETATM   10  C   UNL     1     -10.468   9.006  68.819  1.00  0.00    -0.230 A  
HETATM   11  C   UNL     1     -10.866   8.504  70.074  1.00  0.00    -0.223 A  
HETATM   12  C   UNL     1     -10.424   8.088  67.753  1.00  0.00    -0.280 A  
HETATM   13  F   UNL     1     -10.899   9.299  71.156  1.00  0.00    -0.297 F  
HETATM   14  C   UNL     1     -10.847   6.761  67.906  1.00  0.00    -0.320 A  
HETATM   15  C   UNL     1     -11.285   7.170  70.235  1.00  0.00    -0.276 A  
HETATM   16  C   UNL     1     -11.285   6.304  69.144  1.00  0.00    -0.439 A  
BRANCH  15  17
HETATM   17  N   UNL     1     -11.798   6.710  71.491  1.00  0.00    -0.322 N  
HETATM   18  H   UNL     1     -12.803   6.717  71.666  1.00  0.00     0.000 HD 
BRANCH  17  19
HETATM   19  S   UNL     1     -10.736   6.155  72.683  1.00  0.00    -0.243 S  
HETATM   20  O   UNL     1     -11.330   5.000  73.324  1.00  0.00    -0.325 OA 
HETATM   21  O   UNL     1     -10.367   7.310  73.474  1.00  0.00    -0.321 OA 
BRANCH  19  22
HETATM   22  C   UNL     1      -9.293   5.667  71.819  1.00  0.00    -0.145 A  
HETATM   23  C   UNL     1      -9.223   4.369  71.328  1.00  0.00    -0.137 A  
HETATM   24  F   UNL     1     -10.151   3.459  71.656  1.00  0.00    -0.246 F  
HETATM   25  C   UNL     1      -8.188   3.982  70.475  1.00  0.00    -0.073 A  
HETATM   26  C   UNL     1      -7.213   4.906  70.105  1.00  0.00    -0.051 A  
HETATM   27  C   UNL     1      -7.269   6.203  70.614  1.00  0.00    -0.077 A  
HETATM   28  C   UNL     1      -8.310   6.580  71.466  1.00  0.00    -0.121 A  
HETATM   29  F   UNL     1      -8.331   7.848  71.895  1.00  0.00    -0.105 F  
ENDBRANCH  19  22
ENDBRANCH  17  19
ENDBRANCH  15  17
ENDBRANCH   7  10
BRANCH   8  30
HETATM   30  C   UNL     1      -7.786  10.411  67.445  1.00  0.00    -0.095 A  
HETATM   31  C   UNL     1      -6.374  10.267  65.656  1.00  0.00    -0.118 A  
HETATM   32  N   UNL     1      -7.483  10.795  66.191  1.00  0.00    -0.138 NA 
HETATM   33  N   UNL     1      -6.027  10.630  64.375  1.00  0.00    -0.363 NA 
HETATM   34  N   UNL     1      -5.524   9.451  66.288  1.00  0.00    -0.047 NA 
HETATM   35  C   UNL     1      -5.835   9.116  67.545  1.00  0.00    -0.046 A  
HETATM   36  H2  UNL     1      -6.601  11.286  63.845  1.00  0.00     0.000 HD 
HETATM   37  C   UNL     1      -6.966   9.564  68.175  1.00  0.00    -0.078 A  
HETATM   38  H1  UNL     1      -5.182  10.228  63.968  1.00  0.00     0.000 HD 
ENDBRANCH   8  30
ENDBRANCH   2   5
TORSDOF 6
ENDMDL
MODEL      164
REMARK 921   NORMALIZED FREE ENERGY PREDICTED BY IDOCK:   -5.39 KCAL/MOL
REMARK 922        TOTAL FREE ENERGY PREDICTED BY IDOCK:   -8.41 KCAL/MOL
REMARK 923 INTER-LIGAND FREE ENERGY PREDICTED BY IDOCK:   -7.11 KCAL/MOL
REMARK 924 INTRA-LIGAND FREE ENERGY PREDICTED BY IDOCK:   -1.30 KCAL/MOL
REMARK 927      BINDING AFFINITY PREDICTED BY RF-SCORE:    0.00 PKD
ROOT
HETATM    1  C   UNL     1      -7.598   3.225  65.815  1.00  0.00    -0.077 C  
HETATM    2  C   UNL     1      -8.836   4.082  66.134  1.00  0.00    -0.120 C  
HETATM    3  C   UNL     1      -9.315   3.706  67.556  1.00  0.00    -0.244 C  
HETATM    4  C   UNL     1      -9.946   3.704  65.127  1.00  0.00    -0.083 C  
ENDROOT
BRANCH   2   5
HETATM    5  C   UNL     1      -8.534   5.588  66.041  1.00  0.00    -0.126 A  
HETATM    6  N   UNL     1      -8.408   6.457  67.029  1.00  0.00    -0.112 NA 
HETATM    7  C   UNL     1      -8.098   7.752  66.547  1.00  0.00    -0.111 A  
HETATM    8  C   UNL     1      -8.057   7.840  65.155  1.00  0.00    -0.137 A  
HETATM    9  S   UNL     1      -8.283   6.266  64.490  1.00  0.00    -0.004 SA 
BRANCH   7  10
HETATM   10  C   UNL     1      -7.854   8.861  67.493  1.00  0.00    -0.101 A  
HETATM   11  C   UNL     1      -8.748   9.946  67.591  1.00  0.00    -0.121 A  
HETATM   12  C   UNL     1      -6.755   8.863  68.372  1.00  0.00    -0.060 A  
HETATM   13  F   UNL     1      -9.803  10.047  66.765  1.00  0.00    -0.201 F  
HETATM   14  C   UNL     1      -6.605   9.843  69.362  1.00  0.00    -0.051 A  
HETATM   15  C   UNL     1      -8.599  10.937  68.579  1.00  0.00    -0.152 A  
HETATM   16  C   UNL     1      -7.531  10.875  69.471  1.00  0.00    -0.081 A  
BRANCH  15  17
HETATM   17  N   UNL     1      -9.582  11.966  68.737  1.00  0.00    -0.393 N  
HETATM   18  H   UNL     1     -10.469  11.759  69.197  1.00  0.00     0.000 HD 
BRANCH  17  19
HETATM   19  S   UNL     1      -9.272  13.526  68.163  1.00  0.00    -0.206 S  
HETATM   20  O   UNL     1      -7.911  13.571  67.672  1.00  0.00    -0.147 OA 
HETATM   21  O   UNL     1      -9.695  14.438  69.204  1.00  0.00    -0.134 OA 
BRANCH  19  22
HETATM   22  C   UNL     1     -10.384  13.750  66.829  1.00  0.00    -0.272 A  
HETATM   23  C   UNL     1      -9.995  14.565  65.773  1.00  0.00    -0.334 A  
HETATM   24  F   UNL     1      -8.877  15.301  65.848  1.00  0.00    -0.328 F  
HETATM   25  C   UNL     1     -10.753  14.632  64.603  1.00  0.00    -0.309 A  
HETATM   26  C   UNL     1     -11.916  13.872  64.487  1.00  0.00    -0.464 A  
HETATM   27  C   UNL     1     -12.320  13.070  65.554  1.00  0.00    -0.527 A  
HETATM   28  C   UNL     1     -11.552  13.010  66.720  1.00  0.00    -0.368 A  
HETATM   29  F   UNL     1     -11.973  12.198  67.696  1.00  0.00    -0.398 F  
ENDBRANCH  19  22
ENDBRANCH  17  19
ENDBRANCH  15  17
ENDBRANCH   7  10
BRANCH   8  30
HETATM   30  C   UNL     1      -7.839   8.913  64.168  1.00  0.00    -0.135 A  
HETATM   31  C   UNL     1      -8.684  10.692  63.013  1.00  0.00    -0.208 A  
HETATM   32  N   UNL     1      -8.877   9.738  63.933  1.00  0.00    -0.218 NA 
HETATM   33  N   UNL     1      -9.719  11.556  62.738  1.00  0.00    -0.564 NA 
HETATM   34  N   UNL     1      -7.537  10.924  62.368  1.00  0.00    -0.108 NA 
HETATM   35  C   UNL     1      -6.514  10.109  62.649  1.00  0.00    -0.128 A  
HETATM   36  H2  UNL     1     -10.612  11.472  63.224  1.00  0.00     0.000 HD 
HETATM   37  C   UNL     1      -6.613   9.075  63.542  1.00  0.00    -0.089 A  
HETATM   38  H1  UNL     1      -9.572  12.283  62.037  1.00  0.00     0.000 HD 
ENDBRANCH   8  30
ENDBRANCH   2   5
TORSDOF 6
ENDMDL
MODEL      165
REMARK 921   NORMALIZED FREE ENERGY PREDICTED BY IDOCK:   -5.39 KCAL/MOL
REMARK 922        TOTAL FREE ENERGY PREDICTED BY IDOCK:   -8.41 KCAL/MOL
REMARK 923 INTER-LIGAND FREE ENERGY PREDICTED BY IDOCK:   -7.38 KCAL/MOL
REMARK 924 INTRA-LIGAND FREE ENERGY PREDICTED BY IDOCK:   -1.03 KCAL/MOL
REMARK 927      BINDING AFFINITY PREDICTED BY RF-SCORE:    0.00 PKD
ROOT
HETATM    1  C   UNL     1     -10.485   7.207  69.979  1.00  0.00    -0.235 C  
HETATM    2  C   UNL     1     -10.362   8.741  69.977  1.00  0.00    -0.213 C  
HETATM    3  C   UNL     1      -9.116   9.115  70.815  1.00  0.00    -0.313 C  
HETATM    4  C   UNL     1     -11.614   9.317  70.677  1.00  0.00    -0.305 C  
ENDROOT
BRANCH   2   5
HETATM    5  C   UNL     1     -10.251   9.309  68.552  1.00  0.00    -0.201 A  
HETATM    6  N   UNL     1     -10.771  10.428  68.077  1.00  0.00    -0.228 NA 
HETATM    7  C   UNL     1     -10.423  10.628  66.719  1.00  0.00    -0.247 A  
HETATM    8  C   UNL     1      -9.675   9.587  66.170  1.00  0.00    -0.258 A  
HETATM    9  S   UNL     1      -9.318   8.443  67.409  1.00  0.00    -0.152 SA 
BRANCH   7  10
HETATM   10  C   UNL     1     -10.851  11.854  66.013  1.00  0.00    -0.342 A  
HETATM   11  C   UNL     1     -10.006  12.978  65.927  1.00  0.00    -0.267 A  
HETATM   12  C   UNL     1     -12.090  11.940  65.352  1.00  0.00     0.062 A  
HETATM   13  F   UNL     1      -8.820  13.000  66.559  1.00  0.00    -0.202 F  
HETATM   14  C   UNL     1     -12.431  13.049  64.567  1.00  0.00    -0.427 A  
HETATM   15  C   UNL     1     -10.346  14.098  65.145  1.00  0.00    -0.405 A  
HETATM   16  C   UNL     1     -11.556  14.125  64.456  1.00  0.00    -0.400 A  
BRANCH  15  17
HETATM   17  N   UNL     1      -9.423  15.180  64.976  1.00  0.00    -0.066 N  
HETATM   18  H   UNL     1      -8.629  15.080  64.343  1.00  0.00     0.000 HD 
BRANCH  17  19
HETATM   19  S   UNL     1      -9.650  16.624  65.825  1.00  0.00    -0.006 S  
HETATM   20  O   UNL     1     -10.824  17.286  65.298  1.00  0.00    -0.576 OA 
HETATM   21  O   UNL     1      -8.373  17.307  65.823  1.00  0.00    -0.535 OA 
BRANCH  19  22
HETATM   22  C   UNL     1      -9.946  16.138  67.481  1.00  0.00    -0.243 A  
HETATM   23  C   UNL     1      -8.889  16.181  68.383  1.00  0.00    -0.188 A  
HETATM   24  F   UNL     1      -7.638  16.418  67.964  1.00  0.00    -0.141 F  
HETATM   25  C   UNL     1      -9.105  15.988  69.748  1.00  0.00     0.197 A  
HETATM   26  C   UNL     1     -10.395  15.750  70.219  1.00  0.00    -0.159 A  
HETATM   27  C   UNL     1     -11.454  15.684  69.314  1.00  0.00    -0.368 A  
HETATM   28  C   UNL     1     -11.226  15.881  67.949  1.00  0.00    -0.297 A  
HETATM   29  F   UNL     1     -12.286  15.840  67.133  1.00  0.00     0.309 F  
ENDBRANCH  19  22
ENDBRANCH  17  19
ENDBRANCH  15  17
ENDBRANCH   7  10
BRANCH   8  30
HETATM   30  C   UNL     1      -9.114   9.272  64.843  1.00  0.00    -0.170 A  
HETATM   31  C   UNL     1      -7.881   7.858  63.541  1.00  0.00    -0.138 A  
HETATM   32  N   UNL     1      -8.416   8.125  64.740  1.00  0.00    -0.101 NA 
HETATM   33  N   UNL     1      -7.157   6.697  63.390  1.00  0.00    -0.052 NA 
HETATM   34  N   UNL     1      -8.041   8.599  62.441  1.00  0.00    -0.157 NA 
HETATM   35  C   UNL     1      -8.769   9.715  62.568  1.00  0.00    -0.224 A  
HETATM   36  H2  UNL     1      -7.031   6.056  64.173  1.00  0.00     0.000 HD 
HETATM   37  C   UNL     1      -9.326  10.106  63.757  1.00  0.00    -0.336 A  
HETATM   38  H1  UNL     1      -6.750   6.494  62.477  1.00  0.00     0.000 HD 
ENDBRANCH   8  30
ENDBRANCH   2   5
TORSDOF 6
ENDMDL
MODEL      166
REMARK 921   NORMALIZED FREE ENERGY PREDICTED BY IDOCK:   -5.36 KCAL/MOL
REMARK 922        TOTAL FREE ENERGY PREDICTED BY IDOCK:   -8.36 KCAL/MOL
REMARK 923 INTER-LIGAND FREE ENERGY PREDICTED BY IDOCK:   -7.38 KCAL/MOL
REMARK 924 INTRA-LIGAND FREE ENERGY PREDICTED BY IDOCK:   -0.99 KCAL/MOL
REMARK 927      BINDING AFFINITY PREDICTED BY RF-SCORE:    0.00 PKD
ROOT
HETATM    1  C   UNL     1      -6.386   7.430  74.407  1.00  0.00    -0.082 C  
HETATM    2  C   UNL     1      -6.901   6.254  73.557  1.00  0.00    -0.075 C  
HETATM    3  C   UNL     1      -7.860   5.419  74.439  1.00  0.00    -0.098 C  
HETATM    4  C   UNL     1      -5.687   5.373  73.183  1.00  0.00    -0.023 C  
ENDROOT
BRANCH   2   5
HETATM    5  C   UNL     1      -7.614   6.734  72.281  1.00  0.00    -0.093 A  
HETATM    6  N   UNL     1      -8.457   7.743  72.148  1.00  0.00    -0.117 NA 
HETATM    7  C   UNL     1      -8.881   7.894  70.805  1.00  0.00    -0.139 A  
HETATM    8  C   UNL     1      -8.376   6.922  69.943  1.00  0.00    -0.139 A  
HETATM    9  S   UNL     1      -7.278   5.918  70.815  1.00  0.00    -0.082 SA 
BRANCH   7  10
HETATM   10  C   UNL     1      -9.779   9.005  70.428  1.00  0.00    -0.245 A  
HETATM   11  C   UNL     1      -9.267  10.216  69.921  1.00  0.00    -0.080 A  
HETATM   12  C   UNL     1     -11.180   8.892  70.505  1.00  0.00    -0.287 A  
HETATM   13  F   UNL     1      -7.942  10.428  69.849  1.00  0.00    -0.160 F  
HETATM   14  C   UNL     1     -12.029   9.892  70.014  1.00  0.00    -0.076 A  
HETATM   15  C   UNL     1     -10.115  11.228  69.433  1.00  0.00     0.103 A  
HETATM   16  C   UNL     1     -11.497  11.057  69.471  1.00  0.00    -0.370 A  
BRANCH  15  17
HETATM   17  N   UNL     1      -9.574  12.402  68.815  1.00  0.00    -0.410 N  
HETATM   18  H   UNL     1      -9.492  13.268  69.347  1.00  0.00     0.000 HD 
BRANCH  17  19
HETATM   19  S   UNL     1      -9.070  12.349  67.202  1.00  0.00    -0.205 S  
HETATM   20  O   UNL     1      -9.065  10.968  66.768  1.00  0.00    -0.157 OA 
HETATM   21  O   UNL     1      -7.856  13.135  67.126  1.00  0.00    -0.145 OA 
BRANCH  19  22
HETATM   22  C   UNL     1     -10.289  13.238  66.313  1.00  0.00    -0.290 A  
HETATM   23  C   UNL     1      -9.947  14.472  65.774  1.00  0.00    -0.334 A  
HETATM   24  F   UNL     1      -8.774  15.051  66.071  1.00  0.00    -0.259 F  
HETATM   25  C   UNL     1     -10.811  15.136  64.902  1.00  0.00    -0.437 A  
HETATM   26  C   UNL     1     -12.033  14.558  64.563  1.00  0.00    -0.482 A  
HETATM   27  C   UNL     1     -12.388  13.330  65.121  1.00  0.00    -0.516 A  
HETATM   28  C   UNL     1     -11.515  12.673  65.992  1.00  0.00    -0.368 A  
HETATM   29  F   UNL     1     -11.895  11.482  66.469  1.00  0.00    -0.300 F  
ENDBRANCH  19  22
ENDBRANCH  17  19
ENDBRANCH  15  17
ENDBRANCH   7  10
BRANCH   8  30
HETATM   30  C   UNL     1      -8.528   6.591  68.514  1.00  0.00    -0.124 A  
HETATM   31  C   UNL     1      -9.898   5.952  66.803  1.00  0.00    -0.160 A  
HETATM   32  N   UNL     1      -9.769   6.282  68.095  1.00  0.00    -0.121 NA 
HETATM   33  N   UNL     1     -11.148   5.625  66.331  1.00  0.00    -0.758 NA 
HETATM   34  N   UNL     1      -8.914   5.970  65.898  1.00  0.00    -0.153 NA 
HETATM   35  C   UNL     1      -7.699   6.316  66.339  1.00  0.00    -0.099 A  
HETATM   36  H2  UNL     1     -11.959   5.634  66.951  1.00  0.00     0.000 HD 
HETATM   37  C   UNL     1      -7.446   6.632  67.648  1.00  0.00    -0.097 A  
HETATM   38  H1  UNL     1     -11.246   5.374  65.347  1.00  0.00     0.000 HD 
ENDBRANCH   8  30
ENDBRANCH   2   5
TORSDOF 6
ENDMDL
MODEL      167
REMARK 921   NORMALIZED FREE ENERGY PREDICTED BY IDOCK:   -5.35 KCAL/MOL
REMARK 922        TOTAL FREE ENERGY PREDICTED BY IDOCK:   -8.35 KCAL/MOL
REMARK 923 INTER-LIGAND FREE ENERGY PREDICTED BY IDOCK:   -7.55 KCAL/MOL
REMARK 924 INTRA-LIGAND FREE ENERGY PREDICTED BY IDOCK:   -0.79 KCAL/MOL
REMARK 927      BINDING AFFINITY PREDICTED BY RF-SCORE:    0.00 PKD
ROOT
HETATM    1  C   UNL     1     -11.597  15.310  64.195  1.00  0.00    -0.078 C  
HETATM    2  C   UNL     1     -11.763  13.884  64.751  1.00  0.00    -0.399 C  
HETATM    3  C   UNL     1     -11.818  12.912  63.548  1.00  0.00    -0.605 C  
HETATM    4  C   UNL     1     -13.117  13.821  65.494  1.00  0.00    -0.210 C  
ENDROOT
BRANCH   2   5
HETATM    5  C   UNL     1     -10.621  13.502  65.709  1.00  0.00    -0.283 A  
HETATM    6  N   UNL     1     -10.291  12.299  66.146  1.00  0.00    -0.237 NA 
HETATM    7  C   UNL     1      -9.158  12.346  66.994  1.00  0.00    -0.207 A  
HETATM    8  C   UNL     1      -8.685  13.636  67.231  1.00  0.00    -0.218 A  
HETATM    9  S   UNL     1      -9.597  14.748  66.279  1.00  0.00    -0.313 SA 
BRANCH   7  10
HETATM   10  C   UNL     1      -8.585  11.099  67.542  1.00  0.00    -0.129 A  
HETATM   11  C   UNL     1      -8.876  10.678  68.855  1.00  0.00    -0.157 A  
HETATM   12  C   UNL     1      -7.771  10.249  66.770  1.00  0.00    -0.111 A  
HETATM   13  F   UNL     1      -9.613  11.444  69.677  1.00  0.00     0.124 F  
HETATM   14  C   UNL     1      -7.348   9.001  67.245  1.00  0.00    -0.084 A  
HETATM   15  C   UNL     1      -8.448   9.429  69.341  1.00  0.00    -0.142 A  
HETATM   16  C   UNL     1      -7.693   8.587  68.528  1.00  0.00    -0.103 A  
BRANCH  15  17
HETATM   17  N   UNL     1      -8.852   8.969  70.636  1.00  0.00    -0.199 N  
HETATM   18  H   UNL     1      -8.178   8.938  71.401  1.00  0.00     0.000 HD 
BRANCH  17  19
HETATM   19  S   UNL     1     -10.449   8.479  70.897  1.00  0.00    -0.213 S  
HETATM   20  O   UNL     1     -10.974   7.950  69.656  1.00  0.00    -0.214 OA 
HETATM   21  O   UNL     1     -11.116   9.586  71.551  1.00  0.00    -0.367 OA 
BRANCH  19  22
HETATM   22  C   UNL     1     -10.345   7.196  72.084  1.00  0.00    -0.195 A  
HETATM   23  C   UNL     1      -9.715   7.463  73.294  1.00  0.00    -0.251 A  
HETATM   24  F   UNL     1      -9.051   8.611  73.484  1.00  0.00    -0.243 F  
HETATM   25  C   UNL     1      -9.767   6.546  74.344  1.00  0.00    -0.328 A  
HETATM   26  C   UNL     1     -10.458   5.346  74.184  1.00  0.00    -0.310 A  
HETATM   27  C   UNL     1     -11.072   5.066  72.963  1.00  0.00    -0.378 A  
HETATM   28  C   UNL     1     -11.015   5.993  71.919  1.00  0.00    -0.264 A  
HETATM   29  F   UNL     1     -11.651   5.684  70.783  1.00  0.00    -0.233 F  
ENDBRANCH  19  22
ENDBRANCH  17  19
ENDBRANCH  15  17
ENDBRANCH   7  10
BRANCH   8  30
HETATM   30  C   UNL     1      -7.610  14.238  68.041  1.00  0.00    -0.142 A  
HETATM   31  C   UNL     1      -6.412  14.241  69.985  1.00  0.00    -0.126 A  
HETATM   32  N   UNL     1      -7.368  13.672  69.238  1.00  0.00     0.050 NA 
HETATM   33  N   UNL     1      -6.132  13.697  71.217  1.00  0.00    -0.559 NA 
HETATM   34  N   UNL     1      -5.648  15.271  69.609  1.00  0.00    -0.102 NA 
HETATM   35  C   UNL     1      -5.891  15.789  68.399  1.00  0.00    -0.109 A  
HETATM   36  H2  UNL     1      -6.641  12.880  71.555  1.00  0.00     0.000 HD 
HETATM   37  C   UNL     1      -6.872  15.313  67.571  1.00  0.00    -0.218 A  
HETATM   38  H1  UNL     1      -5.404  14.130  71.786  1.00  0.00     0.000 HD 
ENDBRANCH   8  30
ENDBRANCH   2   5
TORSDOF 6
ENDMDL
MODEL      168
REMARK 921   NORMALIZED FREE ENERGY PREDICTED BY IDOCK:   -5.34 KCAL/MOL
REMARK 922        TOTAL FREE ENERGY PREDICTED BY IDOCK:   -8.33 KCAL/MOL
REMARK 923 INTER-LIGAND FREE ENERGY PREDICTED BY IDOCK:   -7.60 KCAL/MOL
REMARK 924 INTRA-LIGAND FREE ENERGY PREDICTED BY IDOCK:   -0.74 KCAL/MOL
REMARK 927      BINDING AFFINITY PREDICTED BY RF-SCORE:    0.00 PKD
ROOT
HETATM    1  C   UNL     1      -9.744   4.557  69.007  1.00  0.00    -0.235 C  
HETATM    2  C   UNL     1      -9.314   5.851  69.722  1.00  0.00    -0.171 C  
HETATM    3  C   UNL     1      -7.840   5.680  70.159  1.00  0.00    -0.091 C  
HETATM    4  C   UNL     1     -10.186   6.003  70.989  1.00  0.00    -0.253 C  
ENDROOT
BRANCH   2   5
HETATM    5  C   UNL     1      -9.476   7.088  68.822  1.00  0.00    -0.136 A  
HETATM    6  N   UNL     1      -9.953   8.277  69.149  1.00  0.00    -0.190 NA 
HETATM    7  C   UNL     1      -9.916   9.171  68.051  1.00  0.00    -0.178 A  
HETATM    8  C   UNL     1      -9.454   8.594  66.869  1.00  0.00    -0.180 A  
HETATM    9  S   UNL     1      -8.955   6.976  67.196  1.00  0.00    -0.124 SA 
BRANCH   7  10
HETATM   10  C   UNL     1     -10.346  10.575  68.220  1.00  0.00    -0.193 A  
HETATM   11  C   UNL     1      -9.430  11.578  68.596  1.00  0.00    -0.141 A  
HETATM   12  C   UNL     1     -11.667  10.987  67.965  1.00  0.00    -0.257 A  
HETATM   13  F   UNL     1      -8.157  11.271  68.897  1.00  0.00    -0.132 F  
HETATM   14  C   UNL     1     -12.036  12.338  67.988  1.00  0.00    -0.251 A  
HETATM   15  C   UNL     1      -9.796  12.936  68.628  1.00  0.00    -0.067 A  
HETATM   16  C   UNL     1     -11.099  13.314  68.312  1.00  0.00    -0.294 A  
BRANCH  15  17
HETATM   17  N   UNL     1      -8.822  13.951  68.898  1.00  0.00    -0.377 N  
HETATM   18  H   UNL     1      -8.692  14.295  69.850  1.00  0.00     0.000 HD 
BRANCH  17  19
HETATM   19  S   UNL     1      -7.886  14.579  67.638  1.00  0.00    -0.194 S  
HETATM   20  O   UNL     1      -7.278  13.475  66.925  1.00  0.00     0.158 OA 
HETATM   21  O   UNL     1      -7.052  15.610  68.220  1.00  0.00    -0.108 OA 
BRANCH  19  22
HETATM   22  C   UNL     1      -9.023  15.398  66.589  1.00  0.00    -0.286 A  
HETATM   23  C   UNL     1      -9.788  14.633  65.717  1.00  0.00    -0.328 A  
HETATM   24  F   UNL     1      -9.543  13.326  65.552  1.00  0.00    -0.222 F  
HETATM   25  C   UNL     1     -10.838  15.205  64.996  1.00  0.00    -0.457 A  
HETATM   26  C   UNL     1     -11.128  16.560  65.151  1.00  0.00    -0.134 A  
HETATM   27  C   UNL     1     -10.347  17.334  66.009  1.00  0.00    -0.312 A  
HETATM   28  C   UNL     1      -9.300  16.751  66.727  1.00  0.00    -0.245 A  
HETATM   29  F   UNL     1      -8.608  17.536  67.560  1.00  0.00    -0.213 F  
ENDBRANCH  19  22
ENDBRANCH  17  19
ENDBRANCH  15  17
ENDBRANCH   7  10
BRANCH   8  30
HETATM   30  C   UNL     1      -9.267   9.039  65.476  1.00  0.00    -0.198 A  
HETATM   31  C   UNL     1      -9.963  10.358  63.747  1.00  0.00    -0.162 A  
HETATM   32  N   UNL     1     -10.116   9.980  65.023  1.00  0.00    -0.269 NA 
HETATM   33  N   UNL     1     -10.811  11.316  63.241  1.00  0.00    -0.785 NA 
HETATM   34  N   UNL     1      -9.004   9.926  62.923  1.00  0.00    -0.243 NA 
HETATM   35  C   UNL     1      -8.154   9.017  63.414  1.00  0.00    -0.167 A  
HETATM   36  H2  UNL     1     -11.540  11.728  63.824  1.00  0.00     0.000 HD 
HETATM   37  C   UNL     1      -8.245   8.529  64.690  1.00  0.00    -0.162 A  
HETATM   38  H1  UNL     1     -10.694  11.604  62.270  1.00  0.00     0.000 HD 
ENDBRANCH   8  30
ENDBRANCH   2   5
TORSDOF 6
ENDMDL
MODEL      169
REMARK 921   NORMALIZED FREE ENERGY PREDICTED BY IDOCK:   -5.33 KCAL/MOL
REMARK 922        TOTAL FREE ENERGY PREDICTED BY IDOCK:   -8.33 KCAL/MOL
REMARK 923 INTER-LIGAND FREE ENERGY PREDICTED BY IDOCK:   -7.48 KCAL/MOL
REMARK 924 INTRA-LIGAND FREE ENERGY PREDICTED BY IDOCK:   -0.85 KCAL/MOL
REMARK 927      BINDING AFFINITY PREDICTED BY RF-SCORE:    0.00 PKD
ROOT
HETATM    1  C   UNL     1     -12.025  14.611  68.400  1.00  0.00    -0.289 C  
HETATM    2  C   UNL     1     -11.289  13.632  67.468  1.00  0.00    -0.335 C  
HETATM    3  C   UNL     1     -10.038  14.356  66.915  1.00  0.00    -0.259 C  
HETATM    4  C   UNL     1     -12.230  13.306  66.285  1.00  0.00    -0.440 C  
ENDROOT
BRANCH   2   5
HETATM    5  C   UNL     1     -10.891  12.334  68.194  1.00  0.00    -0.227 A  
HETATM    6  N   UNL     1      -9.921  11.492  67.884  1.00  0.00    -0.179 NA 
HETATM    7  C   UNL     1      -9.844  10.424  68.811  1.00  0.00    -0.185 A  
HETATM    8  C   UNL     1     -10.832  10.459  69.794  1.00  0.00    -0.292 A  
HETATM    9  S   UNL     1     -11.756  11.903  69.605  1.00  0.00    -0.334 SA 
BRANCH   7  10
HETATM   10  C   UNL     1      -8.785   9.401  68.682  1.00  0.00    -0.131 A  
HETATM   11  C   UNL     1      -9.015   8.197  67.986  1.00  0.00    -0.134 A  
HETATM   12  C   UNL     1      -7.491   9.598  69.198  1.00  0.00    -0.079 A  
HETATM   13  F   UNL     1     -10.231   7.906  67.493  1.00  0.00    -0.217 F  
HETATM   14  C   UNL     1      -6.453   8.690  68.952  1.00  0.00    -0.049 A  
HETATM   15  C   UNL     1      -7.978   7.277  67.742  1.00  0.00    -0.115 A  
HETATM   16  C   UNL     1      -6.694   7.533  68.217  1.00  0.00    -0.058 A  
BRANCH  15  17
HETATM   17  N   UNL     1      -8.204   6.117  66.932  1.00  0.00    -0.106 N  
HETATM   18  H   UNL     1      -8.704   5.315  67.316  1.00  0.00     0.000 HD 
BRANCH  17  19
HETATM   19  S   UNL     1      -7.642   6.078  65.338  1.00  0.00    -0.091 S  
HETATM   20  O   UNL     1      -6.230   5.758  65.358  1.00  0.00    -0.034 OA 
HETATM   21  O   UNL     1      -8.097   7.303  64.713  1.00  0.00    -0.129 OA 
BRANCH  19  22
HETATM   22  C   UNL     1      -8.528   4.775  64.574  1.00  0.00    -0.140 A  
HETATM   23  C   UNL     1      -7.845   3.930  63.707  1.00  0.00    -0.083 A  
HETATM   24  F   UNL     1      -6.589   4.204  63.327  1.00  0.00    -0.030 F  
HETATM   25  C   UNL     1      -8.447   2.769  63.219  1.00  0.00    -0.086 A  
HETATM   26  C   UNL     1      -9.748   2.449  63.602  1.00  0.00    -0.126 A  
HETATM   27  C   UNL     1     -10.443   3.307  64.453  1.00  0.00    -0.010 A  
HETATM   28  C   UNL     1      -9.830   4.465  64.939  1.00  0.00    -0.133 A  
HETATM   29  F   UNL     1     -10.534   5.232  65.779  1.00  0.00    -0.184 F  
ENDBRANCH  19  22
ENDBRANCH  17  19
ENDBRANCH  15  17
ENDBRANCH   7  10
BRANCH   8  30
HETATM   30  C   UNL     1     -11.229   9.604  70.928  1.00  0.00    -0.352 A  
HETATM   31  C   UNL     1     -12.881   8.867  72.321  1.00  0.00    -0.411 A  
HETATM   32  N   UNL     1     -12.531   9.621  71.270  1.00  0.00    -0.334 NA 
HETATM   33  N   UNL     1     -14.201   8.855  72.708  1.00  0.00    -1.052 NA 
HETATM   34  N   UNL     1     -12.061   8.061  73.002  1.00  0.00    -0.112 NA 
HETATM   35  C   UNL     1     -10.780   8.040  72.615  1.00  0.00    -0.358 A  
HETATM   36  H2  UNL     1     -14.897   9.409  72.208  1.00  0.00     0.000 HD 
HETATM   37  C   UNL     1     -10.305   8.803  71.581  1.00  0.00    -0.391 A  
HETATM   38  H1  UNL     1     -14.468   8.281  73.508  1.00  0.00     0.000 HD 
ENDBRANCH   8  30
ENDBRANCH   2   5
TORSDOF 6
ENDMDL
MODEL      170
REMARK 921   NORMALIZED FREE ENERGY PREDICTED BY IDOCK:   -5.31 KCAL/MOL
REMARK 922        TOTAL FREE ENERGY PREDICTED BY IDOCK:   -8.29 KCAL/MOL
REMARK 923 INTER-LIGAND FREE ENERGY PREDICTED BY IDOCK:   -7.24 KCAL/MOL
REMARK 924 INTRA-LIGAND FREE ENERGY PREDICTED BY IDOCK:   -1.05 KCAL/MOL
REMARK 927      BINDING AFFINITY PREDICTED BY RF-SCORE:    0.00 PKD
ROOT
HETATM    1  C   UNL     1     -11.699   7.976  71.861  1.00  0.00    -0.351 C  
HETATM    2  C   UNL     1     -10.219   7.553  71.851  1.00  0.00    -0.221 C  
HETATM    3  C   UNL     1     -10.170   6.007  71.838  1.00  0.00    -0.237 C  
HETATM    4  C   UNL     1      -9.575   8.053  73.165  1.00  0.00    -0.344 C  
ENDROOT
BRANCH   2   5
HETATM    5  C   UNL     1      -9.461   8.133  70.644  1.00  0.00    -0.162 A  
HETATM    6  N   UNL     1      -9.278   9.405  70.331  1.00  0.00    -0.242 NA 
HETATM    7  C   UNL     1      -8.500   9.544  69.156  1.00  0.00    -0.131 A  
HETATM    8  C   UNL     1      -8.156   8.330  68.561  1.00  0.00    -0.123 A  
HETATM    9  S   UNL     1      -8.712   7.041  69.562  1.00  0.00    -0.133 SA 
BRANCH   7  10
HETATM   10  C   UNL     1      -8.125  10.886  68.666  1.00  0.00    -0.143 A  
HETATM   11  C   UNL     1      -8.772  11.464  67.555  1.00  0.00    -0.140 A  
HETATM   12  C   UNL     1      -7.149  11.670  69.309  1.00  0.00    -0.055 A  
HETATM   13  F   UNL     1      -9.689  10.774  66.855  1.00  0.00    -0.184 F  
HETATM   14  C   UNL     1      -6.898  12.995  68.928  1.00  0.00    -0.099 A  
HETATM   15  C   UNL     1      -8.519  12.791  67.162  1.00  0.00    -0.181 A  
HETATM   16  C   UNL     1      -7.589  13.558  67.859  1.00  0.00    -0.151 A  
BRANCH  15  17
HETATM   17  N   UNL     1      -9.271  13.398  66.105  1.00  0.00    -0.476 N  
HETATM   18  H   UNL     1      -8.882  13.446  65.163  1.00  0.00     0.000 HD 
BRANCH  17  19
HETATM   19  S   UNL     1     -10.805  14.036  66.419  1.00  0.00    -0.302 S  
HETATM   20  O   UNL     1     -11.454  13.203  67.409  1.00  0.00    -0.295 OA 
HETATM   21  O   UNL     1     -11.432  14.249  65.131  1.00  0.00    -0.325 OA 
BRANCH  19  22
HETATM   22  C   UNL     1     -10.509  15.625  67.092  1.00  0.00    -0.303 A  
HETATM   23  C   UNL     1     -11.194  15.993  68.244  1.00  0.00    -0.350 A  
HETATM   24  F   UNL     1     -12.183  15.229  68.730  1.00  0.00    -0.304 F  
HETATM   25  C   UNL     1     -10.863  17.163  68.930  1.00  0.00    -0.172 A  
HETATM   26  C   UNL     1      -9.833  17.975  68.458  1.00  0.00    -0.383 A  
HETATM   27  C   UNL     1      -9.160  17.619  67.290  1.00  0.00    -0.237 A  
HETATM   28  C   UNL     1      -9.498  16.444  66.613  1.00  0.00    -0.256 A  
HETATM   29  F   UNL     1      -8.794  16.138  65.517  1.00  0.00    -0.247 F  
ENDBRANCH  19  22
ENDBRANCH  17  19
ENDBRANCH  15  17
ENDBRANCH   7  10
BRANCH   8  30
HETATM   30  C   UNL     1      -7.429   7.915  67.347  1.00  0.00    -0.093 A  
HETATM   31  C   UNL     1      -7.487   6.922  65.292  1.00  0.00    -0.089 A  
HETATM   32  N   UNL     1      -8.157   7.326  66.379  1.00  0.00    -0.114 NA 
HETATM   33  N   UNL     1      -8.190   6.313  64.278  1.00  0.00    -0.276 NA 
HETATM   34  N   UNL     1      -6.183   7.114  65.071  1.00  0.00    -0.037 NA 
HETATM   35  C   UNL     1      -5.495   7.733  66.037  1.00  0.00    -0.029 A  
HETATM   36  H2  UNL     1      -9.198   6.173  64.352  1.00  0.00     0.000 HD 
HETATM   37  C   UNL     1      -6.070   8.151  67.208  1.00  0.00    -0.054 A  
HETATM   38  H1  UNL     1      -7.680   6.005  63.449  1.00  0.00     0.000 HD 
ENDBRANCH   8  30
ENDBRANCH   2   5
TORSDOF 6
ENDMDL
MODEL      171
REMARK 921   NORMALIZED FREE ENERGY PREDICTED BY IDOCK:   -5.20 KCAL/MOL
REMARK 922        TOTAL FREE ENERGY PREDICTED BY IDOCK:   -8.15 KCAL/MOL
REMARK 923 INTER-LIGAND FREE ENERGY PREDICTED BY IDOCK:   -7.34 KCAL/MOL
REMARK 924 INTRA-LIGAND FREE ENERGY PREDICTED BY IDOCK:   -0.81 KCAL/MOL
REMARK 927      BINDING AFFINITY PREDICTED BY RF-SCORE:    0.00 PKD
ROOT
HETATM    1  C   UNL     1      -7.573   3.888  68.913  1.00  0.00    -0.054 C  
HETATM    2  C   UNL     1      -8.985   4.490  68.785  1.00  0.00    -0.149 C  
HETATM    3  C   UNL     1      -9.668   4.386  70.169  1.00  0.00    -0.288 C  
HETATM    4  C   UNL     1      -9.779   3.624  67.780  1.00  0.00    -0.109 C  
ENDROOT
BRANCH   2   5
HETATM    5  C   UNL     1      -8.947   5.950  68.303  1.00  0.00    -0.112 A  
HETATM    6  N   UNL     1      -9.721   6.953  68.680  1.00  0.00    -0.136 NA 
HETATM    7  C   UNL     1      -9.361   8.160  68.032  1.00  0.00    -0.135 A  
HETATM    8  C   UNL     1      -8.327   8.016  67.107  1.00  0.00    -0.121 A  
HETATM    9  S   UNL     1      -7.748   6.393  67.166  1.00  0.00    -0.101 SA 
BRANCH   7  10
HETATM   10  C   UNL     1     -10.062   9.419  68.359  1.00  0.00    -0.208 A  
HETATM   11  C   UNL     1     -10.592  10.242  67.346  1.00  0.00    -0.270 A  
HETATM   12  C   UNL     1     -10.280   9.829  69.687  1.00  0.00    -0.254 A  
HETATM   13  F   UNL     1     -10.400   9.950  66.048  1.00  0.00    -0.317 F  
HETATM   14  C   UNL     1     -11.067  10.947  69.995  1.00  0.00    -0.285 A  
HETATM   15  C   UNL     1     -11.378  11.371  67.648  1.00  0.00    -0.290 A  
HETATM   16  C   UNL     1     -11.622  11.713  68.975  1.00  0.00    -0.379 A  
BRANCH  15  17
HETATM   17  N   UNL     1     -12.005  12.127  66.605  1.00  0.00    -0.237 N  
HETATM   18  H   UNL     1     -12.881  11.803  66.196  1.00  0.00     0.000 HD 
BRANCH  17  19
HETATM   19  S   UNL     1     -11.292  13.557  66.053  1.00  0.00    -0.319 S  
HETATM   20  O   UNL     1     -12.343  14.507  65.755  1.00  0.00    -0.336 OA 
HETATM   21  O   UNL     1     -10.349  13.175  65.023  1.00  0.00    -0.317 OA 
BRANCH  19  22
HETATM   22  C   UNL     1     -10.339  14.141  67.401  1.00  0.00    -0.256 A  
HETATM   23  C   UNL     1      -8.989  13.815  67.448  1.00  0.00    -0.224 A  
HETATM   24  F   UNL     1      -8.465  12.933  66.585  1.00  0.00    -0.169 F  
HETATM   25  C   UNL     1      -8.143  14.404  68.389  1.00  0.00    -0.143 A  
HETATM   26  C   UNL     1      -8.653  15.333  69.294  1.00  0.00    -0.236 A  
HETATM   27  C   UNL     1     -10.012  15.645  69.264  1.00  0.00    -0.265 A  
HETATM   28  C   UNL     1     -10.850  15.051  68.316  1.00  0.00    -0.259 A  
HETATM   29  F   UNL     1     -12.137  15.415  68.313  1.00  0.00    -0.331 F  
ENDBRANCH  19  22
ENDBRANCH  17  19
ENDBRANCH  15  17
ENDBRANCH   7  10
BRANCH   8  30
HETATM   30  C   UNL     1      -7.624   8.900  66.159  1.00  0.00    -0.091 A  
HETATM   31  C   UNL     1      -6.233  10.680  65.829  1.00  0.00    -0.126 A  
HETATM   32  N   UNL     1      -6.846   9.860  66.693  1.00  0.00    -0.083 NA 
HETATM   33  N   UNL     1      -5.429  11.678  66.330  1.00  0.00    -0.456 NA 
HETATM   34  N   UNL     1      -6.283  10.578  64.497  1.00  0.00    -0.065 NA 
HETATM   35  C   UNL     1      -7.037   9.592  63.998  1.00  0.00    -0.109 A  
HETATM   36  H2  UNL     1      -5.303  11.791  67.336  1.00  0.00     0.000 HD 
HETATM   37  C   UNL     1      -7.740   8.722  64.789  1.00  0.00    -0.113 A  
HETATM   38  H1  UNL     1      -4.962  12.303  65.672  1.00  0.00     0.000 HD 
ENDBRANCH   8  30
ENDBRANCH   2   5
TORSDOF 6
ENDMDL
MODEL      172
REMARK 921   NORMALIZED FREE ENERGY PREDICTED BY IDOCK:   -5.15 KCAL/MOL
REMARK 922        TOTAL FREE ENERGY PREDICTED BY IDOCK:   -8.09 KCAL/MOL
REMARK 923 INTER-LIGAND FREE ENERGY PREDICTED BY IDOCK:   -7.17 KCAL/MOL
REMARK 924 INTRA-LIGAND FREE ENERGY PREDICTED BY IDOCK:   -0.92 KCAL/MOL
REMARK 927      BINDING AFFINITY PREDICTED BY RF-SCORE:    0.00 PKD
ROOT
HETATM    1  C   UNL     1      -9.014  21.028  66.902  1.00  0.00     0.122 C  
HETATM    2  C   UNL     1      -8.050  19.833  66.784  1.00  0.00    -0.333 C  
HETATM    3  C   UNL     1      -6.916  20.039  67.816  1.00  0.00    -0.305 C  
HETATM    4  C   UNL     1      -7.434  19.861  65.366  1.00  0.00    -0.105 C  
ENDROOT
BRANCH   2   5
HETATM    5  C   UNL     1      -8.765  18.491  67.019  1.00  0.00    -0.277 A  
HETATM    6  N   UNL     1      -8.725  17.404  66.267  1.00  0.00    -0.427 NA 
HETATM    7  C   UNL     1      -9.492  16.355  66.829  1.00  0.00    -0.247 A  
HETATM    8  C   UNL     1     -10.162  16.711  67.999  1.00  0.00    -0.280 A  
HETATM    9  S   UNL     1      -9.710  18.317  68.434  1.00  0.00    -0.374 SA 
BRANCH   7  10
HETATM   10  C   UNL     1      -9.531  15.029  66.177  1.00  0.00    -0.347 A  
HETATM   11  C   UNL     1      -8.814  13.936  66.703  1.00  0.00    -0.081 A  
HETATM   12  C   UNL     1     -10.321  14.780  65.040  1.00  0.00    -0.420 A  
HETATM   13  F   UNL     1      -8.003  14.090  67.764  1.00  0.00    -0.121 F  
HETATM   14  C   UNL     1     -10.466  13.491  64.511  1.00  0.00    -0.426 A  
HETATM   15  C   UNL     1      -8.949  12.640  66.172  1.00  0.00     0.114 A  
HETATM   16  C   UNL     1      -9.787  12.419  65.081  1.00  0.00    -0.157 A  
BRANCH  15  17
HETATM   17  N   UNL     1      -8.304  11.523  66.793  1.00  0.00    -0.162 N  
HETATM   18  H   UNL     1      -7.404  11.194  66.444  1.00  0.00     0.000 HD 
BRANCH  17  19
HETATM   19  S   UNL     1      -9.034  10.749  68.107  1.00  0.00    -0.146 S  
HETATM   20  O   UNL     1     -10.465  10.956  68.023  1.00  0.00    -0.176 OA 
HETATM   21  O   UNL     1      -8.311  11.175  69.288  1.00  0.00    -0.043 OA 
BRANCH  19  22
HETATM   22  C   UNL     1      -8.674   9.049  67.894  1.00  0.00    -0.129 A  
HETATM   23  C   UNL     1      -8.526   8.561  66.601  1.00  0.00    -0.113 A  
HETATM   24  F   UNL     1      -8.822   9.324  65.540  1.00  0.00    -0.151 F  
HETATM   25  C   UNL     1      -8.055   7.267  66.375  1.00  0.00    -0.119 A  
HETATM   26  C   UNL     1      -7.727   6.450  67.455  1.00  0.00    -0.101 A  
HETATM   27  C   UNL     1      -7.896   6.929  68.754  1.00  0.00    -0.118 A  
HETATM   28  C   UNL     1      -8.366   8.228  68.969  1.00  0.00    -0.120 A  
HETATM   29  F   UNL     1      -8.475   8.644  70.236  1.00  0.00    -0.109 F  
ENDBRANCH  19  22
ENDBRANCH  17  19
ENDBRANCH  15  17
ENDBRANCH   7  10
BRANCH   8  30
HETATM   30  C   UNL     1     -11.097  16.049  68.927  1.00  0.00    -0.331 A  
HETATM   31  C   UNL     1     -12.084  16.002  70.985  1.00  0.00    -0.331 A  
HETATM   32  N   UNL     1     -11.258  16.623  70.134  1.00  0.00    -0.150 NA 
HETATM   33  N   UNL     1     -12.277  16.552  72.231  1.00  0.00    -0.525 NA 
HETATM   34  N   UNL     1     -12.800  14.907  70.708  1.00  0.00    -0.361 NA 
HETATM   35  C   UNL     1     -12.643  14.380  69.488  1.00  0.00     0.003 A  
HETATM   36  H2  UNL     1     -11.802  17.414  72.501  1.00  0.00     0.000 HD 
HETATM   37  C   UNL     1     -11.793  14.910  68.554  1.00  0.00    -0.325 A  
HETATM   38  H1  UNL     1     -12.907  16.079  72.880  1.00  0.00     0.000 HD 
ENDBRANCH   8  30
ENDBRANCH   2   5
TORSDOF 6
ENDMDL
MODEL      173
REMARK 921   NORMALIZED FREE ENERGY PREDICTED BY IDOCK:   -5.15 KCAL/MOL
REMARK 922        TOTAL FREE ENERGY PREDICTED BY IDOCK:   -8.08 KCAL/MOL
REMARK 923 INTER-LIGAND FREE ENERGY PREDICTED BY IDOCK:   -6.90 KCAL/MOL
REMARK 924 INTRA-LIGAND FREE ENERGY PREDICTED BY IDOCK:   -1.18 KCAL/MOL
REMARK 927      BINDING AFFINITY PREDICTED BY RF-SCORE:    0.00 PKD
ROOT
HETATM    1  C   UNL     1      -8.067  17.110  68.927  1.00  0.00    -0.203 C  
HETATM    2  C   UNL     1      -9.369  16.602  68.282  1.00  0.00    -0.224 C  
HETATM    3  C   UNL     1      -9.661  17.487  67.047  1.00  0.00    -0.284 C  
HETATM    4  C   UNL     1     -10.511  16.796  69.306  1.00  0.00    -0.331 C  
ENDROOT
BRANCH   2   5
HETATM    5  C   UNL     1      -9.273  15.120  67.880  1.00  0.00    -0.184 A  
HETATM    6  N   UNL     1      -8.779  14.115  68.582  1.00  0.00    -0.160 NA 
HETATM    7  C   UNL     1      -8.894  12.887  67.886  1.00  0.00    -0.190 A  
HETATM    8  C   UNL     1      -9.436  13.013  66.607  1.00  0.00    -0.256 A  
HETATM    9  S   UNL     1      -9.905  14.654  66.360  1.00  0.00    -0.299 SA 
BRANCH   7  10
HETATM   10  C   UNL     1      -8.457  11.626  68.521  1.00  0.00    -0.135 A  
HETATM   11  C   UNL     1      -9.392  10.721  69.062  1.00  0.00    -0.156 A  
HETATM   12  C   UNL     1      -7.103  11.245  68.571  1.00  0.00    -0.083 A  
HETATM   13  F   UNL     1     -10.702  11.018  69.094  1.00  0.00    -0.200 F  
HETATM   14  C   UNL     1      -6.708   9.988  69.045  1.00  0.00    -0.053 A  
HETATM   15  C   UNL     1      -9.000   9.459  69.548  1.00  0.00    -0.164 A  
HETATM   16  C   UNL     1      -7.657   9.091  69.526  1.00  0.00    -0.077 A  
BRANCH  15  17
HETATM   17  N   UNL     1      -9.977   8.507  69.985  1.00  0.00    -0.185 N  
HETATM   18  H   UNL     1     -10.375   8.576  70.921  1.00  0.00     0.000 HD 
BRANCH  17  19
HETATM   19  S   UNL     1     -10.472   7.269  68.946  1.00  0.00    -0.192 S  
HETATM   20  O   UNL     1     -10.617   7.818  67.614  1.00  0.00    -0.239 OA 
HETATM   21  O   UNL     1     -11.597   6.621  69.587  1.00  0.00    -0.324 OA 
BRANCH  19  22
HETATM   22  C   UNL     1      -9.161   6.108  68.962  1.00  0.00    -0.124 A  
HETATM   23  C   UNL     1      -8.560   5.773  67.755  1.00  0.00    -0.101 A  
HETATM   24  F   UNL     1      -9.079   6.186  66.590  1.00  0.00    -0.123 F  
HETATM   25  C   UNL     1      -7.395   5.004  67.725  1.00  0.00    -0.075 A  
HETATM   26  C   UNL     1      -6.823   4.567  68.918  1.00  0.00    -0.050 A  
HETATM   27  C   UNL     1      -7.437   4.883  70.130  1.00  0.00    -0.059 A  
HETATM   28  C   UNL     1      -8.601   5.655  70.148  1.00  0.00    -0.127 A  
HETATM   29  F   UNL     1      -9.126   5.956  71.341  1.00  0.00    -0.137 F  
ENDBRANCH  19  22
ENDBRANCH  17  19
ENDBRANCH  15  17
ENDBRANCH   7  10
BRANCH   8  30
HETATM   30  C   UNL     1      -9.720  12.103  65.483  1.00  0.00    -0.181 A  
HETATM   31  C   UNL     1     -11.088  11.524  63.749  1.00  0.00    -0.390 A  
HETATM   32  N   UNL     1     -10.816  12.372  64.750  1.00  0.00    -0.291 NA 
HETATM   33  N   UNL     1     -12.201  11.760  62.975  1.00  0.00    -0.916 NA 
HETATM   34  N   UNL     1     -10.329  10.486  63.388  1.00  0.00    -0.003 NA 
HETATM   35  C   UNL     1      -9.227  10.265  64.115  1.00  0.00    -0.267 A  
HETATM   36  H2  UNL     1     -12.806  12.561  63.159  1.00  0.00     0.000 HD 
HETATM   37  C   UNL     1      -8.876  11.044  65.185  1.00  0.00    -0.116 A  
HETATM   38  H1  UNL     1     -12.408  11.114  62.212  1.00  0.00     0.000 HD 
ENDBRANCH   8  30
ENDBRANCH   2   5
TORSDOF 6
ENDMDL
MODEL      174
REMARK 921   NORMALIZED FREE ENERGY PREDICTED BY IDOCK:   -5.13 KCAL/MOL
REMARK 922        TOTAL FREE ENERGY PREDICTED BY IDOCK:   -8.05 KCAL/MOL
REMARK 923 INTER-LIGAND FREE ENERGY PREDICTED BY IDOCK:   -7.58 KCAL/MOL
REMARK 924 INTRA-LIGAND FREE ENERGY PREDICTED BY IDOCK:   -0.47 KCAL/MOL
REMARK 927      BINDING AFFINITY PREDICTED BY RF-SCORE:    0.00 PKD
ROOT
HETATM    1  C   UNL     1      -8.300  17.866  68.423  1.00  0.00    -0.307 C  
HETATM    2  C   UNL     1      -9.679  17.262  68.101  1.00  0.00    -0.284 C  
HETATM    3  C   UNL     1     -10.376  18.195  67.083  1.00  0.00    -0.391 C  
HETATM    4  C   UNL     1     -10.507  17.254  69.406  1.00  0.00    -0.142 C  
ENDROOT
BRANCH   2   5
HETATM    5  C   UNL     1      -9.566  15.833  67.543  1.00  0.00    -0.224 A  
HETATM    6  N   UNL     1      -8.775  14.857  67.956  1.00  0.00    -0.161 NA 
HETATM    7  C   UNL     1      -8.981  13.671  67.209  1.00  0.00    -0.225 A  
HETATM    8  C   UNL     1      -9.909  13.808  66.178  1.00  0.00    -0.297 A  
HETATM    9  S   UNL     1     -10.596  15.388  66.252  1.00  0.00    -0.314 SA 
BRANCH   7  10
HETATM   10  C   UNL     1      -8.240  12.438  67.551  1.00  0.00    -0.173 A  
HETATM   11  C   UNL     1      -8.837  11.419  68.320  1.00  0.00    -0.167 A  
HETATM   12  C   UNL     1      -6.934  12.199  67.085  1.00  0.00    -0.117 A  
HETATM   13  F   UNL     1     -10.066  11.577  68.840  1.00  0.00    -0.205 F  
HETATM   14  C   UNL     1      -6.291  10.971  67.292  1.00  0.00    -0.069 A  
HETATM   15  C   UNL     1      -8.193  10.187  68.538  1.00  0.00    -0.111 A  
HETATM   16  C   UNL     1      -6.923   9.962  68.011  1.00  0.00    -0.077 A  
BRANCH  15  17
HETATM   17  N   UNL     1      -8.863   9.121  69.222  1.00  0.00    -0.140 N  
HETATM   18  H   UNL     1      -9.017   9.178  70.229  1.00  0.00     0.000 HD 
BRANCH  17  19
HETATM   19  S   UNL     1      -9.397   7.769  68.360  1.00  0.00    -0.143 S  
HETATM   20  O   UNL     1      -8.489   7.541  67.256  1.00  0.00    -0.117 OA 
HETATM   21  O   UNL     1     -10.807   7.976  68.105  1.00  0.00    -0.079 OA 
BRANCH  19  22
HETATM   22  C   UNL     1      -9.292   6.436  69.491  1.00  0.00    -0.143 A  
HETATM   23  C   UNL     1      -8.058   6.152  70.065  1.00  0.00    -0.119 A  
HETATM   24  F   UNL     1      -6.944   6.762  69.638  1.00  0.00    -0.055 F  
HETATM   25  C   UNL     1      -7.951   5.230  71.108  1.00  0.00    -0.108 A  
HETATM   26  C   UNL     1      -9.091   4.586  71.584  1.00  0.00    -0.171 A  
HETATM   27  C   UNL     1     -10.326   4.853  70.994  1.00  0.00    -0.217 A  
HETATM   28  C   UNL     1     -10.423   5.779  69.952  1.00  0.00    -0.290 A  
HETATM   29  F   UNL     1     -11.639   6.019  69.449  1.00  0.00    -0.475 F  
ENDBRANCH  19  22
ENDBRANCH  17  19
ENDBRANCH  15  17
ENDBRANCH   7  10
BRANCH   8  30
HETATM   30  C   UNL     1     -10.442  12.941  65.110  1.00  0.00    -0.309 A  
HETATM   31  C   UNL     1     -10.276  11.001  63.918  1.00  0.00    -0.364 A  
HETATM   32  N   UNL     1      -9.808  11.771  64.910  1.00  0.00    -0.245 NA 
HETATM   33  N   UNL     1      -9.657   9.796  63.677  1.00  0.00    -0.487 NA 
HETATM   34  N   UNL     1     -11.347  11.274  63.168  1.00  0.00     0.070 NA 
HETATM   35  C   UNL     1     -11.976  12.429  63.414  1.00  0.00    -0.504 A  
HETATM   36  H2  UNL     1      -8.860   9.496  64.239  1.00  0.00     0.000 HD 
HETATM   37  C   UNL     1     -11.558  13.310  64.376  1.00  0.00    -0.423 A  
HETATM   38  H1  UNL     1     -10.013   9.210  62.921  1.00  0.00     0.000 HD 
ENDBRANCH   8  30
ENDBRANCH   2   5
TORSDOF 6
ENDMDL
MODEL      175
REMARK 921   NORMALIZED FREE ENERGY PREDICTED BY IDOCK:   -5.11 KCAL/MOL
REMARK 922        TOTAL FREE ENERGY PREDICTED BY IDOCK:   -8.03 KCAL/MOL
REMARK 923 INTER-LIGAND FREE ENERGY PREDICTED BY IDOCK:   -7.06 KCAL/MOL
REMARK 924 INTRA-LIGAND FREE ENERGY PREDICTED BY IDOCK:   -0.97 KCAL/MOL
REMARK 927      BINDING AFFINITY PREDICTED BY RF-SCORE:    0.00 PKD
ROOT
HETATM    1  C   UNL     1     -10.606  13.887  64.951  1.00  0.00    -0.436 C  
HETATM    2  C   UNL     1     -11.553  12.844  65.571  1.00  0.00    -0.395 C  
HETATM    3  C   UNL     1     -12.637  12.506  64.520  1.00  0.00    -0.503 C  
HETATM    4  C   UNL     1     -12.241  13.497  66.792  1.00  0.00    -0.392 C  
ENDROOT
BRANCH   2   5
HETATM    5  C   UNL     1     -10.804  11.573  66.009  1.00  0.00    -0.276 A  
HETATM    6  N   UNL     1     -11.197  10.651  66.871  1.00  0.00    -0.225 NA 
HETATM    7  C   UNL     1     -10.244   9.611  66.991  1.00  0.00    -0.244 A  
HETATM    8  C   UNL     1      -9.090   9.814  66.234  1.00  0.00    -0.157 A  
HETATM    9  S   UNL     1      -9.285  11.246  65.293  1.00  0.00    -0.123 SA 
BRANCH   7  10
HETATM   10  C   UNL     1     -10.517   8.446  67.858  1.00  0.00    -0.255 A  
HETATM   11  C   UNL     1     -10.601   8.584  69.258  1.00  0.00    -0.181 A  
HETATM   12  C   UNL     1     -10.757   7.163  67.332  1.00  0.00    -0.368 A  
HETATM   13  F   UNL     1     -10.348   9.763  69.852  1.00  0.00    -0.206 F  
HETATM   14  C   UNL     1     -11.155   6.095  68.146  1.00  0.00    -0.328 A  
HETATM   15  C   UNL     1     -10.993   7.513  70.083  1.00  0.00    -0.254 A  
HETATM   16  C   UNL     1     -11.281   6.271  69.521  1.00  0.00    -0.500 A  
BRANCH  15  17
HETATM   17  N   UNL     1     -11.186   7.703  71.489  1.00  0.00    -0.243 N  
HETATM   18  H   UNL     1     -11.865   8.387  71.823  1.00  0.00     0.000 HD 
BRANCH  17  19
HETATM   19  S   UNL     1     -10.288   6.794  72.595  1.00  0.00    -0.211 S  
HETATM   20  O   UNL     1     -10.896   5.485  72.712  1.00  0.00    -0.227 OA 
HETATM   21  O   UNL     1     -10.125   7.622  73.771  1.00  0.00    -0.293 OA 
BRANCH  19  22
HETATM   22  C   UNL     1      -8.699   6.640  71.876  1.00  0.00    -0.128 A  
HETATM   23  C   UNL     1      -7.876   7.759  71.844  1.00  0.00    -0.095 A  
HETATM   24  F   UNL     1      -8.344   8.967  72.190  1.00  0.00    -0.204 F  
HETATM   25  C   UNL     1      -6.539   7.653  71.459  1.00  0.00    -0.045 A  
HETATM   26  C   UNL     1      -6.017   6.411  71.102  1.00  0.00    -0.028 A  
HETATM   27  C   UNL     1      -6.847   5.290  71.112  1.00  0.00    -0.045 A  
HETATM   28  C   UNL     1      -8.183   5.407  71.502  1.00  0.00    -0.118 A  
HETATM   29  F   UNL     1      -8.922   4.292  71.525  1.00  0.00    -0.121 F  
ENDBRANCH  19  22
ENDBRANCH  17  19
ENDBRANCH  15  17
ENDBRANCH   7  10
BRANCH   8  30
HETATM   30  C   UNL     1      -7.814   9.102  66.036  1.00  0.00    -0.102 A  
HETATM   31  C   UNL     1      -6.682   7.119  65.995  1.00  0.00    -0.053 A  
HETATM   32  N   UNL     1      -7.849   7.761  66.146  1.00  0.00    -0.091 NA 
HETATM   33  N   UNL     1      -6.669   5.748  66.102  1.00  0.00    -0.055 NA 
HETATM   34  N   UNL     1      -5.517   7.697  65.685  1.00  0.00    -0.029 NA 
HETATM   35  C   UNL     1      -5.523   9.028  65.548  1.00  0.00    -0.038 A  
HETATM   36  H2  UNL     1      -7.528   5.231  66.291  1.00  0.00     0.000 HD 
HETATM   37  C   UNL     1      -6.651   9.786  65.721  1.00  0.00    -0.088 A  
HETATM   38  H1  UNL     1      -5.781   5.260  65.987  1.00  0.00     0.000 HD 
ENDBRANCH   8  30
ENDBRANCH   2   5
TORSDOF 6
ENDMDL
MODEL      176
REMARK 921   NORMALIZED FREE ENERGY PREDICTED BY IDOCK:   -5.08 KCAL/MOL
REMARK 922        TOTAL FREE ENERGY PREDICTED BY IDOCK:   -7.99 KCAL/MOL
REMARK 923 INTER-LIGAND FREE ENERGY PREDICTED BY IDOCK:   -7.15 KCAL/MOL
REMARK 924 INTRA-LIGAND FREE ENERGY PREDICTED BY IDOCK:   -0.84 KCAL/MOL
REMARK 927      BINDING AFFINITY PREDICTED BY RF-SCORE:    0.00 PKD
ROOT
HETATM    1  C   UNL     1      -5.125   9.583  69.630  1.00  0.00    -0.034 C  
HETATM    2  C   UNL     1      -6.020  10.031  70.800  1.00  0.00    -0.095 C  
HETATM    3  C   UNL     1      -5.598  11.466  71.194  1.00  0.00     0.050 C  
HETATM    4  C   UNL     1      -5.739   9.092  71.996  1.00  0.00    -0.069 C  
ENDROOT
BRANCH   2   5
HETATM    5  C   UNL     1      -7.514   9.982  70.435  1.00  0.00    -0.050 A  
HETATM    6  N   UNL     1      -8.142  10.651  69.484  1.00  0.00    -0.099 NA 
HETATM    7  C   UNL     1      -9.518  10.315  69.434  1.00  0.00    -0.206 A  
HETATM    8  C   UNL     1      -9.914   9.416  70.424  1.00  0.00    -0.252 A  
HETATM    9  S   UNL     1      -8.524   8.916  71.313  1.00  0.00    -0.142 SA 
BRANCH   7  10
HETATM   10  C   UNL     1     -10.392  10.906  68.399  1.00  0.00    -0.196 A  
HETATM   11  C   UNL     1     -10.711  12.278  68.412  1.00  0.00    -0.234 A  
HETATM   12  C   UNL     1     -10.901  10.146  67.330  1.00  0.00    -0.323 A  
HETATM   13  F   UNL     1     -10.301  13.073  69.414  1.00  0.00    -0.009 F  
HETATM   14  C   UNL     1     -11.610  10.737  66.277  1.00  0.00     0.886 A  
HETATM   15  C   UNL     1     -11.429  12.877  67.360  1.00  0.00    -0.336 A  
HETATM   16  C   UNL     1     -11.867  12.105  66.287  1.00  0.00    -0.320 A  
BRANCH  15  17
HETATM   17  N   UNL     1     -11.643  14.294  67.332  1.00  0.00    -0.350 N  
HETATM   18  H   UNL     1     -12.312  14.722  67.972  1.00  0.00     0.000 HD 
BRANCH  17  19
HETATM   19  S   UNL     1     -10.784  15.255  66.239  1.00  0.00    -0.316 S  
HETATM   20  O   UNL     1     -11.676  15.634  65.163  1.00  0.00    -0.058 OA 
HETATM   21  O   UNL     1      -9.557  14.545  65.944  1.00  0.00    -0.301 OA 
BRANCH  19  22
HETATM   22  C   UNL     1     -10.323  16.679  67.148  1.00  0.00    -0.300 A  
HETATM   23  C   UNL     1     -10.540  17.928  66.576  1.00  0.00    -0.235 A  
HETATM   24  F   UNL     1     -10.926  18.041  65.298  1.00  0.00    -0.428 F  
HETATM   25  C   UNL     1     -10.370  19.095  67.322  1.00  0.00    -0.523 A  
HETATM   26  C   UNL     1      -9.980  19.013  68.658  1.00  0.00    -0.482 A  
HETATM   27  C   UNL     1      -9.740  17.763  69.227  1.00  0.00     0.006 A  
HETATM   28  C   UNL     1      -9.915  16.600  68.471  1.00  0.00    -0.261 A  
HETATM   29  F   UNL     1      -9.703  15.428  69.081  1.00  0.00    -0.194 F  
ENDBRANCH  19  22
ENDBRANCH  17  19
ENDBRANCH  15  17
ENDBRANCH   7  10
BRANCH   8  30
HETATM   30  C   UNL     1     -11.184   8.795  70.843  1.00  0.00    -0.270 A  
HETATM   31  C   UNL     1     -13.106   8.938  72.068  1.00  0.00    -0.402 A  
HETATM   32  N   UNL     1     -11.967   9.518  71.665  1.00  0.00    -0.384 NA 
HETATM   33  N   UNL     1     -13.936   9.639  72.911  1.00  0.00    -0.624 NA 
HETATM   34  N   UNL     1     -13.545   7.740  71.671  1.00  0.00    -0.363 NA 
HETATM   35  C   UNL     1     -12.760   7.061  70.827  1.00  0.00    -0.070 A  
HETATM   36  H2  UNL     1     -13.692  10.580  73.221  1.00  0.00     0.000 HD 
HETATM   37  C   UNL     1     -11.556   7.541  70.383  1.00  0.00    -0.172 A  
HETATM   38  H1  UNL     1     -14.803   9.197  73.218  1.00  0.00     0.000 HD 
ENDBRANCH   8  30
ENDBRANCH   2   5
TORSDOF 6
ENDMDL
MODEL      177
REMARK 921   NORMALIZED FREE ENERGY PREDICTED BY IDOCK:   -5.07 KCAL/MOL
REMARK 922        TOTAL FREE ENERGY PREDICTED BY IDOCK:   -7.97 KCAL/MOL
REMARK 923 INTER-LIGAND FREE ENERGY PREDICTED BY IDOCK:   -7.91 KCAL/MOL
REMARK 924 INTRA-LIGAND FREE ENERGY PREDICTED BY IDOCK:   -0.06 KCAL/MOL
REMARK 927      BINDING AFFINITY PREDICTED BY RF-SCORE:    0.00 PKD
ROOT
HETATM    1  C   UNL     1      -7.369   8.046  74.564  1.00  0.00    -0.224 C  
HETATM    2  C   UNL     1      -7.226   6.984  73.459  1.00  0.00    -0.075 C  
HETATM    3  C   UNL     1      -7.724   5.636  74.033  1.00  0.00    -0.100 C  
HETATM    4  C   UNL     1      -5.723   6.848  73.125  1.00  0.00    -0.046 C  
ENDROOT
BRANCH   2   5
HETATM    5  C   UNL     1      -8.012   7.361  72.192  1.00  0.00    -0.093 A  
HETATM    6  N   UNL     1      -8.688   8.472  71.953  1.00  0.00    -0.193 NA 
HETATM    7  C   UNL     1      -9.256   8.466  70.655  1.00  0.00    -0.156 A  
HETATM    8  C   UNL     1      -9.037   7.283  69.950  1.00  0.00    -0.141 A  
HETATM    9  S   UNL     1      -8.014   6.257  70.885  1.00  0.00    -0.113 SA 
BRANCH   7  10
HETATM   10  C   UNL     1     -10.001   9.643  70.163  1.00  0.00    -0.309 A  
HETATM   11  C   UNL     1      -9.398  10.577  69.296  1.00  0.00    -0.160 A  
HETATM   12  C   UNL     1     -11.352   9.862  70.488  1.00  0.00    -0.399 A  
HETATM   13  F   UNL     1      -8.101  10.470  68.961  1.00  0.00    -0.104 F  
HETATM   14  C   UNL     1     -12.093  10.899  69.907  1.00  0.00    -0.428 A  
HETATM   15  C   UNL     1     -10.135  11.625  68.714  1.00  0.00    -0.156 A  
HETATM   16  C   UNL     1     -11.486  11.776  69.013  1.00  0.00    -0.358 A  
BRANCH  15  17
HETATM   17  N   UNL     1      -9.534  12.493  67.745  1.00  0.00    -0.190 N  
HETATM   18  H   UNL     1      -8.548  12.386  67.506  1.00  0.00     0.000 HD 
BRANCH  17  19
HETATM   19  S   UNL     1     -10.460  13.693  66.998  1.00  0.00    -0.271 S  
HETATM   20  O   UNL     1      -9.577  14.766  66.590  1.00  0.00    -0.246 OA 
HETATM   21  O   UNL     1     -11.569  13.969  67.887  1.00  0.00    -0.303 OA 
BRANCH  19  22
HETATM   22  C   UNL     1     -11.144  12.926  65.580  1.00  0.00    -0.278 A  
HETATM   23  C   UNL     1     -12.298  13.468  65.026  1.00  0.00    -0.428 A  
HETATM   24  F   UNL     1     -12.971  14.441  65.655  1.00  0.00    -0.473 F  
HETATM   25  C   UNL     1     -12.779  13.019  63.795  1.00  0.00    -0.159 A  
HETATM   26  C   UNL     1     -12.098  12.015  63.109  1.00  0.00    -0.347 A  
HETATM   27  C   UNL     1     -10.953  11.454  63.674  1.00  0.00    -0.443 A  
HETATM   28  C   UNL     1     -10.478  11.913  64.905  1.00  0.00    -0.287 A  
HETATM   29  F   UNL     1      -9.356  11.361  65.380  1.00  0.00    -0.214 F  
ENDBRANCH  19  22
ENDBRANCH  17  19
ENDBRANCH  15  17
ENDBRANCH   7  10
BRANCH   8  30
HETATM   30  C   UNL     1      -9.431   6.746  68.634  1.00  0.00    -0.132 A  
HETATM   31  C   UNL     1      -9.260   6.857  66.360  1.00  0.00    -0.152 A  
HETATM   32  N   UNL     1      -8.876   7.328  67.555  1.00  0.00    -0.120 NA 
HETATM   33  N   UNL     1      -8.721   7.424  65.229  1.00  0.00    -0.358 NA 
HETATM   34  N   UNL     1     -10.089   5.827  66.165  1.00  0.00    -0.066 NA 
HETATM   35  C   UNL     1     -10.596   5.249  67.260  1.00  0.00    -0.127 A  
HETATM   36  H2  UNL     1      -8.044   8.185  65.297  1.00  0.00     0.000 HD 
HETATM   37  C   UNL     1     -10.305   5.675  68.528  1.00  0.00    -0.265 A  
HETATM   38  H1  UNL     1      -9.013   7.066  64.319  1.00  0.00     0.000 HD 
ENDBRANCH   8  30
ENDBRANCH   2   5
TORSDOF 6
ENDMDL
MODEL      178
REMARK 921   NORMALIZED FREE ENERGY PREDICTED BY IDOCK:   -5.06 KCAL/MOL
REMARK 922        TOTAL FREE ENERGY PREDICTED BY IDOCK:   -7.95 KCAL/MOL
REMARK 923 INTER-LIGAND FREE ENERGY PREDICTED BY IDOCK:   -7.43 KCAL/MOL
REMARK 924 INTRA-LIGAND FREE ENERGY PREDICTED BY IDOCK:   -0.52 KCAL/MOL
REMARK 927      BINDING AFFINITY PREDICTED BY RF-SCORE:    0.00 PKD
ROOT
HETATM    1  C   UNL     1     -10.636   4.362  65.543  1.00  0.00    -0.193 C  
HETATM    2  C   UNL     1      -9.476   4.298  66.553  1.00  0.00    -0.196 C  
HETATM    3  C   UNL     1      -8.189   4.749  65.822  1.00  0.00    -0.112 C  
HETATM    4  C   UNL     1      -9.305   2.824  66.984  1.00  0.00    -0.106 C  
ENDROOT
BRANCH   2   5
HETATM    5  C   UNL     1      -9.739   5.178  67.788  1.00  0.00    -0.148 A  
HETATM    6  N   UNL     1     -10.064   6.459  67.822  1.00  0.00    -0.134 NA 
HETATM    7  C   UNL     1     -10.254   6.912  69.150  1.00  0.00    -0.187 A  
HETATM    8  C   UNL     1      -9.997   5.942  70.119  1.00  0.00    -0.191 A  
HETATM    9  S   UNL     1      -9.648   4.447  69.332  1.00  0.00    -0.199 SA 
BRANCH   7  10
HETATM   10  C   UNL     1     -10.685   8.302  69.409  1.00  0.00    -0.160 A  
HETATM   11  C   UNL     1     -10.904   9.206  68.350  1.00  0.00    -0.048 A  
HETATM   12  C   UNL     1     -10.946   8.772  70.709  1.00  0.00    -0.294 A  
HETATM   13  F   UNL     1     -10.643   8.856  67.079  1.00  0.00    -0.330 F  
HETATM   14  C   UNL     1     -11.489  10.043  70.937  1.00  0.00    -0.452 A  
HETATM   15  C   UNL     1     -11.442  10.487  68.574  1.00  0.00    -0.215 A  
HETATM   16  C   UNL     1     -11.745  10.898  69.870  1.00  0.00    -0.418 A  
BRANCH  15  17
HETATM   17  N   UNL     1     -11.768  11.346  67.475  1.00  0.00    -0.217 N  
HETATM   18  H   UNL     1     -12.696  11.309  67.055  1.00  0.00     0.000 HD 
BRANCH  17  19
HETATM   19  S   UNL     1     -10.611  12.424  66.876  1.00  0.00    -0.233 S  
HETATM   20  O   UNL     1      -9.822  12.914  67.987  1.00  0.00    -0.211 OA 
HETATM   21  O   UNL     1     -11.321  13.357  66.026  1.00  0.00    -0.301 OA 
BRANCH  19  22
HETATM   22  C   UNL     1      -9.599  11.465  65.816  1.00  0.00    -0.233 A  
HETATM   23  C   UNL     1      -8.356  11.054  66.282  1.00  0.00    -0.166 A  
HETATM   24  F   UNL     1      -7.866  11.522  67.439  1.00  0.00    -0.117 F  
HETATM   25  C   UNL     1      -7.590  10.136  65.562  1.00  0.00    -0.146 A  
HETATM   26  C   UNL     1      -8.074   9.621  64.361  1.00  0.00    -0.141 A  
HETATM   27  C   UNL     1      -9.311  10.049  63.880  1.00  0.00    -0.315 A  
HETATM   28  C   UNL     1     -10.071  10.967  64.611  1.00  0.00    -0.328 A  
HETATM   29  F   UNL     1     -11.264  11.314  64.116  1.00  0.00    -0.423 F  
ENDBRANCH  19  22
ENDBRANCH  17  19
ENDBRANCH  15  17
ENDBRANCH   7  10
BRANCH   8  30
HETATM   30  C   UNL     1      -9.992   5.892  71.592  1.00  0.00    -0.175 A  
HETATM   31  C   UNL     1      -8.884   6.302  73.546  1.00  0.00    -0.124 A  
HETATM   32  N   UNL     1      -8.899   6.378  72.208  1.00  0.00    -0.135 NA 
HETATM   33  N   UNL     1      -7.785   6.786  74.218  1.00  0.00    -0.103 NA 
HETATM   34  N   UNL     1      -9.886   5.847  74.305  1.00  0.00    -0.201 NA 
HETATM   35  C   UNL     1     -10.972   5.403  73.664  1.00  0.00    -0.220 A  
HETATM   36  H2  UNL     1      -7.000   7.192  73.710  1.00  0.00     0.000 HD 
HETATM   37  C   UNL     1     -11.077   5.395  72.298  1.00  0.00    -0.259 A  
HETATM   38  H1  UNL     1      -7.775   6.728  75.237  1.00  0.00     0.000 HD 
ENDBRANCH   8  30
ENDBRANCH   2   5
TORSDOF 6
ENDMDL
MODEL      179
REMARK 921   NORMALIZED FREE ENERGY PREDICTED BY IDOCK:   -5.01 KCAL/MOL
REMARK 922        TOTAL FREE ENERGY PREDICTED BY IDOCK:   -7.89 KCAL/MOL
REMARK 923 INTER-LIGAND FREE ENERGY PREDICTED BY IDOCK:   -8.37 KCAL/MOL
REMARK 924 INTRA-LIGAND FREE ENERGY PREDICTED BY IDOCK:    0.48 KCAL/MOL
REMARK 927      BINDING AFFINITY PREDICTED BY RF-SCORE:    0.00 PKD
ROOT
HETATM    1  C   UNL     1     -11.479   6.381  70.029  1.00  0.00    -0.496 C  
HETATM    2  C   UNL     1     -12.052   7.358  71.072  1.00  0.00    -0.330 C  
HETATM    3  C   UNL     1     -11.446   6.989  72.446  1.00  0.00    -0.300 C  
HETATM    4  C   UNL     1     -13.581   7.137  71.135  1.00  0.00    -0.207 C  
ENDROOT
BRANCH   2   5
HETATM    5  C   UNL     1     -11.749   8.824  70.717  1.00  0.00    -0.219 A  
HETATM    6  N   UNL     1     -10.809   9.290  69.912  1.00  0.00    -0.233 NA 
HETATM    7  C   UNL     1     -10.862  10.702  69.814  1.00  0.00    -0.261 A  
HETATM    8  C   UNL     1     -11.836  11.287  70.623  1.00  0.00    -0.267 A  
HETATM    9  S   UNL     1     -12.746  10.040  71.390  1.00  0.00    -0.450 SA 
BRANCH   7  10
HETATM   10  C   UNL     1      -9.936  11.421  68.914  1.00  0.00    -0.146 A  
HETATM   11  C   UNL     1     -10.400  12.046  67.740  1.00  0.00    -0.197 A  
HETATM   12  C   UNL     1      -8.567  11.561  69.209  1.00  0.00     0.390 A  
HETATM   13  F   UNL     1     -11.684  11.933  67.358  1.00  0.00    -0.370 F  
HETATM   14  C   UNL     1      -7.723  12.362  68.429  1.00  0.00    -0.144 A  
HETATM   15  C   UNL     1      -9.555  12.846  66.947  1.00  0.00    -0.240 A  
HETATM   16  C   UNL     1      -8.219  13.011  67.302  1.00  0.00    -0.174 A  
BRANCH  15  17
HETATM   17  N   UNL     1     -10.073  13.569  65.824  1.00  0.00    -0.303 N  
HETATM   18  H   UNL     1      -9.752  13.346  64.882  1.00  0.00     0.000 HD 
BRANCH  17  19
HETATM   19  S   UNL     1     -11.217  14.791  66.061  1.00  0.00    -0.329 S  
HETATM   20  O   UNL     1     -12.272  14.273  66.906  1.00  0.00    -0.438 OA 
HETATM   21  O   UNL     1     -11.534  15.316  64.749  1.00  0.00    -0.401 OA 
BRANCH  19  22
HETATM   22  C   UNL     1     -10.359  16.062  66.906  1.00  0.00    -0.289 A  
HETATM   23  C   UNL     1     -10.974  16.663  67.998  1.00  0.00    -0.311 A  
HETATM   24  F   UNL     1     -12.257  16.406  68.291  1.00  0.00    -0.018 F  
HETATM   25  C   UNL     1     -10.270  17.542  68.821  1.00  0.00    -0.373 A  
HETATM   26  C   UNL     1      -8.932  17.824  68.551  1.00  0.00    -0.288 A  
HETATM   27  C   UNL     1      -8.319  17.239  67.443  1.00  0.00    -0.211 A  
HETATM   28  C   UNL     1      -9.033  16.358  66.627  1.00  0.00    -0.258 A  
HETATM   29  F   UNL     1      -8.382  15.802  65.599  1.00  0.00    -0.035 F  
ENDBRANCH  19  22
ENDBRANCH  17  19
ENDBRANCH  15  17
ENDBRANCH   7  10
BRANCH   8  30
HETATM   30  C   UNL     1     -12.271  12.661  70.930  1.00  0.00    -0.185 A  
HETATM   31  C   UNL     1     -13.103  14.140  72.458  1.00  0.00    -0.463 A  
HETATM   32  N   UNL     1     -12.680  12.897  72.191  1.00  0.00    -0.066 NA 
HETATM   33  N   UNL     1     -13.533  14.426  73.733  1.00  0.00     0.333 NA 
HETATM   34  N   UNL     1     -13.089  15.163  71.598  1.00  0.00    -0.355 NA 
HETATM   35  C   UNL     1     -12.644  14.904  70.363  1.00  0.00    -0.343 A  
HETATM   36  H2  UNL     1     -13.530  13.708  74.459  1.00  0.00     0.000 HD 
HETATM   37  C   UNL     1     -12.226  13.660  69.970  1.00  0.00    -0.395 A  
HETATM   38  H1  UNL     1     -13.856  15.372  73.937  1.00  0.00     0.000 HD 
ENDBRANCH   8  30
ENDBRANCH   2   5
TORSDOF 6
ENDMDL
MODEL      180
REMARK 921   NORMALIZED FREE ENERGY PREDICTED BY IDOCK:   -4.96 KCAL/MOL
REMARK 922        TOTAL FREE ENERGY PREDICTED BY IDOCK:   -7.83 KCAL/MOL
REMARK 923 INTER-LIGAND FREE ENERGY PREDICTED BY IDOCK:   -7.26 KCAL/MOL
REMARK 924 INTRA-LIGAND FREE ENERGY PREDICTED BY IDOCK:   -0.57 KCAL/MOL
REMARK 927      BINDING AFFINITY PREDICTED BY RF-SCORE:    0.00 PKD
ROOT
HETATM    1  C   UNL     1     -12.137  14.846  72.695  1.00  0.00    -0.372 C  
HETATM    2  C   UNL     1     -13.017  14.409  71.510  1.00  0.00    -0.406 C  
HETATM    3  C   UNL     1     -13.285  15.658  70.636  1.00  0.00    -0.162 C  
HETATM    4  C   UNL     1     -14.366  13.912  72.080  1.00  0.00    -0.530 C  
ENDROOT
BRANCH   2   5
HETATM    5  C   UNL     1     -12.356  13.295  70.681  1.00  0.00    -0.339 A  
HETATM    6  N   UNL     1     -12.041  12.070  71.066  1.00  0.00    -0.137 NA 
HETATM    7  C   UNL     1     -11.472  11.322  70.007  1.00  0.00    -0.275 A  
HETATM    8  C   UNL     1     -11.312  12.047  68.827  1.00  0.00    -0.278 A  
HETATM    9  S   UNL     1     -11.997  13.615  69.039  1.00  0.00    -0.329 SA 
BRANCH   7  10
HETATM   10  C   UNL     1     -11.106   9.904  70.209  1.00  0.00    -0.368 A  
HETATM   11  C   UNL     1      -9.757   9.502  70.275  1.00  0.00    -0.263 A  
HETATM   12  C   UNL     1     -12.076   8.902  70.397  1.00  0.00     0.184 A  
HETATM   13  F   UNL     1      -8.764  10.383  70.069  1.00  0.00    -0.158 F  
HETATM   14  C   UNL     1     -11.724   7.588  70.729  1.00  0.00    -0.281 A  
HETATM   15  C   UNL     1      -9.397   8.181  70.601  1.00  0.00    -0.154 A  
HETATM   16  C   UNL     1     -10.384   7.228  70.839  1.00  0.00    -0.210 A  
BRANCH  15  17
HETATM   17  N   UNL     1      -8.022   7.820  70.778  1.00  0.00    -0.099 N  
HETATM   18  H   UNL     1      -7.586   7.904  71.696  1.00  0.00     0.000 HD 
BRANCH  17  19
HETATM   19  S   UNL     1      -7.122   7.254  69.464  1.00  0.00    -0.076 S  
HETATM   20  O   UNL     1      -5.928   6.609  69.970  1.00  0.00    -0.022 OA 
HETATM   21  O   UNL     1      -7.008   8.361  68.537  1.00  0.00    -0.066 OA 
BRANCH  19  22
HETATM   22  C   UNL     1      -8.146   6.065  68.687  1.00  0.00    -0.107 A  
HETATM   23  C   UNL     1      -8.055   4.742  69.102  1.00  0.00    -0.074 A  
HETATM   24  F   UNL     1      -7.091   4.350  69.947  1.00  0.00    -0.042 F  
HETATM   25  C   UNL     1      -8.972   3.788  68.658  1.00  0.00    -0.176 A  
HETATM   26  C   UNL     1      -9.994   4.163  67.787  1.00  0.00    -0.036 A  
HETATM   27  C   UNL     1     -10.074   5.485  67.352  1.00  0.00    -0.215 A  
HETATM   28  C   UNL     1      -9.151   6.432  67.805  1.00  0.00    -0.111 A  
HETATM   29  F   UNL     1      -9.298   7.692  67.380  1.00  0.00    -0.135 F  
ENDBRANCH  19  22
ENDBRANCH  17  19
ENDBRANCH  15  17
ENDBRANCH   7  10
BRANCH   8  30
HETATM   30  C   UNL     1     -10.749  11.784  67.490  1.00  0.00    -0.221 A  
HETATM   31  C   UNL     1     -10.381  12.515  65.358  1.00  0.00    -0.282 A  
HETATM   32  N   UNL     1     -10.866  12.770  66.581  1.00  0.00    -0.260 NA 
HETATM   33  N   UNL     1     -10.481  13.493  64.397  1.00  0.00    -0.558 NA 
HETATM   34  N   UNL     1      -9.743  11.397  64.997  1.00  0.00    -0.246 NA 
HETATM   35  C   UNL     1      -9.614  10.450  65.934  1.00  0.00    -0.206 A  
HETATM   36  H2  UNL     1     -10.913  14.393  64.609  1.00  0.00     0.000 HD 
HETATM   37  C   UNL     1     -10.108  10.589  67.204  1.00  0.00    -0.253 A  
HETATM   38  H1  UNL     1     -10.112  13.299  63.465  1.00  0.00     0.000 HD 
ENDBRANCH   8  30
ENDBRANCH   2   5
TORSDOF 6
ENDMDL
MODEL      181
REMARK 921   NORMALIZED FREE ENERGY PREDICTED BY IDOCK:   -4.95 KCAL/MOL
REMARK 922        TOTAL FREE ENERGY PREDICTED BY IDOCK:   -7.81 KCAL/MOL
REMARK 923 INTER-LIGAND FREE ENERGY PREDICTED BY IDOCK:   -7.22 KCAL/MOL
REMARK 924 INTRA-LIGAND FREE ENERGY PREDICTED BY IDOCK:   -0.59 KCAL/MOL
REMARK 927      BINDING AFFINITY PREDICTED BY RF-SCORE:    0.00 PKD
ROOT
HETATM    1  C   UNL     1      -6.252   9.076  65.282  1.00  0.00    -0.063 C  
HETATM    2  C   UNL     1      -7.710   9.560  65.182  1.00  0.00    -0.112 C  
HETATM    3  C   UNL     1      -8.630   8.351  65.476  1.00  0.00    -0.201 C  
HETATM    4  C   UNL     1      -7.957  10.022  63.728  1.00  0.00    -0.153 C  
ENDROOT
BRANCH   2   5
HETATM    5  C   UNL     1      -8.001  10.716  66.156  1.00  0.00    -0.151 A  
HETATM    6  N   UNL     1      -7.142  11.387  66.904  1.00  0.00    -0.137 NA 
HETATM    7  C   UNL     1      -7.786  12.404  67.649  1.00  0.00    -0.163 A  
HETATM    8  C   UNL     1      -9.171  12.435  67.483  1.00  0.00    -0.183 A  
HETATM    9  S   UNL     1      -9.615  11.266  66.295  1.00  0.00    -0.218 SA 
BRANCH   7  10
HETATM   10  C   UNL     1      -6.997  13.314  68.506  1.00  0.00    -0.103 A  
HETATM   11  C   UNL     1      -7.193  14.709  68.464  1.00  0.00    -0.118 A  
HETATM   12  C   UNL     1      -6.056  12.834  69.435  1.00  0.00    -0.107 A  
HETATM   13  F   UNL     1      -8.044  15.259  67.581  1.00  0.00    -0.129 F  
HETATM   14  C   UNL     1      -5.414  13.688  70.342  1.00  0.00    -0.131 A  
HETATM   15  C   UNL     1      -6.546  15.572  69.367  1.00  0.00    -0.158 A  
HETATM   16  C   UNL     1      -5.665  15.056  70.314  1.00  0.00    -0.144 A  
BRANCH  15  17
HETATM   17  N   UNL     1      -6.848  16.972  69.386  1.00  0.00    -0.219 N  
HETATM   18  H   UNL     1      -7.337  17.379  70.184  1.00  0.00     0.000 HD 
BRANCH  17  19
HETATM   19  S   UNL     1      -6.394  17.951  68.085  1.00  0.00    -0.187 S  
HETATM   20  O   UNL     1      -5.700  17.130  67.115  1.00  0.00    -0.127 OA 
HETATM   21  O   UNL     1      -5.736  19.110  68.653  1.00  0.00    -0.204 OA 
BRANCH  19  22
HETATM   22  C   UNL     1      -7.898  18.525  67.398  1.00  0.00    -0.235 A  
HETATM   23  C   UNL     1      -9.070  18.337  68.121  1.00  0.00    -0.298 A  
HETATM   24  F   UNL     1      -9.081  17.583  69.229  1.00  0.00    -0.151 F  
HETATM   25  C   UNL     1     -10.264  18.936  67.716  1.00  0.00    -0.458 A  
HETATM   26  C   UNL     1     -10.287  19.735  66.575  1.00  0.00    -0.621 A  
HETATM   27  C   UNL     1      -9.117  19.908  65.835  1.00  0.00    -0.201 A  
HETATM   28  C   UNL     1      -7.927  19.305  66.251  1.00  0.00    -0.308 A  
HETATM   29  F   UNL     1      -6.830  19.534  65.520  1.00  0.00    -0.251 F  
ENDBRANCH  19  22
ENDBRANCH  17  19
ENDBRANCH  15  17
ENDBRANCH   7  10
BRANCH   8  30
HETATM   30  C   UNL     1     -10.287  13.224  68.035  1.00  0.00    -0.241 A  
HETATM   31  C   UNL     1     -11.743  13.591  69.755  1.00  0.00    -0.295 A  
HETATM   32  N   UNL     1     -10.709  12.892  69.269  1.00  0.00    -0.010 NA 
HETATM   33  N   UNL     1     -12.209  13.284  71.012  1.00  0.00    -0.439 NA 
HETATM   34  N   UNL     1     -12.337  14.620  69.142  1.00  0.00    -0.166 NA 
HETATM   35  C   UNL     1     -11.871  14.947  67.931  1.00  0.00    -0.259 A  
HETATM   36  H2  UNL     1     -11.777  12.541  71.562  1.00  0.00     0.000 HD 
HETATM   37  C   UNL     1     -10.846  14.273  67.322  1.00  0.00    -0.285 A  
HETATM   38  H1  UNL     1     -12.997  13.816  71.382  1.00  0.00     0.000 HD 
ENDBRANCH   8  30
ENDBRANCH   2   5
TORSDOF 6
ENDMDL
MODEL      182
REMARK 921   NORMALIZED FREE ENERGY PREDICTED BY IDOCK:   -4.94 KCAL/MOL
REMARK 922        TOTAL FREE ENERGY PREDICTED BY IDOCK:   -7.81 KCAL/MOL
REMARK 923 INTER-LIGAND FREE ENERGY PREDICTED BY IDOCK:   -7.19 KCAL/MOL
REMARK 924 INTRA-LIGAND FREE ENERGY PREDICTED BY IDOCK:   -0.61 KCAL/MOL
REMARK 927      BINDING AFFINITY PREDICTED BY RF-SCORE:    0.00 PKD
ROOT
HETATM    1  C   UNL     1      -9.573  13.863  66.178  1.00  0.00    -0.249 C  
HETATM    2  C   UNL     1     -10.946  13.413  66.709  1.00  0.00    -0.298 C  
HETATM    3  C   UNL     1     -11.813  13.011  65.493  1.00  0.00    -0.438 C  
HETATM    4  C   UNL     1     -11.606  14.627  67.403  1.00  0.00    -0.408 C  
ENDROOT
BRANCH   2   5
HETATM    5  C   UNL     1     -10.824  12.244  67.703  1.00  0.00    -0.225 A  
HETATM    6  N   UNL     1      -9.866  11.337  67.781  1.00  0.00    -0.171 NA 
HETATM    7  C   UNL     1     -10.089  10.436  68.851  1.00  0.00    -0.201 A  
HETATM    8  C   UNL     1     -11.283  10.659  69.536  1.00  0.00    -0.272 A  
HETATM    9  S   UNL     1     -12.034  12.075  68.901  1.00  0.00    -0.167 SA 
BRANCH   7  10
HETATM   10  C   UNL     1      -9.100   9.380  69.154  1.00  0.00    -0.148 A  
HETATM   11  C   UNL     1      -9.172   8.116  68.535  1.00  0.00    -0.136 A  
HETATM   12  C   UNL     1      -8.018   9.598  70.026  1.00  0.00    -0.182 A  
HETATM   13  F   UNL     1     -10.193   7.805  67.717  1.00  0.00    -0.199 F  
HETATM   14  C   UNL     1      -7.007   8.644  70.199  1.00  0.00    -0.043 A  
HETATM   15  C   UNL     1      -8.164   7.150  68.710  1.00  0.00    -0.122 A  
HETATM   16  C   UNL     1      -7.075   7.423  69.535  1.00  0.00    -0.069 A  
BRANCH  15  17
HETATM   17  N   UNL     1      -8.195   5.918  67.981  1.00  0.00    -0.105 N  
HETATM   18  H   UNL     1      -8.725   5.124  68.341  1.00  0.00     0.000 HD 
BRANCH  17  19
HETATM   19  S   UNL     1      -7.352   5.779  66.522  1.00  0.00    -0.079 S  
HETATM   20  O   UNL     1      -6.163   4.987  66.753  1.00  0.00    -0.030 OA 
HETATM   21  O   UNL     1      -7.235   7.119  65.987  1.00  0.00    -0.071 OA 
BRANCH  19  22
HETATM   22  C   UNL     1      -8.434   4.913  65.451  1.00  0.00    -0.133 A  
HETATM   23  C   UNL     1      -9.714   4.616  65.902  1.00  0.00    -0.200 A  
HETATM   24  F   UNL     1     -10.059   4.827  67.180  1.00  0.00    -0.188 F  
HETATM   25  C   UNL     1     -10.677   4.100  65.033  1.00  0.00    -0.120 A  
HETATM   26  C   UNL     1     -10.356   3.879  63.695  1.00  0.00    -0.200 A  
HETATM   27  C   UNL     1      -9.065   4.155  63.245  1.00  0.00    -0.128 A  
HETATM   28  C   UNL     1      -8.109   4.674  64.124  1.00  0.00    -0.104 A  
HETATM   29  F   UNL     1      -6.898   4.951  63.627  1.00  0.00    -0.038 F  
ENDBRANCH  19  22
ENDBRANCH  17  19
ENDBRANCH  15  17
ENDBRANCH   7  10
BRANCH   8  30
HETATM   30  C   UNL     1     -12.000  10.015  70.652  1.00  0.00    -0.313 A  
HETATM   31  C   UNL     1     -12.225   8.211  72.033  1.00  0.00    -0.339 A  
HETATM   32  N   UNL     1     -11.551   8.807  71.040  1.00  0.00    -0.282 NA 
HETATM   33  N   UNL     1     -11.803   6.974  72.462  1.00  0.00    -0.481 NA 
HETATM   34  N   UNL     1     -13.253   8.746  72.700  1.00  0.00    -0.353 NA 
HETATM   35  C   UNL     1     -13.653   9.962  72.312  1.00  0.00    -0.242 A  
HETATM   36  H2  UNL     1     -10.996   6.520  72.033  1.00  0.00     0.000 HD 
HETATM   37  C   UNL     1     -13.063  10.644  71.281  1.00  0.00    -0.456 A  
HETATM   38  H1  UNL     1     -12.316   6.520  73.218  1.00  0.00     0.000 HD 
ENDBRANCH   8  30
ENDBRANCH   2   5
TORSDOF 6
ENDMDL
MODEL      183
REMARK 921   NORMALIZED FREE ENERGY PREDICTED BY IDOCK:   -4.91 KCAL/MOL
REMARK 922        TOTAL FREE ENERGY PREDICTED BY IDOCK:   -7.75 KCAL/MOL
REMARK 923 INTER-LIGAND FREE ENERGY PREDICTED BY IDOCK:   -6.76 KCAL/MOL
REMARK 924 INTRA-LIGAND FREE ENERGY PREDICTED BY IDOCK:   -0.99 KCAL/MOL
REMARK 927      BINDING AFFINITY PREDICTED BY RF-SCORE:    0.00 PKD
ROOT
HETATM    1  C   UNL     1     -11.734  12.985  63.781  1.00  0.00    -0.547 C  
HETATM    2  C   UNL     1     -11.525  13.943  64.967  1.00  0.00    -0.343 C  
HETATM    3  C   UNL     1     -12.820  13.937  65.813  1.00  0.00    -0.437 C  
HETATM    4  C   UNL     1     -11.319  15.365  64.395  1.00  0.00    -0.246 C  
ENDROOT
BRANCH   2   5
HETATM    5  C   UNL     1     -10.311  13.542  65.824  1.00  0.00    -0.292 A  
HETATM    6  N   UNL     1      -9.870  12.326  66.094  1.00  0.00    -0.240 NA 
HETATM    7  C   UNL     1      -8.704  12.362  66.896  1.00  0.00    -0.191 A  
HETATM    8  C   UNL     1      -8.318  13.648  67.272  1.00  0.00    -0.171 A  
HETATM    9  S   UNL     1      -9.357  14.789  66.504  1.00  0.00    -0.288 SA 
BRANCH   7  10
HETATM   10  C   UNL     1      -8.012  11.108  67.261  1.00  0.00    -0.137 A  
HETATM   11  C   UNL     1      -8.099  10.580  68.565  1.00  0.00    -0.121 A  
HETATM   12  C   UNL     1      -7.282  10.357  66.321  1.00  0.00    -0.127 A  
HETATM   13  F   UNL     1      -8.742  11.248  69.538  1.00  0.00     0.049 F  
HETATM   14  C   UNL     1      -6.748   9.100  66.635  1.00  0.00    -0.076 A  
HETATM   15  C   UNL     1      -7.558   9.322  68.889  1.00  0.00    -0.075 A  
HETATM   16  C   UNL     1      -6.893   8.579  67.917  1.00  0.00    -0.067 A  
BRANCH  15  17
HETATM   17  N   UNL     1      -7.759   8.751  70.187  1.00  0.00    -0.078 N  
HETATM   18  H   UNL     1      -6.990   8.721  70.856  1.00  0.00     0.000 HD 
BRANCH  17  19
HETATM   19  S   UNL     1      -9.272   8.128  70.610  1.00  0.00    -0.157 S  
HETATM   20  O   UNL     1     -10.179   9.235  70.831  1.00  0.00    -0.254 OA 
HETATM   21  O   UNL     1      -9.038   7.164  71.666  1.00  0.00    -0.137 OA 
BRANCH  19  22
HETATM   22  C   UNL     1      -9.795   7.211  69.213  1.00  0.00    -0.161 A  
HETATM   23  C   UNL     1     -10.480   7.877  68.203  1.00  0.00    -0.173 A  
HETATM   24  F   UNL     1     -10.886   9.143  68.368  1.00  0.00    -0.244 F  
HETATM   25  C   UNL     1     -10.754   7.246  66.989  1.00  0.00    -0.406 A  
HETATM   26  C   UNL     1     -10.337   5.933  66.780  1.00  0.00    -0.302 A  
HETATM   27  C   UNL     1      -9.669   5.255  67.800  1.00  0.00    -0.170 A  
HETATM   28  C   UNL     1      -9.398   5.897  69.011  1.00  0.00    -0.123 A  
HETATM   29  F   UNL     1      -8.724   5.208  69.940  1.00  0.00    -0.097 F  
ENDBRANCH  19  22
ENDBRANCH  17  19
ENDBRANCH  15  17
ENDBRANCH   7  10
BRANCH   8  30
HETATM   30  C   UNL     1      -7.253  14.232  68.108  1.00  0.00    -0.127 A  
HETATM   31  C   UNL     1      -6.220  14.344  70.142  1.00  0.00    -0.166 A  
HETATM   32  N   UNL     1      -7.169  13.788  69.376  1.00  0.00     0.037 NA 
HETATM   33  N   UNL     1      -6.099  13.922  71.445  1.00  0.00    -0.531 NA 
HETATM   34  N   UNL     1      -5.324  15.245  69.729  1.00  0.00    -0.097 NA 
HETATM   35  C   UNL     1      -5.412  15.640  68.453  1.00  0.00    -0.103 A  
HETATM   36  H2  UNL     1      -6.717  13.202  71.821  1.00  0.00     0.000 HD 
HETATM   37  C   UNL     1      -6.370  15.169  67.595  1.00  0.00    -0.164 A  
HETATM   38  H1  UNL     1      -5.377  14.345  72.028  1.00  0.00     0.000 HD 
ENDBRANCH   8  30
ENDBRANCH   2   5
TORSDOF 6
ENDMDL
MODEL      184
REMARK 921   NORMALIZED FREE ENERGY PREDICTED BY IDOCK:   -4.87 KCAL/MOL
REMARK 922        TOTAL FREE ENERGY PREDICTED BY IDOCK:   -7.70 KCAL/MOL
REMARK 923 INTER-LIGAND FREE ENERGY PREDICTED BY IDOCK:   -6.72 KCAL/MOL
REMARK 924 INTRA-LIGAND FREE ENERGY PREDICTED BY IDOCK:   -0.98 KCAL/MOL
REMARK 927      BINDING AFFINITY PREDICTED BY RF-SCORE:    0.00 PKD
ROOT
HETATM    1  C   UNL     1     -10.170  14.805  67.019  1.00  0.00    -0.253 C  
HETATM    2  C   UNL     1     -11.346  13.872  67.360  1.00  0.00    -0.349 C  
HETATM    3  C   UNL     1     -12.053  13.501  66.034  1.00  0.00    -0.489 C  
HETATM    4  C   UNL     1     -12.339  14.666  68.239  1.00  0.00     0.041 C  
ENDROOT
BRANCH   2   5
HETATM    5  C   UNL     1     -10.883  12.608  68.103  1.00  0.00    -0.227 A  
HETATM    6  N   UNL     1      -9.735  11.964  67.979  1.00  0.00    -0.186 NA 
HETATM    7  C   UNL     1      -9.663  10.856  68.858  1.00  0.00    -0.187 A  
HETATM    8  C   UNL     1     -10.823  10.651  69.604  1.00  0.00    -0.268 A  
HETATM    9  S   UNL     1     -11.930  11.932  69.275  1.00  0.00    -0.243 SA 
BRANCH   7  10
HETATM   10  C   UNL     1      -8.435  10.036  68.924  1.00  0.00    -0.132 A  
HETATM   11  C   UNL     1      -7.941   9.371  67.784  1.00  0.00    -0.096 A  
HETATM   12  C   UNL     1      -7.676   9.922  70.103  1.00  0.00    -0.188 A  
HETATM   13  F   UNL     1      -8.620   9.392  66.624  1.00  0.00    -0.124 F  
HETATM   14  C   UNL     1      -6.440   9.262  70.123  1.00  0.00    -0.049 A  
HETATM   15  C   UNL     1      -6.704   8.700  67.800  1.00  0.00    -0.066 A  
HETATM   16  C   UNL     1      -5.950   8.657  68.970  1.00  0.00    -0.043 A  
BRANCH  15  17
HETATM   17  N   UNL     1      -6.164   8.131  66.601  1.00  0.00    -0.053 N  
HETATM   18  H   UNL     1      -5.754   8.735  65.888  1.00  0.00     0.000 HD 
BRANCH  17  19
HETATM   19  S   UNL     1      -6.205   6.457  66.368  1.00  0.00    -0.039 S  
HETATM   20  O   UNL     1      -5.169   5.856  67.181  1.00  0.00    -0.005 OA 
HETATM   21  O   UNL     1      -6.215   6.242  64.936  1.00  0.00    -0.029 OA 
BRANCH  19  22
HETATM   22  C   UNL     1      -7.777   5.954  66.954  1.00  0.00    -0.100 A  
HETATM   23  C   UNL     1      -8.879   6.130  66.126  1.00  0.00    -0.152 A  
HETATM   24  F   UNL     1      -8.777   6.826  64.984  1.00  0.00    -0.095 F  
HETATM   25  C   UNL     1     -10.118   5.580  66.457  1.00  0.00    -0.241 A  
HETATM   26  C   UNL     1     -10.257   4.843  67.632  1.00  0.00    -0.135 A  
HETATM   27  C   UNL     1      -9.158   4.683  68.475  1.00  0.00    -0.157 A  
HETATM   28  C   UNL     1      -7.921   5.236  68.132  1.00  0.00    -0.091 A  
HETATM   29  F   UNL     1      -6.895   5.021  68.963  1.00  0.00    -0.045 F  
ENDBRANCH  19  22
ENDBRANCH  17  19
ENDBRANCH  15  17
ENDBRANCH   7  10
BRANCH   8  30
HETATM   30  C   UNL     1     -11.287   9.658  70.590  1.00  0.00    -0.312 A  
HETATM   31  C   UNL     1     -12.905   8.981  72.052  1.00  0.00    -0.401 A  
HETATM   32  N   UNL     1     -12.500   9.869  71.134  1.00  0.00    -0.342 NA 
HETATM   33  N   UNL     1     -14.138   9.158  72.636  1.00  0.00    -0.886 NA 
HETATM   34  N   UNL     1     -12.233   7.884  72.416  1.00  0.00    -0.284 NA 
HETATM   35  C   UNL     1     -11.045   7.686  71.832  1.00  0.00    -0.249 A  
HETATM   36  H2  UNL     1     -14.730   9.947  72.376  1.00  0.00     0.000 HD 
HETATM   37  C   UNL     1     -10.517   8.551  70.911  1.00  0.00    -0.248 A  
HETATM   38  H1  UNL     1     -14.446   8.482  73.336  1.00  0.00     0.000 HD 
ENDBRANCH   8  30
ENDBRANCH   2   5
TORSDOF 6
ENDMDL
MODEL      185
REMARK 921   NORMALIZED FREE ENERGY PREDICTED BY IDOCK:   -4.84 KCAL/MOL
REMARK 922        TOTAL FREE ENERGY PREDICTED BY IDOCK:   -7.67 KCAL/MOL
REMARK 923 INTER-LIGAND FREE ENERGY PREDICTED BY IDOCK:   -6.07 KCAL/MOL
REMARK 924 INTRA-LIGAND FREE ENERGY PREDICTED BY IDOCK:   -1.60 KCAL/MOL
REMARK 927      BINDING AFFINITY PREDICTED BY RF-SCORE:    0.00 PKD
ROOT
HETATM    1  C   UNL     1      -6.861   6.936  66.297  1.00  0.00    -0.064 C  
HETATM    2  C   UNL     1      -8.039   7.427  67.157  1.00  0.00    -0.114 C  
HETATM    3  C   UNL     1      -7.916   6.764  68.549  1.00  0.00    -0.119 C  
HETATM    4  C   UNL     1      -9.346   6.936  66.494  1.00  0.00    -0.197 C  
ENDROOT
BRANCH   2   5
HETATM    5  C   UNL     1      -8.060   8.961  67.283  1.00  0.00    -0.104 A  
HETATM    6  N   UNL     1      -8.962   9.805  66.814  1.00  0.00    -0.137 NA 
HETATM    7  C   UNL     1      -8.651  11.143  67.160  1.00  0.00    -0.139 A  
HETATM    8  C   UNL     1      -7.449  11.282  67.853  1.00  0.00    -0.094 A  
HETATM    9  S   UNL     1      -6.802   9.714  68.165  1.00  0.00    -0.070 SA 
BRANCH   7  10
HETATM   10  C   UNL     1      -9.567  12.241  66.785  1.00  0.00    -0.220 A  
HETATM   11  C   UNL     1     -10.533  12.725  67.689  1.00  0.00    -0.220 A  
HETATM   12  C   UNL     1      -9.485  12.888  65.538  1.00  0.00     0.124 A  
HETATM   13  F   UNL     1     -10.709  12.143  68.888  1.00  0.00    -0.220 F  
HETATM   14  C   UNL     1     -10.258  14.018  65.242  1.00  0.00    -0.383 A  
HETATM   15  C   UNL     1     -11.318  13.855  67.395  1.00  0.00    -0.326 A  
HETATM   16  C   UNL     1     -11.169  14.507  66.173  1.00  0.00    -0.339 A  
BRANCH  15  17
HETATM   17  N   UNL     1     -12.211  14.402  68.373  1.00  0.00    -0.605 N  
HETATM   18  H   UNL     1     -13.217  14.261  68.281  1.00  0.00     0.000 HD 
BRANCH  17  19
HETATM   19  S   UNL     1     -11.596  15.280  69.679  1.00  0.00    -0.347 S  
HETATM   20  O   UNL     1     -11.056  14.347  70.645  1.00  0.00    -0.026 OA 
HETATM   21  O   UNL     1     -12.634  16.209  70.075  1.00  0.00    -0.135 OA 
BRANCH  19  22
HETATM   22  C   UNL     1     -10.299  16.247  69.009  1.00  0.00    -0.264 A  
HETATM   23  C   UNL     1     -10.629  17.389  68.290  1.00  0.00    -0.366 A  
HETATM   24  F   UNL     1     -11.902  17.653  67.964  1.00  0.00     0.425 F  
HETATM   25  C   UNL     1      -9.643  18.296  67.896  1.00  0.00    -0.297 A  
HETATM   26  C   UNL     1      -8.311  18.059  68.227  1.00  0.00    -0.295 A  
HETATM   27  C   UNL     1      -7.975  16.902  68.930  1.00  0.00    -0.224 A  
HETATM   28  C   UNL     1      -8.970  16.002  69.321  1.00  0.00    -0.228 A  
HETATM   29  F   UNL     1      -8.591  14.928  70.023  1.00  0.00    -0.039 F  
ENDBRANCH  19  22
ENDBRANCH  17  19
ENDBRANCH  15  17
ENDBRANCH   7  10
BRANCH   8  30
HETATM   30  C   UNL     1      -6.658  12.405  68.388  1.00  0.00    -0.065 A  
HETATM   31  C   UNL     1      -5.653  14.422  68.021  1.00  0.00    -0.124 A  
HETATM   32  N   UNL     1      -6.398  13.418  67.540  1.00  0.00    -0.267 NA 
HETATM   33  N   UNL     1      -5.360  15.478  67.188  1.00  0.00    -0.273 NA 
HETATM   34  N   UNL     1      -5.211  14.523  69.278  1.00  0.00    -0.083 NA 
HETATM   35  C   UNL     1      -5.516  13.517  70.105  1.00  0.00    -0.116 A  
HETATM   36  H2  UNL     1      -5.702  15.495  66.227  1.00  0.00     0.000 HD 
HETATM   37  C   UNL     1      -6.236  12.421  69.708  1.00  0.00    -0.119 A  
HETATM   38  H1  UNL     1      -4.792  16.242  67.555  1.00  0.00     0.000 HD 
ENDBRANCH   8  30
ENDBRANCH   2   5
TORSDOF 6
ENDMDL
MODEL      186
REMARK 921   NORMALIZED FREE ENERGY PREDICTED BY IDOCK:   -4.84 KCAL/MOL
REMARK 922        TOTAL FREE ENERGY PREDICTED BY IDOCK:   -7.66 KCAL/MOL
REMARK 923 INTER-LIGAND FREE ENERGY PREDICTED BY IDOCK:   -7.42 KCAL/MOL
REMARK 924 INTRA-LIGAND FREE ENERGY PREDICTED BY IDOCK:   -0.24 KCAL/MOL
REMARK 927      BINDING AFFINITY PREDICTED BY RF-SCORE:    0.00 PKD
ROOT
HETATM    1  C   UNL     1      -5.133  17.323  66.540  1.00  0.00    -0.195 C  
HETATM    2  C   UNL     1      -6.608  17.614  66.868  1.00  0.00    -0.213 C  
HETATM    3  C   UNL     1      -7.125  18.646  65.839  1.00  0.00    -0.290 C  
HETATM    4  C   UNL     1      -6.663  18.253  68.274  1.00  0.00    -0.218 C  
ENDROOT
BRANCH   2   5
HETATM    5  C   UNL     1      -7.467  16.337  66.839  1.00  0.00    -0.236 A  
HETATM    6  N   UNL     1      -7.145  15.128  67.265  1.00  0.00    -0.199 NA 
HETATM    7  C   UNL     1      -8.215  14.215  67.097  1.00  0.00    -0.144 A  
HETATM    8  C   UNL     1      -9.332  14.766  66.471  1.00  0.00    -0.290 A  
HETATM    9  S   UNL     1      -9.059  16.451  66.223  1.00  0.00    -0.337 SA 
BRANCH   7  10
HETATM   10  C   UNL     1      -8.085  12.821  67.568  1.00  0.00    -0.180 A  
HETATM   11  C   UNL     1      -8.542  11.742  66.785  1.00  0.00    -0.185 A  
HETATM   12  C   UNL     1      -7.457  12.499  68.785  1.00  0.00    -0.049 A  
HETATM   13  F   UNL     1      -9.189  11.955  65.627  1.00  0.00    -0.223 F  
HETATM   14  C   UNL     1      -7.210  11.172  69.160  1.00  0.00    -0.123 A  
HETATM   15  C   UNL     1      -8.304  10.406  67.159  1.00  0.00    -0.126 A  
HETATM   16  C   UNL     1      -7.626  10.125  68.343  1.00  0.00    -0.087 A  
BRANCH  15  17
HETATM   17  N   UNL     1      -8.672   9.326  66.294  1.00  0.00    -0.137 N  
HETATM   18  H   UNL     1      -9.461   8.726  66.533  1.00  0.00     0.000 HD 
BRANCH  17  19
HETATM   19  S   UNL     1      -7.797   9.046  64.874  1.00  0.00    -0.126 S  
HETATM   20  O   UNL     1      -6.397   9.296  65.143  1.00  0.00    -0.067 OA 
HETATM   21  O   UNL     1      -8.474   9.778  63.824  1.00  0.00    -0.154 OA 
BRANCH  19  22
HETATM   22  C   UNL     1      -8.032   7.347  64.521  1.00  0.00    -0.122 A  
HETATM   23  C   UNL     1      -7.603   6.862  63.291  1.00  0.00    -0.090 A  
HETATM   24  F   UNL     1      -7.182   7.697  62.331  1.00  0.00    -0.075 F  
HETATM   25  C   UNL     1      -7.590   5.491  63.029  1.00  0.00    -0.071 A  
HETATM   26  C   UNL     1      -8.011   4.594  64.008  1.00  0.00    -0.095 A  
HETATM   27  C   UNL     1      -8.464   5.080  65.235  1.00  0.00    -0.141 A  
HETATM   28  C   UNL     1      -8.470   6.454  65.488  1.00  0.00    -0.139 A  
HETATM   29  F   UNL     1      -8.882   6.859  66.694  1.00  0.00    -0.116 F  
ENDBRANCH  19  22
ENDBRANCH  17  19
ENDBRANCH  15  17
ENDBRANCH   7  10
BRANCH   8  30
HETATM   30  C   UNL     1     -10.647  14.271  66.024  1.00  0.00    -0.300 A  
HETATM   31  C   UNL     1     -12.075  13.836  64.296  1.00  0.00    -0.440 A  
HETATM   32  N   UNL     1     -10.868  14.257  64.696  1.00  0.00    -0.395 NA 
HETATM   33  N   UNL     1     -12.346  13.806  62.948  1.00  0.00    -0.877 NA 
HETATM   34  N   UNL     1     -13.039  13.375  65.100  1.00  0.00    -0.684 NA 
HETATM   35  C   UNL     1     -12.775  13.370  66.412  1.00  0.00     0.094 A  
HETATM   36  H2  UNL     1     -11.643  14.099  62.268  1.00  0.00     0.000 HD 
HETATM   37  C   UNL     1     -11.590  13.817  66.933  1.00  0.00    -0.394 A  
HETATM   38  H1  UNL     1     -13.265  13.486  62.643  1.00  0.00     0.000 HD 
ENDBRANCH   8  30
ENDBRANCH   2   5
TORSDOF 6
ENDMDL
MODEL      187
REMARK 921   NORMALIZED FREE ENERGY PREDICTED BY IDOCK:   -4.83 KCAL/MOL
REMARK 922        TOTAL FREE ENERGY PREDICTED BY IDOCK:   -7.66 KCAL/MOL
REMARK 923 INTER-LIGAND FREE ENERGY PREDICTED BY IDOCK:   -7.55 KCAL/MOL
REMARK 924 INTRA-LIGAND FREE ENERGY PREDICTED BY IDOCK:   -0.10 KCAL/MOL
REMARK 927      BINDING AFFINITY PREDICTED BY RF-SCORE:    0.00 PKD
ROOT
HETATM    1  C   UNL     1      -5.181  17.010  67.442  1.00  0.00    -0.152 C  
HETATM    2  C   UNL     1      -6.646  17.370  67.140  1.00  0.00    -0.193 C  
HETATM    3  C   UNL     1      -6.673  18.164  65.813  1.00  0.00    -0.308 C  
HETATM    4  C   UNL     1      -7.150  18.293  68.274  1.00  0.00    -0.254 C  
ENDROOT
BRANCH   2   5
HETATM    5  C   UNL     1      -7.539  16.121  67.047  1.00  0.00    -0.225 A  
HETATM    6  N   UNL     1      -7.268  14.893  67.456  1.00  0.00    -0.193 NA 
HETATM    7  C   UNL     1      -8.356  14.016  67.224  1.00  0.00    -0.194 A  
HETATM    8  C   UNL     1      -9.432  14.614  66.568  1.00  0.00    -0.297 A  
HETATM    9  S   UNL     1      -9.102  16.295  66.373  1.00  0.00    -0.328 SA 
BRANCH   7  10
HETATM   10  C   UNL     1      -8.284  12.607  67.665  1.00  0.00    -0.174 A  
HETATM   11  C   UNL     1      -8.631  11.553  66.797  1.00  0.00    -0.170 A  
HETATM   12  C   UNL     1      -7.820  12.248  68.944  1.00  0.00     0.091 A  
HETATM   13  F   UNL     1      -9.121  11.802  65.570  1.00  0.00    -0.202 F  
HETATM   14  C   UNL     1      -7.620  10.910  69.307  1.00  0.00    -0.113 A  
HETATM   15  C   UNL     1      -8.439  10.207  67.158  1.00  0.00    -0.125 A  
HETATM   16  C   UNL     1      -7.922   9.889  68.412  1.00  0.00    -0.096 A  
BRANCH  15  17
HETATM   17  N   UNL     1      -8.687   9.154  66.219  1.00  0.00    -0.135 N  
HETATM   18  H   UNL     1      -9.330   9.304  65.441  1.00  0.00     0.000 HD 
BRANCH  17  19
HETATM   19  S   UNL     1      -7.914   7.662  66.400  1.00  0.00    -0.111 S  
HETATM   20  O   UNL     1      -6.540   7.902  66.790  1.00  0.00    -0.056 OA 
HETATM   21  O   UNL     1      -8.203   6.901  65.202  1.00  0.00    -0.134 OA 
BRANCH  19  22
HETATM   22  C   UNL     1      -8.762   6.863  67.708  1.00  0.00    -0.120 A  
HETATM   23  C   UNL     1     -10.141   6.718  67.610  1.00  0.00    -0.161 A  
HETATM   24  F   UNL     1     -10.829   7.323  66.632  1.00  0.00    -0.388 F  
HETATM   25  C   UNL     1     -10.843   5.929  68.523  1.00  0.00    -0.323 A  
HETATM   26  C   UNL     1     -10.158   5.276  69.546  1.00  0.00    -0.322 A  
HETATM   27  C   UNL     1      -8.777   5.439  69.659  1.00  0.00    -0.109 A  
HETATM   28  C   UNL     1      -8.084   6.229  68.738  1.00  0.00    -0.109 A  
HETATM   29  F   UNL     1      -6.757   6.320  68.877  1.00  0.00    -0.050 F  
ENDBRANCH  19  22
ENDBRANCH  17  19
ENDBRANCH  15  17
ENDBRANCH   7  10
BRANCH   8  30
HETATM   30  C   UNL     1     -10.742  14.168  66.059  1.00  0.00    -0.299 A  
HETATM   31  C   UNL     1     -12.127  13.853  64.271  1.00  0.00    -0.440 A  
HETATM   32  N   UNL     1     -10.925  14.230  64.727  1.00  0.00    -0.395 NA 
HETATM   33  N   UNL     1     -12.360  13.903  62.916  1.00  0.00    -0.843 NA 
HETATM   34  N   UNL     1     -13.121  13.367  65.022  1.00  0.00    -0.705 NA 
HETATM   35  C   UNL     1     -12.895  13.286  66.338  1.00  0.00     0.503 A  
HETATM   36  H2  UNL     1     -11.633  14.219  62.273  1.00  0.00     0.000 HD 
HETATM   37  C   UNL     1     -11.718  13.682  66.916  1.00  0.00    -0.423 A  
HETATM   38  H1  UNL     1     -13.275  13.616  62.569  1.00  0.00     0.000 HD 
ENDBRANCH   8  30
ENDBRANCH   2   5
TORSDOF 6
ENDMDL
MODEL      188
REMARK 921   NORMALIZED FREE ENERGY PREDICTED BY IDOCK:   -4.74 KCAL/MOL
REMARK 922        TOTAL FREE ENERGY PREDICTED BY IDOCK:   -7.53 KCAL/MOL
REMARK 923 INTER-LIGAND FREE ENERGY PREDICTED BY IDOCK:   -7.27 KCAL/MOL
REMARK 924 INTRA-LIGAND FREE ENERGY PREDICTED BY IDOCK:   -0.26 KCAL/MOL
REMARK 927      BINDING AFFINITY PREDICTED BY RF-SCORE:    0.00 PKD
ROOT
HETATM    1  C   UNL     1     -11.084  12.436  63.212  1.00  0.00    -0.347 C  
HETATM    2  C   UNL     1     -11.726  13.315  64.300  1.00  0.00    -0.454 C  
HETATM    3  C   UNL     1     -12.815  12.472  65.005  1.00  0.00    -0.127 C  
HETATM    4  C   UNL     1     -12.408  14.512  63.600  1.00  0.00     0.285 C  
ENDROOT
BRANCH   2   5
HETATM    5  C   UNL     1     -10.688  13.824  65.316  1.00  0.00    -0.339 A  
HETATM    6  N   UNL     1      -9.855  13.112  66.057  1.00  0.00    -0.279 NA 
HETATM    7  C   UNL     1      -9.028  13.942  66.852  1.00  0.00    -0.222 A  
HETATM    8  C   UNL     1      -9.311  15.302  66.730  1.00  0.00    -0.243 A  
HETATM    9  S   UNL     1     -10.524  15.514  65.523  1.00  0.00    -0.410 SA 
BRANCH   7  10
HETATM   10  C   UNL     1      -7.981  13.348  67.709  1.00  0.00    -0.167 A  
HETATM   11  C   UNL     1      -8.258  12.244  68.540  1.00  0.00    -0.096 A  
HETATM   12  C   UNL     1      -6.654  13.817  67.699  1.00  0.00    -0.181 A  
HETATM   13  F   UNL     1      -9.505  11.754  68.642  1.00  0.00    -0.187 F  
HETATM   14  C   UNL     1      -5.636  13.162  68.405  1.00  0.00    -0.082 A  
HETATM   15  C   UNL     1      -7.241  11.587  69.256  1.00  0.00    -0.048 A  
HETATM   16  C   UNL     1      -5.927  12.042  69.177  1.00  0.00    -0.074 A  
BRANCH  15  17
HETATM   17  N   UNL     1      -7.523  10.396  70.002  1.00  0.00    -0.295 N  
HETATM   18  H   UNL     1      -7.787  10.460  70.985  1.00  0.00     0.000 HD 
BRANCH  17  19
HETATM   19  S   UNL     1      -7.418   8.886  69.251  1.00  0.00    -0.076 S  
HETATM   20  O   UNL     1      -6.169   8.266  69.640  1.00  0.00    -0.032 OA 
HETATM   21  O   UNL     1      -7.710   9.103  67.849  1.00  0.00    -0.092 OA 
BRANCH  19  22
HETATM   22  C   UNL     1      -8.757   7.961  69.896  1.00  0.00    -0.140 A  
HETATM   23  C   UNL     1      -9.842   8.649  70.427  1.00  0.00    -0.183 A  
HETATM   24  F   UNL     1      -9.794   9.977  70.603  1.00  0.00    -0.293 F  
HETATM   25  C   UNL     1     -11.012   7.976  70.781  1.00  0.00    -0.259 A  
HETATM   26  C   UNL     1     -11.100   6.597  70.600  1.00  0.00    -0.349 A  
HETATM   27  C   UNL     1     -10.005   5.901  70.089  1.00  0.00    -0.247 A  
HETATM   28  C   UNL     1      -8.839   6.585  69.736  1.00  0.00    -0.143 A  
HETATM   29  F   UNL     1      -7.834   5.869  69.219  1.00  0.00    -0.087 F  
ENDBRANCH  19  22
ENDBRANCH  17  19
ENDBRANCH  15  17
ENDBRANCH   7  10
BRANCH   8  30
HETATM   30  C   UNL     1      -8.810  16.547  67.341  1.00  0.00    -0.191 A  
HETATM   31  C   UNL     1      -9.265  18.476  68.474  1.00  0.00    -0.335 A  
HETATM   32  N   UNL     1      -9.720  17.331  67.948  1.00  0.00    -0.265 NA 
HETATM   33  N   UNL     1     -10.162  19.310  69.102  1.00  0.00    -0.570 NA 
HETATM   34  N   UNL     1      -7.986  18.861  68.499  1.00  0.00    -0.336 NA 
HETATM   35  C   UNL     1      -7.101  18.043  67.918  1.00  0.00    -0.216 A  
HETATM   36  H2  UNL     1     -11.149  19.063  69.165  1.00  0.00     0.000 HD 
HETATM   37  C   UNL     1      -7.461  16.868  67.313  1.00  0.00    -0.195 A  
HETATM   38  H1  UNL     1      -9.815  20.182  69.503  1.00  0.00     0.000 HD 
ENDBRANCH   8  30
ENDBRANCH   2   5
TORSDOF 6
ENDMDL
MODEL      189
REMARK 921   NORMALIZED FREE ENERGY PREDICTED BY IDOCK:   -4.73 KCAL/MOL
REMARK 922        TOTAL FREE ENERGY PREDICTED BY IDOCK:   -7.52 KCAL/MOL
REMARK 923 INTER-LIGAND FREE ENERGY PREDICTED BY IDOCK:   -6.51 KCAL/MOL
REMARK 924 INTRA-LIGAND FREE ENERGY PREDICTED BY IDOCK:   -1.01 KCAL/MOL
REMARK 927      BINDING AFFINITY PREDICTED BY RF-SCORE:    0.00 PKD
ROOT
HETATM    1  C   UNL     1      -8.582   1.526  63.660  1.00  0.00    -0.076 C  
HETATM    2  C   UNL     1      -9.228   2.920  63.565  1.00  0.00    -0.096 C  
HETATM    3  C   UNL     1     -10.731   2.723  63.257  1.00  0.00    -0.231 C  
HETATM    4  C   UNL     1      -8.577   3.663  62.376  1.00  0.00    -0.081 C  
ENDROOT
BRANCH   2   5
HETATM    5  C   UNL     1      -9.038   3.733  64.858  1.00  0.00    -0.140 A  
HETATM    6  N   UNL     1      -9.297   3.361  66.100  1.00  0.00    -0.162 NA 
HETATM    7  C   UNL     1      -8.961   4.378  67.027  1.00  0.00    -0.119 A  
HETATM    8  C   UNL     1      -8.498   5.552  66.434  1.00  0.00    -0.119 A  
HETATM    9  S   UNL     1      -8.376   5.305  64.731  1.00  0.00    -0.145 SA 
BRANCH   7  10
HETATM   10  C   UNL     1      -9.114   4.142  68.478  1.00  0.00    -0.182 A  
HETATM   11  C   UNL     1      -9.914   4.987  69.273  1.00  0.00    -0.207 A  
HETATM   12  C   UNL     1      -8.518   3.043  69.123  1.00  0.00    -0.098 A  
HETATM   13  F   UNL     1     -10.491   6.083  68.751  1.00  0.00    -0.193 F  
HETATM   14  C   UNL     1      -8.781   2.744  70.466  1.00  0.00    -0.126 A  
HETATM   15  C   UNL     1     -10.176   4.697  70.625  1.00  0.00    -0.141 A  
HETATM   16  C   UNL     1      -9.616   3.567  71.215  1.00  0.00    -0.242 A  
BRANCH  15  17
HETATM   17  N   UNL     1     -11.085   5.502  71.384  1.00  0.00    -0.146 N  
HETATM   18  H   UNL     1     -12.083   5.292  71.376  1.00  0.00     0.000 HD 
BRANCH  17  19
HETATM   19  S   UNL     1     -10.503   6.803  72.294  1.00  0.00    -0.213 S  
HETATM   20  O   UNL     1      -9.134   7.062  71.899  1.00  0.00    -0.140 OA 
HETATM   21  O   UNL     1     -10.813   6.507  73.677  1.00  0.00    -0.259 OA 
BRANCH  19  22
HETATM   22  C   UNL     1     -11.510   8.163  71.843  1.00  0.00    -0.299 A  
HETATM   23  C   UNL     1     -10.893   9.316  71.374  1.00  0.00    -0.364 A  
HETATM   24  F   UNL     1      -9.561   9.454  71.429  1.00  0.00    -0.334 F  
HETATM   25  C   UNL     1     -11.645  10.356  70.825  1.00  0.00    -0.450 A  
HETATM   26  C   UNL     1     -13.031  10.241  70.742  1.00  0.00    -0.408 A  
HETATM   27  C   UNL     1     -13.654   9.094  71.233  1.00  0.00    -0.272 A  
HETATM   28  C   UNL     1     -12.892   8.058  71.778  1.00  0.00    -0.332 A  
HETATM   29  F   UNL     1     -13.543   6.968  72.201  1.00  0.00    -0.282 F  
ENDBRANCH  19  22
ENDBRANCH  17  19
ENDBRANCH  15  17
ENDBRANCH   7  10
BRANCH   8  30
HETATM   30  C   UNL     1      -8.075   6.882  66.907  1.00  0.00    -0.109 A  
HETATM   31  C   UNL     1      -6.834   8.119  68.372  1.00  0.00    -0.068 A  
HETATM   32  N   UNL     1      -7.193   6.908  67.924  1.00  0.00    -0.092 NA 
HETATM   33  N   UNL     1      -5.936   8.194  69.411  1.00  0.00    -0.036 NA 
HETATM   34  N   UNL     1      -7.230   9.285  67.850  1.00  0.00    -0.079 NA 
HETATM   35  C   UNL     1      -8.080   9.224  66.818  1.00  0.00    -0.112 A  
HETATM   36  H2  UNL     1      -5.553   7.347  69.832  1.00  0.00     0.000 HD 
HETATM   37  C   UNL     1      -8.544   8.041  66.308  1.00  0.00    -0.156 A  
HETATM   38  H1  UNL     1      -5.663   9.116  69.752  1.00  0.00     0.000 HD 
ENDBRANCH   8  30
ENDBRANCH   2   5
TORSDOF 6
ENDMDL
MODEL      190
REMARK 921   NORMALIZED FREE ENERGY PREDICTED BY IDOCK:   -4.69 KCAL/MOL
REMARK 922        TOTAL FREE ENERGY PREDICTED BY IDOCK:   -7.46 KCAL/MOL
REMARK 923 INTER-LIGAND FREE ENERGY PREDICTED BY IDOCK:   -7.09 KCAL/MOL
REMARK 924 INTRA-LIGAND FREE ENERGY PREDICTED BY IDOCK:   -0.37 KCAL/MOL
REMARK 927      BINDING AFFINITY PREDICTED BY RF-SCORE:    0.00 PKD
ROOT
HETATM    1  C   UNL     1     -10.805   5.176  68.968  1.00  0.00     0.322 C  
HETATM    2  C   UNL     1      -9.919   5.916  67.950  1.00  0.00    -0.157 C  
HETATM    3  C   UNL     1     -10.680   5.956  66.603  1.00  0.00    -0.323 C  
HETATM    4  C   UNL     1      -8.627   5.089  67.758  1.00  0.00    -0.103 C  
ENDROOT
BRANCH   2   5
HETATM    5  C   UNL     1      -9.566   7.338  68.420  1.00  0.00    -0.139 A  
HETATM    6  N   UNL     1     -10.341   8.409  68.430  1.00  0.00    -0.210 NA 
HETATM    7  C   UNL     1      -9.668   9.534  68.966  1.00  0.00    -0.170 A  
HETATM    8  C   UNL     1      -8.337   9.286  69.300  1.00  0.00    -0.124 A  
HETATM    9  S   UNL     1      -8.001   7.613  69.052  1.00  0.00    -0.123 SA 
BRANCH   7  10
HETATM   10  C   UNL     1     -10.377  10.820  69.125  1.00  0.00    -0.238 A  
HETATM   11  C   UNL     1      -9.957  11.974  68.434  1.00  0.00    -0.208 A  
HETATM   12  C   UNL     1     -11.527  10.945  69.926  1.00  0.00    -0.402 A  
HETATM   13  F   UNL     1      -8.846  11.960  67.677  1.00  0.00    -0.150 F  
HETATM   14  C   UNL     1     -12.276  12.128  69.962  1.00  0.00    -0.270 A  
HETATM   15  C   UNL     1     -10.701  13.168  68.472  1.00  0.00    -0.259 A  
HETATM   16  C   UNL     1     -11.868  13.237  69.229  1.00  0.00    -0.383 A  
BRANCH  15  17
HETATM   17  N   UNL     1     -10.322  14.293  67.670  1.00  0.00    -0.246 N  
HETATM   18  H   UNL     1     -10.924  14.602  66.906  1.00  0.00     0.000 HD 
BRANCH  17  19
HETATM   19  S   UNL     1      -8.876  15.109  67.990  1.00  0.00    -0.174 S  
HETATM   20  O   UNL     1      -7.817  14.479  67.230  1.00  0.00    -0.192 OA 
HETATM   21  O   UNL     1      -8.771  15.208  69.431  1.00  0.00    -0.219 OA 
BRANCH  19  22
HETATM   22  C   UNL     1      -9.132  16.738  67.400  1.00  0.00    -0.216 A  
HETATM   23  C   UNL     1     -10.373  17.329  67.605  1.00  0.00    -0.350 A  
HETATM   24  F   UNL     1     -11.404  16.616  68.081  1.00  0.00    -0.355 F  
HETATM   25  C   UNL     1     -10.575  18.682  67.329  1.00  0.00    -0.480 A  
HETATM   26  C   UNL     1      -9.522  19.455  66.844  1.00  0.00    -0.406 A  
HETATM   27  C   UNL     1      -8.282  18.859  66.616  1.00  0.00    -0.295 A  
HETATM   28  C   UNL     1      -8.090  17.504  66.898  1.00  0.00    -0.227 A  
HETATM   29  F   UNL     1      -6.870  16.996  66.692  1.00  0.00    -0.193 F  
ENDBRANCH  19  22
ENDBRANCH  17  19
ENDBRANCH  15  17
ENDBRANCH   7  10
BRANCH   8  30
HETATM   30  C   UNL     1      -7.212  10.081  69.827  1.00  0.00    -0.127 A  
HETATM   31  C   UNL     1      -5.773  10.510  71.547  1.00  0.00     0.198 A  
HETATM   32  N   UNL     1      -6.775   9.765  71.060  1.00  0.00    -0.307 NA 
HETATM   33  N   UNL     1      -5.296  10.224  72.806  1.00  0.00    -0.311 NA 
HETATM   34  N   UNL     1      -5.142  11.485  70.886  1.00  0.00    -0.114 NA 
HETATM   35  C   UNL     1      -5.578  11.752  69.649  1.00  0.00    -0.078 A  
HETATM   36  H2  UNL     1      -5.695   9.462  73.355  1.00  0.00     0.000 HD 
HETATM   37  C   UNL     1      -6.622  11.081  69.069  1.00  0.00    -0.065 A  
HETATM   38  H1  UNL     1      -4.533  10.791  73.177  1.00  0.00     0.000 HD 
ENDBRANCH   8  30
ENDBRANCH   2   5
TORSDOF 6
ENDMDL
MODEL      191
REMARK 921   NORMALIZED FREE ENERGY PREDICTED BY IDOCK:   -4.68 KCAL/MOL
REMARK 922        TOTAL FREE ENERGY PREDICTED BY IDOCK:   -7.45 KCAL/MOL
REMARK 923 INTER-LIGAND FREE ENERGY PREDICTED BY IDOCK:   -6.27 KCAL/MOL
REMARK 924 INTRA-LIGAND FREE ENERGY PREDICTED BY IDOCK:   -1.18 KCAL/MOL
REMARK 927      BINDING AFFINITY PREDICTED BY RF-SCORE:    0.00 PKD
ROOT
HETATM    1  C   UNL     1     -12.498  10.062  71.638  1.00  0.00    -0.513 C  
HETATM    2  C   UNL     1     -12.348   8.530  71.611  1.00  0.00    -0.371 C  
HETATM    3  C   UNL     1     -13.766   7.919  71.512  1.00  0.00    -0.384 C  
HETATM    4  C   UNL     1     -11.719   8.092  72.954  1.00  0.00    -0.194 C  
ENDROOT
BRANCH   2   5
HETATM    5  C   UNL     1     -11.467   8.057  70.441  1.00  0.00    -0.135 A  
HETATM    6  N   UNL     1     -11.270   6.821  70.018  1.00  0.00    -0.310 NA 
HETATM    7  C   UNL     1     -10.413   6.788  68.891  1.00  0.00    -0.207 A  
HETATM    8  C   UNL     1      -9.922   8.039  68.519  1.00  0.00    -0.192 A  
HETATM    9  S   UNL     1     -10.650   9.242  69.517  1.00  0.00    -0.220 SA 
BRANCH   7  10
HETATM   10  C   UNL     1     -10.112   5.505  68.221  1.00  0.00    -0.226 A  
HETATM   11  C   UNL     1     -10.528   5.259  66.897  1.00  0.00    -0.254 A  
HETATM   12  C   UNL     1      -9.356   4.497  68.846  1.00  0.00    -0.209 A  
HETATM   13  F   UNL     1     -11.287   6.149  66.235  1.00  0.00    -0.208 F  
HETATM   14  C   UNL     1      -8.953   3.344  68.158  1.00  0.00    -0.182 A  
HETATM   15  C   UNL     1     -10.133   4.100  66.203  1.00  0.00    -0.124 A  
HETATM   16  C   UNL     1      -9.334   3.149  66.835  1.00  0.00    -0.163 A  
BRANCH  15  17
HETATM   17  N   UNL     1     -10.468   3.923  64.822  1.00  0.00    -0.436 N  
HETATM   18  H   UNL     1     -11.431   4.047  64.510  1.00  0.00     0.000 HD 
BRANCH  17  19
HETATM   19  S   UNL     1      -9.266   3.508  63.708  1.00  0.00    -0.122 S  
HETATM   20  O   UNL     1      -9.527   4.210  62.469  1.00  0.00    -0.114 OA 
HETATM   21  O   UNL     1      -9.180   2.063  63.716  1.00  0.00    -0.095 OA 
BRANCH  19  22
HETATM   22  C   UNL     1      -7.772   4.094  64.410  1.00  0.00    -0.084 A  
HETATM   23  C   UNL     1      -7.645   5.456  64.654  1.00  0.00    -0.081 A  
HETATM   24  F   UNL     1      -8.564   6.324  64.206  1.00  0.00    -0.061 F  
HETATM   25  C   UNL     1      -6.563   5.955  65.380  1.00  0.00    -0.043 A  
HETATM   26  C   UNL     1      -5.595   5.081  65.870  1.00  0.00    -0.017 A  
HETATM   27  C   UNL     1      -5.708   3.716  65.607  1.00  0.00    -0.018 A  
HETATM   28  C   UNL     1      -6.797   3.227  64.881  1.00  0.00    -0.045 A  
HETATM   29  F   UNL     1      -6.870   1.905  64.689  1.00  0.00    -0.031 F  
ENDBRANCH  19  22
ENDBRANCH  17  19
ENDBRANCH  15  17
ENDBRANCH   7  10
BRANCH   8  30
HETATM   30  C   UNL     1      -8.994   8.551  67.494  1.00  0.00    -0.135 A  
HETATM   31  C   UNL     1      -8.669   9.261  65.349  1.00  0.00    -0.178 A  
HETATM   32  N   UNL     1      -9.521   8.825  66.286  1.00  0.00    -0.216 NA 
HETATM   33  N   UNL     1      -9.163   9.551  64.098  1.00  0.00    -0.426 NA 
HETATM   34  N   UNL     1      -7.368   9.502  65.538  1.00  0.00    -0.092 NA 
HETATM   35  C   UNL     1      -6.882   9.253  66.760  1.00  0.00    -0.080 A  
HETATM   36  H2  UNL     1     -10.155   9.437  63.889  1.00  0.00     0.000 HD 
HETATM   37  C   UNL     1      -7.655   8.766  67.781  1.00  0.00    -0.097 A  
HETATM   38  H1  UNL     1      -8.514   9.883  63.384  1.00  0.00     0.000 HD 
ENDBRANCH   8  30
ENDBRANCH   2   5
TORSDOF 6
ENDMDL
MODEL      192
REMARK 921   NORMALIZED FREE ENERGY PREDICTED BY IDOCK:   -4.65 KCAL/MOL
REMARK 922        TOTAL FREE ENERGY PREDICTED BY IDOCK:   -7.41 KCAL/MOL
REMARK 923 INTER-LIGAND FREE ENERGY PREDICTED BY IDOCK:   -6.60 KCAL/MOL
REMARK 924 INTRA-LIGAND FREE ENERGY PREDICTED BY IDOCK:   -0.81 KCAL/MOL
REMARK 927      BINDING AFFINITY PREDICTED BY RF-SCORE:    0.00 PKD
ROOT
HETATM    1  C   UNL     1      -7.924   7.745  74.187  1.00  0.00    -0.251 C  
HETATM    2  C   UNL     1      -7.721   6.302  73.693  1.00  0.00    -0.093 C  
HETATM    3  C   UNL     1      -8.787   5.415  74.379  1.00  0.00    -0.117 C  
HETATM    4  C   UNL     1      -6.323   5.835  74.157  1.00  0.00    -0.069 C  
ENDROOT
BRANCH   2   5
HETATM    5  C   UNL     1      -7.828   6.196  72.161  1.00  0.00    -0.101 A  
HETATM    6  N   UNL     1      -8.679   6.812  71.359  1.00  0.00    -0.131 NA 
HETATM    7  C   UNL     1      -8.445   6.483  70.002  1.00  0.00    -0.135 A  
HETATM    8  C   UNL     1      -7.427   5.548  69.816  1.00  0.00    -0.070 A  
HETATM    9  S   UNL     1      -6.703   5.202  71.342  1.00  0.00    -0.045 SA 
BRANCH   7  10
HETATM   10  C   UNL     1      -9.248   7.113  68.933  1.00  0.00    -0.137 A  
HETATM   11  C   UNL     1      -8.999   8.437  68.518  1.00  0.00    -0.136 A  
HETATM   12  C   UNL     1     -10.258   6.413  68.247  1.00  0.00    -0.197 A  
HETATM   13  F   UNL     1      -8.080   9.194  69.142  1.00  0.00    -0.095 F  
HETATM   14  C   UNL     1     -10.918   6.967  67.142  1.00  0.00    -0.427 A  
HETATM   15  C   UNL     1      -9.664   9.001  67.414  1.00  0.00    -0.168 A  
HETATM   16  C   UNL     1     -10.616   8.258  66.720  1.00  0.00    -0.226 A  
BRANCH  15  17
HETATM   17  N   UNL     1      -9.312  10.305  66.935  1.00  0.00    -0.156 N  
HETATM   18  H   UNL     1      -8.519  10.421  66.305  1.00  0.00     0.000 HD 
BRANCH  17  19
HETATM   19  S   UNL     1     -10.214  11.651  67.416  1.00  0.00    -0.206 S  
HETATM   20  O   UNL     1      -9.296  12.715  67.767  1.00  0.00    -0.184 OA 
HETATM   21  O   UNL     1     -11.175  11.176  68.389  1.00  0.00    -0.218 OA 
BRANCH  19  22
HETATM   22  C   UNL     1     -11.134  12.114  65.999  1.00  0.00    -0.313 A  
HETATM   23  C   UNL     1     -11.949  13.237  66.078  1.00  0.00    -0.423 A  
HETATM   24  F   UNL     1     -12.165  13.849  67.250  1.00  0.00    -0.415 F  
HETATM   25  C   UNL     1     -12.555  13.762  64.935  1.00  0.00    -0.380 A  
HETATM   26  C   UNL     1     -12.343  13.156  63.698  1.00  0.00    -0.482 A  
HETATM   27  C   UNL     1     -11.544  12.016  63.621  1.00  0.00    -0.578 A  
HETATM   28  C   UNL     1     -10.940  11.501  64.770  1.00  0.00    -0.273 A  
HETATM   29  F   UNL     1     -10.156  10.426  64.629  1.00  0.00    -0.360 F  
ENDBRANCH  19  22
ENDBRANCH  17  19
ENDBRANCH  15  17
ENDBRANCH   7  10
BRANCH   8  30
HETATM   30  C   UNL     1      -6.830   4.847  68.664  1.00  0.00    -0.051 A  
HETATM   31  C   UNL     1      -5.839   4.977  66.611  1.00  0.00    -0.022 A  
HETATM   32  N   UNL     1      -6.353   5.618  67.669  1.00  0.00    -0.040 NA 
HETATM   33  N   UNL     1      -5.342   5.726  65.569  1.00  0.00    -0.009 NA 
HETATM   34  N   UNL     1      -5.708   3.652  66.499  1.00  0.00    -0.021 NA 
HETATM   35  C   UNL     1      -6.160   2.915  67.520  1.00  0.00    -0.028 A  
HETATM   36  H2  UNL     1      -5.364   6.745  65.601  1.00  0.00     0.000 HD 
HETATM   37  C   UNL     1      -6.741   3.464  68.632  1.00  0.00    -0.045 A  
HETATM   38  H1  UNL     1      -4.951   5.237  64.763  1.00  0.00     0.000 HD 
ENDBRANCH   8  30
ENDBRANCH   2   5
TORSDOF 6
ENDMDL
MODEL      193
REMARK 921   NORMALIZED FREE ENERGY PREDICTED BY IDOCK:   -4.65 KCAL/MOL
REMARK 922        TOTAL FREE ENERGY PREDICTED BY IDOCK:   -7.41 KCAL/MOL
REMARK 923 INTER-LIGAND FREE ENERGY PREDICTED BY IDOCK:   -5.96 KCAL/MOL
REMARK 924 INTRA-LIGAND FREE ENERGY PREDICTED BY IDOCK:   -1.45 KCAL/MOL
REMARK 927      BINDING AFFINITY PREDICTED BY RF-SCORE:    0.00 PKD
ROOT
HETATM    1  C   UNL     1      -8.019   2.978  64.302  1.00  0.00    -0.082 C  
HETATM    2  C   UNL     1      -8.847   4.274  64.355  1.00  0.00    -0.144 C  
HETATM    3  C   UNL     1     -10.342   3.882  64.288  1.00  0.00    -0.245 C  
HETATM    4  C   UNL     1      -8.502   5.107  63.099  1.00  0.00    -0.114 C  
ENDROOT
BRANCH   2   5
HETATM    5  C   UNL     1      -8.554   5.094  65.623  1.00  0.00    -0.139 A  
HETATM    6  N   UNL     1      -8.346   4.649  66.851  1.00  0.00    -0.106 NA 
HETATM    7  C   UNL     1      -8.078   5.711  67.749  1.00  0.00    -0.101 A  
HETATM    8  C   UNL     1      -8.153   6.975  67.167  1.00  0.00    -0.118 A  
HETATM    9  S   UNL     1      -8.434   6.794  65.475  1.00  0.00    -0.080 SA 
BRANCH   7  10
HETATM   10  C   UNL     1      -7.755   5.426  69.163  1.00  0.00    -0.089 A  
HETATM   11  C   UNL     1      -8.772   5.282  70.128  1.00  0.00    -0.121 A  
HETATM   12  C   UNL     1      -6.432   5.234  69.603  1.00  0.00    -0.034 A  
HETATM   13  F   UNL     1     -10.061   5.485  69.808  1.00  0.00    -0.210 F  
HETATM   14  C   UNL     1      -6.141   4.825  70.911  1.00  0.00    -0.018 A  
HETATM   15  C   UNL     1      -8.486   4.879  71.446  1.00  0.00    -0.117 A  
HETATM   16  C   UNL     1      -7.169   4.640  71.831  1.00  0.00    -0.062 A  
BRANCH  15  17
HETATM   17  N   UNL     1      -9.542   4.624  72.379  1.00  0.00    -0.144 N  
HETATM   18  H   UNL     1     -10.065   3.750  72.333  1.00  0.00     0.000 HD 
BRANCH  17  19
HETATM   19  S   UNL     1      -9.921   5.774  73.559  1.00  0.00    -0.193 S  
HETATM   20  O   UNL     1      -8.686   6.323  74.077  1.00  0.00    -0.121 OA 
HETATM   21  O   UNL     1     -10.865   5.143  74.459  1.00  0.00    -0.311 OA 
BRANCH  19  22
HETATM   22  C   UNL     1     -10.808   7.023  72.711  1.00  0.00    -0.288 A  
HETATM   23  C   UNL     1     -10.175   8.236  72.469  1.00  0.00    -0.316 A  
HETATM   24  F   UNL     1      -8.984   8.512  73.020  1.00  0.00    -0.288 F  
HETATM   25  C   UNL     1     -10.758   9.194  71.639  1.00  0.00    -0.441 A  
HETATM   26  C   UNL     1     -11.990   8.936  71.041  1.00  0.00    -0.307 A  
HETATM   27  C   UNL     1     -12.638   7.728  71.301  1.00  0.00    -0.286 A  
HETATM   28  C   UNL     1     -12.044   6.775  72.132  1.00  0.00    -0.252 A  
HETATM   29  F   UNL     1     -12.697   5.622  72.316  1.00  0.00    -0.186 F  
ENDBRANCH  19  22
ENDBRANCH  17  19
ENDBRANCH  15  17
ENDBRANCH   7  10
BRANCH   8  30
HETATM   30  C   UNL     1      -8.018   8.367  67.635  1.00  0.00    -0.110 A  
HETATM   31  C   UNL     1      -7.592  10.553  67.133  1.00  0.00    -0.097 A  
HETATM   32  N   UNL     1      -7.745   9.295  66.699  1.00  0.00    -0.093 NA 
HETATM   33  N   UNL     1      -7.309  11.535  66.211  1.00  0.00    -0.372 NA 
HETATM   34  N   UNL     1      -7.753  10.960  68.396  1.00  0.00    -0.109 NA 
HETATM   35  C   UNL     1      -8.059  10.019  69.296  1.00  0.00    -0.141 A  
HETATM   36  H2  UNL     1      -7.217  11.310  65.220  1.00  0.00     0.000 HD 
HETATM   37  C   UNL     1      -8.198   8.696  68.969  1.00  0.00    -0.122 A  
HETATM   38  H1  UNL     1      -7.193  12.493  66.542  1.00  0.00     0.000 HD 
ENDBRANCH   8  30
ENDBRANCH   2   5
TORSDOF 6
ENDMDL
MODEL      194
REMARK 921   NORMALIZED FREE ENERGY PREDICTED BY IDOCK:   -4.65 KCAL/MOL
REMARK 922        TOTAL FREE ENERGY PREDICTED BY IDOCK:   -7.40 KCAL/MOL
REMARK 923 INTER-LIGAND FREE ENERGY PREDICTED BY IDOCK:   -5.74 KCAL/MOL
REMARK 924 INTRA-LIGAND FREE ENERGY PREDICTED BY IDOCK:   -1.66 KCAL/MOL
REMARK 927      BINDING AFFINITY PREDICTED BY RF-SCORE:    0.00 PKD
ROOT
HETATM    1  C   UNL     1     -10.786   3.309  63.514  1.00  0.00    -0.252 C  
HETATM    2  C   UNL     1      -9.337   3.126  63.999  1.00  0.00    -0.128 C  
HETATM    3  C   UNL     1      -8.430   3.021  62.750  1.00  0.00    -0.078 C  
HETATM    4  C   UNL     1      -9.263   1.789  64.773  1.00  0.00    -0.124 C  
ENDROOT
BRANCH   2   5
HETATM    5  C   UNL     1      -8.883   4.282  64.907  1.00  0.00    -0.138 A  
HETATM    6  N   UNL     1      -8.909   4.341  66.227  1.00  0.00    -0.114 NA 
HETATM    7  C   UNL     1      -8.376   5.563  66.704  1.00  0.00    -0.109 A  
HETATM    8  C   UNL     1      -8.006   6.449  65.693  1.00  0.00    -0.120 A  
HETATM    9  S   UNL     1      -8.217   5.674  64.167  1.00  0.00    -0.076 SA 
BRANCH   7  10
HETATM   10  C   UNL     1      -8.255   5.807  68.157  1.00  0.00    -0.104 A  
HETATM   11  C   UNL     1      -9.246   6.520  68.861  1.00  0.00    -0.129 A  
HETATM   12  C   UNL     1      -7.182   5.298  68.912  1.00  0.00    -0.062 A  
HETATM   13  F   UNL     1     -10.286   7.075  68.217  1.00  0.00    -0.166 F  
HETATM   14  C   UNL     1      -7.145   5.410  70.308  1.00  0.00    -0.062 A  
HETATM   15  C   UNL     1      -9.210   6.642  70.263  1.00  0.00    -0.156 A  
HETATM   16  C   UNL     1      -8.163   6.075  70.985  1.00  0.00    -0.123 A  
BRANCH  15  17
HETATM   17  N   UNL     1     -10.286   7.269  70.971  1.00  0.00    -0.200 N  
HETATM   18  H   UNL     1     -11.152   6.757  71.142  1.00  0.00     0.000 HD 
BRANCH  17  19
HETATM   19  S   UNL     1     -10.120   8.858  71.524  1.00  0.00    -0.335 S  
HETATM   20  O   UNL     1      -9.007   8.907  72.449  1.00  0.00    -0.383 OA 
HETATM   21  O   UNL     1     -11.436   9.282  71.954  1.00  0.00    -0.372 OA 
BRANCH  19  22
HETATM   22  C   UNL     1      -9.740   9.800  70.098  1.00  0.00    -0.248 A  
HETATM   23  C   UNL     1     -10.770  10.478  69.459  1.00  0.00    -0.255 A  
HETATM   24  F   UNL     1     -12.048  10.280  69.813  1.00  0.00    -0.275 F  
HETATM   25  C   UNL     1     -10.501  11.391  68.438  1.00  0.00    -0.221 A  
HETATM   26  C   UNL     1      -9.183  11.629  68.051  1.00  0.00    -0.178 A  
HETATM   27  C   UNL     1      -8.149  10.933  68.676  1.00  0.00    -0.143 A  
HETATM   28  C   UNL     1      -8.430  10.023  69.699  1.00  0.00    -0.180 A  
HETATM   29  F   UNL     1      -7.395   9.411  70.284  1.00  0.00    -0.062 F  
ENDBRANCH  19  22
ENDBRANCH  17  19
ENDBRANCH  15  17
ENDBRANCH   7  10
BRANCH   8  30
HETATM   30  C   UNL     1      -7.465   7.820  65.631  1.00  0.00    -0.075 A  
HETATM   31  C   UNL     1      -7.757   9.997  65.010  1.00  0.00    -0.138 A  
HETATM   32  N   UNL     1      -8.264   8.760  65.093  1.00  0.00    -0.139 NA 
HETATM   33  N   UNL     1      -8.538  10.990  64.464  1.00  0.00    -0.374 NA 
HETATM   34  N   UNL     1      -6.563  10.376  65.474  1.00  0.00    -0.127 NA 
HETATM   35  C   UNL     1      -5.807   9.425  66.036  1.00  0.00    -0.053 A  
HETATM   36  H2  UNL     1      -9.480  10.788  64.129  1.00  0.00     0.000 HD 
HETATM   37  C   UNL     1      -6.209   8.120  66.135  1.00  0.00    -0.045 A  
HETATM   38  H1  UNL     1      -8.152  11.932  64.401  1.00  0.00     0.000 HD 
ENDBRANCH   8  30
ENDBRANCH   2   5
TORSDOF 6
ENDMDL
MODEL      195
REMARK 921   NORMALIZED FREE ENERGY PREDICTED BY IDOCK:   -4.59 KCAL/MOL
REMARK 922        TOTAL FREE ENERGY PREDICTED BY IDOCK:   -7.32 KCAL/MOL
REMARK 923 INTER-LIGAND FREE ENERGY PREDICTED BY IDOCK:   -6.41 KCAL/MOL
REMARK 924 INTRA-LIGAND FREE ENERGY PREDICTED BY IDOCK:   -0.91 KCAL/MOL
REMARK 927      BINDING AFFINITY PREDICTED BY RF-SCORE:    0.00 PKD
ROOT
HETATM    1  C   UNL     1     -11.245  12.701  63.305  1.00  0.00    -0.252 C  
HETATM    2  C   UNL     1     -11.651  13.437  64.595  1.00  0.00    -0.386 C  
HETATM    3  C   UNL     1     -12.774  12.616  65.272  1.00  0.00    -0.229 C  
HETATM    4  C   UNL     1     -12.225  14.815  64.193  1.00  0.00    -0.321 C  
ENDROOT
BRANCH   2   5
HETATM    5  C   UNL     1     -10.460  13.624  65.551  1.00  0.00    -0.306 A  
HETATM    6  N   UNL     1      -9.731  12.690  66.138  1.00  0.00    -0.259 NA 
HETATM    7  C   UNL     1      -8.699  13.255  66.926  1.00  0.00    -0.142 A  
HETATM    8  C   UNL     1      -8.716  14.649  66.962  1.00  0.00    -0.235 A  
HETATM    9  S   UNL     1      -9.951  15.219  65.903  1.00  0.00    -0.367 SA 
BRANCH   7  10
HETATM   10  C   UNL     1      -7.728  12.382  67.619  1.00  0.00    -0.151 A  
HETATM   11  C   UNL     1      -8.099  11.638  68.756  1.00  0.00    -0.072 A  
HETATM   12  C   UNL     1      -6.412  12.210  67.151  1.00  0.00    -0.135 A  
HETATM   13  F   UNL     1      -9.323  11.768  69.296  1.00  0.00     0.036 F  
HETATM   14  C   UNL     1      -5.541  11.276  67.726  1.00  0.00    -0.044 A  
HETATM   15  C   UNL     1      -7.226  10.703  69.343  1.00  0.00    -0.126 A  
HETATM   16  C   UNL     1      -5.950  10.516  68.817  1.00  0.00    -0.040 A  
BRANCH  15  17
HETATM   17  N   UNL     1      -7.663   9.872  70.425  1.00  0.00    -0.203 N  
HETATM   18  H   UNL     1      -7.264   9.994  71.356  1.00  0.00     0.000 HD 
BRANCH  17  19
HETATM   19  S   UNL     1      -8.840   8.688  70.159  1.00  0.00    -0.149 S  
HETATM   20  O   UNL     1     -10.139   9.262  70.442  1.00  0.00    -0.202 OA 
HETATM   21  O   UNL     1      -8.402   7.506  70.871  1.00  0.00    -0.112 OA 
BRANCH  19  22
HETATM   22  C   UNL     1      -8.727   8.307  68.454  1.00  0.00    -0.133 A  
HETATM   23  C   UNL     1      -7.669   7.515  68.022  1.00  0.00    -0.116 A  
HETATM   24  F   UNL     1      -6.666   7.196  68.851  1.00  0.00    -0.050 F  
HETATM   25  C   UNL     1      -7.630   7.024  66.716  1.00  0.00    -0.090 A  
HETATM   26  C   UNL     1      -8.663   7.328  65.830  1.00  0.00    -0.150 A  
HETATM   27  C   UNL     1      -9.713   8.141  66.255  1.00  0.00    -0.223 A  
HETATM   28  C   UNL     1      -9.743   8.625  67.565  1.00  0.00    -0.165 A  
HETATM   29  F   UNL     1     -10.794   9.372  67.925  1.00  0.00    -0.291 F  
ENDBRANCH  19  22
ENDBRANCH  17  19
ENDBRANCH  15  17
ENDBRANCH   7  10
BRANCH   8  30
HETATM   30  C   UNL     1      -7.935  15.700  67.639  1.00  0.00    -0.153 A  
HETATM   31  C   UNL     1      -7.824  17.847  68.410  1.00  0.00    -0.286 A  
HETATM   32  N   UNL     1      -8.548  16.884  67.823  1.00  0.00    -0.205 NA 
HETATM   33  N   UNL     1      -8.410  19.074  68.617  1.00  0.00    -0.362 NA 
HETATM   34  N   UNL     1      -6.580  17.702  68.878  1.00  0.00    -0.218 NA 
HETATM   35  C   UNL     1      -6.011  16.502  68.710  1.00  0.00    -0.132 A  
HETATM   36  H2  UNL     1      -9.373  19.248  68.329  1.00  0.00     0.000 HD 
HETATM   37  C   UNL     1      -6.644  15.461  68.086  1.00  0.00    -0.141 A  
HETATM   38  H1  UNL     1      -7.858  19.807  69.063  1.00  0.00     0.000 HD 
ENDBRANCH   8  30
ENDBRANCH   2   5
TORSDOF 6
ENDMDL
MODEL      196
REMARK 921   NORMALIZED FREE ENERGY PREDICTED BY IDOCK:   -4.58 KCAL/MOL
REMARK 922        TOTAL FREE ENERGY PREDICTED BY IDOCK:   -7.31 KCAL/MOL
REMARK 923 INTER-LIGAND FREE ENERGY PREDICTED BY IDOCK:   -6.49 KCAL/MOL
REMARK 924 INTRA-LIGAND FREE ENERGY PREDICTED BY IDOCK:   -0.81 KCAL/MOL
REMARK 927      BINDING AFFINITY PREDICTED BY RF-SCORE:    0.00 PKD
ROOT
HETATM    1  C   UNL     1     -12.032  14.694  64.253  1.00  0.00    -0.406 C  
HETATM    2  C   UNL     1     -11.822  13.183  64.458  1.00  0.00    -0.427 C  
HETATM    3  C   UNL     1     -11.028  12.648  63.243  1.00  0.00    -0.148 C  
HETATM    4  C   UNL     1     -13.214  12.510  64.468  1.00  0.00     0.195 C  
ENDROOT
BRANCH   2   5
HETATM    5  C   UNL     1     -11.083  12.876  65.772  1.00  0.00    -0.284 A  
HETATM    6  N   UNL     1     -11.415  12.006  66.710  1.00  0.00    -0.423 NA 
HETATM    7  C   UNL     1     -10.465  11.987  67.761  1.00  0.00    -0.203 A  
HETATM    8  C   UNL     1      -9.439  12.920  67.610  1.00  0.00    -0.197 A  
HETATM    9  S   UNL     1      -9.623  13.710  66.088  1.00  0.00    -0.152 SA 
BRANCH   7  10
HETATM   10  C   UNL     1     -10.615  11.037  68.883  1.00  0.00    -0.239 A  
HETATM   11  C   UNL     1      -9.793   9.898  68.988  1.00  0.00    -0.190 A  
HETATM   12  C   UNL     1     -11.541  11.249  69.921  1.00  0.00    -0.413 A  
HETATM   13  F   UNL     1      -8.906   9.595  68.024  1.00  0.00    -0.119 F  
HETATM   14  C   UNL     1     -11.581  10.424  71.053  1.00  0.00    -0.384 A  
HETATM   15  C   UNL     1      -9.833   9.061  70.119  1.00  0.00    -0.187 A  
HETATM   16  C   UNL     1     -10.722   9.334  71.156  1.00  0.00    -0.403 A  
BRANCH  15  17
HETATM   17  N   UNL     1      -8.909   7.976  70.261  1.00  0.00    -0.144 N  
HETATM   18  H   UNL     1      -7.924   8.165  70.449  1.00  0.00     0.000 HD 
BRANCH  17  19
HETATM   19  S   UNL     1      -9.450   6.381  70.115  1.00  0.00    -0.160 S  
HETATM   20  O   UNL     1      -8.567   5.679  69.208  1.00  0.00    -0.105 OA 
HETATM   21  O   UNL     1     -10.868   6.454  69.832  1.00  0.00    -0.248 OA 
BRANCH  19  22
HETATM   22  C   UNL     1      -9.302   5.701  71.722  1.00  0.00    -0.145 A  
HETATM   23  C   UNL     1      -9.761   4.406  71.937  1.00  0.00    -0.170 A  
HETATM   24  F   UNL     1     -10.456   3.757  70.992  1.00  0.00    -0.057 F  
HETATM   25  C   UNL     1      -9.500   3.746  73.138  1.00  0.00    -0.135 A  
HETATM   26  C   UNL     1      -8.771   4.387  74.138  1.00  0.00    -0.103 A  
HETATM   27  C   UNL     1      -8.330   5.694  73.933  1.00  0.00    -0.113 A  
HETATM   28  C   UNL     1      -8.594   6.345  72.725  1.00  0.00    -0.125 A  
HETATM   29  F   UNL     1      -8.116   7.585  72.573  1.00  0.00    -0.099 F  
ENDBRANCH  19  22
ENDBRANCH  17  19
ENDBRANCH  15  17
ENDBRANCH   7  10
BRANCH   8  30
HETATM   30  C   UNL     1      -8.267  13.342  68.399  1.00  0.00    -0.134 A  
HETATM   31  C   UNL     1      -7.095  15.036  69.383  1.00  0.00    -0.186 A  
HETATM   32  N   UNL     1      -8.177  14.652  68.693  1.00  0.00    -0.155 NA 
HETATM   33  N   UNL     1      -6.960  16.367  69.703  1.00  0.00    -0.156 NA 
HETATM   34  N   UNL     1      -6.146  14.218  69.850  1.00  0.00    -0.130 NA 
HETATM   35  C   UNL     1      -6.283  12.917  69.571  1.00  0.00    -0.118 A  
HETATM   36  H2  UNL     1      -7.667  17.046  69.422  1.00  0.00     0.000 HD 
HETATM   37  C   UNL     1      -7.328  12.421  68.837  1.00  0.00    -0.031 A  
HETATM   38  H1  UNL     1      -6.135  16.659  70.229  1.00  0.00     0.000 HD 
ENDBRANCH   8  30
ENDBRANCH   2   5
TORSDOF 6
ENDMDL
MODEL      197
REMARK 921   NORMALIZED FREE ENERGY PREDICTED BY IDOCK:   -4.53 KCAL/MOL
REMARK 922        TOTAL FREE ENERGY PREDICTED BY IDOCK:   -7.25 KCAL/MOL
REMARK 923 INTER-LIGAND FREE ENERGY PREDICTED BY IDOCK:   -6.40 KCAL/MOL
REMARK 924 INTRA-LIGAND FREE ENERGY PREDICTED BY IDOCK:   -0.85 KCAL/MOL
REMARK 927      BINDING AFFINITY PREDICTED BY RF-SCORE:    0.00 PKD
ROOT
HETATM    1  C   UNL     1     -10.937   3.886  64.147  1.00  0.00    -0.062 C  
HETATM    2  C   UNL     1      -9.400   3.830  64.091  1.00  0.00    -0.146 C  
HETATM    3  C   UNL     1      -8.975   3.993  62.613  1.00  0.00    -0.104 C  
HETATM    4  C   UNL     1      -8.960   2.429  64.576  1.00  0.00    -0.117 C  
ENDROOT
BRANCH   2   5
HETATM    5  C   UNL     1      -8.751   4.915  64.968  1.00  0.00    -0.149 A  
HETATM    6  N   UNL     1      -8.780   5.023  66.285  1.00  0.00    -0.115 NA 
HETATM    7  C   UNL     1      -8.037   6.144  66.731  1.00  0.00    -0.109 A  
HETATM    8  C   UNL     1      -7.502   6.912  65.698  1.00  0.00    -0.085 A  
HETATM    9  S   UNL     1      -7.836   6.136  64.195  1.00  0.00    -0.113 SA 
BRANCH   7  10
HETATM   10  C   UNL     1      -7.889   6.412  68.177  1.00  0.00    -0.105 A  
HETATM   11  C   UNL     1      -8.565   7.483  68.793  1.00  0.00    -0.129 A  
HETATM   12  C   UNL     1      -7.114   5.587  69.013  1.00  0.00    -0.068 A  
HETATM   13  F   UNL     1      -9.297   8.346  68.068  1.00  0.00    -0.135 F  
HETATM   14  C   UNL     1      -7.090   5.760  70.403  1.00  0.00    -0.070 A  
HETATM   15  C   UNL     1      -8.540   7.667  70.188  1.00  0.00    -0.140 A  
HETATM   16  C   UNL     1      -7.809   6.795  70.992  1.00  0.00    -0.101 A  
BRANCH  15  17
HETATM   17  N   UNL     1      -9.328   8.691  70.807  1.00  0.00    -0.177 N  
HETATM   18  H   UNL     1      -8.923   9.609  70.988  1.00  0.00     0.000 HD 
BRANCH  17  19
HETATM   19  S   UNL     1     -10.932   8.376  71.237  1.00  0.00    -0.266 S  
HETATM   20  O   UNL     1     -10.965   7.992  72.633  1.00  0.00    -0.334 OA 
HETATM   21  O   UNL     1     -11.460   7.480  70.229  1.00  0.00    -0.248 OA 
BRANCH  19  22
HETATM   22  C   UNL     1     -11.769   9.900  71.028  1.00  0.00    -0.382 A  
HETATM   23  C   UNL     1     -12.787  10.223  71.917  1.00  0.00    -0.426 A  
HETATM   24  F   UNL     1     -13.239   9.323  72.801  1.00  0.00    -0.479 F  
HETATM   25  C   UNL     1     -13.358  11.497  71.918  1.00  0.00    -0.408 A  
HETATM   26  C   UNL     1     -12.904  12.461  71.020  1.00  0.00    -0.245 A  
HETATM   27  C   UNL     1     -11.898  12.132  70.112  1.00  0.00    -0.368 A  
HETATM   28  C   UNL     1     -11.332  10.854  70.121  1.00  0.00    -0.284 A  
HETATM   29  F   UNL     1     -10.347  10.608  69.250  1.00  0.00    -0.194 F  
ENDBRANCH  19  22
ENDBRANCH  17  19
ENDBRANCH  15  17
ENDBRANCH   7  10
BRANCH   8  30
HETATM   30  C   UNL     1      -6.720   8.159  65.601  1.00  0.00    -0.055 A  
HETATM   31  C   UNL     1      -6.152  10.007  64.386  1.00  0.00    -0.130 A  
HETATM   32  N   UNL     1      -6.888   8.891  64.484  1.00  0.00    -0.080 NA 
HETATM   33  N   UNL     1      -6.289  10.785  63.260  1.00  0.00    -0.366 NA 
HETATM   34  N   UNL     1      -5.326  10.473  65.327  1.00  0.00    -0.114 NA 
HETATM   35  C   UNL     1      -5.208   9.740  66.440  1.00  0.00    -0.043 A  
HETATM   36  H2  UNL     1      -6.936  10.519  62.517  1.00  0.00     0.000 HD 
HETATM   37  C   UNL     1      -5.881   8.562  66.628  1.00  0.00    -0.048 A  
HETATM   38  H1  UNL     1      -5.729  11.634  63.185  1.00  0.00     0.000 HD 
ENDBRANCH   8  30
ENDBRANCH   2   5
TORSDOF 6
ENDMDL
MODEL      198
REMARK 921   NORMALIZED FREE ENERGY PREDICTED BY IDOCK:   -4.52 KCAL/MOL
REMARK 922        TOTAL FREE ENERGY PREDICTED BY IDOCK:   -7.23 KCAL/MOL
REMARK 923 INTER-LIGAND FREE ENERGY PREDICTED BY IDOCK:   -6.36 KCAL/MOL
REMARK 924 INTRA-LIGAND FREE ENERGY PREDICTED BY IDOCK:   -0.87 KCAL/MOL
REMARK 927      BINDING AFFINITY PREDICTED BY RF-SCORE:    0.00 PKD
ROOT
HETATM    1  C   UNL     1     -11.497  11.875  63.451  1.00  0.00    -0.470 C  
HETATM    2  C   UNL     1     -11.758  13.072  64.383  1.00  0.00    -0.426 C  
HETATM    3  C   UNL     1     -13.030  12.760  65.206  1.00  0.00     0.095 C  
HETATM    4  C   UNL     1     -12.038  14.308  63.497  1.00  0.00     0.235 C  
ENDROOT
BRANCH   2   5
HETATM    5  C   UNL     1     -10.562  13.352  65.310  1.00  0.00    -0.325 A  
HETATM    6  N   UNL     1      -9.852  12.483  66.009  1.00  0.00    -0.257 NA 
HETATM    7  C   UNL     1      -8.808  13.120  66.722  1.00  0.00    -0.132 A  
HETATM    8  C   UNL     1      -8.796  14.508  66.585  1.00  0.00    -0.184 A  
HETATM    9  S   UNL     1     -10.020  14.967  65.460  1.00  0.00    -0.329 SA 
BRANCH   7  10
HETATM   10  C   UNL     1      -7.855  12.320  67.520  1.00  0.00    -0.166 A  
HETATM   11  C   UNL     1      -8.276  11.611  68.663  1.00  0.00    -0.110 A  
HETATM   12  C   UNL     1      -6.503  12.184  67.152  1.00  0.00    -0.135 A  
HETATM   13  F   UNL     1      -9.539  11.713  69.111  1.00  0.00    -0.114 F  
HETATM   14  C   UNL     1      -5.639  11.313  67.828  1.00  0.00    -0.044 A  
HETATM   15  C   UNL     1      -7.410  10.740  69.351  1.00  0.00    -0.128 A  
HETATM   16  C   UNL     1      -6.094  10.585  68.923  1.00  0.00    -0.040 A  
BRANCH  15  17
HETATM   17  N   UNL     1      -7.889   9.940  70.438  1.00  0.00    -0.225 N  
HETATM   18  H   UNL     1      -7.953  10.337  71.376  1.00  0.00     0.000 HD 
BRANCH  17  19
HETATM   19  S   UNL     1      -8.350   8.337  70.167  1.00  0.00    -0.127 S  
HETATM   20  O   UNL     1      -7.420   7.469  70.860  1.00  0.00    -0.071 OA 
HETATM   21  O   UNL     1      -8.538   8.200  68.738  1.00  0.00    -0.126 OA 
BRANCH  19  22
HETATM   22  C   UNL     1      -9.938   8.189  70.890  1.00  0.00    -0.187 A  
HETATM   23  C   UNL     1     -10.033   7.692  72.184  1.00  0.00    -0.183 A  
HETATM   24  F   UNL     1      -8.961   7.173  72.801  1.00  0.00    -0.138 F  
HETATM   25  C   UNL     1     -11.243   7.728  72.878  1.00  0.00    -0.434 A  
HETATM   26  C   UNL     1     -12.374   8.270  72.270  1.00  0.00    -0.410 A  
HETATM   27  C   UNL     1     -12.287   8.750  70.963  1.00  0.00    -0.186 A  
HETATM   28  C   UNL     1     -11.069   8.710  70.279  1.00  0.00    -0.217 A  
HETATM   29  F   UNL     1     -11.039   9.216  69.041  1.00  0.00    -0.200 F  
ENDBRANCH  19  22
ENDBRANCH  17  19
ENDBRANCH  15  17
ENDBRANCH   7  10
BRANCH   8  30
HETATM   30  C   UNL     1      -7.992  15.619  67.126  1.00  0.00    -0.219 A  
HETATM   31  C   UNL     1      -6.800  16.485  68.871  1.00  0.00    -0.186 A  
HETATM   32  N   UNL     1      -7.504  15.460  68.371  1.00  0.00    -0.112 NA 
HETATM   33  N   UNL     1      -6.284  16.368  70.140  1.00  0.00    -0.105 NA 
HETATM   34  N   UNL     1      -6.496  17.608  68.212  1.00  0.00    -0.184 NA 
HETATM   35  C   UNL     1      -6.967  17.720  66.965  1.00  0.00    -0.176 A  
HETATM   36  H2  UNL     1      -6.434  15.521  70.689  1.00  0.00     0.000 HD 
HETATM   37  C   UNL     1      -7.732  16.752  66.371  1.00  0.00    -0.345 A  
HETATM   38  H1  UNL     1      -5.748  17.148  70.521  1.00  0.00     0.000 HD 
ENDBRANCH   8  30
ENDBRANCH   2   5
TORSDOF 6
ENDMDL
MODEL      199
REMARK 921   NORMALIZED FREE ENERGY PREDICTED BY IDOCK:   -4.52 KCAL/MOL
REMARK 922        TOTAL FREE ENERGY PREDICTED BY IDOCK:   -7.23 KCAL/MOL
REMARK 923 INTER-LIGAND FREE ENERGY PREDICTED BY IDOCK:   -6.27 KCAL/MOL
REMARK 924 INTRA-LIGAND FREE ENERGY PREDICTED BY IDOCK:   -0.96 KCAL/MOL
REMARK 927      BINDING AFFINITY PREDICTED BY RF-SCORE:    0.00 PKD
ROOT
HETATM    1  C   UNL     1      -9.114   9.150  63.549  1.00  0.00     0.154 C  
HETATM    2  C   UNL     1      -9.262  10.677  63.672  1.00  0.00    -0.283 C  
HETATM    3  C   UNL     1     -10.648  11.064  63.104  1.00  0.00    -0.077 C  
HETATM    4  C   UNL     1      -8.171  11.330  62.791  1.00  0.00     0.098 C  
ENDROOT
BRANCH   2   5
HETATM    5  C   UNL     1      -9.115  11.156  65.127  1.00  0.00    -0.144 A  
HETATM    6  N   UNL     1      -8.530  10.532  66.135  1.00  0.00    -0.147 NA 
HETATM    7  C   UNL     1      -8.571  11.307  67.319  1.00  0.00    -0.143 A  
HETATM    8  C   UNL     1      -9.263  12.510  67.183  1.00  0.00    -0.205 A  
HETATM    9  S   UNL     1      -9.736  12.697  65.535  1.00  0.00    -0.019 SA 
BRANCH   7  10
HETATM   10  C   UNL     1      -7.916  10.820  68.551  1.00  0.00    -0.130 A  
HETATM   11  C   UNL     1      -8.459   9.750  69.291  1.00  0.00    -0.152 A  
HETATM   12  C   UNL     1      -6.702  11.359  69.015  1.00  0.00    -0.092 A  
HETATM   13  F   UNL     1      -9.635   9.199  68.945  1.00  0.00    -0.147 F  
HETATM   14  C   UNL     1      -6.014  10.800  70.100  1.00  0.00    -0.106 A  
HETATM   15  C   UNL     1      -7.777   9.189  70.386  1.00  0.00    -0.127 A  
HETATM   16  C   UNL     1      -6.547   9.711  70.781  1.00  0.00    -0.099 A  
BRANCH  15  17
HETATM   17  N   UNL     1      -8.288   8.028  71.051  1.00  0.00    -0.112 N  
HETATM   18  H   UNL     1      -8.047   7.097  70.712  1.00  0.00     0.000 HD 
BRANCH  17  19
HETATM   19  S   UNL     1      -9.292   8.202  72.400  1.00  0.00    -0.268 S  
HETATM   20  O   UNL     1     -10.392   9.072  72.043  1.00  0.00    -0.339 OA 
HETATM   21  O   UNL     1      -8.430   8.546  73.512  1.00  0.00    -0.365 OA 
BRANCH  19  22
HETATM   22  C   UNL     1      -9.900   6.593  72.727  1.00  0.00    -0.169 A  
HETATM   23  C   UNL     1      -9.015   5.637  73.212  1.00  0.00    -0.127 A  
HETATM   24  F   UNL     1      -7.698   5.882  73.263  1.00  0.00    -0.095 F  
HETATM   25  C   UNL     1      -9.476   4.401  73.667  1.00  0.00    -0.128 A  
HETATM   26  C   UNL     1     -10.840   4.117  73.639  1.00  0.00    -0.346 A  
HETATM   27  C   UNL     1     -11.727   5.065  73.132  1.00  0.00    -0.211 A  
HETATM   28  C   UNL     1     -11.255   6.301  72.681  1.00  0.00    -0.267 A  
HETATM   29  F   UNL     1     -12.157   7.184  72.237  1.00  0.00    -0.304 F  
ENDBRANCH  19  22
ENDBRANCH  17  19
ENDBRANCH  15  17
ENDBRANCH   7  10
BRANCH   8  30
HETATM   30  C   UNL     1      -9.635  13.625  68.072  1.00  0.00    -0.216 A  
HETATM   31  C   UNL     1     -11.285  14.868  69.044  1.00  0.00    -0.264 A  
HETATM   32  N   UNL     1     -10.951  13.835  68.260  1.00  0.00    -0.242 NA 
HETATM   33  N   UNL     1     -12.620  15.122  69.262  1.00  0.00    -0.541 NA 
HETATM   34  N   UNL     1     -10.423  15.654  69.697  1.00  0.00    -0.262 NA 
HETATM   35  C   UNL     1      -9.122  15.398  69.517  1.00  0.00    -0.231 A  
HETATM   36  H2  UNL     1     -13.339  14.536  68.836  1.00  0.00     0.000 HD 
HETATM   37  C   UNL     1      -8.669  14.393  68.704  1.00  0.00    -0.164 A  
HETATM   38  H1  UNL     1     -12.874  15.909  69.859  1.00  0.00     0.000 HD 
ENDBRANCH   8  30
ENDBRANCH   2   5
TORSDOF 6
ENDMDL
MODEL      200
REMARK 921   NORMALIZED FREE ENERGY PREDICTED BY IDOCK:   -4.51 KCAL/MOL
REMARK 922        TOTAL FREE ENERGY PREDICTED BY IDOCK:   -7.22 KCAL/MOL
REMARK 923 INTER-LIGAND FREE ENERGY PREDICTED BY IDOCK:   -6.54 KCAL/MOL
REMARK 924 INTRA-LIGAND FREE ENERGY PREDICTED BY IDOCK:   -0.67 KCAL/MOL
REMARK 927      BINDING AFFINITY PREDICTED BY RF-SCORE:    0.00 PKD
ROOT
HETATM    1  C   UNL     1     -11.210   5.376  73.007  1.00  0.00    -0.370 C  
HETATM    2  C   UNL     1      -9.698   5.265  72.740  1.00  0.00    -0.171 C  
HETATM    3  C   UNL     1      -9.343   3.762  72.652  1.00  0.00    -0.154 C  
HETATM    4  C   UNL     1      -8.958   5.873  73.954  1.00  0.00    -0.126 C  
ENDROOT
BRANCH   2   5
HETATM    5  C   UNL     1      -9.284   6.000  71.453  1.00  0.00    -0.143 A  
HETATM    6  N   UNL     1      -8.850   7.242  71.328  1.00  0.00    -0.135 NA 
HETATM    7  C   UNL     1      -8.539   7.551  69.981  1.00  0.00    -0.139 A  
HETATM    8  C   UNL     1      -8.815   6.516  69.087  1.00  0.00    -0.128 A  
HETATM    9  S   UNL     1      -9.339   5.135  69.978  1.00  0.00    -0.158 SA 
BRANCH   7  10
HETATM   10  C   UNL     1      -7.976   8.871  69.630  1.00  0.00    -0.092 A  
HETATM   11  C   UNL     1      -8.800   9.911  69.154  1.00  0.00    -0.164 A  
HETATM   12  C   UNL     1      -6.612   9.171  69.801  1.00  0.00    -0.046 A  
HETATM   13  F   UNL     1     -10.107   9.705  68.923  1.00  0.00    -0.165 F  
HETATM   14  C   UNL     1      -6.110  10.464  69.602  1.00  0.00    -0.052 A  
HETATM   15  C   UNL     1      -8.300  11.210  68.945  1.00  0.00    -0.099 A  
HETATM   16  C   UNL     1      -6.956  11.486  69.182  1.00  0.00    -0.113 A  
BRANCH  15  17
HETATM   17  N   UNL     1      -9.177  12.281  68.574  1.00  0.00    -0.360 N  
HETATM   18  H   UNL     1     -10.018  12.465  69.121  1.00  0.00     0.000 HD 
BRANCH  17  19
HETATM   19  S   UNL     1      -8.816  13.240  67.229  1.00  0.00    -0.223 S  
HETATM   20  O   UNL     1      -7.512  12.857  66.730  1.00  0.00     0.147 OA 
HETATM   21  O   UNL     1      -9.066  14.611  67.624  1.00  0.00    -0.184 OA 
BRANCH  19  22
HETATM   22  C   UNL     1     -10.039  12.838  66.042  1.00  0.00    -0.268 A  
HETATM   23  C   UNL     1     -10.785  13.871  65.486  1.00  0.00    -0.302 A  
HETATM   24  F   UNL     1     -10.699  15.118  65.968  1.00  0.00    -0.293 F  
HETATM   25  C   UNL     1     -11.636  13.636  64.405  1.00  0.00    -0.421 A  
HETATM   26  C   UNL     1     -11.742  12.352  63.872  1.00  0.00    -0.529 A  
HETATM   27  C   UNL     1     -11.011  11.311  64.443  1.00  0.00    -0.331 A  
HETATM   28  C   UNL     1     -10.160  11.558  65.523  1.00  0.00    -0.243 A  
HETATM   29  F   UNL     1      -9.459  10.526  66.007  1.00  0.00    -0.183 F  
ENDBRANCH  19  22
ENDBRANCH  17  19
ENDBRANCH  15  17
ENDBRANCH   7  10
BRANCH   8  30
HETATM   30  C   UNL     1      -8.732   6.327  67.628  1.00  0.00    -0.113 A  
HETATM   31  C   UNL     1      -9.477   5.238  65.764  1.00  0.00    -0.117 A  
HETATM   32  N   UNL     1      -9.577   5.430  67.086  1.00  0.00    -0.129 NA 
HETATM   33  N   UNL     1     -10.319   4.328  65.168  1.00  0.00    -0.432 NA 
HETATM   34  N   UNL     1      -8.658   5.907  64.946  1.00  0.00    -0.089 NA 
HETATM   35  C   UNL     1      -7.856   6.816  65.510  1.00  0.00    -0.112 A  
HETATM   36  H2  UNL     1     -11.004   3.811  65.719  1.00  0.00     0.000 HD 
HETATM   37  C   UNL     1      -7.845   7.063  66.857  1.00  0.00    -0.107 A  
HETATM   38  H1  UNL     1     -10.243   4.182  64.161  1.00  0.00     0.000 HD 
ENDBRANCH   8  30
ENDBRANCH   2   5
TORSDOF 6
ENDMDL
MODEL      201
REMARK 921   NORMALIZED FREE ENERGY PREDICTED BY IDOCK:   -4.50 KCAL/MOL
REMARK 922        TOTAL FREE ENERGY PREDICTED BY IDOCK:   -7.20 KCAL/MOL
REMARK 923 INTER-LIGAND FREE ENERGY PREDICTED BY IDOCK:   -5.79 KCAL/MOL
REMARK 924 INTRA-LIGAND FREE ENERGY PREDICTED BY IDOCK:   -1.42 KCAL/MOL
REMARK 927      BINDING AFFINITY PREDICTED BY RF-SCORE:    0.00 PKD
ROOT
HETATM    1  C   UNL     1      -9.350   9.653  64.870  1.00  0.00    -0.306 C  
HETATM    2  C   UNL     1      -8.622  10.532  65.903  1.00  0.00    -0.170 C  
HETATM    3  C   UNL     1      -9.260  11.941  65.855  1.00  0.00    -0.147 C  
HETATM    4  C   UNL     1      -7.144  10.648  65.467  1.00  0.00    -0.048 C  
ENDROOT
BRANCH   2   5
HETATM    5  C   UNL     1      -8.706   9.943  67.322  1.00  0.00    -0.128 A  
HETATM    6  N   UNL     1      -9.786   9.723  68.051  1.00  0.00    -0.145 NA 
HETATM    7  C   UNL     1      -9.461   9.139  69.299  1.00  0.00    -0.158 A  
HETATM    8  C   UNL     1      -8.091   8.986  69.510  1.00  0.00    -0.105 A  
HETATM    9  S   UNL     1      -7.251   9.461  68.082  1.00  0.00    -0.078 SA 
BRANCH   7  10
HETATM   10  C   UNL     1     -10.531   8.754  70.243  1.00  0.00    -0.231 A  
HETATM   11  C   UNL     1     -10.818   7.399  70.506  1.00  0.00    -0.243 A  
HETATM   12  C   UNL     1     -11.275   9.710  70.959  1.00  0.00    -0.445 A  
HETATM   13  F   UNL     1     -10.186   6.418  69.841  1.00  0.00    -0.181 F  
HETATM   14  C   UNL     1     -12.188   9.340  71.955  1.00  0.00    -0.448 A  
HETATM   15  C   UNL     1     -11.740   7.021  71.500  1.00  0.00    -0.300 A  
HETATM   16  C   UNL     1     -12.415   7.995  72.231  1.00  0.00    -0.302 A  
BRANCH  15  17
HETATM   17  N   UNL     1     -11.931   5.641  71.834  1.00  0.00     0.124 N  
HETATM   18  H   UNL     1     -12.551   5.060  71.269  1.00  0.00     0.000 HD 
BRANCH  17  19
HETATM   19  S   UNL     1     -11.130   4.976  73.165  1.00  0.00    -0.335 S  
HETATM   20  O   UNL     1     -12.025   4.046  73.821  1.00  0.00     0.076 OA 
HETATM   21  O   UNL     1     -10.573   6.088  73.907  1.00  0.00    -0.268 OA 
BRANCH  19  22
HETATM   22  C   UNL     1      -9.770   4.103  72.490  1.00  0.00    -0.149 A  
HETATM   23  C   UNL     1      -9.923   2.749  72.215  1.00  0.00    -0.169 A  
HETATM   24  F   UNL     1     -11.016   2.086  72.617  1.00  0.00    -0.232 F  
HETATM   25  C   UNL     1      -8.946   2.048  71.507  1.00  0.00    -0.133 A  
HETATM   26  C   UNL     1      -7.801   2.710  71.065  1.00  0.00    -0.049 A  
HETATM   27  C   UNL     1      -7.635   4.063  71.359  1.00  0.00    -0.063 A  
HETATM   28  C   UNL     1      -8.621   4.755  72.067  1.00  0.00    -0.120 A  
HETATM   29  F   UNL     1      -8.422   6.060  72.289  1.00  0.00    -0.116 F  
ENDBRANCH  19  22
ENDBRANCH  17  19
ENDBRANCH  15  17
ENDBRANCH   7  10
BRANCH   8  30
HETATM   30  C   UNL     1      -7.237   8.499  70.609  1.00  0.00    -0.052 A  
HETATM   31  C   UNL     1      -6.731   8.525  72.835  1.00  0.00    -0.048 A  
HETATM   32  N   UNL     1      -7.529   8.945  71.844  1.00  0.00    -0.324 NA 
HETATM   33  N   UNL     1      -6.992   8.958  74.115  1.00  0.00    -0.383 NA 
HETATM   34  N   UNL     1      -5.722   7.658  72.700  1.00  0.00    -0.040 NA 
HETATM   35  C   UNL     1      -5.479   7.207  71.465  1.00  0.00    -0.035 A  
HETATM   36  H2  UNL     1      -7.774   9.584  74.305  1.00  0.00     0.000 HD 
HETATM   37  C   UNL     1      -6.205   7.603  70.373  1.00  0.00    -0.033 A  
HETATM   38  H1  UNL     1      -6.384   8.638  74.869  1.00  0.00     0.000 HD 
ENDBRANCH   8  30
ENDBRANCH   2   5
TORSDOF 6
ENDMDL
MODEL      202
REMARK 921   NORMALIZED FREE ENERGY PREDICTED BY IDOCK:   -4.50 KCAL/MOL
REMARK 922        TOTAL FREE ENERGY PREDICTED BY IDOCK:   -7.20 KCAL/MOL
REMARK 923 INTER-LIGAND FREE ENERGY PREDICTED BY IDOCK:   -6.08 KCAL/MOL
REMARK 924 INTRA-LIGAND FREE ENERGY PREDICTED BY IDOCK:   -1.12 KCAL/MOL
REMARK 927      BINDING AFFINITY PREDICTED BY RF-SCORE:    0.00 PKD
ROOT
HETATM    1  C   UNL     1      -6.099  18.371  67.693  1.00  0.00    -0.176 C  
HETATM    2  C   UNL     1      -7.539  18.335  67.151  1.00  0.00    -0.227 C  
HETATM    3  C   UNL     1      -7.569  19.152  65.838  1.00  0.00    -0.239 C  
HETATM    4  C   UNL     1      -8.451  19.034  68.185  1.00  0.00    -0.351 C  
ENDROOT
BRANCH   2   5
HETATM    5  C   UNL     1      -8.028  16.896  66.910  1.00  0.00    -0.213 A  
HETATM    6  N   UNL     1      -7.607  15.784  67.489  1.00  0.00    -0.152 NA 
HETATM    7  C   UNL     1      -8.323  14.653  67.025  1.00  0.00    -0.185 A  
HETATM    8  C   UNL     1      -9.255  14.946  66.030  1.00  0.00    -0.175 A  
HETATM    9  S   UNL     1      -9.300  16.653  65.792  1.00  0.00     0.109 SA 
BRANCH   7  10
HETATM   10  C   UNL     1      -8.050  13.316  67.592  1.00  0.00    -0.174 A  
HETATM   11  C   UNL     1      -8.904  12.746  68.557  1.00  0.00    -0.040 A  
HETATM   12  C   UNL     1      -6.966  12.530  67.161  1.00  0.00    -0.060 A  
HETATM   13  F   UNL     1      -9.942  13.439  69.055  1.00  0.00    -0.150 F  
HETATM   14  C   UNL     1      -6.794  11.209  67.596  1.00  0.00    -0.076 A  
HETATM   15  C   UNL     1      -8.732  11.422  69.004  1.00  0.00     0.091 A  
HETATM   16  C   UNL     1      -7.682  10.652  68.511  1.00  0.00    -0.107 A  
BRANCH  15  17
HETATM   17  N   UNL     1      -9.678  10.822  69.897  1.00  0.00    -0.314 N  
HETATM   18  H   UNL     1      -9.634  11.020  70.896  1.00  0.00     0.000 HD 
BRANCH  17  19
HETATM   19  S   UNL     1     -10.869   9.785  69.292  1.00  0.00    -0.193 S  
HETATM   20  O   UNL     1     -11.284  10.272  67.993  1.00  0.00    -0.293 OA 
HETATM   21  O   UNL     1     -11.846   9.622  70.348  1.00  0.00    -0.240 OA 
BRANCH  19  22
HETATM   22  C   UNL     1     -10.074   8.235  69.111  1.00  0.00    -0.202 A  
HETATM   23  C   UNL     1     -10.011   7.668  67.843  1.00  0.00    -0.169 A  
HETATM   24  F   UNL     1     -10.688   8.202  66.817  1.00  0.00    -0.389 F  
HETATM   25  C   UNL     1      -9.232   6.535  67.605  1.00  0.00    -0.113 A  
HETATM   26  C   UNL     1      -8.506   5.961  68.647  1.00  0.00    -0.111 A  
HETATM   27  C   UNL     1      -8.586   6.515  69.925  1.00  0.00    -0.139 A  
HETATM   28  C   UNL     1      -9.367   7.651  70.152  1.00  0.00    -0.157 A  
HETATM   29  F   UNL     1      -9.378   8.157  71.390  1.00  0.00    -0.151 F  
ENDBRANCH  19  22
ENDBRANCH  17  19
ENDBRANCH  15  17
ENDBRANCH   7  10
BRANCH   8  30
HETATM   30  C   UNL     1     -10.194  14.171  65.199  1.00  0.00    -0.384 A  
HETATM   31  C   UNL     1     -12.023  14.158  63.831  1.00  0.00    -0.243 A  
HETATM   32  N   UNL     1     -11.153  14.869  64.561  1.00  0.00    -0.289 NA 
HETATM   33  N   UNL     1     -13.021  14.830  63.164  1.00  0.00     0.514 NA 
HETATM   34  N   UNL     1     -11.973  12.836  63.640  1.00  0.00    -0.501 NA 
HETATM   35  C   UNL     1     -10.988  12.176  64.259  1.00  0.00    -0.339 A  
HETATM   36  H2  UNL     1     -13.097  15.845  63.224  1.00  0.00     0.000 HD 
HETATM   37  C   UNL     1     -10.068  12.797  65.063  1.00  0.00    -0.239 A  
HETATM   38  H1  UNL     1     -13.684  14.288  62.609  1.00  0.00     0.000 HD 
ENDBRANCH   8  30
ENDBRANCH   2   5
TORSDOF 6
ENDMDL
MODEL      203
REMARK 921   NORMALIZED FREE ENERGY PREDICTED BY IDOCK:   -4.48 KCAL/MOL
REMARK 922        TOTAL FREE ENERGY PREDICTED BY IDOCK:   -7.18 KCAL/MOL
REMARK 923 INTER-LIGAND FREE ENERGY PREDICTED BY IDOCK:   -7.48 KCAL/MOL
REMARK 924 INTRA-LIGAND FREE ENERGY PREDICTED BY IDOCK:    0.30 KCAL/MOL
REMARK 927      BINDING AFFINITY PREDICTED BY RF-SCORE:    0.00 PKD
ROOT
HETATM    1  C   UNL     1      -9.899   4.425  68.689  1.00  0.00    -0.141 C  
HETATM    2  C   UNL     1      -9.371   4.942  67.338  1.00  0.00    -0.145 C  
HETATM    3  C   UNL     1     -10.407   4.566  66.252  1.00  0.00    -0.227 C  
HETATM    4  C   UNL     1      -8.049   4.201  67.033  1.00  0.00    -0.100 C  
ENDROOT
BRANCH   2   5
HETATM    5  C   UNL     1      -9.128   6.461  67.358  1.00  0.00    -0.111 A  
HETATM    6  N   UNL     1      -9.936   7.410  67.797  1.00  0.00    -0.158 NA 
HETATM    7  C   UNL     1      -9.346   8.692  67.677  1.00  0.00    -0.137 A  
HETATM    8  C   UNL     1      -8.089   8.680  67.073  1.00  0.00    -0.100 A  
HETATM    9  S   UNL     1      -7.624   7.044  66.787  1.00  0.00    -0.091 SA 
BRANCH   7  10
HETATM   10  C   UNL     1     -10.059   9.889  68.170  1.00  0.00    -0.193 A  
HETATM   11  C   UNL     1     -10.282  11.000  67.332  1.00  0.00    -0.195 A  
HETATM   12  C   UNL     1     -10.591   9.958  69.470  1.00  0.00    -0.264 A  
HETATM   13  F   UNL     1      -9.777  11.039  66.087  1.00  0.00    -0.214 F  
HETATM   14  C   UNL     1     -11.387  11.034  69.885  1.00  0.00    -0.364 A  
HETATM   15  C   UNL     1     -11.075  12.088  67.745  1.00  0.00    -0.249 A  
HETATM   16  C   UNL     1     -11.636  12.095  69.020  1.00  0.00    -0.374 A  
BRANCH  15  17
HETATM   17  N   UNL     1     -11.387  13.152  66.839  1.00  0.00    -0.304 N  
HETATM   18  H   UNL     1     -12.358  13.344  66.592  1.00  0.00     0.000 HD 
BRANCH  17  19
HETATM   19  S   UNL     1     -10.145  14.091  66.180  1.00  0.00    -0.318 S  
HETATM   20  O   UNL     1     -10.401  14.260  64.765  1.00  0.00    -0.433 OA 
HETATM   21  O   UNL     1      -8.902  13.496  66.623  1.00  0.00    -0.179 OA 
BRANCH  19  22
HETATM   22  C   UNL     1     -10.266  15.640  66.987  1.00  0.00    -0.274 A  
HETATM   23  C   UNL     1     -11.219  15.793  67.987  1.00  0.00    -0.338 A  
HETATM   24  F   UNL     1     -12.139  14.844  68.210  1.00  0.00    -0.327 F  
HETATM   25  C   UNL     1     -11.237  16.934  68.790  1.00  0.00    -0.058 A  
HETATM   26  C   UNL     1     -10.288  17.936  68.592  1.00  0.00    -0.342 A  
HETATM   27  C   UNL     1      -9.345  17.795  67.574  1.00  0.00    -0.245 A  
HETATM   28  C   UNL     1      -9.335  16.647  66.777  1.00  0.00    -0.244 A  
HETATM   29  F   UNL     1      -8.386  16.553  65.839  1.00  0.00    -0.339 F  
ENDBRANCH  19  22
ENDBRANCH  17  19
ENDBRANCH  15  17
ENDBRANCH   7  10
BRANCH   8  30
HETATM   30  C   UNL     1      -7.096   9.693  66.674  1.00  0.00    -0.086 A  
HETATM   31  C   UNL     1      -5.777  10.583  65.036  1.00  0.00    -0.131 A  
HETATM   32  N   UNL     1      -6.703   9.680  65.387  1.00  0.00    -0.085 NA 
HETATM   33  N   UNL     1      -5.343  10.603  63.730  1.00  0.00    -0.256 NA 
HETATM   34  N   UNL     1      -5.270  11.523  65.840  1.00  0.00    -0.289 NA 
HETATM   35  C   UNL     1      -5.707  11.532  67.104  1.00  0.00    -0.108 A  
HETATM   36  H2  UNL     1      -5.718   9.947  63.045  1.00  0.00     0.000 HD 
HETATM   37  C   UNL     1      -6.621  10.629  67.581  1.00  0.00    -0.061 A  
HETATM   38  H1  UNL     1      -4.638  11.291  63.463  1.00  0.00     0.000 HD 
ENDBRANCH   8  30
ENDBRANCH   2   5
TORSDOF 6
ENDMDL
MODEL      204
REMARK 921   NORMALIZED FREE ENERGY PREDICTED BY IDOCK:   -4.47 KCAL/MOL
REMARK 922        TOTAL FREE ENERGY PREDICTED BY IDOCK:   -7.16 KCAL/MOL
REMARK 923 INTER-LIGAND FREE ENERGY PREDICTED BY IDOCK:   -7.40 KCAL/MOL
REMARK 924 INTRA-LIGAND FREE ENERGY PREDICTED BY IDOCK:    0.24 KCAL/MOL
REMARK 927      BINDING AFFINITY PREDICTED BY RF-SCORE:    0.00 PKD
ROOT
HETATM    1  C   UNL     1      -6.814  14.501  70.351  1.00  0.00     0.132 C  
HETATM    2  C   UNL     1      -6.433  14.021  68.939  1.00  0.00    -0.096 C  
HETATM    3  C   UNL     1      -5.130  13.195  69.058  1.00  0.00    -0.069 C  
HETATM    4  C   UNL     1      -6.145  15.270  68.076  1.00  0.00    -0.157 C  
ENDROOT
BRANCH   2   5
HETATM    5  C   UNL     1      -7.552  13.185  68.293  1.00  0.00    -0.139 A  
HETATM    6  N   UNL     1      -7.832  11.908  68.489  1.00  0.00    -0.139 NA 
HETATM    7  C   UNL     1      -8.959  11.501  67.734  1.00  0.00    -0.160 A  
HETATM    8  C   UNL     1      -9.479  12.501  66.913  1.00  0.00    -0.219 A  
HETATM    9  S   UNL     1      -8.617  13.966  67.206  1.00  0.00    -0.202 SA 
BRANCH   7  10
HETATM   10  C   UNL     1      -9.480  10.123  67.857  1.00  0.00    -0.154 A  
HETATM   11  C   UNL     1      -9.744   9.554  69.119  1.00  0.00    -0.178 A  
HETATM   12  C   UNL     1      -9.784   9.337  66.731  1.00  0.00    -0.260 A  
HETATM   13  F   UNL     1      -9.448  10.216  70.250  1.00  0.00    -0.254 F  
HETATM   14  C   UNL     1     -10.409   8.089  66.849  1.00  0.00    -0.408 A  
HETATM   15  C   UNL     1     -10.365   8.297  69.245  1.00  0.00    -0.218 A  
HETATM   16  C   UNL     1     -10.707   7.572  68.106  1.00  0.00    -0.145 A  
BRANCH  15  17
HETATM   17  N   UNL     1     -10.732   7.788  70.533  1.00  0.00    -0.232 N  
HETATM   18  H   UNL     1     -11.019   8.428  71.273  1.00  0.00     0.000 HD 
BRANCH  17  19
HETATM   19  S   UNL     1     -10.691   6.123  70.825  1.00  0.00    -0.283 S  
HETATM   20  O   UNL     1     -10.150   5.466  69.654  1.00  0.00    -0.203 OA 
HETATM   21  O   UNL     1     -12.005   5.760  71.315  1.00  0.00     0.179 OA 
BRANCH  19  22
HETATM   22  C   UNL     1      -9.590   5.923  72.172  1.00  0.00    -0.148 A  
HETATM   23  C   UNL     1      -9.956   6.441  73.408  1.00  0.00    -0.191 A  
HETATM   24  F   UNL     1     -11.037   7.225  73.533  1.00  0.00    -0.371 F  
HETATM   25  C   UNL     1      -9.213   6.151  74.554  1.00  0.00    -0.173 A  
HETATM   26  C   UNL     1      -8.090   5.330  74.462  1.00  0.00    -0.101 A  
HETATM   27  C   UNL     1      -7.708   4.828  73.218  1.00  0.00    -0.092 A  
HETATM   28  C   UNL     1      -8.461   5.123  72.078  1.00  0.00    -0.126 A  
HETATM   29  F   UNL     1      -8.065   4.585  70.919  1.00  0.00    -0.070 F  
ENDBRANCH  19  22
ENDBRANCH  17  19
ENDBRANCH  15  17
ENDBRANCH   7  10
BRANCH   8  30
HETATM   30  C   UNL     1     -10.568  12.600  65.925  1.00  0.00    -0.273 A  
HETATM   31  C   UNL     1     -12.593  13.483  65.348  1.00  0.00    -0.483 A  
HETATM   32  N   UNL     1     -11.591  13.419  66.234  1.00  0.00    -0.330 NA 
HETATM   33  N   UNL     1     -13.661  14.305  65.623  1.00  0.00    -0.396 NA 
HETATM   34  N   UNL     1     -12.623  12.854  64.168  1.00  0.00    -0.665 NA 
HETATM   35  C   UNL     1     -11.576  12.075  63.876  1.00  0.00    -0.449 A  
HETATM   36  H2  UNL     1     -13.689  14.854  66.483  1.00  0.00     0.000 HD 
HETATM   37  C   UNL     1     -10.516  11.905  64.727  1.00  0.00    -0.333 A  
HETATM   38  H1  UNL     1     -14.424  14.354  64.948  1.00  0.00     0.000 HD 
ENDBRANCH   8  30
ENDBRANCH   2   5
TORSDOF 6
ENDMDL
MODEL      205
REMARK 921   NORMALIZED FREE ENERGY PREDICTED BY IDOCK:   -4.47 KCAL/MOL
REMARK 922        TOTAL FREE ENERGY PREDICTED BY IDOCK:   -7.16 KCAL/MOL
REMARK 923 INTER-LIGAND FREE ENERGY PREDICTED BY IDOCK:   -6.96 KCAL/MOL
REMARK 924 INTRA-LIGAND FREE ENERGY PREDICTED BY IDOCK:   -0.20 KCAL/MOL
REMARK 927      BINDING AFFINITY PREDICTED BY RF-SCORE:    0.00 PKD
ROOT
HETATM    1  C   UNL     1      -8.364   8.288  73.982  1.00  0.00    -0.259 C  
HETATM    2  C   UNL     1      -8.709   6.853  73.547  1.00  0.00    -0.156 C  
HETATM    3  C   UNL     1     -10.064   6.477  74.193  1.00  0.00    -0.374 C  
HETATM    4  C   UNL     1      -7.619   5.913  74.113  1.00  0.00    -0.091 C  
ENDROOT
BRANCH   2   5
HETATM    5  C   UNL     1      -8.777   6.715  72.016  1.00  0.00    -0.127 A  
HETATM    6  N   UNL     1      -9.203   7.604  71.136  1.00  0.00    -0.146 NA 
HETATM    7  C   UNL     1      -9.083   7.122  69.810  1.00  0.00    -0.141 A  
HETATM    8  C   UNL     1      -8.610   5.813  69.727  1.00  0.00    -0.127 A  
HETATM    9  S   UNL     1      -8.207   5.264  71.311  1.00  0.00    -0.121 SA 
BRANCH   7  10
HETATM   10  C   UNL     1      -9.447   7.986  68.667  1.00  0.00    -0.147 A  
HETATM   11  C   UNL     1      -8.932   9.292  68.548  1.00  0.00    -0.129 A  
HETATM   12  C   UNL     1     -10.276   7.534  67.624  1.00  0.00    -0.275 A  
HETATM   13  F   UNL     1      -8.163   9.821  69.515  1.00  0.00    -0.094 F  
HETATM   14  C   UNL     1     -10.503   8.304  66.476  1.00  0.00    -0.058 A  
HETATM   15  C   UNL     1      -9.162  10.074  67.401  1.00  0.00    -0.137 A  
HETATM   16  C   UNL     1      -9.939   9.571  66.360  1.00  0.00    -0.339 A  
BRANCH  15  17
HETATM   17  N   UNL     1      -8.533  11.352  67.247  1.00  0.00    -0.143 N  
HETATM   18  H   UNL     1      -7.649  11.429  66.744  1.00  0.00     0.000 HD 
BRANCH  17  19
HETATM   19  S   UNL     1      -9.257  12.732  67.901  1.00  0.00    -0.211 S  
HETATM   20  O   UNL     1      -8.214  13.662  68.279  1.00  0.00    -0.145 OA 
HETATM   21  O   UNL     1     -10.206  12.268  68.892  1.00  0.00    -0.148 OA 
BRANCH  19  22
HETATM   22  C   UNL     1     -10.204  13.413  66.594  1.00  0.00    -0.274 A  
HETATM   23  C   UNL     1     -11.462  12.880  66.340  1.00  0.00    -0.341 A  
HETATM   24  F   UNL     1     -11.872  11.763  66.958  1.00  0.00    -0.370 F  
HETATM   25  C   UNL     1     -12.333  13.499  65.443  1.00  0.00    -0.517 A  
HETATM   26  C   UNL     1     -11.943  14.668  64.792  1.00  0.00    -0.439 A  
HETATM   27  C   UNL     1     -10.672  15.192  65.028  1.00  0.00    -0.451 A  
HETATM   28  C   UNL     1      -9.808  14.565  65.930  1.00  0.00    -0.321 A  
HETATM   29  F   UNL     1      -8.616  15.134  66.141  1.00  0.00    -0.286 F  
ENDBRANCH  19  22
ENDBRANCH  17  19
ENDBRANCH  15  17
ENDBRANCH   7  10
BRANCH   8  30
HETATM   30  C   UNL     1      -8.353   4.846  68.644  1.00  0.00    -0.083 A  
HETATM   31  C   UNL     1      -6.916   3.372  67.655  1.00  0.00    -0.050 A  
HETATM   32  N   UNL     1      -7.158   4.226  68.659  1.00  0.00    -0.051 NA 
HETATM   33  N   UNL     1      -5.707   2.717  67.629  1.00  0.00    -0.018 NA 
HETATM   34  N   UNL     1      -7.784   3.046  66.692  1.00  0.00    -0.076 NA 
HETATM   35  C   UNL     1      -8.975   3.653  66.725  1.00  0.00    -0.142 A  
HETATM   36  H2  UNL     1      -5.010   2.879  68.357  1.00  0.00     0.000 HD 
HETATM   37  C   UNL     1      -9.313   4.575  67.681  1.00  0.00    -0.176 A  
HETATM   38  H1  UNL     1      -5.522   2.067  66.865  1.00  0.00     0.000 HD 
ENDBRANCH   8  30
ENDBRANCH   2   5
TORSDOF 6
ENDMDL
MODEL      206
REMARK 921   NORMALIZED FREE ENERGY PREDICTED BY IDOCK:   -4.47 KCAL/MOL
REMARK 922        TOTAL FREE ENERGY PREDICTED BY IDOCK:   -7.16 KCAL/MOL
REMARK 923 INTER-LIGAND FREE ENERGY PREDICTED BY IDOCK:   -7.21 KCAL/MOL
REMARK 924 INTRA-LIGAND FREE ENERGY PREDICTED BY IDOCK:    0.05 KCAL/MOL
REMARK 927      BINDING AFFINITY PREDICTED BY RF-SCORE:    0.00 PKD
ROOT
HETATM    1  C   UNL     1      -9.882   5.203  69.035  1.00  0.00    -0.246 C  
HETATM    2  C   UNL     1     -10.223   6.555  69.686  1.00  0.00    -0.220 C  
HETATM    3  C   UNL     1      -9.289   6.741  70.905  1.00  0.00    -0.157 C  
HETATM    4  C   UNL     1     -11.682   6.482  70.193  1.00  0.00    -0.419 C  
ENDROOT
BRANCH   2   5
HETATM    5  C   UNL     1     -10.070   7.725  68.698  1.00  0.00    -0.199 A  
HETATM    6  N   UNL     1     -10.812   8.815  68.604  1.00  0.00    -0.051 NA 
HETATM    7  C   UNL     1     -10.339   9.679  67.587  1.00  0.00    -0.237 A  
HETATM    8  C   UNL     1      -9.252   9.172  66.876  1.00  0.00    -0.148 A  
HETATM    9  S   UNL     1      -8.770   7.677  67.587  1.00  0.00    -0.121 SA 
BRANCH   7  10
HETATM   10  C   UNL     1     -10.991  10.986  67.357  1.00  0.00    -0.349 A  
HETATM   11  C   UNL     1     -11.335  11.828  68.433  1.00  0.00    -0.270 A  
HETATM   12  C   UNL     1     -11.251  11.473  66.063  1.00  0.00    -0.240 A  
HETATM   13  F   UNL     1     -11.160  11.430  69.705  1.00  0.00    -0.274 F  
HETATM   14  C   UNL     1     -11.737  12.769  65.846  1.00  0.00    -0.464 A  
HETATM   15  C   UNL     1     -11.831  13.128  68.223  1.00  0.00    -0.349 A  
HETATM   16  C   UNL     1     -12.020  13.600  66.926  1.00  0.00    -0.454 A  
BRANCH  15  17
HETATM   17  N   UNL     1     -12.064  14.011  69.327  1.00  0.00    -0.371 N  
HETATM   18  H   UNL     1     -12.676  13.724  70.090  1.00  0.00     0.000 HD 
BRANCH  17  19
HETATM   19  S   UNL     1     -11.322  15.530  69.363  1.00  0.00    -0.344 S  
HETATM   20  O   UNL     1     -10.843  15.773  70.708  1.00  0.00    -0.312 OA 
HETATM   21  O   UNL     1     -12.251  16.455  68.748  1.00  0.00     0.152 OA 
BRANCH  19  22
HETATM   22  C   UNL     1      -9.960  15.399  68.270  1.00  0.00    -0.214 A  
HETATM   23  C   UNL     1     -10.075  15.953  67.001  1.00  0.00    -0.268 A  
HETATM   24  F   UNL     1     -11.252  16.418  66.558  1.00  0.00    -0.117 F  
HETATM   25  C   UNL     1      -8.966  16.047  66.159  1.00  0.00    -0.381 A  
HETATM   26  C   UNL     1      -7.726  15.582  66.592  1.00  0.00     0.011 A  
HETATM   27  C   UNL     1      -7.613  15.006  67.857  1.00  0.00    -0.150 A  
HETATM   28  C   UNL     1      -8.729  14.919  68.692  1.00  0.00    -0.177 A  
HETATM   29  F   UNL     1      -8.552  14.387  69.908  1.00  0.00     0.277 F  
ENDBRANCH  19  22
ENDBRANCH  17  19
ENDBRANCH  15  17
ENDBRANCH   7  10
BRANCH   8  30
HETATM   30  C   UNL     1      -8.434   9.616  65.732  1.00  0.00    -0.133 A  
HETATM   31  C   UNL     1      -6.537  10.640  64.982  1.00  0.00     0.067 A  
HETATM   32  N   UNL     1      -7.262  10.211  66.023  1.00  0.00    -0.112 NA 
HETATM   33  N   UNL     1      -5.333  11.257  65.232  1.00  0.00    -0.502 NA 
HETATM   34  N   UNL     1      -6.853  10.467  63.695  1.00  0.00    -0.064 NA 
HETATM   35  C   UNL     1      -8.008   9.841  63.439  1.00  0.00    -0.147 A  
HETATM   36  H2  UNL     1      -5.000  11.384  66.188  1.00  0.00     0.000 HD 
HETATM   37  C   UNL     1      -8.847   9.398  64.427  1.00  0.00    -0.225 A  
HETATM   38  H1  UNL     1      -4.780  11.584  64.439  1.00  0.00     0.000 HD 
ENDBRANCH   8  30
ENDBRANCH   2   5
TORSDOF 6
ENDMDL
MODEL      207
REMARK 921   NORMALIZED FREE ENERGY PREDICTED BY IDOCK:   -4.42 KCAL/MOL
REMARK 922        TOTAL FREE ENERGY PREDICTED BY IDOCK:   -7.10 KCAL/MOL
REMARK 923 INTER-LIGAND FREE ENERGY PREDICTED BY IDOCK:   -6.74 KCAL/MOL
REMARK 924 INTRA-LIGAND FREE ENERGY PREDICTED BY IDOCK:   -0.35 KCAL/MOL
REMARK 927      BINDING AFFINITY PREDICTED BY RF-SCORE:    0.00 PKD
ROOT
HETATM    1  C   UNL     1     -10.635  17.307  67.137  1.00  0.00    -0.256 C  
HETATM    2  C   UNL     1      -9.878  16.482  68.194  1.00  0.00    -0.244 C  
HETATM    3  C   UNL     1     -10.468  16.836  69.579  1.00  0.00    -0.263 C  
HETATM    4  C   UNL     1      -8.397  16.923  68.165  1.00  0.00    -0.212 C  
ENDROOT
BRANCH   2   5
HETATM    5  C   UNL     1      -9.981  14.971  67.926  1.00  0.00    -0.222 A  
HETATM    6  N   UNL     1     -10.314  14.014  68.775  1.00  0.00    -0.240 NA 
HETATM    7  C   UNL     1     -10.326  12.744  68.148  1.00  0.00    -0.239 A  
HETATM    8  C   UNL     1      -9.929  12.771  66.812  1.00  0.00    -0.237 A  
HETATM    9  S   UNL     1      -9.672  14.410  66.340  1.00  0.00    -0.310 SA 
BRANCH   7  10
HETATM   10  C   UNL     1     -10.735  11.543  68.907  1.00  0.00    -0.245 A  
HETATM   11  C   UNL     1      -9.794  10.564  69.283  1.00  0.00    -0.205 A  
HETATM   12  C   UNL     1     -12.061  11.344  69.333  1.00  0.00    -0.358 A  
HETATM   13  F   UNL     1      -8.512  10.650  68.888  1.00  0.00    -0.121 F  
HETATM   14  C   UNL     1     -12.414  10.278  70.171  1.00  0.00    -0.179 A  
HETATM   15  C   UNL     1     -10.144   9.486  70.118  1.00  0.00    -0.249 A  
HETATM   16  C   UNL     1     -11.455   9.354  70.570  1.00  0.00    -0.317 A  
BRANCH  15  17
HETATM   17  N   UNL     1      -9.149   8.568  70.585  1.00  0.00    -0.151 N  
HETATM   18  H   UNL     1      -8.219   8.905  70.836  1.00  0.00     0.000 HD 
BRANCH  17  19
HETATM   19  S   UNL     1      -9.516   6.923  70.722  1.00  0.00    -0.164 S  
HETATM   20  O   UNL     1     -10.423   6.566  69.651  1.00  0.00    -0.190 OA 
HETATM   21  O   UNL     1      -9.901   6.702  72.100  1.00  0.00    -0.159 OA 
BRANCH  19  22
HETATM   22  C   UNL     1      -7.990   6.095  70.497  1.00  0.00    -0.111 A  
HETATM   23  C   UNL     1      -7.623   5.721  69.210  1.00  0.00    -0.088 A  
HETATM   24  F   UNL     1      -8.487   5.829  68.190  1.00  0.00    -0.108 F  
HETATM   25  C   UNL     1      -6.344   5.231  68.944  1.00  0.00    -0.035 A  
HETATM   26  C   UNL     1      -5.417   5.115  69.979  1.00  0.00    -0.011 A  
HETATM   27  C   UNL     1      -5.790   5.468  71.276  1.00  0.00    -0.024 A  
HETATM   28  C   UNL     1      -7.073   5.960  71.529  1.00  0.00    -0.078 A  
HETATM   29  F   UNL     1      -7.362   6.315  72.787  1.00  0.00    -0.086 F  
ENDBRANCH  19  22
ENDBRANCH  17  19
ENDBRANCH  15  17
ENDBRANCH   7  10
BRANCH   8  30
HETATM   30  C   UNL     1      -9.722  11.772  65.748  1.00  0.00    -0.237 A  
HETATM   31  C   UNL     1      -8.730   9.829  65.073  1.00  0.00    -0.174 A  
HETATM   32  N   UNL     1      -8.941  10.719  66.052  1.00  0.00    -0.174 NA 
HETATM   33  N   UNL     1      -7.936   8.738  65.338  1.00  0.00    -0.106 NA 
HETATM   34  N   UNL     1      -9.282   9.874  63.856  1.00  0.00    -0.263 NA 
HETATM   35  C   UNL     1     -10.081  10.915  63.597  1.00  0.00    -0.355 A  
HETATM   36  H2  UNL     1      -7.516   8.609  66.259  1.00  0.00     0.000 HD 
HETATM   37  C   UNL     1     -10.332  11.904  64.510  1.00  0.00    -0.334 A  
HETATM   38  H1  UNL     1      -7.775   8.060  64.592  1.00  0.00     0.000 HD 
ENDBRANCH   8  30
ENDBRANCH   2   5
TORSDOF 6
ENDMDL
MODEL      208
REMARK 921   NORMALIZED FREE ENERGY PREDICTED BY IDOCK:   -4.42 KCAL/MOL
REMARK 922        TOTAL FREE ENERGY PREDICTED BY IDOCK:   -7.09 KCAL/MOL
REMARK 923 INTER-LIGAND FREE ENERGY PREDICTED BY IDOCK:   -6.30 KCAL/MOL
REMARK 924 INTRA-LIGAND FREE ENERGY PREDICTED BY IDOCK:   -0.79 KCAL/MOL
REMARK 927      BINDING AFFINITY PREDICTED BY RF-SCORE:    0.00 PKD
ROOT
HETATM    1  C   UNL     1     -11.332   9.472  71.641  1.00  0.00    -0.411 C  
HETATM    2  C   UNL     1     -11.988  10.544  70.753  1.00  0.00    -0.472 C  
HETATM    3  C   UNL     1     -12.314  11.763  71.648  1.00  0.00     0.065 C  
HETATM    4  C   UNL     1     -13.316   9.964  70.213  1.00  0.00     0.365 C  
ENDROOT
BRANCH   2   5
HETATM    5  C   UNL     1     -11.081  10.955  69.580  1.00  0.00    -0.266 A  
HETATM    6  N   UNL     1      -9.940  11.621  69.627  1.00  0.00     0.628 NA 
HETATM    7  C   UNL     1      -9.379  11.783  68.337  1.00  0.00    -0.185 A  
HETATM    8  C   UNL     1     -10.171  11.271  67.310  1.00  0.00    -0.194 A  
HETATM    9  S   UNL     1     -11.541  10.484  68.001  1.00  0.00     0.185 SA 
BRANCH   7  10
HETATM   10  C   UNL     1      -8.069  12.447  68.172  1.00  0.00    -0.163 A  
HETATM   11  C   UNL     1      -7.936  13.843  68.316  1.00  0.00    -0.148 A  
HETATM   12  C   UNL     1      -6.891  11.721  67.918  1.00  0.00    -0.077 A  
HETATM   13  F   UNL     1      -9.012  14.621  68.521  1.00  0.00    -0.160 F  
HETATM   14  C   UNL     1      -5.633  12.338  67.904  1.00  0.00    -0.075 A  
HETATM   15  C   UNL     1      -6.676  14.470  68.296  1.00  0.00    -0.116 A  
HETATM   16  C   UNL     1      -5.524  13.711  68.101  1.00  0.00    -0.114 A  
BRANCH  15  17
HETATM   17  N   UNL     1      -6.551  15.872  68.561  1.00  0.00    -0.116 N  
HETATM   18  H   UNL     1      -6.497  16.207  69.522  1.00  0.00     0.000 HD 
BRANCH  17  19
HETATM   19  S   UNL     1      -6.493  16.971  67.278  1.00  0.00    -0.180 S  
HETATM   20  O   UNL     1      -7.809  17.045  66.678  1.00  0.00    -0.208 OA 
HETATM   21  O   UNL     1      -5.351  16.599  66.469  1.00  0.00    -0.353 OA 
BRANCH  19  22
HETATM   22  C   UNL     1      -6.096  18.510  68.013  1.00  0.00    -0.192 A  
HETATM   23  C   UNL     1      -6.342  19.672  67.290  1.00  0.00    -0.189 A  
HETATM   24  F   UNL     1      -6.706  19.615  66.001  1.00  0.00    -0.197 F  
HETATM   25  C   UNL     1      -6.224  20.926  67.891  1.00  0.00    -0.393 A  
HETATM   26  C   UNL     1      -5.858  21.020  69.232  1.00  0.00    -0.160 A  
HETATM   27  C   UNL     1      -5.590  19.857  69.953  1.00  0.00    -0.289 A  
HETATM   28  C   UNL     1      -5.713  18.606  69.343  1.00  0.00    -0.232 A  
HETATM   29  F   UNL     1      -5.475  17.525  70.094  1.00  0.00    -0.187 F  
ENDBRANCH  19  22
ENDBRANCH  17  19
ENDBRANCH  15  17
ENDBRANCH   7  10
BRANCH   8  30
HETATM   30  C   UNL     1     -10.093  11.217  65.839  1.00  0.00    -0.245 A  
HETATM   31  C   UNL     1     -11.072  11.656  63.823  1.00  0.00    -0.420 A  
HETATM   32  N   UNL     1     -11.133  11.735  65.159  1.00  0.00    -0.303 NA 
HETATM   33  N   UNL     1     -12.115  12.171  63.088  1.00  0.00    -0.743 NA 
HETATM   34  N   UNL     1     -10.043  11.169  63.124  1.00  0.00    -0.344 NA 
HETATM   35  C   UNL     1      -9.009  10.693  63.828  1.00  0.00    -0.197 A  
HETATM   36  H2  UNL     1     -12.916  12.603  63.550  1.00  0.00     0.000 HD 
HETATM   37  C   UNL     1      -8.985  10.686  65.197  1.00  0.00    -0.217 A  
HETATM   38  H1  UNL     1     -12.069  12.111  62.071  1.00  0.00     0.000 HD 
ENDBRANCH   8  30
ENDBRANCH   2   5
TORSDOF 6
ENDMDL
MODEL      209
REMARK 921   NORMALIZED FREE ENERGY PREDICTED BY IDOCK:   -4.39 KCAL/MOL
REMARK 922        TOTAL FREE ENERGY PREDICTED BY IDOCK:   -7.06 KCAL/MOL
REMARK 923 INTER-LIGAND FREE ENERGY PREDICTED BY IDOCK:   -6.67 KCAL/MOL
REMARK 924 INTRA-LIGAND FREE ENERGY PREDICTED BY IDOCK:   -0.39 KCAL/MOL
REMARK 927      BINDING AFFINITY PREDICTED BY RF-SCORE:    0.00 PKD
ROOT
HETATM    1  C   UNL     1     -12.126  14.886  64.491  1.00  0.00    -0.420 C  
HETATM    2  C   UNL     1     -11.812  13.387  64.645  1.00  0.00    -0.430 C  
HETATM    3  C   UNL     1     -11.075  12.926  63.366  1.00  0.00    -0.159 C  
HETATM    4  C   UNL     1     -13.157  12.630  64.736  1.00  0.00     0.023 C  
ENDROOT
BRANCH   2   5
HETATM    5  C   UNL     1     -10.964  13.102  65.897  1.00  0.00    -0.271 A  
HETATM    6  N   UNL     1     -11.111  12.125  66.775  1.00  0.00    -0.283 NA 
HETATM    7  C   UNL     1     -10.113  12.174  67.779  1.00  0.00    -0.199 A  
HETATM    8  C   UNL     1      -9.248  13.261  67.661  1.00  0.00    -0.209 A  
HETATM    9  S   UNL     1      -9.630  14.123  66.217  1.00  0.00    -0.243 SA 
BRANCH   7  10
HETATM   10  C   UNL     1     -10.058  11.132  68.826  1.00  0.00    -0.211 A  
HETATM   11  C   UNL     1      -8.911  10.332  68.998  1.00  0.00    -0.172 A  
HETATM   12  C   UNL     1     -11.117  10.925  69.729  1.00  0.00    -0.328 A  
HETATM   13  F   UNL     1      -7.867  10.433  68.158  1.00  0.00    -0.100 F  
HETATM   14  C   UNL     1     -11.004  10.037  70.807  1.00  0.00    -0.375 A  
HETATM   15  C   UNL     1      -8.795   9.432  70.074  1.00  0.00    -0.211 A  
HETATM   16  C   UNL     1      -9.840   9.296  70.984  1.00  0.00    -0.355 A  
BRANCH  15  17
HETATM   17  N   UNL     1      -7.576   8.714  70.299  1.00  0.00    -0.069 N  
HETATM   18  H   UNL     1      -6.804   9.160  70.794  1.00  0.00     0.000 HD 
BRANCH  17  19
HETATM   19  S   UNL     1      -7.418   7.125  69.744  1.00  0.00    -0.099 S  
HETATM   20  O   UNL     1      -7.495   6.232  70.882  1.00  0.00    -0.084 OA 
HETATM   21  O   UNL     1      -6.251   7.104  68.887  1.00  0.00    -0.026 OA 
BRANCH  19  22
HETATM   22  C   UNL     1      -8.801   6.866  68.701  1.00  0.00    -0.124 A  
HETATM   23  C   UNL     1      -8.664   7.129  67.344  1.00  0.00    -0.120 A  
HETATM   24  F   UNL     1      -7.565   7.731  66.867  1.00  0.00    -0.090 F  
HETATM   25  C   UNL     1      -9.664   6.765  66.440  1.00  0.00    -0.125 A  
HETATM   26  C   UNL     1     -10.815   6.128  66.900  1.00  0.00    -0.411 A  
HETATM   27  C   UNL     1     -10.964   5.884  68.265  1.00  0.00    -0.262 A  
HETATM   28  C   UNL     1      -9.956   6.250  69.160  1.00  0.00    -0.150 A  
HETATM   29  F   UNL     1     -10.140   5.959  70.453  1.00  0.00    -0.204 F  
ENDBRANCH  19  22
ENDBRANCH  17  19
ENDBRANCH  15  17
ENDBRANCH   7  10
BRANCH   8  30
HETATM   30  C   UNL     1      -8.111  13.798  68.430  1.00  0.00    -0.148 A  
HETATM   31  C   UNL     1      -7.053  15.613  69.324  1.00  0.00    -0.189 A  
HETATM   32  N   UNL     1      -8.104  15.125  68.652  1.00  0.00    -0.145 NA 
HETATM   33  N   UNL     1      -7.004  16.966  69.571  1.00  0.00    -0.163 NA 
HETATM   34  N   UNL     1      -6.059  14.884  69.840  1.00  0.00    -0.130 NA 
HETATM   35  C   UNL     1      -6.113  13.563  69.632  1.00  0.00    -0.121 A  
HETATM   36  H2  UNL     1      -7.750  17.583  69.250  1.00  0.00     0.000 HD 
HETATM   37  C   UNL     1      -7.119  12.963  68.922  1.00  0.00    -0.063 A  
HETATM   38  H1  UNL     1      -6.203  17.337  70.083  1.00  0.00     0.000 HD 
ENDBRANCH   8  30
ENDBRANCH   2   5
TORSDOF 6
ENDMDL
MODEL      210
REMARK 921   NORMALIZED FREE ENERGY PREDICTED BY IDOCK:   -4.32 KCAL/MOL
REMARK 922        TOTAL FREE ENERGY PREDICTED BY IDOCK:   -6.96 KCAL/MOL
REMARK 923 INTER-LIGAND FREE ENERGY PREDICTED BY IDOCK:   -6.40 KCAL/MOL
REMARK 924 INTRA-LIGAND FREE ENERGY PREDICTED BY IDOCK:   -0.56 KCAL/MOL
REMARK 927      BINDING AFFINITY PREDICTED BY RF-SCORE:    0.00 PKD
ROOT
HETATM    1  C   UNL     1      -7.263   2.536  70.385  1.00  0.00    -0.033 C  
HETATM    2  C   UNL     1      -8.558   3.264  69.983  1.00  0.00    -0.111 C  
HETATM    3  C   UNL     1      -9.715   2.665  70.817  1.00  0.00    -0.103 C  
HETATM    4  C   UNL     1      -8.824   2.965  68.489  1.00  0.00    -0.165 C  
ENDROOT
BRANCH   2   5
HETATM    5  C   UNL     1      -8.457   4.784  70.202  1.00  0.00    -0.082 A  
HETATM    6  N   UNL     1      -9.164   5.739  69.624  1.00  0.00    -0.137 NA 
HETATM    7  C   UNL     1      -8.802   7.020  70.110  1.00  0.00    -0.145 A  
HETATM    8  C   UNL     1      -7.754   6.999  71.028  1.00  0.00    -0.091 A  
HETATM    9  S   UNL     1      -7.333   5.359  71.356  1.00  0.00    -0.082 SA 
BRANCH   7  10
HETATM   10  C   UNL     1      -9.517   8.224  69.638  1.00  0.00    -0.163 A  
HETATM   11  C   UNL     1      -9.689   8.478  68.263  1.00  0.00    -0.155 A  
HETATM   12  C   UNL     1     -10.102   9.142  70.530  1.00  0.00    -0.288 A  
HETATM   13  F   UNL     1      -9.132   7.677  67.338  1.00  0.00    -0.124 F  
HETATM   14  C   UNL     1     -10.898  10.203  70.079  1.00  0.00    -0.361 A  
HETATM   15  C   UNL     1     -10.481   9.547  67.803  1.00  0.00    -0.254 A  
HETATM   16  C   UNL     1     -11.094  10.401  68.716  1.00  0.00    -0.298 A  
BRANCH  15  17
HETATM   17  N   UNL     1     -10.739   9.719  66.405  1.00  0.00    -0.025 N  
HETATM   18  H   UNL     1     -11.578   9.316  65.987  1.00  0.00     0.000 HD 
BRANCH  17  19
HETATM   19  S   UNL     1      -9.653  10.590  65.447  1.00  0.00    -0.260 S  
HETATM   20  O   UNL     1      -9.348   9.804  64.270  1.00  0.00    -0.261 OA 
HETATM   21  O   UNL     1      -8.585  11.020  66.325  1.00  0.00    -0.159 OA 
BRANCH  19  22
HETATM   22  C   UNL     1     -10.518  12.038  64.976  1.00  0.00    -0.287 A  
HETATM   23  C   UNL     1     -11.418  11.957  63.921  1.00  0.00    -0.426 A  
HETATM   24  F   UNL     1     -11.497  10.851  63.167  1.00  0.00    -0.092 F  
HETATM   25  C   UNL     1     -12.271  13.022  63.625  1.00  0.00    -0.568 A  
HETATM   26  C   UNL     1     -12.223  14.183  64.395  1.00  0.00    -0.466 A  
HETATM   27  C   UNL     1     -11.304  14.275  65.440  1.00  0.00    -0.329 A  
HETATM   28  C   UNL     1     -10.458  13.201  65.729  1.00  0.00    -0.283 A  
HETATM   29  F   UNL     1      -9.621  13.335  66.765  1.00  0.00    -0.226 F  
ENDBRANCH  19  22
ENDBRANCH  17  19
ENDBRANCH  15  17
ENDBRANCH   7  10
BRANCH   8  30
HETATM   30  C   UNL     1      -6.981   8.007  71.777  1.00  0.00    -0.069 A  
HETATM   31  C   UNL     1      -6.056  10.093  71.840  1.00  0.00     0.569 A  
HETATM   32  N   UNL     1      -6.785   9.191  71.169  1.00  0.00    -0.098 NA 
HETATM   33  N   UNL     1      -5.828  11.317  71.256  1.00  0.00    -0.354 NA 
HETATM   34  N   UNL     1      -5.572   9.931  73.076  1.00  0.00    -0.306 NA 
HETATM   35  C   UNL     1      -5.814   8.755  73.667  1.00  0.00    -0.106 A  
HETATM   36  H2  UNL     1      -6.205  11.534  70.333  1.00  0.00     0.000 HD 
HETATM   37  C   UNL     1      -6.512   7.747  73.056  1.00  0.00    -0.067 A  
HETATM   38  H1  UNL     1      -5.273  12.004  71.767  1.00  0.00     0.000 HD 
ENDBRANCH   8  30
ENDBRANCH   2   5
TORSDOF 6
ENDMDL
MODEL      211
REMARK 921   NORMALIZED FREE ENERGY PREDICTED BY IDOCK:   -4.22 KCAL/MOL
REMARK 922        TOTAL FREE ENERGY PREDICTED BY IDOCK:   -6.82 KCAL/MOL
REMARK 923 INTER-LIGAND FREE ENERGY PREDICTED BY IDOCK:   -5.79 KCAL/MOL
REMARK 924 INTRA-LIGAND FREE ENERGY PREDICTED BY IDOCK:   -1.03 KCAL/MOL
REMARK 927      BINDING AFFINITY PREDICTED BY RF-SCORE:    0.00 PKD
ROOT
HETATM    1  C   UNL     1      -9.247   3.565  67.992  1.00  0.00    -0.228 C  
HETATM    2  C   UNL     1      -7.981   4.430  68.137  1.00  0.00    -0.079 C  
HETATM    3  C   UNL     1      -6.843   3.733  67.355  1.00  0.00    -0.054 C  
HETATM    4  C   UNL     1      -7.599   4.462  69.634  1.00  0.00    -0.054 C  
ENDROOT
BRANCH   2   5
HETATM    5  C   UNL     1      -8.201   5.863  67.621  1.00  0.00    -0.105 A  
HETATM    6  N   UNL     1      -8.917   6.827  68.173  1.00  0.00    -0.120 NA 
HETATM    7  C   UNL     1      -8.853   8.021  67.415  1.00  0.00    -0.131 A  
HETATM    8  C   UNL     1      -8.114   7.903  66.238  1.00  0.00    -0.110 A  
HETATM    9  S   UNL     1      -7.411   6.330  66.177  1.00  0.00    -0.082 SA 
BRANCH   7  10
HETATM   10  C   UNL     1      -9.534   9.243  67.891  1.00  0.00    -0.154 A  
HETATM   11  C   UNL     1      -8.812  10.424  68.156  1.00  0.00    -0.132 A  
HETATM   12  C   UNL     1     -10.930   9.305  68.052  1.00  0.00    -0.076 A  
HETATM   13  F   UNL     1      -7.471  10.448  68.066  1.00  0.00    -0.086 F  
HETATM   14  C   UNL     1     -11.585  10.503  68.366  1.00  0.00    -0.205 A  
HETATM   15  C   UNL     1      -9.463  11.630  68.479  1.00  0.00    -0.173 A  
HETATM   16  C   UNL     1     -10.852  11.668  68.571  1.00  0.00    -0.257 A  
BRANCH  15  17
HETATM   17  N   UNL     1      -8.720  12.846  68.629  1.00  0.00    -0.372 N  
HETATM   18  H   UNL     1      -8.507  13.203  69.560  1.00  0.00     0.000 HD 
BRANCH  17  19
HETATM   19  S   UNL     1      -8.196  13.689  67.260  1.00  0.00    -0.113 S  
HETATM   20  O   UNL     1      -8.700  13.011  66.084  1.00  0.00     0.179 OA 
HETATM   21  O   UNL     1      -6.772  13.891  67.423  1.00  0.00    -0.233 OA 
BRANCH  19  22
HETATM   22  C   UNL     1      -8.937  15.271  67.388  1.00  0.00    -0.183 A  
HETATM   23  C   UNL     1      -9.483  15.840  66.243  1.00  0.00    -0.317 A  
HETATM   24  F   UNL     1      -9.295  15.279  65.040  1.00  0.00    -0.103 F  
HETATM   25  C   UNL     1     -10.248  17.005  66.319  1.00  0.00    -0.336 A  
HETATM   26  C   UNL     1     -10.472  17.608  67.555  1.00  0.00    -0.365 A  
HETATM   27  C   UNL     1      -9.906  17.051  68.702  1.00  0.00    -0.290 A  
HETATM   28  C   UNL     1      -9.143  15.883  68.615  1.00  0.00    -0.206 A  
HETATM   29  F   UNL     1      -8.655  15.377  69.753  1.00  0.00    -0.256 F  
ENDBRANCH  19  22
ENDBRANCH  17  19
ENDBRANCH  15  17
ENDBRANCH   7  10
BRANCH   8  30
HETATM   30  C   UNL     1      -7.780   8.784  65.104  1.00  0.00    -0.103 A  
HETATM   31  C   UNL     1      -6.355  10.314  64.186  1.00  0.00    -0.094 A  
HETATM   32  N   UNL     1      -6.639   9.491  65.204  1.00  0.00    -0.079 NA 
HETATM   33  N   UNL     1      -5.200  11.059  64.247  1.00  0.00    -0.484 NA 
HETATM   34  N   UNL     1      -7.075  10.434  63.066  1.00  0.00    -0.116 NA 
HETATM   35  C   UNL     1      -8.185   9.692  62.982  1.00  0.00    -0.152 A  
HETATM   36  H2  UNL     1      -4.574  10.986  65.049  1.00  0.00     0.000 HD 
HETATM   37  C   UNL     1      -8.592   8.849  63.983  1.00  0.00    -0.122 A  
HETATM   38  H1  UNL     1      -4.984  11.685  63.471  1.00  0.00     0.000 HD 
ENDBRANCH   8  30
ENDBRANCH   2   5
TORSDOF 6
ENDMDL
MODEL      212
REMARK 921   NORMALIZED FREE ENERGY PREDICTED BY IDOCK:   -4.21 KCAL/MOL
REMARK 922        TOTAL FREE ENERGY PREDICTED BY IDOCK:   -6.81 KCAL/MOL
REMARK 923 INTER-LIGAND FREE ENERGY PREDICTED BY IDOCK:   -6.01 KCAL/MOL
REMARK 924 INTRA-LIGAND FREE ENERGY PREDICTED BY IDOCK:   -0.81 KCAL/MOL
REMARK 927      BINDING AFFINITY PREDICTED BY RF-SCORE:    0.00 PKD
ROOT
HETATM    1  C   UNL     1      -6.537   2.340  69.381  1.00  0.00    -0.029 C  
HETATM    2  C   UNL     1      -7.597   3.305  68.820  1.00  0.00    -0.048 C  
HETATM    3  C   UNL     1      -8.903   2.501  68.613  1.00  0.00    -0.154 C  
HETATM    4  C   UNL     1      -7.103   3.802  67.442  1.00  0.00    -0.059 C  
ENDROOT
BRANCH   2   5
HETATM    5  C   UNL     1      -7.837   4.504  69.754  1.00  0.00    -0.057 A  
HETATM    6  N   UNL     1      -8.963   5.166  69.958  1.00  0.00    -0.119 NA 
HETATM    7  C   UNL     1      -8.796   6.193  70.918  1.00  0.00    -0.136 A  
HETATM    8  C   UNL     1      -7.487   6.322  71.384  1.00  0.00    -0.090 A  
HETATM    9  S   UNL     1      -6.526   5.065  70.699  1.00  0.00    -0.035 SA 
BRANCH   7  10
HETATM   10  C   UNL     1      -9.950   7.015  71.339  1.00  0.00    -0.190 A  
HETATM   11  C   UNL     1     -10.008   8.393  71.049  1.00  0.00    -0.190 A  
HETATM   12  C   UNL     1     -11.062   6.458  71.997  1.00  0.00    -0.306 A  
HETATM   13  F   UNL     1      -8.975   9.018  70.458  1.00  0.00    -0.151 F  
HETATM   14  C   UNL     1     -12.212   7.211  72.267  1.00  0.00    -0.181 A  
HETATM   15  C   UNL     1     -11.158   9.156  71.324  1.00  0.00    -0.335 A  
HETATM   16  C   UNL     1     -12.264   8.558  71.923  1.00  0.00    -0.411 A  
BRANCH  15  17
HETATM   17  N   UNL     1     -11.242  10.527  70.916  1.00  0.00    -0.331 N  
HETATM   18  H   UNL     1     -10.960  11.269  71.557  1.00  0.00     0.000 HD 
BRANCH  17  19
HETATM   19  S   UNL     1     -11.807  10.914  69.370  1.00  0.00    -0.322 S  
HETATM   20  O   UNL     1     -13.255  10.918  69.400  1.00  0.00     0.235 OA 
HETATM   21  O   UNL     1     -11.106  10.046  68.448  1.00  0.00    -0.237 OA 
BRANCH  19  22
HETATM   22  C   UNL     1     -11.222  12.536  69.063  1.00  0.00    -0.268 A  
HETATM   23  C   UNL     1     -10.265  12.717  68.073  1.00  0.00    -0.228 A  
HETATM   24  F   UNL     1      -9.673  11.666  67.488  1.00  0.00    -0.172 F  
HETATM   25  C   UNL     1      -9.901  13.998  67.655  1.00  0.00    -0.233 A  
HETATM   26  C   UNL     1     -10.505  15.113  68.235  1.00  0.00    -0.241 A  
HETATM   27  C   UNL     1     -11.450  14.934  69.244  1.00  0.00    -0.324 A  
HETATM   28  C   UNL     1     -11.808  13.646  69.653  1.00  0.00    -0.335 A  
HETATM   29  F   UNL     1     -12.745  13.536  70.602  1.00  0.00    -0.371 F  
ENDBRANCH  19  22
ENDBRANCH  17  19
ENDBRANCH  15  17
ENDBRANCH   7  10
BRANCH   8  30
HETATM   30  C   UNL     1      -6.777   7.220  72.312  1.00  0.00    -0.059 A  
HETATM   31  C   UNL     1      -5.645   9.176  72.639  1.00  0.00    -0.060 A  
HETATM   32  N   UNL     1      -6.317   8.377  71.799  1.00  0.00    -0.056 NA 
HETATM   33  N   UNL     1      -5.154  10.368  72.157  1.00  0.00    -0.258 NA 
HETATM   34  N   UNL     1      -5.457   8.946  73.942  1.00  0.00    -0.107 NA 
HETATM   35  C   UNL     1      -5.957   7.804  74.428  1.00  0.00    -0.081 A  
HETATM   36  H2  UNL     1      -5.298  10.636  71.183  1.00  0.00     0.000 HD 
HETATM   37  C   UNL     1      -6.624   6.895  73.651  1.00  0.00    -0.067 A  
HETATM   38  H1  UNL     1      -4.642  10.977  72.796  1.00  0.00     0.000 HD 
ENDBRANCH   8  30
ENDBRANCH   2   5
TORSDOF 6
ENDMDL
MODEL      213
REMARK 921   NORMALIZED FREE ENERGY PREDICTED BY IDOCK:   -4.18 KCAL/MOL
REMARK 922        TOTAL FREE ENERGY PREDICTED BY IDOCK:   -6.78 KCAL/MOL
REMARK 923 INTER-LIGAND FREE ENERGY PREDICTED BY IDOCK:   -7.35 KCAL/MOL
REMARK 924 INTRA-LIGAND FREE ENERGY PREDICTED BY IDOCK:    0.57 KCAL/MOL
REMARK 927      BINDING AFFINITY PREDICTED BY RF-SCORE:    0.00 PKD
ROOT
HETATM    1  C   UNL     1     -10.943   6.731  70.363  1.00  0.00    -0.330 C  
HETATM    2  C   UNL     1     -11.663   7.619  71.393  1.00  0.00    -0.310 C  
HETATM    3  C   UNL     1     -10.995   7.382  72.769  1.00  0.00    -0.387 C  
HETATM    4  C   UNL     1     -13.134   7.151  71.475  1.00  0.00    -0.427 C  
ENDROOT
BRANCH   2   5
HETATM    5  C   UNL     1     -11.607   9.108  71.009  1.00  0.00    -0.306 A  
HETATM    6  N   UNL     1     -10.845   9.687  70.098  1.00  0.00    -0.259 NA 
HETATM    7  C   UNL     1     -11.102  11.077  70.012  1.00  0.00    -0.161 A  
HETATM    8  C   UNL     1     -12.040  11.535  70.936  1.00  0.00    -0.247 A  
HETATM    9  S   UNL     1     -12.672  10.186  71.805  1.00  0.00    -0.414 SA 
BRANCH   7  10
HETATM   10  C   UNL     1     -10.399  11.904  69.008  1.00  0.00    -0.058 A  
HETATM   11  C   UNL     1     -11.079  12.899  68.279  1.00  0.00    -0.264 A  
HETATM   12  C   UNL     1      -9.018  11.776  68.771  1.00  0.00     0.015 A  
HETATM   13  F   UNL     1     -12.406  13.068  68.412  1.00  0.00    -0.306 F  
HETATM   14  C   UNL     1      -8.331  12.655  67.924  1.00  0.00    -0.172 A  
HETATM   15  C   UNL     1     -10.395  13.782  67.421  1.00  0.00    -0.252 A  
HETATM   16  C   UNL     1      -9.018  13.663  67.255  1.00  0.00    -0.226 A  
BRANCH  15  17
HETATM   17  N   UNL     1     -11.085  14.861  66.780  1.00  0.00    -0.331 N  
HETATM   18  H   UNL     1     -11.630  15.520  67.335  1.00  0.00     0.000 HD 
BRANCH  17  19
HETATM   19  S   UNL     1     -10.995  15.041  65.101  1.00  0.00    -0.430 S  
HETATM   20  O   UNL     1      -9.640  15.416  64.753  1.00  0.00     0.053 OA 
HETATM   21  O   UNL     1     -12.101  15.894  64.720  1.00  0.00     0.091 OA 
BRANCH  19  22
HETATM   22  C   UNL     1     -11.349  13.454  64.452  1.00  0.00    -0.391 A  
HETATM   23  C   UNL     1     -12.679  13.064  64.346  1.00  0.00    -0.201 A  
HETATM   24  F   UNL     1     -13.657  13.804  64.886  1.00  0.00     0.119 F  
HETATM   25  C   UNL     1     -13.030  11.896  63.666  1.00  0.00    -0.317 A  
HETATM   26  C   UNL     1     -12.038  11.109  63.084  1.00  0.00     0.847 A  
HETATM   27  C   UNL     1     -10.701  11.486  63.208  1.00  0.00    -0.374 A  
HETATM   28  C   UNL     1     -10.362  12.658  63.889  1.00  0.00    -0.377 A  
HETATM   29  F   UNL     1      -9.066  12.987  63.946  1.00  0.00     0.734 F  
ENDBRANCH  19  22
ENDBRANCH  17  19
ENDBRANCH  15  17
ENDBRANCH   7  10
BRANCH   8  30
HETATM   30  C   UNL     1     -12.618  12.842  71.300  1.00  0.00    -0.250 A  
HETATM   31  C   UNL     1     -12.498  15.119  71.184  1.00  0.00    -0.352 A  
HETATM   32  N   UNL     1     -11.989  13.933  70.825  1.00  0.00    -0.310 NA 
HETATM   33  N   UNL     1     -11.886  16.262  70.724  1.00  0.00    -0.527 NA 
HETATM   34  N   UNL     1     -13.605  15.297  71.912  1.00  0.00    -0.432 NA 
HETATM   35  C   UNL     1     -14.227  14.191  72.339  1.00  0.00    -0.403 A  
HETATM   36  H2  UNL     1     -11.062  16.208  70.124  1.00  0.00     0.000 HD 
HETATM   37  C   UNL     1     -13.769  12.930  72.067  1.00  0.00    -0.393 A  
HETATM   38  H1  UNL     1     -12.274  17.165  70.997  1.00  0.00     0.000 HD 
ENDBRANCH   8  30
ENDBRANCH   2   5
TORSDOF 6
ENDMDL
MODEL      214
REMARK 921   NORMALIZED FREE ENERGY PREDICTED BY IDOCK:   -4.18 KCAL/MOL
REMARK 922        TOTAL FREE ENERGY PREDICTED BY IDOCK:   -6.78 KCAL/MOL
REMARK 923 INTER-LIGAND FREE ENERGY PREDICTED BY IDOCK:   -6.27 KCAL/MOL
REMARK 924 INTRA-LIGAND FREE ENERGY PREDICTED BY IDOCK:   -0.50 KCAL/MOL
REMARK 927      BINDING AFFINITY PREDICTED BY RF-SCORE:    0.00 PKD
ROOT
HETATM    1  C   UNL     1      -8.435   7.860  68.713  1.00  0.00    -0.128 C  
HETATM    2  C   UNL     1      -9.974   7.820  68.754  1.00  0.00    -0.181 C  
HETATM    3  C   UNL     1     -10.391   6.989  69.990  1.00  0.00    -0.217 C  
HETATM    4  C   UNL     1     -10.461   7.088  67.483  1.00  0.00    -0.320 C  
ENDROOT
BRANCH   2   5
HETATM    5  C   UNL     1     -10.585   9.231  68.813  1.00  0.00    -0.193 A  
HETATM    6  N   UNL     1     -10.537  10.179  67.894  1.00  0.00    -0.230 NA 
HETATM    7  C   UNL     1     -11.247  11.335  68.301  1.00  0.00    -0.267 A  
HETATM    8  C   UNL     1     -11.779  11.246  69.587  1.00  0.00    -0.350 A  
HETATM    9  S   UNL     1     -11.483   9.663  70.204  1.00  0.00    -0.142 SA 
BRANCH   7  10
HETATM   10  C   UNL     1     -11.370  12.493  67.391  1.00  0.00    -0.371 A  
HETATM   11  C   UNL     1     -10.233  13.204  66.958  1.00  0.00    -0.250 A  
HETATM   12  C   UNL     1     -12.611  12.907  66.874  1.00  0.00     0.628 A  
HETATM   13  F   UNL     1      -9.011  12.904  67.429  1.00  0.00    -0.167 F  
HETATM   14  C   UNL     1     -12.708  13.913  65.903  1.00  0.00    -0.466 A  
HETATM   15  C   UNL     1     -10.324  14.220  65.988  1.00  0.00    -0.309 A  
HETATM   16  C   UNL     1     -11.563  14.564  65.454  1.00  0.00    -0.355 A  
BRANCH  15  17
HETATM   17  N   UNL     1      -9.144  14.850  65.475  1.00  0.00    -0.204 N  
HETATM   18  H   UNL     1      -8.752  14.551  64.583  1.00  0.00     0.000 HD 
BRANCH  17  19
HETATM   19  S   UNL     1      -8.401  16.091  66.351  1.00  0.00    -0.256 S  
HETATM   20  O   UNL     1      -8.582  17.333  65.629  1.00  0.00    -0.476 OA 
HETATM   21  O   UNL     1      -7.066  15.628  66.668  1.00  0.00    -0.144 OA 
BRANCH  19  22
HETATM   22  C   UNL     1      -9.272  16.163  67.869  1.00  0.00    -0.200 A  
HETATM   23  C   UNL     1      -8.694  15.582  68.991  1.00  0.00    -0.235 A  
HETATM   24  F   UNL     1      -7.588  14.832  68.885  1.00  0.00    -0.113 F  
HETATM   25  C   UNL     1      -9.247  15.770  70.259  1.00  0.00     0.820 A  
HETATM   26  C   UNL     1     -10.391  16.552  70.407  1.00  0.00     0.501 A  
HETATM   27  C   UNL     1     -10.985  17.118  69.279  1.00  0.00     0.107 A  
HETATM   28  C   UNL     1     -10.422  16.925  68.015  1.00  0.00    -0.347 A  
HETATM   29  F   UNL     1     -11.017  17.521  66.975  1.00  0.00    -0.257 F  
ENDBRANCH  19  22
ENDBRANCH  17  19
ENDBRANCH  15  17
ENDBRANCH   7  10
BRANCH   8  30
HETATM   30  C   UNL     1     -12.533  12.139  70.485  1.00  0.00    -0.198 A  
HETATM   31  C   UNL     1     -13.417  14.207  70.876  1.00  0.00    -0.090 A  
HETATM   32  N   UNL     1     -12.759  13.390  70.043  1.00  0.00    -0.005 NA 
HETATM   33  N   UNL     1     -13.668  15.497  70.466  1.00  0.00    -0.765 NA 
HETATM   34  N   UNL     1     -13.916  13.860  72.066  1.00  0.00    -0.480 NA 
HETATM   35  C   UNL     1     -13.705  12.599  72.462  1.00  0.00    -0.130 A  
HETATM   36  H2  UNL     1     -13.359  15.823  69.550  1.00  0.00     0.000 HD 
HETATM   37  C   UNL     1     -13.008  11.692  71.709  1.00  0.00    -0.483 A  
HETATM   38  H1  UNL     1     -14.169  16.119  71.101  1.00  0.00     0.000 HD 
ENDBRANCH   8  30
ENDBRANCH   2   5
TORSDOF 6
ENDMDL
MODEL      215
REMARK 921   NORMALIZED FREE ENERGY PREDICTED BY IDOCK:   -4.17 KCAL/MOL
REMARK 922        TOTAL FREE ENERGY PREDICTED BY IDOCK:   -6.75 KCAL/MOL
REMARK 923 INTER-LIGAND FREE ENERGY PREDICTED BY IDOCK:   -6.54 KCAL/MOL
REMARK 924 INTRA-LIGAND FREE ENERGY PREDICTED BY IDOCK:   -0.21 KCAL/MOL
REMARK 927      BINDING AFFINITY PREDICTED BY RF-SCORE:    0.00 PKD
ROOT
HETATM    1  C   UNL     1      -6.790   2.742  69.613  1.00  0.00    -0.034 C  
HETATM    2  C   UNL     1      -7.615   3.718  68.756  1.00  0.00    -0.053 C  
HETATM    3  C   UNL     1      -9.003   3.077  68.516  1.00  0.00    -0.190 C  
HETATM    4  C   UNL     1      -6.903   3.869  67.392  1.00  0.00    -0.054 C  
ENDROOT
BRANCH   2   5
HETATM    5  C   UNL     1      -7.759   5.095  69.427  1.00  0.00    -0.076 A  
HETATM    6  N   UNL     1      -8.805   5.904  69.411  1.00  0.00    -0.121 NA 
HETATM    7  C   UNL     1      -8.567   7.075  70.172  1.00  0.00    -0.140 A  
HETATM    8  C   UNL     1      -7.283   7.147  70.710  1.00  0.00    -0.071 A  
HETATM    9  S   UNL     1      -6.446   5.682  70.352  1.00  0.00    -0.036 SA 
BRANCH   7  10
HETATM   10  C   UNL     1      -9.634   8.085  70.337  1.00  0.00    -0.174 A  
HETATM   11  C   UNL     1      -9.507   9.375  69.785  1.00  0.00    -0.202 A  
HETATM   12  C   UNL     1     -10.840   7.796  71.002  1.00  0.00    -0.253 A  
HETATM   13  F   UNL     1      -8.375   9.753  69.167  1.00  0.00    -0.107 F  
HETATM   14  C   UNL     1     -11.902   8.708  71.032  1.00  0.00    -0.303 A  
HETATM   15  C   UNL     1     -10.568  10.299  69.818  1.00  0.00    -0.271 A  
HETATM   16  C   UNL     1     -11.770   9.957  70.434  1.00  0.00    -0.333 A  
BRANCH  15  17
HETATM   17  N   UNL     1     -10.461  11.561  69.150  1.00  0.00    -0.394 N  
HETATM   18  H   UNL     1     -10.332  12.417  69.690  1.00  0.00     0.000 HD 
BRANCH  17  19
HETATM   19  S   UNL     1     -10.551  11.633  67.463  1.00  0.00    -0.219 S  
HETATM   20  O   UNL     1     -11.922  11.391  67.066  1.00  0.00    -0.492 OA 
HETATM   21  O   UNL     1      -9.492  10.783  66.960  1.00  0.00    -0.162 OA 
BRANCH  19  22
HETATM   22  C   UNL     1     -10.102  13.275  67.051  1.00  0.00    -0.242 A  
HETATM   23  C   UNL     1      -8.984  13.829  67.663  1.00  0.00    -0.194 A  
HETATM   24  F   UNL     1      -8.366  13.194  68.669  1.00  0.00    -0.149 F  
HETATM   25  C   UNL     1      -8.470  15.055  67.238  1.00  0.00    -0.220 A  
HETATM   26  C   UNL     1      -9.082  15.736  66.187  1.00  0.00    -0.377 A  
HETATM   27  C   UNL     1     -10.218  15.193  65.587  1.00  0.00    -0.387 A  
HETATM   28  C   UNL     1     -10.722  13.963  66.019  1.00  0.00    -0.287 A  
HETATM   29  F   UNL     1     -11.793  13.476  65.382  1.00  0.00    -0.326 F  
ENDBRANCH  19  22
ENDBRANCH  17  19
ENDBRANCH  15  17
ENDBRANCH   7  10
BRANCH   8  30
HETATM   30  C   UNL     1      -6.522   8.126  71.508  1.00  0.00    -0.044 A  
HETATM   31  C   UNL     1      -5.711  10.250  71.720  1.00  0.00     0.244 A  
HETATM   32  N   UNL     1      -6.429   9.371  71.007  1.00  0.00    -0.096 NA 
HETATM   33  N   UNL     1      -5.587  11.535  71.244  1.00  0.00    -0.374 NA 
HETATM   34  N   UNL     1      -5.143  10.003  72.905  1.00  0.00    -0.281 NA 
HETATM   35  C   UNL     1      -5.283   8.765  73.392  1.00  0.00    -0.076 A  
HETATM   36  H2  UNL     1      -6.032  11.813  70.369  1.00  0.00     0.000 HD 
HETATM   37  C   UNL     1      -5.961   7.777  72.727  1.00  0.00    -0.045 A  
HETATM   38  H1  UNL     1      -5.040  12.203  71.787  1.00  0.00     0.000 HD 
ENDBRANCH   8  30
ENDBRANCH   2   5
TORSDOF 6
ENDMDL
MODEL      216
REMARK 921   NORMALIZED FREE ENERGY PREDICTED BY IDOCK:   -4.17 KCAL/MOL
REMARK 922        TOTAL FREE ENERGY PREDICTED BY IDOCK:   -6.75 KCAL/MOL
REMARK 923 INTER-LIGAND FREE ENERGY PREDICTED BY IDOCK:   -6.26 KCAL/MOL
REMARK 924 INTRA-LIGAND FREE ENERGY PREDICTED BY IDOCK:   -0.49 KCAL/MOL
REMARK 927      BINDING AFFINITY PREDICTED BY RF-SCORE:    0.00 PKD
ROOT
HETATM    1  C   UNL     1     -11.250   5.675  73.395  1.00  0.00    -0.158 C  
HETATM    2  C   UNL     1      -9.808   5.663  72.856  1.00  0.00    -0.183 C  
HETATM    3  C   UNL     1      -9.582   4.309  72.142  1.00  0.00    -0.203 C  
HETATM    4  C   UNL     1      -8.850   5.743  74.067  1.00  0.00    -0.123 C  
ENDROOT
BRANCH   2   5
HETATM    5  C   UNL     1      -9.541   6.836  71.898  1.00  0.00    -0.148 A  
HETATM    6  N   UNL     1     -10.395   7.751  71.472  1.00  0.00    -0.192 NA 
HETATM    7  C   UNL     1      -9.767   8.692  70.620  1.00  0.00    -0.184 A  
HETATM    8  C   UNL     1      -8.423   8.415  70.368  1.00  0.00    -0.130 A  
HETATM    9  S   UNL     1      -7.948   7.052  71.311  1.00  0.00    -0.104 SA 
BRANCH   7  10
HETATM   10  C   UNL     1     -10.531   9.837  70.082  1.00  0.00    -0.338 A  
HETATM   11  C   UNL     1     -10.526  10.134  68.705  1.00  0.00    -0.202 A  
HETATM   12  C   UNL     1     -11.336  10.648  70.903  1.00  0.00    -0.073 A  
HETATM   13  F   UNL     1      -9.757   9.437  67.851  1.00  0.00    -0.153 F  
HETATM   14  C   UNL     1     -12.167  11.641  70.370  1.00  0.00    -0.434 A  
HETATM   15  C   UNL     1     -11.354  11.136  68.164  1.00  0.00    -0.309 A  
HETATM   16  C   UNL     1     -12.183  11.880  69.000  1.00  0.00    -0.103 A  
BRANCH  15  17
HETATM   17  N   UNL     1     -11.423  11.344  66.748  1.00  0.00    -0.185 N  
HETATM   18  H   UNL     1     -12.140  10.872  66.197  1.00  0.00     0.000 HD 
BRANCH  17  19
HETATM   19  S   UNL     1     -10.314  12.371  65.991  1.00  0.00    -0.257 S  
HETATM   20  O   UNL     1      -9.288  12.724  66.950  1.00  0.00    -0.220 OA 
HETATM   21  O   UNL     1     -11.090  13.410  65.348  1.00  0.00    -0.285 OA 
BRANCH  19  22
HETATM   22  C   UNL     1      -9.609  11.414  64.705  1.00  0.00    -0.210 A  
HETATM   23  C   UNL     1      -9.812  11.820  63.392  1.00  0.00    -0.384 A  
HETATM   24  F   UNL     1     -10.667  12.811  63.102  1.00  0.00    -0.366 F  
HETATM   25  C   UNL     1      -9.124  11.211  62.341  1.00  0.00    -0.292 A  
HETATM   26  C   UNL     1      -8.220  10.185  62.607  1.00  0.00    -0.162 A  
HETATM   27  C   UNL     1      -8.031   9.761  63.922  1.00  0.00    -0.146 A  
HETATM   28  C   UNL     1      -8.724  10.379  64.967  1.00  0.00    -0.182 A  
HETATM   29  F   UNL     1      -8.477   9.952  66.210  1.00  0.00    -0.123 F  
ENDBRANCH  19  22
ENDBRANCH  17  19
ENDBRANCH  15  17
ENDBRANCH   7  10
BRANCH   8  30
HETATM   30  C   UNL     1      -7.354   9.013  69.547  1.00  0.00    -0.071 A  
HETATM   31  C   UNL     1      -5.792   8.755  67.902  1.00  0.00    -0.042 A  
HETATM   32  N   UNL     1      -6.784   8.217  68.624  1.00  0.00    -0.057 NA 
HETATM   33  N   UNL     1      -5.179   7.976  66.948  1.00  0.00    -0.031 NA 
HETATM   34  N   UNL     1      -5.377  10.023  67.983  1.00  0.00    -0.039 NA 
HETATM   35  C   UNL     1      -5.988  10.798  68.886  1.00  0.00    -0.040 A  
HETATM   36  H2  UNL     1      -5.472   7.011  66.794  1.00  0.00     0.000 HD 
HETATM   37  C   UNL     1      -6.985  10.340  69.706  1.00  0.00    -0.129 A  
HETATM   38  H1  UNL     1      -4.424   8.386  66.398  1.00  0.00     0.000 HD 
ENDBRANCH   8  30
ENDBRANCH   2   5
TORSDOF 6
ENDMDL
MODEL      217
REMARK 921   NORMALIZED FREE ENERGY PREDICTED BY IDOCK:   -4.13 KCAL/MOL
REMARK 922        TOTAL FREE ENERGY PREDICTED BY IDOCK:   -6.70 KCAL/MOL
REMARK 923 INTER-LIGAND FREE ENERGY PREDICTED BY IDOCK:   -5.44 KCAL/MOL
REMARK 924 INTRA-LIGAND FREE ENERGY PREDICTED BY IDOCK:   -1.26 KCAL/MOL
REMARK 927      BINDING AFFINITY PREDICTED BY RF-SCORE:    0.00 PKD
ROOT
HETATM    1  C   UNL     1      -8.320   7.732  73.626  1.00  0.00    -0.258 C  
HETATM    2  C   UNL     1      -9.415   6.942  72.887  1.00  0.00    -0.161 C  
HETATM    3  C   UNL     1     -10.766   7.254  73.572  1.00  0.00    -0.367 C  
HETATM    4  C   UNL     1      -9.112   5.436  73.063  1.00  0.00    -0.128 C  
ENDROOT
BRANCH   2   5
HETATM    5  C   UNL     1      -9.469   7.293  71.390  1.00  0.00    -0.160 A  
HETATM    6  N   UNL     1      -9.415   6.470  70.357  1.00  0.00    -0.162 NA 
HETATM    7  C   UNL     1      -9.526   7.168  69.129  1.00  0.00    -0.147 A  
HETATM    8  C   UNL     1      -9.601   8.553  69.274  1.00  0.00    -0.170 A  
HETATM    9  S   UNL     1      -9.659   8.937  70.954  1.00  0.00    -0.261 SA 
BRANCH   7  10
HETATM   10  C   UNL     1      -9.552   6.428  67.851  1.00  0.00    -0.121 A  
HETATM   11  C   UNL     1      -8.364   5.951  67.261  1.00  0.00    -0.105 A  
HETATM   12  C   UNL     1     -10.755   6.118  67.191  1.00  0.00    -0.422 A  
HETATM   13  F   UNL     1      -7.165   6.231  67.799  1.00  0.00    -0.073 F  
HETATM   14  C   UNL     1     -10.785   5.296  66.058  1.00  0.00    -0.139 A  
HETATM   15  C   UNL     1      -8.387   5.130  66.117  1.00  0.00    -0.114 A  
HETATM   16  C   UNL     1      -9.602   4.795  65.525  1.00  0.00    -0.172 A  
BRANCH  15  17
HETATM   17  N   UNL     1      -7.178   4.559  65.602  1.00  0.00    -0.071 N  
HETATM   18  H   UNL     1      -6.613   5.079  64.930  1.00  0.00     0.000 HD 
BRANCH  17  19
HETATM   19  S   UNL     1      -6.689   3.022  66.107  1.00  0.00    -0.048 S  
HETATM   20  O   UNL     1      -5.264   3.056  66.363  1.00  0.00    -0.011 OA 
HETATM   21  O   UNL     1      -7.228   2.083  65.146  1.00  0.00    -0.054 OA 
BRANCH  19  22
HETATM   22  C   UNL     1      -7.547   2.740  67.608  1.00  0.00    -0.057 A  
HETATM   23  C   UNL     1      -8.732   2.016  67.566  1.00  0.00    -0.111 A  
HETATM   24  F   UNL     1      -9.299   1.692  66.395  1.00  0.00    -0.107 F  
HETATM   25  C   UNL     1      -9.357   1.599  68.742  1.00  0.00    -0.219 A  
HETATM   26  C   UNL     1      -8.789   1.910  69.976  1.00  0.00    -0.120 A  
HETATM   27  C   UNL     1      -7.612   2.656  70.021  1.00  0.00    -0.043 A  
HETATM   28  C   UNL     1      -6.993   3.066  68.837  1.00  0.00    -0.048 A  
HETATM   29  F   UNL     1      -5.848   3.749  68.942  1.00  0.00    -0.019 F  
ENDBRANCH  19  22
ENDBRANCH  17  19
ENDBRANCH  15  17
ENDBRANCH   7  10
BRANCH   8  30
HETATM   30  C   UNL     1      -9.675   9.710  68.363  1.00  0.00    -0.150 A  
HETATM   31  C   UNL     1      -8.575  11.310  67.160  1.00  0.00    -0.147 A  
HETATM   32  N   UNL     1      -8.503  10.239  67.962  1.00  0.00    -0.117 NA 
HETATM   33  N   UNL     1      -7.402  11.884  66.727  1.00  0.00    -0.346 NA 
HETATM   34  N   UNL     1      -9.704  11.844  66.683  1.00  0.00    -0.201 NA 
HETATM   35  C   UNL     1     -10.850  11.274  67.072  1.00  0.00    -0.280 A  
HETATM   36  H2  UNL     1      -6.499  11.505  67.011  1.00  0.00     0.000 HD 
HETATM   37  C   UNL     1     -10.894  10.202  67.924  1.00  0.00    -0.336 A  
HETATM   38  H1  UNL     1      -7.457  12.700  66.116  1.00  0.00     0.000 HD 
ENDBRANCH   8  30
ENDBRANCH   2   5
TORSDOF 6
ENDMDL
MODEL      218
REMARK 921   NORMALIZED FREE ENERGY PREDICTED BY IDOCK:   -4.13 KCAL/MOL
REMARK 922        TOTAL FREE ENERGY PREDICTED BY IDOCK:   -6.70 KCAL/MOL
REMARK 923 INTER-LIGAND FREE ENERGY PREDICTED BY IDOCK:   -7.26 KCAL/MOL
REMARK 924 INTRA-LIGAND FREE ENERGY PREDICTED BY IDOCK:    0.56 KCAL/MOL
REMARK 927      BINDING AFFINITY PREDICTED BY RF-SCORE:    0.00 PKD
ROOT
HETATM    1  C   UNL     1      -5.237  19.788  67.019  1.00  0.00    -0.163 C  
HETATM    2  C   UNL     1      -6.510  19.421  66.234  1.00  0.00    -0.203 C  
HETATM    3  C   UNL     1      -6.202  19.594  64.728  1.00  0.00    -0.318 C  
HETATM    4  C   UNL     1      -7.615  20.428  66.628  1.00  0.00    -0.291 C  
ENDROOT
BRANCH   2   5
HETATM    5  C   UNL     1      -6.977  17.986  66.534  1.00  0.00    -0.220 A  
HETATM    6  N   UNL     1      -8.131  17.423  66.220  1.00  0.00    -0.395 NA 
HETATM    7  C   UNL     1      -8.181  16.071  66.640  1.00  0.00    -0.289 A  
HETATM    8  C   UNL     1      -7.048  15.656  67.338  1.00  0.00    -0.207 A  
HETATM    9  S   UNL     1      -5.893  16.936  67.338  1.00  0.00    -0.169 SA 
BRANCH   7  10
HETATM   10  C   UNL     1      -9.362  15.238  66.331  1.00  0.00    -0.328 A  
HETATM   11  C   UNL     1      -9.984  14.457  67.326  1.00  0.00    -0.247 A  
HETATM   12  C   UNL     1      -9.952  15.224  65.054  1.00  0.00    -0.159 A  
HETATM   13  F   UNL     1      -9.468  14.379  68.565  1.00  0.00    -0.191 F  
HETATM   14  C   UNL     1     -11.152  14.546  64.803  1.00  0.00    -0.400 A  
HETATM   15  C   UNL     1     -11.185  13.767  67.078  1.00  0.00    -0.311 A  
HETATM   16  C   UNL     1     -11.773  13.824  65.817  1.00  0.00    -0.365 A  
BRANCH  15  17
HETATM   17  N   UNL     1     -11.864  13.076  68.133  1.00  0.00    -0.348 N  
HETATM   18  H   UNL     1     -12.653  13.514  68.608  1.00  0.00     0.000 HD 
BRANCH  17  19
HETATM   19  S   UNL     1     -11.355  11.530  68.593  1.00  0.00    -0.300 S  
HETATM   20  O   UNL     1     -12.507  10.653  68.603  1.00  0.00    -0.252 OA 
HETATM   21  O   UNL     1     -10.564  11.698  69.794  1.00  0.00     0.118 OA 
BRANCH  19  22
HETATM   22  C   UNL     1     -10.243  11.024  67.338  1.00  0.00    -0.195 A  
HETATM   23  C   UNL     1      -8.971  10.606  67.710  1.00  0.00    -0.140 A  
HETATM   24  F   UNL     1      -8.542  10.751  68.972  1.00  0.00    -0.145 F  
HETATM   25  C   UNL     1      -8.112  10.016  66.782  1.00  0.00    -0.118 A  
HETATM   26  C   UNL     1      -8.531   9.840  65.464  1.00  0.00    -0.150 A  
HETATM   27  C   UNL     1      -9.799  10.279  65.083  1.00  0.00    -0.389 A  
HETATM   28  C   UNL     1     -10.651  10.867  66.021  1.00  0.00    -0.189 A  
HETATM   29  F   UNL     1     -11.868  11.237  65.605  1.00  0.00    -0.035 F  
ENDBRANCH  19  22
ENDBRANCH  17  19
ENDBRANCH  15  17
ENDBRANCH   7  10
BRANCH   8  30
HETATM   30  C   UNL     1      -6.614  14.419  68.014  1.00  0.00    -0.150 A  
HETATM   31  C   UNL     1      -5.767  12.305  67.842  1.00  0.00    -0.079 A  
HETATM   32  N   UNL     1      -6.131  13.439  67.227  1.00  0.00    -0.286 NA 
HETATM   33  N   UNL     1      -5.270  11.276  67.077  1.00  0.00    -0.061 NA 
HETATM   34  N   UNL     1      -5.787  12.102  69.163  1.00  0.00    -0.065 NA 
HETATM   35  C   UNL     1      -6.240  13.108  69.919  1.00  0.00    -0.094 A  
HETATM   36  H2  UNL     1      -5.180  11.373  66.065  1.00  0.00     0.000 HD 
HETATM   37  C   UNL     1      -6.676  14.294  69.393  1.00  0.00    -0.130 A  
HETATM   38  H1  UNL     1      -4.993  10.412  67.545  1.00  0.00     0.000 HD 
ENDBRANCH   8  30
ENDBRANCH   2   5
TORSDOF 6
ENDMDL
MODEL      219
REMARK 921   NORMALIZED FREE ENERGY PREDICTED BY IDOCK:   -4.03 KCAL/MOL
REMARK 922        TOTAL FREE ENERGY PREDICTED BY IDOCK:   -6.57 KCAL/MOL
REMARK 923 INTER-LIGAND FREE ENERGY PREDICTED BY IDOCK:   -5.88 KCAL/MOL
REMARK 924 INTRA-LIGAND FREE ENERGY PREDICTED BY IDOCK:   -0.68 KCAL/MOL
REMARK 927      BINDING AFFINITY PREDICTED BY RF-SCORE:    0.00 PKD
ROOT
HETATM    1  C   UNL     1     -12.054  14.639  64.200  1.00  0.00    -0.346 C  
HETATM    2  C   UNL     1     -11.841  13.130  64.419  1.00  0.00    -0.441 C  
HETATM    3  C   UNL     1     -11.049  12.585  63.206  1.00  0.00    -0.286 C  
HETATM    4  C   UNL     1     -13.231  12.454  64.440  1.00  0.00     0.174 C  
ENDROOT
BRANCH   2   5
HETATM    5  C   UNL     1     -11.096  12.838  65.733  1.00  0.00    -0.285 A  
HETATM    6  N   UNL     1     -11.410  11.960  66.670  1.00  0.00    -0.350 NA 
HETATM    7  C   UNL     1     -10.461  11.960  67.721  1.00  0.00    -0.202 A  
HETATM    8  C   UNL     1      -9.455  12.914  67.573  1.00  0.00    -0.198 A  
HETATM    9  S   UNL     1      -9.654  13.702  66.052  1.00  0.00    -0.098 SA 
BRANCH   7  10
HETATM   10  C   UNL     1     -10.591  11.005  68.842  1.00  0.00    -0.239 A  
HETATM   11  C   UNL     1      -9.707   9.917  68.979  1.00  0.00    -0.193 A  
HETATM   12  C   UNL     1     -11.562  11.164  69.848  1.00  0.00    -0.416 A  
HETATM   13  F   UNL     1      -8.773   9.665  68.046  1.00  0.00    -0.118 F  
HETATM   14  C   UNL     1     -11.591  10.340  70.981  1.00  0.00    -0.430 A  
HETATM   15  C   UNL     1      -9.735   9.082  70.112  1.00  0.00    -0.188 A  
HETATM   16  C   UNL     1     -10.672   9.304  71.117  1.00  0.00    -0.403 A  
BRANCH  15  17
HETATM   17  N   UNL     1      -8.753   8.054  70.289  1.00  0.00    -0.133 N  
HETATM   18  H   UNL     1      -7.817   8.293  70.618  1.00  0.00     0.000 HD 
BRANCH  17  19
HETATM   19  S   UNL     1      -9.145   6.445  69.951  1.00  0.00    -0.141 S  
HETATM   20  O   UNL     1     -10.388   6.422  69.209  1.00  0.00    -0.179 OA 
HETATM   21  O   UNL     1      -9.037   5.725  71.203  1.00  0.00    -0.144 OA 
BRANCH  19  22
HETATM   22  C   UNL     1      -7.845   5.862  68.933  1.00  0.00    -0.095 A  
HETATM   23  C   UNL     1      -7.780   4.502  68.657  1.00  0.00    -0.071 A  
HETATM   24  F   UNL     1      -8.580   3.632  69.290  1.00  0.00    -0.078 F  
HETATM   25  C   UNL     1      -6.885   4.007  67.706  1.00  0.00    -0.051 A  
HETATM   26  C   UNL     1      -6.046   4.884  67.022  1.00  0.00    -0.031 A  
HETATM   27  C   UNL     1      -6.093   6.247  67.314  1.00  0.00    -0.021 A  
HETATM   28  C   UNL     1      -6.994   6.731  68.266  1.00  0.00    -0.080 A  
HETATM   29  F   UNL     1      -7.018   8.052  68.479  1.00  0.00    -0.063 F  
ENDBRANCH  19  22
ENDBRANCH  17  19
ENDBRANCH  15  17
ENDBRANCH   7  10
BRANCH   8  30
HETATM   30  C   UNL     1      -8.293  13.360  68.363  1.00  0.00    -0.137 A  
HETATM   31  C   UNL     1      -7.038  15.090  69.168  1.00  0.00    -0.149 A  
HETATM   32  N   UNL     1      -8.113  14.689  68.475  1.00  0.00    -0.139 NA 
HETATM   33  N   UNL     1      -6.813  16.440  69.305  1.00  0.00    -0.210 NA 
HETATM   34  N   UNL     1      -6.182  14.282  69.801  1.00  0.00    -0.129 NA 
HETATM   35  C   UNL     1      -6.409  12.968  69.700  1.00  0.00    -0.089 A  
HETATM   36  H2  UNL     1      -7.449  17.121  68.889  1.00  0.00     0.000 HD 
HETATM   37  C   UNL     1      -7.453  12.447  68.982  1.00  0.00     0.075 A  
HETATM   38  H1  UNL     1      -5.995  16.745  69.833  1.00  0.00     0.000 HD 
ENDBRANCH   8  30
ENDBRANCH   2   5
TORSDOF 6
ENDMDL
MODEL      220
REMARK 921   NORMALIZED FREE ENERGY PREDICTED BY IDOCK:   -4.01 KCAL/MOL
REMARK 922        TOTAL FREE ENERGY PREDICTED BY IDOCK:   -6.54 KCAL/MOL
REMARK 923 INTER-LIGAND FREE ENERGY PREDICTED BY IDOCK:   -7.03 KCAL/MOL
REMARK 924 INTRA-LIGAND FREE ENERGY PREDICTED BY IDOCK:    0.49 KCAL/MOL
REMARK 927      BINDING AFFINITY PREDICTED BY RF-SCORE:    0.00 PKD
ROOT
HETATM    1  C   UNL     1     -10.501  19.478  66.563  1.00  0.00    -0.595 C  
HETATM    2  C   UNL     1      -9.497  18.629  67.364  1.00  0.00    -0.315 C  
HETATM    3  C   UNL     1      -8.871  19.536  68.449  1.00  0.00    -0.389 C  
HETATM    4  C   UNL     1      -8.379  18.179  66.395  1.00  0.00    -0.272 C  
ENDROOT
BRANCH   2   5
HETATM    5  C   UNL     1     -10.164  17.397  68.001  1.00  0.00    -0.345 A  
HETATM    6  N   UNL     1     -10.187  16.156  67.546  1.00  0.00    -0.261 NA 
HETATM    7  C   UNL     1     -10.877  15.291  68.431  1.00  0.00    -0.257 A  
HETATM    8  C   UNL     1     -11.428  15.938  69.537  1.00  0.00    -0.342 A  
HETATM    9  S   UNL     1     -10.956  17.596  69.504  1.00  0.00     1.197 SA 
BRANCH   7  10
HETATM   10  C   UNL     1     -10.965  13.845  68.141  1.00  0.00    -0.267 A  
HETATM   11  C   UNL     1     -10.006  13.205  67.330  1.00  0.00    -0.230 A  
HETATM   12  C   UNL     1     -11.969  13.031  68.697  1.00  0.00    -0.298 A  
HETATM   13  F   UNL     1      -9.034  13.908  66.725  1.00  0.00    -0.228 F  
HETATM   14  C   UNL     1     -11.965  11.640  68.535  1.00  0.00    -0.284 A  
HETATM   15  C   UNL     1     -10.001  11.808  67.156  1.00  0.00    -0.203 A  
HETATM   16  C   UNL     1     -10.977  11.027  67.771  1.00  0.00    -0.323 A  
BRANCH  15  17
HETATM   17  N   UNL     1      -8.951  11.164  66.425  1.00  0.00    -0.177 N  
HETATM   18  H   UNL     1      -8.462  11.667  65.684  1.00  0.00     0.000 HD 
BRANCH  17  19
HETATM   19  S   UNL     1      -8.522   9.570  66.790  1.00  0.00    -0.127 S  
HETATM   20  O   UNL     1      -7.737   9.045  65.694  1.00  0.00    -0.089 OA 
HETATM   21  O   UNL     1      -9.741   8.900  67.193  1.00  0.00    -0.160 OA 
BRANCH  19  22
HETATM   22  C   UNL     1      -7.524   9.684  68.225  1.00  0.00    -0.077 A  
HETATM   23  C   UNL     1      -6.251  10.227  68.104  1.00  0.00    -0.052 A  
HETATM   24  F   UNL     1      -5.729  10.494  66.898  1.00  0.00    -0.043 F  
HETATM   25  C   UNL     1      -5.486  10.515  69.235  1.00  0.00    -0.037 A  
HETATM   26  C   UNL     1      -6.001  10.260  70.504  1.00  0.00    -0.106 A  
HETATM   27  C   UNL     1      -7.270   9.694  70.627  1.00  0.00    -0.114 A  
HETATM   28  C   UNL     1      -8.028   9.411  69.488  1.00  0.00    -0.098 A  
HETATM   29  F   UNL     1      -9.252   8.901  69.670  1.00  0.00    -0.141 F  
ENDBRANCH  19  22
ENDBRANCH  17  19
ENDBRANCH  15  17
ENDBRANCH   7  10
BRANCH   8  30
HETATM   30  C   UNL     1     -12.252  15.542  70.693  1.00  0.00    -0.402 A  
HETATM   31  C   UNL     1     -12.346  14.868  72.873  1.00  0.00    -0.328 A  
HETATM   32  N   UNL     1     -11.595  15.257  71.833  1.00  0.00    -0.413 NA 
HETATM   33  N   UNL     1     -11.716  14.563  74.057  1.00  0.00    -0.129 NA 
HETATM   34  N   UNL     1     -13.681  14.806  72.882  1.00  0.00    -0.523 NA 
HETATM   35  C   UNL     1     -14.306  15.129  71.744  1.00  0.00    -0.597 A  
HETATM   36  H2  UNL     1     -10.702  14.632  74.143  1.00  0.00     0.000 HD 
HETATM   37  C   UNL     1     -13.635  15.500  70.608  1.00  0.00    -0.003 A  
HETATM   38  H1  UNL     1     -12.288  14.267  74.849  1.00  0.00     0.000 HD 
ENDBRANCH   8  30
ENDBRANCH   2   5
TORSDOF 6
ENDMDL
MODEL      221
REMARK 921   NORMALIZED FREE ENERGY PREDICTED BY IDOCK:   -4.00 KCAL/MOL
REMARK 922        TOTAL FREE ENERGY PREDICTED BY IDOCK:   -6.53 KCAL/MOL
REMARK 923 INTER-LIGAND FREE ENERGY PREDICTED BY IDOCK:   -6.35 KCAL/MOL
REMARK 924 INTRA-LIGAND FREE ENERGY PREDICTED BY IDOCK:   -0.18 KCAL/MOL
REMARK 927      BINDING AFFINITY PREDICTED BY RF-SCORE:    0.00 PKD
ROOT
HETATM    1  C   UNL     1     -10.490   7.750  66.832  1.00  0.00    -0.388 C  
HETATM    2  C   UNL     1      -9.148   7.999  67.543  1.00  0.00    -0.146 C  
HETATM    3  C   UNL     1      -8.018   7.542  66.590  1.00  0.00    -0.110 C  
HETATM    4  C   UNL     1      -9.111   7.111  68.808  1.00  0.00    -0.134 C  
ENDROOT
BRANCH   2   5
HETATM    5  C   UNL     1      -8.968   9.476  67.934  1.00  0.00    -0.123 A  
HETATM    6  N   UNL     1      -9.842  10.461  67.820  1.00  0.00    -0.166 NA 
HETATM    7  C   UNL     1      -9.319  11.680  68.318  1.00  0.00    -0.191 A  
HETATM    8  C   UNL     1      -7.997  11.590  68.752  1.00  0.00    -0.107 A  
HETATM    9  S   UNL     1      -7.484   9.948  68.643  1.00  0.00    -0.077 SA 
BRANCH   7  10
HETATM   10  C   UNL     1     -10.159  12.896  68.342  1.00  0.00    -0.227 A  
HETATM   11  C   UNL     1     -10.451  13.603  67.159  1.00  0.00    -0.264 A  
HETATM   12  C   UNL     1     -10.746  13.374  69.528  1.00  0.00     0.181 A  
HETATM   13  F   UNL     1      -9.903  13.243  65.986  1.00  0.00    -0.271 F  
HETATM   14  C   UNL     1     -11.654  14.441  69.523  1.00  0.00    -0.352 A  
HETATM   15  C   UNL     1     -11.357  14.681  67.149  1.00  0.00    -0.356 A  
HETATM   16  C   UNL     1     -11.966  15.089  68.333  1.00  0.00    -0.231 A  
BRANCH  15  17
HETATM   17  N   UNL     1     -11.731  15.311  65.918  1.00  0.00    -0.007 N  
HETATM   18  H   UNL     1     -12.606  15.059  65.460  1.00  0.00     0.000 HD 
BRANCH  17  19
HETATM   19  S   UNL     1     -10.719  16.475  65.225  1.00  0.00    -0.146 S  
HETATM   20  O   UNL     1     -11.518  17.322  64.364  1.00  0.00    -0.941 OA 
HETATM   21  O   UNL     1      -9.582  15.761  64.683  1.00  0.00     0.356 OA 
BRANCH  19  22
HETATM   22  C   UNL     1     -10.115  17.415  66.573  1.00  0.00    -0.320 A  
HETATM   23  C   UNL     1     -10.636  18.687  66.780  1.00  0.00    -0.371 A  
HETATM   24  F   UNL     1     -11.449  19.252  65.876  1.00  0.00     0.049 F  
HETATM   25  C   UNL     1     -10.334  19.404  67.938  1.00  0.00    -0.542 A  
HETATM   26  C   UNL     1      -9.500  18.842  68.904  1.00  0.00    -0.356 A  
HETATM   27  C   UNL     1      -8.958  17.576  68.688  1.00  0.00    -0.260 A  
HETATM   28  C   UNL     1      -9.269  16.866  67.525  1.00  0.00    -0.223 A  
HETATM   29  F   UNL     1      -8.747  15.641  67.390  1.00  0.00    -0.163 F  
ENDBRANCH  19  22
ENDBRANCH  17  19
ENDBRANCH  15  17
ENDBRANCH   7  10
BRANCH   8  30
HETATM   30  C   UNL     1      -6.994  12.526  69.292  1.00  0.00     0.032 A  
HETATM   31  C   UNL     1      -5.684  13.171  71.048  1.00  0.00    -0.113 A  
HETATM   32  N   UNL     1      -6.572  12.300  70.550  1.00  0.00     0.273 NA 
HETATM   33  N   UNL     1      -5.227  12.979  72.331  1.00  0.00    -0.382 NA 
HETATM   34  N   UNL     1      -5.145  14.194  70.377  1.00  0.00    -0.094 NA 
HETATM   35  C   UNL     1      -5.560  14.371  69.117  1.00  0.00    -0.091 A  
HETATM   36  H2  UNL     1      -5.557  12.193  72.891  1.00  0.00     0.000 HD 
HETATM   37  C   UNL     1      -6.495  13.566  68.523  1.00  0.00    -0.090 A  
HETATM   38  H1  UNL     1      -4.551  13.643  72.711  1.00  0.00     0.000 HD 
ENDBRANCH   8  30
ENDBRANCH   2   5
TORSDOF 6
ENDMDL
MODEL      222
REMARK 921   NORMALIZED FREE ENERGY PREDICTED BY IDOCK:   -3.97 KCAL/MOL
REMARK 922        TOTAL FREE ENERGY PREDICTED BY IDOCK:   -6.49 KCAL/MOL
REMARK 923 INTER-LIGAND FREE ENERGY PREDICTED BY IDOCK:   -6.44 KCAL/MOL
REMARK 924 INTRA-LIGAND FREE ENERGY PREDICTED BY IDOCK:   -0.05 KCAL/MOL
REMARK 927      BINDING AFFINITY PREDICTED BY RF-SCORE:    0.00 PKD
ROOT
HETATM    1  C   UNL     1      -6.670  14.622  70.166  1.00  0.00    -0.106 C  
HETATM    2  C   UNL     1      -6.398  14.098  68.745  1.00  0.00    -0.088 C  
HETATM    3  C   UNL     1      -5.132  13.210  68.804  1.00  0.00    -0.066 C  
HETATM    4  C   UNL     1      -6.099  15.316  67.841  1.00  0.00    -0.169 C  
ENDROOT
BRANCH   2   5
HETATM    5  C   UNL     1      -7.593  13.309  68.183  1.00  0.00    -0.141 A  
HETATM    6  N   UNL     1      -7.843  12.016  68.299  1.00  0.00    -0.138 NA 
HETATM    7  C   UNL     1      -9.061  11.663  67.670  1.00  0.00    -0.174 A  
HETATM    8  C   UNL     1      -9.688  12.726  67.020  1.00  0.00    -0.224 A  
HETATM    9  S   UNL     1      -8.796  14.170  67.325  1.00  0.00    -0.227 SA 
BRANCH   7  10
HETATM   10  C   UNL     1      -9.559  10.273  67.737  1.00  0.00    -0.171 A  
HETATM   11  C   UNL     1      -8.817   9.206  67.193  1.00  0.00    -0.119 A  
HETATM   12  C   UNL     1     -10.763   9.942  68.387  1.00  0.00    -0.271 A  
HETATM   13  F   UNL     1      -7.676   9.431  66.520  1.00  0.00    -0.091 F  
HETATM   14  C   UNL     1     -11.159   8.611  68.571  1.00  0.00     0.273 A  
HETATM   15  C   UNL     1      -9.214   7.867  67.369  1.00  0.00    -0.140 A  
HETATM   16  C   UNL     1     -10.381   7.573  68.069  1.00  0.00    -0.254 A  
BRANCH  15  17
HETATM   17  N   UNL     1      -8.385   6.792  66.910  1.00  0.00    -0.113 N  
HETATM   18  H   UNL     1      -7.634   6.973  66.245  1.00  0.00     0.000 HD 
BRANCH  17  19
HETATM   19  S   UNL     1      -8.654   5.221  67.473  1.00  0.00    -0.103 S  
HETATM   20  O   UNL     1     -10.081   4.974  67.480  1.00  0.00    -0.174 OA 
HETATM   21  O   UNL     1      -7.892   5.087  68.697  1.00  0.00    -0.078 OA 
BRANCH  19  22
HETATM   22  C   UNL     1      -7.885   4.176  66.297  1.00  0.00    -0.094 A  
HETATM   23  C   UNL     1      -8.428   4.105  65.020  1.00  0.00    -0.115 A  
HETATM   24  F   UNL     1      -9.608   4.677  64.742  1.00  0.00    -0.161 F  
HETATM   25  C   UNL     1      -7.755   3.442  63.992  1.00  0.00    -0.076 A  
HETATM   26  C   UNL     1      -6.522   2.844  64.244  1.00  0.00    -0.031 A  
HETATM   27  C   UNL     1      -5.985   2.896  65.530  1.00  0.00    -0.019 A  
HETATM   28  C   UNL     1      -6.666   3.564  66.551  1.00  0.00    -0.052 A  
HETATM   29  F   UNL     1      -6.086   3.609  67.756  1.00  0.00    -0.027 F  
ENDBRANCH  19  22
ENDBRANCH  17  19
ENDBRANCH  15  17
ENDBRANCH   7  10
BRANCH   8  30
HETATM   30  C   UNL     1     -10.902  12.899  66.201  1.00  0.00    -0.279 A  
HETATM   31  C   UNL     1     -12.074  12.342  64.322  1.00  0.00    -0.412 A  
HETATM   32  N   UNL     1     -10.984  12.159  65.080  1.00  0.00    -0.300 NA 
HETATM   33  N   UNL     1     -12.199  11.608  63.165  1.00  0.00    -0.966 NA 
HETATM   34  N   UNL     1     -13.100  13.144  64.625  1.00  0.00    -0.605 NA 
HETATM   35  C   UNL     1     -13.003  13.840  65.764  1.00  0.00    -0.256 A  
HETATM   36  H2  UNL     1     -11.479  10.940  62.890  1.00  0.00     0.000 HD 
HETATM   37  C   UNL     1     -11.915  13.761  66.592  1.00  0.00    -0.469 A  
HETATM   38  H1  UNL     1     -13.029  11.748  62.589  1.00  0.00     0.000 HD 
ENDBRANCH   8  30
ENDBRANCH   2   5
TORSDOF 6
ENDMDL
MODEL      223
REMARK 921   NORMALIZED FREE ENERGY PREDICTED BY IDOCK:   -3.96 KCAL/MOL
REMARK 922        TOTAL FREE ENERGY PREDICTED BY IDOCK:   -6.48 KCAL/MOL
REMARK 923 INTER-LIGAND FREE ENERGY PREDICTED BY IDOCK:   -4.95 KCAL/MOL
REMARK 924 INTRA-LIGAND FREE ENERGY PREDICTED BY IDOCK:   -1.53 KCAL/MOL
REMARK 927      BINDING AFFINITY PREDICTED BY RF-SCORE:    0.00 PKD
ROOT
HETATM    1  C   UNL     1      -9.121   8.982  63.129  1.00  0.00     0.273 C  
HETATM    2  C   UNL     1      -9.031  10.249  63.999  1.00  0.00    -0.261 C  
HETATM    3  C   UNL     1     -10.296  11.097  63.729  1.00  0.00    -0.447 C  
HETATM    4  C   UNL     1      -7.794  11.053  63.536  1.00  0.00     0.464 C  
ENDROOT
BRANCH   2   5
HETATM    5  C   UNL     1      -8.908   9.913  65.495  1.00  0.00    -0.159 A  
HETATM    6  N   UNL     1      -9.873   9.837  66.395  1.00  0.00    -0.219 NA 
HETATM    7  C   UNL     1      -9.370   9.471  67.667  1.00  0.00    -0.123 A  
HETATM    8  C   UNL     1      -7.982   9.335  67.707  1.00  0.00    -0.100 A  
HETATM    9  S   UNL     1      -7.356   9.546  66.114  1.00  0.00    -0.095 SA 
BRANCH   7  10
HETATM   10  C   UNL     1     -10.293   9.269  68.804  1.00  0.00    -0.231 A  
HETATM   11  C   UNL     1     -10.549   7.982  69.316  1.00  0.00    -0.184 A  
HETATM   12  C   UNL     1     -10.916  10.347  69.460  1.00  0.00    -0.307 A  
HETATM   13  F   UNL     1     -10.028   6.890  68.729  1.00  0.00    -0.145 F  
HETATM   14  C   UNL     1     -11.675  10.164  70.622  1.00  0.00    -0.425 A  
HETATM   15  C   UNL     1     -11.317   7.790  70.479  1.00  0.00    -0.241 A  
HETATM   16  C   UNL     1     -11.870   8.886  71.137  1.00  0.00    -0.353 A  
BRANCH  15  17
HETATM   17  N   UNL     1     -11.468   6.484  71.050  1.00  0.00    -0.319 N  
HETATM   18  H   UNL     1     -12.176   5.846  70.685  1.00  0.00     0.000 HD 
BRANCH  17  19
HETATM   19  S   UNL     1     -10.473   6.002  72.328  1.00  0.00    -0.213 S  
HETATM   20  O   UNL     1     -11.257   5.196  73.240  1.00  0.00    -0.308 OA 
HETATM   21  O   UNL     1      -9.812   7.198  72.807  1.00  0.00    -0.165 OA 
BRANCH  19  22
HETATM   22  C   UNL     1      -9.230   5.013  71.591  1.00  0.00    -0.145 A  
HETATM   23  C   UNL     1      -8.014   5.606  71.274  1.00  0.00    -0.112 A  
HETATM   24  F   UNL     1      -7.852   6.933  71.365  1.00  0.00    -0.094 F  
HETATM   25  C   UNL     1      -6.927   4.833  70.863  1.00  0.00    -0.037 A  
HETATM   26  C   UNL     1      -7.058   3.448  70.768  1.00  0.00    -0.033 A  
HETATM   27  C   UNL     1      -8.284   2.854  71.063  1.00  0.00    -0.074 A  
HETATM   28  C   UNL     1      -9.365   3.637  71.477  1.00  0.00    -0.137 A  
HETATM   29  F   UNL     1     -10.506   3.007  71.779  1.00  0.00    -0.167 F  
ENDBRANCH  19  22
ENDBRANCH  17  19
ENDBRANCH  15  17
ENDBRANCH   7  10
BRANCH   8  30
HETATM   30  C   UNL     1      -6.977   9.030  68.742  1.00  0.00    -0.062 A  
HETATM   31  C   UNL     1      -5.983   9.607  70.715  1.00  0.00    -0.077 A  
HETATM   32  N   UNL     1      -6.919   9.869  69.792  1.00  0.00    -0.080 NA 
HETATM   33  N   UNL     1      -5.886  10.440  71.805  1.00  0.00    -0.289 NA 
HETATM   34  N   UNL     1      -5.160   8.554  70.703  1.00  0.00    -0.022 NA 
HETATM   35  C   UNL     1      -5.266   7.720  69.662  1.00  0.00    -0.023 A  
HETATM   36  H2  UNL     1      -6.512  11.239  71.909  1.00  0.00     0.000 HD 
HETATM   37  C   UNL     1      -6.159   7.916  68.642  1.00  0.00    -0.036 A  
HETATM   38  H1  UNL     1      -5.174  10.240  72.508  1.00  0.00     0.000 HD 
ENDBRANCH   8  30
ENDBRANCH   2   5
TORSDOF 6
ENDMDL
MODEL      224
REMARK 921   NORMALIZED FREE ENERGY PREDICTED BY IDOCK:   -3.87 KCAL/MOL
REMARK 922        TOTAL FREE ENERGY PREDICTED BY IDOCK:   -6.35 KCAL/MOL
REMARK 923 INTER-LIGAND FREE ENERGY PREDICTED BY IDOCK:   -6.05 KCAL/MOL
REMARK 924 INTRA-LIGAND FREE ENERGY PREDICTED BY IDOCK:   -0.30 KCAL/MOL
REMARK 927      BINDING AFFINITY PREDICTED BY RF-SCORE:    0.00 PKD
ROOT
HETATM    1  C   UNL     1     -12.245  14.979  72.188  1.00  0.00    -0.446 C  
HETATM    2  C   UNL     1     -13.020  14.245  71.079  1.00  0.00    -0.411 C  
HETATM    3  C   UNL     1     -13.238  15.242  69.916  1.00  0.00     0.365 C  
HETATM    4  C   UNL     1     -14.400  13.848  71.650  1.00  0.00    -0.145 C  
ENDROOT
BRANCH   2   5
HETATM    5  C   UNL     1     -12.275  12.990  70.589  1.00  0.00    -0.307 A  
HETATM    6  N   UNL     1     -11.377  12.901  69.623  1.00  0.00    -0.156 NA 
HETATM    7  C   UNL     1     -10.892  11.577  69.485  1.00  0.00    -0.064 A  
HETATM    8  C   UNL     1     -11.503  10.661  70.340  1.00  0.00    -0.334 A  
HETATM    9  S   UNL     1     -12.582  11.508  71.385  1.00  0.00    -0.248 SA 
BRANCH   7  10
HETATM   10  C   UNL     1      -9.832  11.271  68.502  1.00  0.00    -0.198 A  
HETATM   11  C   UNL     1      -9.994  10.242  67.553  1.00  0.00    -0.189 A  
HETATM   12  C   UNL     1      -8.642  12.018  68.430  1.00  0.00    -0.147 A  
HETATM   13  F   UNL     1     -11.080   9.452  67.571  1.00  0.00    -0.334 F  
HETATM   14  C   UNL     1      -7.705  11.817  67.407  1.00  0.00    -0.151 A  
HETATM   15  C   UNL     1      -9.053  10.030  66.528  1.00  0.00    -0.148 A  
HETATM   16  C   UNL     1      -7.914  10.828  66.452  1.00  0.00    -0.151 A  
BRANCH  15  17
HETATM   17  N   UNL     1      -9.292   9.057  65.504  1.00  0.00    -0.379 N  
HETATM   18  H   UNL     1     -10.195   9.026  65.029  1.00  0.00     0.000 HD 
BRANCH  17  19
HETATM   19  S   UNL     1      -8.078   7.959  65.082  1.00  0.00    -0.142 S  
HETATM   20  O   UNL     1      -7.045   8.007  66.095  1.00  0.00    -0.061 OA 
HETATM   21  O   UNL     1      -7.746   8.226  63.698  1.00  0.00    -0.130 OA 
BRANCH  19  22
HETATM   22  C   UNL     1      -8.853   6.389  65.110  1.00  0.00     0.166 A  
HETATM   23  C   UNL     1      -8.527   5.473  64.117  1.00  0.00    -0.053 A  
HETATM   24  F   UNL     1      -7.777   5.835  63.066  1.00  0.00    -0.063 F  
HETATM   25  C   UNL     1      -8.964   4.149  64.193  1.00  0.00    -0.144 A  
HETATM   26  C   UNL     1      -9.737   3.736  65.276  1.00  0.00    -0.167 A  
HETATM   27  C   UNL     1     -10.084   4.659  66.262  1.00  0.00    -0.292 A  
HETATM   28  C   UNL     1      -9.639   5.981  66.177  1.00  0.00    -0.055 A  
HETATM   29  F   UNL     1      -9.975   6.812  67.170  1.00  0.00    -0.157 F  
ENDBRANCH  19  22
ENDBRANCH  17  19
ENDBRANCH  15  17
ENDBRANCH   7  10
BRANCH   8  30
HETATM   30  C   UNL     1     -11.418   9.207  70.571  1.00  0.00    -0.229 A  
HETATM   31  C   UNL     1     -10.143   7.313  70.581  1.00  0.00    -0.194 A  
HETATM   32  N   UNL     1     -10.210   8.639  70.401  1.00  0.00    -0.188 NA 
HETATM   33  N   UNL     1      -8.928   6.690  70.416  1.00  0.00    -0.152 NA 
HETATM   34  N   UNL     1     -11.156   6.534  70.974  1.00  0.00    -0.273 NA 
HETATM   35  C   UNL     1     -12.336   7.135  71.167  1.00  0.00    -0.364 A  
HETATM   36  H2  UNL     1      -8.096   7.224  70.163  1.00  0.00     0.000 HD 
HETATM   37  C   UNL     1     -12.526   8.477  70.971  1.00  0.00    -0.104 A  
HETATM   38  H1  UNL     1      -8.877   5.680  70.554  1.00  0.00     0.000 HD 
ENDBRANCH   8  30
ENDBRANCH   2   5
TORSDOF 6
ENDMDL
MODEL      225
REMARK 921   NORMALIZED FREE ENERGY PREDICTED BY IDOCK:   -3.84 KCAL/MOL
REMARK 922        TOTAL FREE ENERGY PREDICTED BY IDOCK:   -6.31 KCAL/MOL
REMARK 923 INTER-LIGAND FREE ENERGY PREDICTED BY IDOCK:   -6.77 KCAL/MOL
REMARK 924 INTRA-LIGAND FREE ENERGY PREDICTED BY IDOCK:    0.46 KCAL/MOL
REMARK 927      BINDING AFFINITY PREDICTED BY RF-SCORE:    0.00 PKD
ROOT
HETATM    1  C   UNL     1      -8.900   3.364  69.109  1.00  0.00    -0.158 C  
HETATM    2  C   UNL     1      -8.561   4.098  67.800  1.00  0.00    -0.109 C  
HETATM    3  C   UNL     1      -9.670   3.768  66.773  1.00  0.00    -0.149 C  
HETATM    4  C   UNL     1      -7.222   3.532  67.273  1.00  0.00    -0.059 C  
ENDROOT
BRANCH   2   5
HETATM    5  C   UNL     1      -8.442   5.618  68.005  1.00  0.00    -0.102 A  
HETATM    6  N   UNL     1      -9.281   6.423  68.634  1.00  0.00    -0.126 NA 
HETATM    7  C   UNL     1      -8.812   7.760  68.641  1.00  0.00    -0.131 A  
HETATM    8  C   UNL     1      -7.621   7.943  67.939  1.00  0.00    -0.109 A  
HETATM    9  S   UNL     1      -7.052   6.408  67.396  1.00  0.00    -0.078 SA 
BRANCH   7  10
HETATM   10  C   UNL     1      -9.571   8.812  69.349  1.00  0.00    -0.163 A  
HETATM   11  C   UNL     1      -9.551  10.149  68.904  1.00  0.00    -0.184 A  
HETATM   12  C   UNL     1     -10.386   8.525  70.459  1.00  0.00    -0.226 A  
HETATM   13  F   UNL     1      -8.772  10.523  67.875  1.00  0.00    -0.122 F  
HETATM   14  C   UNL     1     -11.212   9.497  71.038  1.00  0.00    -0.432 A  
HETATM   15  C   UNL     1     -10.374  11.132  69.486  1.00  0.00     0.021 A  
HETATM   16  C   UNL     1     -11.213  10.799  70.546  1.00  0.00    -0.188 A  
BRANCH  15  17
HETATM   17  N   UNL     1     -10.426  12.457  68.944  1.00  0.00    -0.402 N  
HETATM   18  H   UNL     1      -9.600  13.055  68.975  1.00  0.00     0.000 HD 
BRANCH  17  19
HETATM   19  S   UNL     1     -11.859  13.030  68.255  1.00  0.00    -0.300 S  
HETATM   20  O   UNL     1     -12.657  13.642  69.297  1.00  0.00    -0.082 OA 
HETATM   21  O   UNL     1     -12.404  11.939  67.474  1.00  0.00    -0.326 OA 
BRANCH  19  22
HETATM   22  C   UNL     1     -11.356  14.254  67.108  1.00  0.00    -0.337 A  
HETATM   23  C   UNL     1     -10.376  15.160  67.494  1.00  0.00    -0.242 A  
HETATM   24  F   UNL     1      -9.950  15.212  68.765  1.00  0.00    -0.200 F  
HETATM   25  C   UNL     1      -9.802  16.032  66.568  1.00  0.00    -0.284 A  
HETATM   26  C   UNL     1     -10.213  15.998  65.237  1.00  0.00    -0.245 A  
HETATM   27  C   UNL     1     -11.213  15.105  64.851  1.00  0.00    -0.424 A  
HETATM   28  C   UNL     1     -11.778  14.234  65.787  1.00  0.00    -0.359 A  
HETATM   29  F   UNL     1     -12.709  13.377  65.351  1.00  0.00    -0.475 F  
ENDBRANCH  19  22
ENDBRANCH  17  19
ENDBRANCH  15  17
ENDBRANCH   7  10
BRANCH   8  30
HETATM   30  C   UNL     1      -6.756   9.088  67.601  1.00  0.00    -0.065 A  
HETATM   31  C   UNL     1      -5.933  10.496  66.003  1.00  0.00    -0.111 A  
HETATM   32  N   UNL     1      -6.744   9.475  66.312  1.00  0.00    -0.074 NA 
HETATM   33  N   UNL     1      -5.887  10.924  64.696  1.00  0.00    -0.382 NA 
HETATM   34  N   UNL     1      -5.197  11.190  66.876  1.00  0.00    -0.067 NA 
HETATM   35  C   UNL     1      -5.258  10.803  68.155  1.00  0.00    -0.036 A  
HETATM   36  H2  UNL     1      -6.456  10.474  63.978  1.00  0.00     0.000 HD 
HETATM   37  C   UNL     1      -6.021   9.745  68.575  1.00  0.00    -0.042 A  
HETATM   38  H1  UNL     1      -5.269  11.701  64.461  1.00  0.00     0.000 HD 
ENDBRANCH   8  30
ENDBRANCH   2   5
TORSDOF 6
ENDMDL
MODEL      226
REMARK 921   NORMALIZED FREE ENERGY PREDICTED BY IDOCK:   -3.83 KCAL/MOL
REMARK 922        TOTAL FREE ENERGY PREDICTED BY IDOCK:   -6.30 KCAL/MOL
REMARK 923 INTER-LIGAND FREE ENERGY PREDICTED BY IDOCK:   -6.37 KCAL/MOL
REMARK 924 INTRA-LIGAND FREE ENERGY PREDICTED BY IDOCK:    0.07 KCAL/MOL
REMARK 927      BINDING AFFINITY PREDICTED BY RF-SCORE:    0.00 PKD
ROOT
HETATM    1  C   UNL     1      -6.728  14.453  70.177  1.00  0.00    -0.053 C  
HETATM    2  C   UNL     1      -6.386  13.890  68.785  1.00  0.00    -0.091 C  
HETATM    3  C   UNL     1      -5.153  12.969  68.939  1.00  0.00    -0.068 C  
HETATM    4  C   UNL     1      -6.000  15.079  67.876  1.00  0.00    -0.163 C  
ENDROOT
BRANCH   2   5
HETATM    5  C   UNL     1      -7.568  13.121  68.168  1.00  0.00    -0.141 A  
HETATM    6  N   UNL     1      -7.790  11.818  68.185  1.00  0.00    -0.127 NA 
HETATM    7  C   UNL     1      -9.005  11.490  67.535  1.00  0.00    -0.159 A  
HETATM    8  C   UNL     1      -9.658  12.586  66.973  1.00  0.00    -0.216 A  
HETATM    9  S   UNL     1      -8.795  14.021  67.386  1.00  0.00    -0.217 SA 
BRANCH   7  10
HETATM   10  C   UNL     1      -9.473  10.088  67.495  1.00  0.00    -0.169 A  
HETATM   11  C   UNL     1      -8.706   9.081  66.878  1.00  0.00    -0.123 A  
HETATM   12  C   UNL     1     -10.671   9.684  68.112  1.00  0.00    -0.266 A  
HETATM   13  F   UNL     1      -7.567   9.380  66.230  1.00  0.00    -0.093 F  
HETATM   14  C   UNL     1     -11.040   8.335  68.195  1.00  0.00     0.330 A  
HETATM   15  C   UNL     1      -9.074   7.724  66.951  1.00  0.00    -0.144 A  
HETATM   16  C   UNL     1     -10.237   7.354  67.621  1.00  0.00    -0.261 A  
BRANCH  15  17
HETATM   17  N   UNL     1      -8.221   6.704  66.418  1.00  0.00    -0.112 N  
HETATM   18  H   UNL     1      -7.406   6.959  65.861  1.00  0.00     0.000 HD 
BRANCH  17  19
HETATM   19  S   UNL     1      -8.567   5.076  66.714  1.00  0.00    -0.108 S  
HETATM   20  O   UNL     1      -7.712   4.266  65.872  1.00  0.00    -0.088 OA 
HETATM   21  O   UNL     1     -10.006   4.939  66.626  1.00  0.00    -0.181 OA 
BRANCH  19  22
HETATM   22  C   UNL     1      -8.149   4.818  68.395  1.00  0.00    -0.084 A  
HETATM   23  C   UNL     1      -6.818   4.947  68.773  1.00  0.00    -0.051 A  
HETATM   24  F   UNL     1      -5.853   5.090  67.853  1.00  0.00    -0.018 F  
HETATM   25  C   UNL     1      -6.453   4.940  70.120  1.00  0.00    -0.035 A  
HETATM   26  C   UNL     1      -7.432   4.804  71.102  1.00  0.00    -0.072 A  
HETATM   27  C   UNL     1      -8.766   4.652  70.724  1.00  0.00    -0.133 A  
HETATM   28  C   UNL     1      -9.120   4.663  69.373  1.00  0.00    -0.108 A  
HETATM   29  F   UNL     1     -10.419   4.547  69.073  1.00  0.00    -0.155 F  
ENDBRANCH  19  22
ENDBRANCH  17  19
ENDBRANCH  15  17
ENDBRANCH   7  10
BRANCH   8  30
HETATM   30  C   UNL     1     -10.880  12.796  66.175  1.00  0.00    -0.279 A  
HETATM   31  C   UNL     1     -12.080  12.311  64.294  1.00  0.00    -0.412 A  
HETATM   32  N   UNL     1     -10.983  12.094  65.032  1.00  0.00    -0.300 NA 
HETATM   33  N   UNL     1     -12.226  11.616  63.116  1.00  0.00    -0.966 NA 
HETATM   34  N   UNL     1     -13.094  13.112  64.635  1.00  0.00    -0.605 NA 
HETATM   35  C   UNL     1     -12.977  13.770  65.794  1.00  0.00    -0.256 A  
HETATM   36  H2  UNL     1     -11.515  10.950  62.811  1.00  0.00     0.000 HD 
HETATM   37  C   UNL     1     -11.880  13.654  66.606  1.00  0.00    -0.447 A  
HETATM   38  H1  UNL     1     -13.062  11.781  62.555  1.00  0.00     0.000 HD 
ENDBRANCH   8  30
ENDBRANCH   2   5
TORSDOF 6
ENDMDL
MODEL      227
REMARK 921   NORMALIZED FREE ENERGY PREDICTED BY IDOCK:   -3.66 KCAL/MOL
REMARK 922        TOTAL FREE ENERGY PREDICTED BY IDOCK:   -6.07 KCAL/MOL
REMARK 923 INTER-LIGAND FREE ENERGY PREDICTED BY IDOCK:   -5.25 KCAL/MOL
REMARK 924 INTRA-LIGAND FREE ENERGY PREDICTED BY IDOCK:   -0.82 KCAL/MOL
REMARK 927      BINDING AFFINITY PREDICTED BY RF-SCORE:    0.00 PKD
ROOT
HETATM    1  C   UNL     1      -8.503   5.982  62.332  1.00  0.00    -0.020 C  
HETATM    2  C   UNL     1      -7.504   6.952  62.989  1.00  0.00    -0.082 C  
HETATM    3  C   UNL     1      -7.847   8.381  62.507  1.00  0.00    -0.140 C  
HETATM    4  C   UNL     1      -6.090   6.589  62.481  1.00  0.00    -0.031 C  
ENDROOT
BRANCH   2   5
HETATM    5  C   UNL     1      -7.546   6.869  64.525  1.00  0.00    -0.107 A  
HETATM    6  N   UNL     1      -8.170   7.675  65.367  1.00  0.00    -0.132 NA 
HETATM    7  C   UNL     1      -8.000   7.256  66.710  1.00  0.00    -0.118 A  
HETATM    8  C   UNL     1      -7.173   6.142  66.852  1.00  0.00    -0.074 A  
HETATM    9  S   UNL     1      -6.732   5.571  65.286  1.00  0.00    -0.045 SA 
BRANCH   7  10
HETATM   10  C   UNL     1      -8.670   7.983  67.808  1.00  0.00    -0.127 A  
HETATM   11  C   UNL     1      -9.938   7.587  68.278  1.00  0.00    -0.173 A  
HETATM   12  C   UNL     1      -8.059   9.065  68.468  1.00  0.00    -0.107 A  
HETATM   13  F   UNL     1     -10.613   6.589  67.683  1.00  0.00    -0.187 F  
HETATM   14  C   UNL     1      -8.634   9.660  69.598  1.00  0.00    -0.196 A  
HETATM   15  C   UNL     1     -10.525   8.185  69.409  1.00  0.00    -0.220 A  
HETATM   16  C   UNL     1      -9.864   9.215  70.074  1.00  0.00    -0.217 A  
BRANCH  15  17
HETATM   17  N   UNL     1     -11.759   7.690  69.942  1.00  0.00    -0.416 N  
HETATM   18  H   UNL     1     -12.528   7.453  69.315  1.00  0.00     0.000 HD 
BRANCH  17  19
HETATM   19  S   UNL     1     -11.940   7.496  71.611  1.00  0.00    -0.317 S  
HETATM   20  O   UNL     1     -13.255   6.947  71.869  1.00  0.00    -0.307 OA 
HETATM   21  O   UNL     1     -11.551   8.754  72.214  1.00  0.00    -0.365 OA 
BRANCH  19  22
HETATM   22  C   UNL     1     -10.717   6.330  72.071  1.00  0.00    -0.228 A  
HETATM   23  C   UNL     1     -10.393   5.322  71.172  1.00  0.00    -0.221 A  
HETATM   24  F   UNL     1     -11.115   5.136  70.057  1.00  0.00    -0.257 F  
HETATM   25  C   UNL     1      -9.302   4.482  71.401  1.00  0.00    -0.206 A  
HETATM   26  C   UNL     1      -8.523   4.654  72.544  1.00  0.00    -0.115 A  
HETATM   27  C   UNL     1      -8.860   5.651  73.459  1.00  0.00    -0.122 A  
HETATM   28  C   UNL     1      -9.954   6.487  73.219  1.00  0.00    -0.185 A  
HETATM   29  F   UNL     1     -10.208   7.447  74.115  1.00  0.00    -0.336 F  
ENDBRANCH  19  22
ENDBRANCH  17  19
ENDBRANCH  15  17
ENDBRANCH   7  10
BRANCH   8  30
HETATM   30  C   UNL     1      -6.641   5.354  67.979  1.00  0.00    -0.049 A  
HETATM   31  C   UNL     1      -6.475   3.334  69.031  1.00  0.00    -0.030 A  
HETATM   32  N   UNL     1      -6.933   4.040  67.988  1.00  0.00    -0.051 NA 
HETATM   33  N   UNL     1      -6.751   1.988  69.082  1.00  0.00    -0.033 NA 
HETATM   34  N   UNL     1      -5.707   3.816  70.013  1.00  0.00    -0.016 NA 
HETATM   35  C   UNL     1      -5.406   5.119  69.957  1.00  0.00    -0.004 A  
HETATM   36  H2  UNL     1      -7.293   1.537  68.344  1.00  0.00     0.000 HD 
HETATM   37  C   UNL     1      -5.856   5.942  68.959  1.00  0.00    -0.016 A  
HETATM   38  H1  UNL     1      -6.403   1.450  69.876  1.00  0.00     0.000 HD 
ENDBRANCH   8  30
ENDBRANCH   2   5
TORSDOF 6
ENDMDL
MODEL      228
REMARK 921   NORMALIZED FREE ENERGY PREDICTED BY IDOCK:   -3.63 KCAL/MOL
REMARK 922        TOTAL FREE ENERGY PREDICTED BY IDOCK:   -6.03 KCAL/MOL
REMARK 923 INTER-LIGAND FREE ENERGY PREDICTED BY IDOCK:   -5.87 KCAL/MOL
REMARK 924 INTRA-LIGAND FREE ENERGY PREDICTED BY IDOCK:   -0.16 KCAL/MOL
REMARK 927      BINDING AFFINITY PREDICTED BY RF-SCORE:    0.00 PKD
ROOT
HETATM    1  C   UNL     1     -10.611  15.456  64.983  1.00  0.00    -0.445 C  
HETATM    2  C   UNL     1     -11.464  14.176  65.044  1.00  0.00    -0.352 C  
HETATM    3  C   UNL     1     -12.197  14.033  63.689  1.00  0.00    -0.145 C  
HETATM    4  C   UNL     1     -12.521  14.365  66.156  1.00  0.00    -0.276 C  
ENDROOT
BRANCH   2   5
HETATM    5  C   UNL     1     -10.612  12.929  65.337  1.00  0.00    -0.289 A  
HETATM    6  N   UNL     1     -10.298  12.415  66.514  1.00  0.00    -0.226 NA 
HETATM    7  C   UNL     1      -9.519  11.240  66.377  1.00  0.00    -0.200 A  
HETATM    8  C   UNL     1      -9.204  10.924  65.055  1.00  0.00    -0.207 A  
HETATM    9  S   UNL     1     -10.001  12.039  64.010  1.00  0.00    -0.262 SA 
BRANCH   7  10
HETATM   10  C   UNL     1      -9.113  10.472  67.572  1.00  0.00    -0.144 A  
HETATM   11  C   UNL     1      -9.872   9.374  68.025  1.00  0.00    -0.164 A  
HETATM   12  C   UNL     1      -7.933  10.761  68.280  1.00  0.00    -0.118 A  
HETATM   13  F   UNL     1     -11.034   9.047  67.433  1.00  0.00    -0.341 F  
HETATM   14  C   UNL     1      -7.479   9.944  69.324  1.00  0.00    -0.096 A  
HETATM   15  C   UNL     1      -9.426   8.553  69.077  1.00  0.00    -0.150 A  
HETATM   16  C   UNL     1      -8.222   8.835  69.718  1.00  0.00    -0.117 A  
BRANCH  15  17
HETATM   17  N   UNL     1     -10.152   7.374  69.445  1.00  0.00    -0.181 N  
HETATM   18  H   UNL     1     -10.868   7.000  68.823  1.00  0.00     0.000 HD 
BRANCH  17  19
HETATM   19  S   UNL     1      -9.820   6.602  70.912  1.00  0.00    -0.182 S  
HETATM   20  O   UNL     1     -10.854   5.619  71.156  1.00  0.00    -0.257 OA 
HETATM   21  O   UNL     1      -9.576   7.650  71.881  1.00  0.00    -0.149 OA 
BRANCH  19  22
HETATM   22  C   UNL     1      -8.287   5.791  70.665  1.00  0.00    -0.120 A  
HETATM   23  C   UNL     1      -8.214   4.796  69.697  1.00  0.00    -0.072 A  
HETATM   24  F   UNL     1      -9.320   4.343  69.091  1.00  0.00    -0.150 F  
HETATM   25  C   UNL     1      -6.984   4.250  69.326  1.00  0.00    -0.050 A  
HETATM   26  C   UNL     1      -5.813   4.706  69.928  1.00  0.00    -0.017 A  
HETATM   27  C   UNL     1      -5.887   5.688  70.915  1.00  0.00    -0.024 A  
HETATM   28  C   UNL     1      -7.123   6.230  71.278  1.00  0.00    -0.077 A  
HETATM   29  F   UNL     1      -7.128   7.193  72.206  1.00  0.00    -0.066 F  
ENDBRANCH  19  22
ENDBRANCH  17  19
ENDBRANCH  15  17
ENDBRANCH   7  10
BRANCH   8  30
HETATM   30  C   UNL     1      -8.412   9.883  64.376  1.00  0.00    -0.177 A  
HETATM   31  C   UNL     1      -8.001   7.661  64.042  1.00  0.00    -0.099 A  
HETATM   32  N   UNL     1      -8.743   8.605  64.637  1.00  0.00    -0.094 NA 
HETATM   33  N   UNL     1      -8.303   6.341  64.282  1.00  0.00    -0.319 NA 
HETATM   34  N   UNL     1      -7.014   7.890  63.171  1.00  0.00    -0.082 NA 
HETATM   35  C   UNL     1      -6.731   9.171  62.906  1.00  0.00    -0.093 A  
HETATM   36  H2  UNL     1      -9.074   6.086  64.900  1.00  0.00     0.000 HD 
HETATM   37  C   UNL     1      -7.398  10.215  63.490  1.00  0.00    -0.127 A  
HETATM   38  H1  UNL     1      -7.738   5.623  63.829  1.00  0.00     0.000 HD 
ENDBRANCH   8  30
ENDBRANCH   2   5
TORSDOF 6
ENDMDL
MODEL      229
REMARK 921   NORMALIZED FREE ENERGY PREDICTED BY IDOCK:   -3.61 KCAL/MOL
REMARK 922        TOTAL FREE ENERGY PREDICTED BY IDOCK:   -6.00 KCAL/MOL
REMARK 923 INTER-LIGAND FREE ENERGY PREDICTED BY IDOCK:   -5.27 KCAL/MOL
REMARK 924 INTRA-LIGAND FREE ENERGY PREDICTED BY IDOCK:   -0.72 KCAL/MOL
REMARK 927      BINDING AFFINITY PREDICTED BY RF-SCORE:    0.00 PKD
ROOT
HETATM    1  C   UNL     1      -5.139  10.170  69.003  1.00  0.00    -0.035 C  
HETATM    2  C   UNL     1      -6.004  10.401  70.255  1.00  0.00    -0.096 C  
HETATM    3  C   UNL     1      -5.659  11.800  70.816  1.00  0.00    -0.115 C  
HETATM    4  C   UNL     1      -5.607   9.339  71.306  1.00  0.00    -0.060 C  
ENDROOT
BRANCH   2   5
HETATM    5  C   UNL     1      -7.508  10.293  69.945  1.00  0.00    -0.158 A  
HETATM    6  N   UNL     1      -8.229  11.051  69.137  1.00  0.00    -0.097 NA 
HETATM    7  C   UNL     1      -9.578  10.621  69.088  1.00  0.00    -0.177 A  
HETATM    8  C   UNL     1      -9.860   9.552  69.937  1.00  0.00    -0.226 A  
HETATM    9  S   UNL     1      -8.395   9.029  70.681  1.00  0.00    -0.200 SA 
BRANCH   7  10
HETATM   10  C   UNL     1     -10.543  11.295  68.194  1.00  0.00    -0.225 A  
HETATM   11  C   UNL     1     -10.877  12.653  68.373  1.00  0.00    -0.245 A  
HETATM   12  C   UNL     1     -11.130  10.637  67.098  1.00  0.00    -0.267 A  
HETATM   13  F   UNL     1     -10.394  13.351  69.415  1.00  0.00    -0.058 F  
HETATM   14  C   UNL     1     -11.932  11.318  66.173  1.00  0.00     1.099 A  
HETATM   15  C   UNL     1     -11.687  13.341  67.451  1.00  0.00    -0.373 A  
HETATM   16  C   UNL     1     -12.204  12.672  66.344  1.00  0.00    -0.174 A  
BRANCH  15  17
HETATM   17  N   UNL     1     -11.919  14.748  67.587  1.00  0.00    -0.524 N  
HETATM   18  H   UNL     1     -12.758  15.084  68.060  1.00  0.00     0.000 HD 
BRANCH  17  19
HETATM   19  S   UNL     1     -10.801  15.851  66.962  1.00  0.00    -0.193 S  
HETATM   20  O   UNL     1     -11.141  17.172  67.447  1.00  0.00    -0.128 OA 
HETATM   21  O   UNL     1     -10.730  15.601  65.537  1.00  0.00    -0.350 OA 
BRANCH  19  22
HETATM   22  C   UNL     1      -9.256  15.362  67.626  1.00  0.00    -0.187 A  
HETATM   23  C   UNL     1      -8.827  15.954  68.808  1.00  0.00    -0.213 A  
HETATM   24  F   UNL     1      -9.487  16.995  69.334  1.00  0.00    -0.196 F  
HETATM   25  C   UNL     1      -7.703  15.473  69.482  1.00  0.00    -0.197 A  
HETATM   26  C   UNL     1      -7.000  14.385  68.968  1.00  0.00    -0.114 A  
HETATM   27  C   UNL     1      -7.416  13.804  67.770  1.00  0.00    -0.168 A  
HETATM   28  C   UNL     1      -8.544  14.292  67.105  1.00  0.00    -0.216 A  
HETATM   29  F   UNL     1      -8.915  13.672  65.979  1.00  0.00    -0.080 F  
ENDBRANCH  19  22
ENDBRANCH  17  19
ENDBRANCH  15  17
ENDBRANCH   7  10
BRANCH   8  30
HETATM   30  C   UNL     1     -11.060   8.776  70.302  1.00  0.00    -0.222 A  
HETATM   31  C   UNL     1     -12.940   8.594  71.585  1.00  0.00    -0.344 A  
HETATM   32  N   UNL     1     -11.867   9.316  71.234  1.00  0.00    -0.319 NA 
HETATM   33  N   UNL     1     -13.792   9.105  72.536  1.00  0.00    -0.668 NA 
HETATM   34  N   UNL     1     -13.298   7.427  71.040  1.00  0.00    -0.172 NA 
HETATM   35  C   UNL     1     -12.493   6.934  70.091  1.00  0.00     0.357 A  
HETATM   36  H2  UNL     1     -13.611  10.013  72.965  1.00  0.00     0.000 HD 
HETATM   37  C   UNL     1     -11.349   7.568  69.686  1.00  0.00     0.067 A  
HETATM   38  H1  UNL     1     -14.609   8.555  72.803  1.00  0.00     0.000 HD 
ENDBRANCH   8  30
ENDBRANCH   2   5
TORSDOF 6
ENDMDL
MODEL      230
REMARK 921   NORMALIZED FREE ENERGY PREDICTED BY IDOCK:   -3.54 KCAL/MOL
REMARK 922        TOTAL FREE ENERGY PREDICTED BY IDOCK:   -5.91 KCAL/MOL
REMARK 923 INTER-LIGAND FREE ENERGY PREDICTED BY IDOCK:   -4.90 KCAL/MOL
REMARK 924 INTRA-LIGAND FREE ENERGY PREDICTED BY IDOCK:   -1.00 KCAL/MOL
REMARK 927      BINDING AFFINITY PREDICTED BY RF-SCORE:    0.00 PKD
ROOT
HETATM    1  C   UNL     1      -9.978  16.242  67.995  1.00  0.00    -0.240 C  
HETATM    2  C   UNL     1      -8.701  15.478  68.390  1.00  0.00    -0.174 C  
HETATM    3  C   UNL     1      -8.228  16.025  69.758  1.00  0.00     0.325 C  
HETATM    4  C   UNL     1      -7.616  15.792  67.334  1.00  0.00    -0.220 C  
ENDROOT
BRANCH   2   5
HETATM    5  C   UNL     1      -8.938  13.960  68.463  1.00  0.00    -0.141 A  
HETATM    6  N   UNL     1      -9.795  13.304  69.226  1.00  0.00     0.438 NA 
HETATM    7  C   UNL     1      -9.742  11.909  68.987  1.00  0.00     0.180 A  
HETATM    8  C   UNL     1      -8.770  11.532  68.061  1.00  0.00    -0.151 A  
HETATM    9  S   UNL     1      -8.032  12.952  67.418  1.00  0.00    -0.161 SA 
BRANCH   7  10
HETATM   10  C   UNL     1     -10.666  10.997  69.693  1.00  0.00    -0.193 A  
HETATM   11  C   UNL     1     -10.182   9.903  70.439  1.00  0.00    -0.236 A  
HETATM   12  C   UNL     1     -12.058  11.202  69.700  1.00  0.00    -0.406 A  
HETATM   13  F   UNL     1      -8.871   9.608  70.459  1.00  0.00    -0.237 F  
HETATM   14  C   UNL     1     -12.915  10.420  70.485  1.00  0.00    -0.280 A  
HETATM   15  C   UNL     1     -11.039   9.109  71.225  1.00  0.00    -0.335 A  
HETATM   16  C   UNL     1     -12.405   9.379  71.254  1.00  0.00    -0.422 A  
BRANCH  15  17
HETATM   17  N   UNL     1     -10.513   8.077  72.067  1.00  0.00    -0.228 N  
HETATM   18  H   UNL     1      -9.971   8.321  72.897  1.00  0.00     0.000 HD 
BRANCH  17  19
HETATM   19  S   UNL     1     -10.790   6.454  71.686  1.00  0.00    -0.257 S  
HETATM   20  O   UNL     1     -11.761   6.394  70.614  1.00  0.00    -0.373 OA 
HETATM   21  O   UNL     1     -11.055   5.778  72.939  1.00  0.00    -0.257 OA 
BRANCH  19  22
HETATM   22  C   UNL     1      -9.249   5.849  71.116  1.00  0.00    -0.150 A  
HETATM   23  C   UNL     1      -8.994   5.870  69.750  1.00  0.00    -0.131 A  
HETATM   24  F   UNL     1      -9.962   6.178  68.875  1.00  0.00    -0.140 F  
HETATM   25  C   UNL     1      -7.722   5.580  69.255  1.00  0.00    -0.087 A  
HETATM   26  C   UNL     1      -6.690   5.267  70.137  1.00  0.00    -0.044 A  
HETATM   27  C   UNL     1      -6.949   5.223  71.507  1.00  0.00    -0.065 A  
HETATM   28  C   UNL     1      -8.226   5.517  71.992  1.00  0.00    -0.115 A  
HETATM   29  F   UNL     1      -8.405   5.492  73.317  1.00  0.00    -0.115 F  
ENDBRANCH  19  22
ENDBRANCH  17  19
ENDBRANCH  15  17
ENDBRANCH   7  10
BRANCH   8  30
HETATM   30  C   UNL     1      -8.275  10.260  67.503  1.00  0.00    -0.114 A  
HETATM   31  C   UNL     1      -8.667   8.426  66.201  1.00  0.00    -0.151 A  
HETATM   32  N   UNL     1      -9.109   9.596  66.681  1.00  0.00    -0.145 NA 
HETATM   33  N   UNL     1      -9.487   7.712  65.359  1.00  0.00    -0.048 NA 
HETATM   34  N   UNL     1      -7.455   7.908  66.422  1.00  0.00    -0.086 NA 
HETATM   35  C   UNL     1      -6.637   8.609  67.216  1.00  0.00    -0.058 A  
HETATM   36  H2  UNL     1     -10.410   8.065  65.105  1.00  0.00     0.000 HD 
HETATM   37  C   UNL     1      -7.001   9.796  67.794  1.00  0.00    -0.086 A  
HETATM   38  H1  UNL     1      -9.151   6.820  64.993  1.00  0.00     0.000 HD 
ENDBRANCH   8  30
ENDBRANCH   2   5
TORSDOF 6
ENDMDL
MODEL      231
REMARK 921   NORMALIZED FREE ENERGY PREDICTED BY IDOCK:   -3.35 KCAL/MOL
REMARK 922        TOTAL FREE ENERGY PREDICTED BY IDOCK:   -5.65 KCAL/MOL
REMARK 923 INTER-LIGAND FREE ENERGY PREDICTED BY IDOCK:   -5.47 KCAL/MOL
REMARK 924 INTRA-LIGAND FREE ENERGY PREDICTED BY IDOCK:   -0.18 KCAL/MOL
REMARK 927      BINDING AFFINITY PREDICTED BY RF-SCORE:    0.00 PKD
ROOT
HETATM    1  C   UNL     1      -5.658   7.887  64.696  1.00  0.00    -0.044 C  
HETATM    2  C   UNL     1      -6.372   6.922  65.660  1.00  0.00    -0.043 C  
HETATM    3  C   UNL     1      -5.288   6.206  66.499  1.00  0.00    -0.012 C  
HETATM    4  C   UNL     1      -7.111   5.864  64.808  1.00  0.00    -0.060 C  
ENDROOT
BRANCH   2   5
HETATM    5  C   UNL     1      -7.373   7.654  66.571  1.00  0.00    -0.087 A  
HETATM    6  N   UNL     1      -7.920   8.844  66.391  1.00  0.00    -0.102 NA 
HETATM    7  C   UNL     1      -8.820   9.165  67.436  1.00  0.00    -0.118 A  
HETATM    8  C   UNL     1      -8.883   8.202  68.442  1.00  0.00    -0.133 A  
HETATM    9  S   UNL     1      -7.906   6.856  67.987  1.00  0.00    -0.115 SA 
BRANCH   7  10
HETATM   10  C   UNL     1      -9.588  10.428  67.396  1.00  0.00    -0.178 A  
HETATM   11  C   UNL     1      -8.940  11.677  67.466  1.00  0.00    -0.165 A  
HETATM   12  C   UNL     1     -10.985  10.446  67.233  1.00  0.00    -0.306 A  
HETATM   13  F   UNL     1      -7.613  11.757  67.660  1.00  0.00    -0.105 F  
HETATM   14  C   UNL     1     -11.691  11.643  67.053  1.00  0.00    -0.176 A  
HETATM   15  C   UNL     1      -9.644  12.884  67.294  1.00  0.00    -0.220 A  
HETATM   16  C   UNL     1     -11.019  12.862  67.075  1.00  0.00    -0.290 A  
BRANCH  15  17
HETATM   17  N   UNL     1      -8.951  14.137  67.251  1.00  0.00    -0.203 N  
HETATM   18  H   UNL     1      -7.931  14.157  67.264  1.00  0.00     0.000 HD 
BRANCH  17  19
HETATM   19  S   UNL     1      -9.825  15.582  67.180  1.00  0.00    -0.238 S  
HETATM   20  O   UNL     1     -10.911  15.509  68.134  1.00  0.00    -0.287 OA 
HETATM   21  O   UNL     1     -10.108  15.822  65.780  1.00  0.00    -0.319 OA 
BRANCH  19  22
HETATM   22  C   UNL     1      -8.693  16.824  67.674  1.00  0.00    -0.204 A  
HETATM   23  C   UNL     1      -8.655  17.189  69.014  1.00  0.00    -0.101 A  
HETATM   24  F   UNL     1      -9.575  16.735  69.877  1.00  0.00     0.014 F  
HETATM   25  C   UNL     1      -7.652  18.030  69.498  1.00  0.00     0.357 A  
HETATM   26  C   UNL     1      -6.673  18.512  68.631  1.00  0.00    -0.273 A  
HETATM   27  C   UNL     1      -6.723  18.165  67.281  1.00  0.00    -0.205 A  
HETATM   28  C   UNL     1      -7.730  17.321  66.808  1.00  0.00    -0.244 A  
HETATM   29  F   UNL     1      -7.706  16.996  65.510  1.00  0.00    -0.090 F  
ENDBRANCH  19  22
ENDBRANCH  17  19
ENDBRANCH  15  17
ENDBRANCH   7  10
BRANCH   8  30
HETATM   30  C   UNL     1      -9.588   8.059  69.729  1.00  0.00    -0.171 A  
HETATM   31  C   UNL     1      -9.505   8.134  72.010  1.00  0.00    -0.215 A  
HETATM   32  N   UNL     1      -8.869   8.295  70.842  1.00  0.00    -0.143 NA 
HETATM   33  N   UNL     1      -8.807   8.362  73.173  1.00  0.00    -0.316 NA 
HETATM   34  N   UNL     1     -10.798   7.824  72.149  1.00  0.00    -0.240 NA 
HETATM   35  C   UNL     1     -11.494   7.630  71.023  1.00  0.00    -0.276 A  
HETATM   36  H2  UNL     1      -7.828   8.647  73.147  1.00  0.00     0.000 HD 
HETATM   37  C   UNL     1     -10.934   7.728  69.777  1.00  0.00    -0.162 A  
HETATM   38  H1  UNL     1      -9.292   8.239  74.063  1.00  0.00     0.000 HD 
ENDBRANCH   8  30
ENDBRANCH   2   5
TORSDOF 6
ENDMDL
MODEL      232
REMARK 921   NORMALIZED FREE ENERGY PREDICTED BY IDOCK:   -3.34 KCAL/MOL
REMARK 922        TOTAL FREE ENERGY PREDICTED BY IDOCK:   -5.64 KCAL/MOL
REMARK 923 INTER-LIGAND FREE ENERGY PREDICTED BY IDOCK:   -4.95 KCAL/MOL
REMARK 924 INTRA-LIGAND FREE ENERGY PREDICTED BY IDOCK:   -0.69 KCAL/MOL
REMARK 927      BINDING AFFINITY PREDICTED BY RF-SCORE:    0.00 PKD
ROOT
HETATM    1  C   UNL     1      -7.751   1.622  67.843  1.00  0.00    -0.058 C  
HETATM    2  C   UNL     1      -8.922   2.614  67.737  1.00  0.00    -0.198 C  
HETATM    3  C   UNL     1      -9.998   2.186  68.764  1.00  0.00     0.510 C  
HETATM    4  C   UNL     1      -9.522   2.487  66.318  1.00  0.00     0.136 C  
ENDROOT
BRANCH   2   5
HETATM    5  C   UNL     1      -8.474   4.064  67.989  1.00  0.00    -0.094 A  
HETATM    6  N   UNL     1      -8.683   5.125  67.228  1.00  0.00    -0.104 NA 
HETATM    7  C   UNL     1      -8.141   6.297  67.811  1.00  0.00    -0.114 A  
HETATM    8  C   UNL     1      -7.462   6.069  69.008  1.00  0.00    -0.086 A  
HETATM    9  S   UNL     1      -7.630   4.408  69.437  1.00  0.00    -0.054 SA 
BRANCH   7  10
HETATM   10  C   UNL     1      -8.320   7.608  67.152  1.00  0.00    -0.121 A  
HETATM   11  C   UNL     1      -8.984   8.666  67.803  1.00  0.00    -0.136 A  
HETATM   12  C   UNL     1      -7.794   7.879  65.875  1.00  0.00    -0.101 A  
HETATM   13  F   UNL     1      -9.552   8.488  69.008  1.00  0.00    -0.160 F  
HETATM   14  C   UNL     1      -7.842   9.162  65.315  1.00  0.00    -0.105 A  
HETATM   15  C   UNL     1      -9.042   9.956  67.242  1.00  0.00    -0.135 A  
HETATM   16  C   UNL     1      -8.459  10.203  66.002  1.00  0.00    -0.136 A  
BRANCH  15  17
HETATM   17  N   UNL     1      -9.619  11.046  67.971  1.00  0.00    -0.165 N  
HETATM   18  H   UNL     1      -9.046  11.588  68.618  1.00  0.00     0.000 HD 
BRANCH  17  19
HETATM   19  S   UNL     1     -11.251  11.434  67.759  1.00  0.00    -0.294 S  
HETATM   20  O   UNL     1     -12.034  10.642  68.684  1.00  0.00    -0.401 OA 
HETATM   21  O   UNL     1     -11.511  11.350  66.337  1.00  0.00    -0.349 OA 
BRANCH  19  22
HETATM   22  C   UNL     1     -11.377  13.128  68.184  1.00  0.00    -0.292 A  
HETATM   23  C   UNL     1     -11.891  13.460  69.431  1.00  0.00    -0.335 A  
HETATM   24  F   UNL     1     -12.439  12.526  70.221  1.00  0.00    -0.333 F  
HETATM   25  C   UNL     1     -11.840  14.775  69.898  1.00  0.00    -0.364 A  
HETATM   26  C   UNL     1     -11.267  15.769  69.108  1.00  0.00    -0.322 A  
HETATM   27  C   UNL     1     -10.771  15.442  67.846  1.00  0.00    -0.286 A  
HETATM   28  C   UNL     1     -10.825  14.122  67.390  1.00  0.00    -0.287 A  
HETATM   29  F   UNL     1     -10.303  13.863  66.186  1.00  0.00    -0.274 F  
ENDBRANCH  19  22
ENDBRANCH  17  19
ENDBRANCH  15  17
ENDBRANCH   7  10
BRANCH   8  30
HETATM   30  C   UNL     1      -6.700   6.891  69.966  1.00  0.00    -0.052 A  
HETATM   31  C   UNL     1      -6.078   7.279  72.128  1.00  0.00    -0.040 A  
HETATM   32  N   UNL     1      -6.746   6.512  71.256  1.00  0.00    -0.057 NA 
HETATM   33  N   UNL     1      -6.100   6.931  73.459  1.00  0.00    -0.058 NA 
HETATM   34  N   UNL     1      -5.326   8.338  71.808  1.00  0.00    -0.034 NA 
HETATM   35  C   UNL     1      -5.273   8.667  70.512  1.00  0.00    -0.021 A  
HETATM   36  H2  UNL     1      -6.613   6.109  73.775  1.00  0.00     0.000 HD 
HETATM   37  C   UNL     1      -5.951   7.978  69.542  1.00  0.00    -0.033 A  
HETATM   38  H1  UNL     1      -5.590   7.516  74.122  1.00  0.00     0.000 HD 
ENDBRANCH   8  30
ENDBRANCH   2   5
TORSDOF 6
ENDMDL
MODEL      233
REMARK 921   NORMALIZED FREE ENERGY PREDICTED BY IDOCK:   -3.28 KCAL/MOL
REMARK 922        TOTAL FREE ENERGY PREDICTED BY IDOCK:   -5.56 KCAL/MOL
REMARK 923 INTER-LIGAND FREE ENERGY PREDICTED BY IDOCK:   -5.11 KCAL/MOL
REMARK 924 INTRA-LIGAND FREE ENERGY PREDICTED BY IDOCK:   -0.45 KCAL/MOL
REMARK 927      BINDING AFFINITY PREDICTED BY RF-SCORE:    0.00 PKD
ROOT
HETATM    1  C   UNL     1      -9.816   9.662  63.996  1.00  0.00     0.586 C  
HETATM    2  C   UNL     1     -10.042  11.184  63.972  1.00  0.00    -0.392 C  
HETATM    3  C   UNL     1     -11.529  11.435  63.629  1.00  0.00    -0.232 C  
HETATM    4  C   UNL     1      -9.171  11.773  62.838  1.00  0.00     0.110 C  
ENDROOT
BRANCH   2   5
HETATM    5  C   UNL     1      -9.673  11.843  65.312  1.00  0.00    -0.192 A  
HETATM    6  N   UNL     1      -8.903  11.360  66.273  1.00  0.00    -0.195 NA 
HETATM    7  C   UNL     1      -8.774  12.276  67.345  1.00  0.00    -0.180 A  
HETATM    8  C   UNL     1      -9.525  13.441  67.185  1.00  0.00    -0.244 A  
HETATM    9  S   UNL     1     -10.275  13.412  65.633  1.00  0.00    -0.279 SA 
BRANCH   7  10
HETATM   10  C   UNL     1      -7.905  11.958  68.497  1.00  0.00    -0.136 A  
HETATM   11  C   UNL     1      -7.928  10.683  69.097  1.00  0.00    -0.139 A  
HETATM   12  C   UNL     1      -6.981  12.885  69.013  1.00  0.00    -0.058 A  
HETATM   13  F   UNL     1      -8.804   9.747  68.695  1.00  0.00    -0.118 F  
HETATM   14  C   UNL     1      -6.061  12.532  70.010  1.00  0.00    -0.117 A  
HETATM   15  C   UNL     1      -7.012  10.325  70.103  1.00  0.00    -0.155 A  
HETATM   16  C   UNL     1      -6.071  11.250  70.549  1.00  0.00    -0.070 A  
BRANCH  15  17
HETATM   17  N   UNL     1      -6.974   8.988  70.618  1.00  0.00    -0.066 N  
HETATM   18  H   UNL     1      -6.368   8.291  70.186  1.00  0.00     0.000 HD 
BRANCH  17  19
HETATM   19  S   UNL     1      -7.936   8.567  71.943  1.00  0.00    -0.088 S  
HETATM   20  O   UNL     1      -9.224   9.212  71.798  1.00  0.00    -0.338 OA 
HETATM   21  O   UNL     1      -7.135   8.809  73.125  1.00  0.00    -0.334 OA 
BRANCH  19  22
HETATM   22  C   UNL     1      -8.134   6.831  71.828  1.00  0.00    -0.102 A  
HETATM   23  C   UNL     1      -7.242   6.113  71.041  1.00  0.00    -0.075 A  
HETATM   24  F   UNL     1      -6.363   6.743  70.249  1.00  0.00    -0.034 F  
HETATM   25  C   UNL     1      -7.233   4.717  71.061  1.00  0.00    -0.059 A  
HETATM   26  C   UNL     1      -8.127   4.030  71.880  1.00  0.00    -0.084 A  
HETATM   27  C   UNL     1      -9.038   4.748  72.654  1.00  0.00    -0.139 A  
HETATM   28  C   UNL     1      -9.037   6.145  72.628  1.00  0.00    -0.140 A  
HETATM   29  F   UNL     1      -9.911   6.779  73.418  1.00  0.00    -0.168 F  
ENDBRANCH  19  22
ENDBRANCH  17  19
ENDBRANCH  15  17
ENDBRANCH   7  10
BRANCH   8  30
HETATM   30  C   UNL     1      -9.785  14.651  67.985  1.00  0.00    -0.216 A  
HETATM   31  C   UNL     1      -9.654  16.923  68.171  1.00  0.00    -0.255 A  
HETATM   32  N   UNL     1      -9.445  15.828  67.428  1.00  0.00    -0.211 NA 
HETATM   33  N   UNL     1      -9.318  18.148  67.642  1.00  0.00    -0.258 NA 
HETATM   34  N   UNL     1     -10.227  16.940  69.378  1.00  0.00    -0.249 NA 
HETATM   35  C   UNL     1     -10.586  15.757  69.890  1.00  0.00    -0.328 A  
HETATM   36  H2  UNL     1      -8.918  18.221  66.706  1.00  0.00     0.000 HD 
HETATM   37  C   UNL     1     -10.380  14.572  69.235  1.00  0.00    -0.154 A  
HETATM   38  H1  UNL     1      -9.477  18.982  68.207  1.00  0.00     0.000 HD 
ENDBRANCH   8  30
ENDBRANCH   2   5
TORSDOF 6
ENDMDL
MODEL      234
REMARK 921   NORMALIZED FREE ENERGY PREDICTED BY IDOCK:   -3.24 KCAL/MOL
REMARK 922        TOTAL FREE ENERGY PREDICTED BY IDOCK:   -5.51 KCAL/MOL
REMARK 923 INTER-LIGAND FREE ENERGY PREDICTED BY IDOCK:   -5.69 KCAL/MOL
REMARK 924 INTRA-LIGAND FREE ENERGY PREDICTED BY IDOCK:    0.19 KCAL/MOL
REMARK 927      BINDING AFFINITY PREDICTED BY RF-SCORE:    0.00 PKD
ROOT
HETATM    1  C   UNL     1     -10.270  10.218  64.373  1.00  0.00    -0.105 C  
HETATM    2  C   UNL     1     -10.637  11.707  64.505  1.00  0.00    -0.373 C  
HETATM    3  C   UNL     1     -12.160  11.796  64.758  1.00  0.00    -0.045 C  
HETATM    4  C   UNL     1     -10.323  12.392  63.155  1.00  0.00     0.069 C  
ENDROOT
BRANCH   2   5
HETATM    5  C   UNL     1      -9.854  12.396  65.636  1.00  0.00    -0.222 A  
HETATM    6  N   UNL     1      -9.169  11.830  66.615  1.00  0.00    -0.193 NA 
HETATM    7  C   UNL     1      -8.557  12.798  67.448  1.00  0.00    -0.194 A  
HETATM    8  C   UNL     1      -8.859  14.114  67.099  1.00  0.00    -0.229 A  
HETATM    9  S   UNL     1      -9.800  14.106  65.654  1.00  0.00    -0.197 SA 
BRANCH   7  10
HETATM   10  C   UNL     1      -7.691  12.376  68.569  1.00  0.00    -0.120 A  
HETATM   11  C   UNL     1      -7.662  11.036  69.003  1.00  0.00    -0.132 A  
HETATM   12  C   UNL     1      -6.822  13.272  69.218  1.00  0.00    -0.031 A  
HETATM   13  F   UNL     1      -8.486  10.119  68.467  1.00  0.00    -0.108 F  
HETATM   14  C   UNL     1      -5.902  12.838  70.182  1.00  0.00    -0.155 A  
HETATM   15  C   UNL     1      -6.746  10.595  69.976  1.00  0.00    -0.156 A  
HETATM   16  C   UNL     1      -5.858  11.498  70.555  1.00  0.00    -0.129 A  
BRANCH  15  17
HETATM   17  N   UNL     1      -6.652   9.207  70.318  1.00  0.00    -0.047 N  
HETATM   18  H   UNL     1      -5.949   8.618  69.872  1.00  0.00     0.000 HD 
BRANCH  17  19
HETATM   19  S   UNL     1      -7.706   8.547  71.462  1.00  0.00    -0.116 S  
HETATM   20  O   UNL     1      -8.847   9.428  71.596  1.00  0.00    -0.243 OA 
HETATM   21  O   UNL     1      -6.902   8.225  72.623  1.00  0.00    -0.086 OA 
BRANCH  19  22
HETATM   22  C   UNL     1      -8.221   7.019  70.780  1.00  0.00    -0.121 A  
HETATM   23  C   UNL     1      -9.509   6.573  71.053  1.00  0.00    -0.164 A  
HETATM   24  F   UNL     1     -10.278   7.202  71.954  1.00  0.00    -0.189 F  
HETATM   25  C   UNL     1     -10.038   5.465  70.389  1.00  0.00    -0.314 A  
HETATM   26  C   UNL     1      -9.270   4.795  69.439  1.00  0.00    -0.169 A  
HETATM   27  C   UNL     1      -7.970   5.227  69.180  1.00  0.00    -0.089 A  
HETATM   28  C   UNL     1      -7.451   6.339  69.849  1.00  0.00    -0.084 A  
HETATM   29  F   UNL     1      -6.210   6.727  69.533  1.00  0.00    -0.029 F  
ENDBRANCH  19  22
ENDBRANCH  17  19
ENDBRANCH  15  17
ENDBRANCH   7  10
BRANCH   8  30
HETATM   30  C   UNL     1      -8.543  15.451  67.634  1.00  0.00    -0.167 A  
HETATM   31  C   UNL     1      -9.283  17.377  68.613  1.00  0.00    -0.265 A  
HETATM   32  N   UNL     1      -9.568  16.150  68.156  1.00  0.00    -0.215 NA 
HETATM   33  N   UNL     1     -10.301  18.129  69.153  1.00  0.00    -0.417 NA 
HETATM   34  N   UNL     1      -8.064  17.924  68.649  1.00  0.00    -0.296 NA 
HETATM   35  C   UNL     1      -7.061  17.190  68.154  1.00  0.00    -0.180 A  
HETATM   36  H2  UNL     1     -11.251  17.761  69.204  1.00  0.00     0.000 HD 
HETATM   37  C   UNL     1      -7.246  15.941  67.624  1.00  0.00    -0.182 A  
HETATM   38  H1  UNL     1     -10.083  19.063  69.501  1.00  0.00     0.000 HD 
ENDBRANCH   8  30
ENDBRANCH   2   5
TORSDOF 6
ENDMDL
MODEL      235
REMARK 921   NORMALIZED FREE ENERGY PREDICTED BY IDOCK:   -3.22 KCAL/MOL
REMARK 922        TOTAL FREE ENERGY PREDICTED BY IDOCK:   -5.48 KCAL/MOL
REMARK 923 INTER-LIGAND FREE ENERGY PREDICTED BY IDOCK:   -6.39 KCAL/MOL
REMARK 924 INTRA-LIGAND FREE ENERGY PREDICTED BY IDOCK:    0.91 KCAL/MOL
REMARK 927      BINDING AFFINITY PREDICTED BY RF-SCORE:    0.00 PKD
ROOT
HETATM    1  C   UNL     1      -5.151   7.909  66.589  1.00  0.00    -0.024 C  
HETATM    2  C   UNL     1      -6.581   8.471  66.496  1.00  0.00    -0.059 C  
HETATM    3  C   UNL     1      -7.520   7.496  67.245  1.00  0.00    -0.100 C  
HETATM    4  C   UNL     1      -6.986   8.492  65.004  1.00  0.00    -0.075 C  
ENDROOT
BRANCH   2   5
HETATM    5  C   UNL     1      -6.683   9.888  67.087  1.00  0.00    -0.074 A  
HETATM    6  N   UNL     1      -7.279  10.947  66.566  1.00  0.00    -0.137 NA 
HETATM    7  C   UNL     1      -7.186  12.070  67.423  1.00  0.00    -0.144 A  
HETATM    8  C   UNL     1      -6.444  11.836  68.581  1.00  0.00    -0.060 A  
HETATM    9  S   UNL     1      -5.989  10.173  68.624  1.00  0.00    -0.040 SA 
BRANCH   7  10
HETATM   10  C   UNL     1      -7.842  13.343  67.058  1.00  0.00     0.076 A  
HETATM   11  C   UNL     1      -8.986  13.364  66.235  1.00  0.00     0.132 A  
HETATM   12  C   UNL     1      -7.393  14.583  67.550  1.00  0.00    -0.212 A  
HETATM   13  F   UNL     1      -9.463  12.233  65.689  1.00  0.00    -0.235 F  
HETATM   14  C   UNL     1      -8.100  15.769  67.316  1.00  0.00    -0.217 A  
HETATM   15  C   UNL     1      -9.697  14.553  65.991  1.00  0.00    -0.303 A  
HETATM   16  C   UNL     1      -9.257  15.754  66.543  1.00  0.00    -0.314 A  
BRANCH  15  17
HETATM   17  N   UNL     1     -10.923  14.535  65.250  1.00  0.00    -0.338 N  
HETATM   18  H   UNL     1     -10.994  15.039  64.366  1.00  0.00     0.000 HD 
BRANCH  17  19
HETATM   19  S   UNL     1     -12.253  13.675  65.841  1.00  0.00    -0.469 S  
HETATM   20  O   UNL     1     -12.238  12.350  65.259  1.00  0.00    -0.495 OA 
HETATM   21  O   UNL     1     -13.408  14.531  65.661  1.00  0.00    -0.286 OA 
BRANCH  19  22
HETATM   22  C   UNL     1     -11.991  13.560  67.569  1.00  0.00    -0.346 A  
HETATM   23  C   UNL     1     -12.109  14.713  68.335  1.00  0.00    -0.188 A  
HETATM   24  F   UNL     1     -12.246  15.914  67.753  1.00  0.00     0.068 F  
HETATM   25  C   UNL     1     -12.099  14.650  69.729  1.00  0.00    -0.371 A  
HETATM   26  C   UNL     1     -11.969  13.418  70.366  1.00  0.00    -0.358 A  
HETATM   27  C   UNL     1     -11.827  12.261  69.600  1.00  0.00    -0.393 A  
HETATM   28  C   UNL     1     -11.842  12.336  68.204  1.00  0.00    -0.311 A  
HETATM   29  F   UNL     1     -11.736  11.189  67.522  1.00  0.00    -0.346 F  
ENDBRANCH  19  22
ENDBRANCH  17  19
ENDBRANCH  15  17
ENDBRANCH   7  10
BRANCH   8  30
HETATM   30  C   UNL     1      -6.009  12.636  69.740  1.00  0.00    -0.129 A  
HETATM   31  C   UNL     1      -5.655  14.698  70.656  1.00  0.00    -0.150 A  
HETATM   32  N   UNL     1      -6.081  13.974  69.612  1.00  0.00    -0.114 NA 
HETATM   33  N   UNL     1      -5.708  16.070  70.568  1.00  0.00    -0.109 NA 
HETATM   34  N   UNL     1      -5.234  14.198  71.822  1.00  0.00    -0.174 NA 
HETATM   35  C   UNL     1      -5.208  12.865  71.930  1.00  0.00    -0.014 A  
HETATM   36  H2  UNL     1      -6.062  16.525  69.726  1.00  0.00     0.000 HD 
HETATM   37  C   UNL     1      -5.580  12.030  70.911  1.00  0.00    -0.080 A  
HETATM   38  H1  UNL     1      -5.384  16.620  71.363  1.00  0.00     0.000 HD 
ENDBRANCH   8  30
ENDBRANCH   2   5
TORSDOF 6
ENDMDL
MODEL      236
REMARK 921   NORMALIZED FREE ENERGY PREDICTED BY IDOCK:   -3.12 KCAL/MOL
REMARK 922        TOTAL FREE ENERGY PREDICTED BY IDOCK:   -5.34 KCAL/MOL
REMARK 923 INTER-LIGAND FREE ENERGY PREDICTED BY IDOCK:   -3.90 KCAL/MOL
REMARK 924 INTRA-LIGAND FREE ENERGY PREDICTED BY IDOCK:   -1.44 KCAL/MOL
REMARK 927      BINDING AFFINITY PREDICTED BY RF-SCORE:    0.00 PKD
ROOT
HETATM    1  C   UNL     1      -5.864  13.994  70.836  1.00  0.00    -0.207 C  
HETATM    2  C   UNL     1      -6.354  13.542  69.448  1.00  0.00    -0.110 C  
HETATM    3  C   UNL     1      -6.938  12.117  69.595  1.00  0.00     0.194 C  
HETATM    4  C   UNL     1      -5.125  13.475  68.512  1.00  0.00    -0.081 C  
ENDROOT
BRANCH   2   5
HETATM    5  C   UNL     1      -7.404  14.505  68.867  1.00  0.00    -0.128 A  
HETATM    6  N   UNL     1      -8.515  14.203  68.217  1.00  0.00    -0.163 NA 
HETATM    7  C   UNL     1      -9.242  15.366  67.863  1.00  0.00    -0.180 A  
HETATM    8  C   UNL     1      -8.607  16.557  68.214  1.00  0.00    -0.200 A  
HETATM    9  S   UNL     1      -7.172  16.184  69.094  1.00  0.00    -0.217 SA 
BRANCH   7  10
HETATM   10  C   UNL     1     -10.550  15.249  67.184  1.00  0.00    -0.302 A  
HETATM   11  C   UNL     1     -10.647  14.743  65.872  1.00  0.00    -0.314 A  
HETATM   12  C   UNL     1     -11.756  15.583  67.825  1.00  0.00    -0.098 A  
HETATM   13  F   UNL     1      -9.544  14.433  65.168  1.00  0.00    -0.286 F  
HETATM   14  C   UNL     1     -13.001  15.337  67.230  1.00  0.00     2.645 A  
HETATM   15  C   UNL     1     -11.893  14.500  65.266  1.00  0.00    -0.358 A  
HETATM   16  C   UNL     1     -13.070  14.788  65.953  1.00  0.00     0.745 A  
BRANCH  15  17
HETATM   17  N   UNL     1     -11.973  13.876  63.979  1.00  0.00    -0.624 N  
HETATM   18  H   UNL     1     -11.868  14.436  63.132  1.00  0.00     0.000 HD 
BRANCH  17  19
HETATM   19  S   UNL     1     -12.240  12.211  63.863  1.00  0.00    -0.488 S  
HETATM   20  O   UNL     1     -12.074  11.815  62.480  1.00  0.00     0.739 OA 
HETATM   21  O   UNL     1     -13.490  11.948  64.545  1.00  0.00    -0.312 OA 
BRANCH  19  22
HETATM   22  C   UNL     1     -10.983  11.478  64.837  1.00  0.00    -0.254 A  
HETATM   23  C   UNL     1      -9.760  11.200  64.239  1.00  0.00    -0.271 A  
HETATM   24  F   UNL     1      -9.599  11.323  62.914  1.00  0.00    -0.286 F  
HETATM   25  C   UNL     1      -8.666  10.794  65.005  1.00  0.00    -0.160 A  
HETATM   26  C   UNL     1      -8.796  10.666  66.386  1.00  0.00    -0.164 A  
HETATM   27  C   UNL     1     -10.028  10.923  66.986  1.00  0.00    -0.227 A  
HETATM   28  C   UNL     1     -11.117  11.331  66.210  1.00  0.00    -0.166 A  
HETATM   29  F   UNL     1     -12.264  11.596  66.845  1.00  0.00    -0.146 F  
ENDBRANCH  19  22
ENDBRANCH  17  19
ENDBRANCH  15  17
ENDBRANCH   7  10
BRANCH   8  30
HETATM   30  C   UNL     1      -8.885  17.995  68.045  1.00  0.00    -0.275 A  
HETATM   31  C   UNL     1      -8.249  20.008  67.175  1.00  0.00    -0.322 A  
HETATM   32  N   UNL     1      -8.010  18.695  67.300  1.00  0.00    -0.235 NA 
HETATM   33  N   UNL     1      -7.379  20.764  66.424  1.00  0.00    -0.514 NA 
HETATM   34  N   UNL     1      -9.310  20.651  67.673  1.00  0.00    -0.287 NA 
HETATM   35  C   UNL     1     -10.179  19.919  68.380  1.00  0.00    -0.433 A  
HETATM   36  H2  UNL     1      -6.571  20.336  65.973  1.00  0.00     0.000 HD 
HETATM   37  C   UNL     1     -10.011  18.579  68.605  1.00  0.00    -0.419 A  
HETATM   38  H1  UNL     1      -7.561  21.763  66.329  1.00  0.00     0.000 HD 
ENDBRANCH   8  30
ENDBRANCH   2   5
TORSDOF 6
ENDMDL
MODEL      237
REMARK 921   NORMALIZED FREE ENERGY PREDICTED BY IDOCK:   -3.10 KCAL/MOL
REMARK 922        TOTAL FREE ENERGY PREDICTED BY IDOCK:   -5.32 KCAL/MOL
REMARK 923 INTER-LIGAND FREE ENERGY PREDICTED BY IDOCK:   -6.96 KCAL/MOL
REMARK 924 INTRA-LIGAND FREE ENERGY PREDICTED BY IDOCK:    1.65 KCAL/MOL
REMARK 927      BINDING AFFINITY PREDICTED BY RF-SCORE:    0.00 PKD
ROOT
HETATM    1  C   UNL     1      -5.913   8.855  67.957  1.00  0.00    -0.046 C  
HETATM    2  C   UNL     1      -7.342   9.420  68.056  1.00  0.00    -0.079 C  
HETATM    3  C   UNL     1      -8.063   8.677  69.206  1.00  0.00    -0.112 C  
HETATM    4  C   UNL     1      -8.070   9.098  66.731  1.00  0.00    -0.111 C  
ENDROOT
BRANCH   2   5
HETATM    5  C   UNL     1      -7.345  10.939  68.301  1.00  0.00    -0.087 A  
HETATM    6  N   UNL     1      -8.004  11.870  67.633  1.00  0.00    -0.137 NA 
HETATM    7  C   UNL     1      -7.777  13.158  68.177  1.00  0.00    -0.143 A  
HETATM    8  C   UNL     1      -6.874  13.170  69.240  1.00  0.00    -0.024 A  
HETATM    9  S   UNL     1      -6.429  11.546  69.612  1.00  0.00    -0.112 SA 
BRANCH   7  10
HETATM   10  C   UNL     1      -8.471  14.336  67.616  1.00  0.00    -0.185 A  
HETATM   11  C   UNL     1      -9.079  14.287  66.346  1.00  0.00    -0.141 A  
HETATM   12  C   UNL     1      -8.603  15.538  68.336  1.00  0.00    -0.168 A  
HETATM   13  F   UNL     1      -8.972  13.195  65.571  1.00  0.00     0.225 F  
HETATM   14  C   UNL     1      -9.381  16.601  67.861  1.00  0.00    -0.221 A  
HETATM   15  C   UNL     1      -9.856  15.355  65.859  1.00  0.00    -0.356 A  
HETATM   16  C   UNL     1     -10.014  16.507  66.626  1.00  0.00    -0.284 A  
BRANCH  15  17
HETATM   17  N   UNL     1     -10.563  15.240  64.618  1.00  0.00    -0.568 N  
HETATM   18  H   UNL     1     -10.318  15.843  63.833  1.00  0.00     0.000 HD 
BRANCH  17  19
HETATM   19  S   UNL     1     -11.805  14.104  64.457  1.00  0.00    -0.435 S  
HETATM   20  O   UNL     1     -11.408  13.131  63.461  1.00  0.00    -0.348 OA 
HETATM   21  O   UNL     1     -13.030  14.857  64.284  1.00  0.00    -0.490 OA 
BRANCH  19  22
HETATM   22  C   UNL     1     -11.920  13.328  66.022  1.00  0.00    -0.423 A  
HETATM   23  C   UNL     1     -11.612  11.976  66.114  1.00  0.00    -0.304 A  
HETATM   24  F   UNL     1     -11.403  11.241  65.012  1.00  0.00    -0.278 F  
HETATM   25  C   UNL     1     -11.502  11.350  67.357  1.00  0.00    -0.328 A  
HETATM   26  C   UNL     1     -11.702  12.086  68.523  1.00  0.00    -0.387 A  
HETATM   27  C   UNL     1     -12.033  13.438  68.433  1.00  0.00    -0.359 A  
HETATM   28  C   UNL     1     -12.138  14.054  67.183  1.00  0.00    -0.401 A  
HETATM   29  F   UNL     1     -12.425  15.361  67.160  1.00  0.00     0.255 F  
ENDBRANCH  19  22
ENDBRANCH  17  19
ENDBRANCH  15  17
ENDBRANCH   7  10
BRANCH   8  30
HETATM   30  C   UNL     1      -6.267  14.201  70.102  1.00  0.00    -0.151 A  
HETATM   31  C   UNL     1      -5.506  16.341  70.331  1.00  0.00    -0.171 A  
HETATM   32  N   UNL     1      -6.086  15.417  69.554  1.00  0.00    -0.124 NA 
HETATM   33  N   UNL     1      -5.299  17.598  69.811  1.00  0.00    -0.197 NA 
HETATM   34  N   UNL     1      -5.158  16.168  71.610  1.00  0.00    -0.232 NA 
HETATM   35  C   UNL     1      -5.382  14.959  72.136  1.00  0.00     0.029 A  
HETATM   36  H2  UNL     1      -5.581  17.821  68.857  1.00  0.00     0.000 HD 
HETATM   37  C   UNL     1      -5.931  13.928  71.419  1.00  0.00    -0.073 A  
HETATM   38  H1  UNL     1      -4.857  18.302  70.403  1.00  0.00     0.000 HD 
ENDBRANCH   8  30
ENDBRANCH   2   5
TORSDOF 6
ENDMDL
MODEL      238
REMARK 921   NORMALIZED FREE ENERGY PREDICTED BY IDOCK:   -2.96 KCAL/MOL
REMARK 922        TOTAL FREE ENERGY PREDICTED BY IDOCK:   -5.13 KCAL/MOL
REMARK 923 INTER-LIGAND FREE ENERGY PREDICTED BY IDOCK:   -4.92 KCAL/MOL
REMARK 924 INTRA-LIGAND FREE ENERGY PREDICTED BY IDOCK:   -0.21 KCAL/MOL
REMARK 927      BINDING AFFINITY PREDICTED BY RF-SCORE:    0.00 PKD
ROOT
HETATM    1  C   UNL     1      -5.652   7.886  64.700  1.00  0.00    -0.044 C  
HETATM    2  C   UNL     1      -6.317   6.903  65.680  1.00  0.00    -0.043 C  
HETATM    3  C   UNL     1      -5.192   6.178  66.457  1.00  0.00    -0.009 C  
HETATM    4  C   UNL     1      -7.091   5.856  64.848  1.00  0.00    -0.060 C  
ENDROOT
BRANCH   2   5
HETATM    5  C   UNL     1      -7.276   7.615  66.650  1.00  0.00    -0.087 A  
HETATM    6  N   UNL     1      -7.839   8.804  66.512  1.00  0.00    -0.102 NA 
HETATM    7  C   UNL     1      -8.689   9.106  67.604  1.00  0.00    -0.120 A  
HETATM    8  C   UNL     1      -8.697   8.128  68.599  1.00  0.00    -0.134 A  
HETATM    9  S   UNL     1      -7.734   6.795  68.079  1.00  0.00    -0.114 SA 
BRANCH   7  10
HETATM   10  C   UNL     1      -9.465  10.363  67.619  1.00  0.00    -0.165 A  
HETATM   11  C   UNL     1      -8.824  11.615  67.705  1.00  0.00    -0.159 A  
HETATM   12  C   UNL     1     -10.867  10.376  67.494  1.00  0.00    -0.358 A  
HETATM   13  F   UNL     1      -7.492  11.698  67.865  1.00  0.00    -0.088 F  
HETATM   14  C   UNL     1     -11.585  11.572  67.365  1.00  0.00    -0.307 A  
HETATM   15  C   UNL     1      -9.540  12.820  67.584  1.00  0.00    -0.192 A  
HETATM   16  C   UNL     1     -10.921  12.794  67.402  1.00  0.00    -0.285 A  
BRANCH  15  17
HETATM   17  N   UNL     1      -8.857  14.079  67.556  1.00  0.00    -0.187 N  
HETATM   18  H   UNL     1      -7.838  14.106  67.518  1.00  0.00     0.000 HD 
BRANCH  17  19
HETATM   19  S   UNL     1      -9.740  15.520  67.587  1.00  0.00    -0.211 S  
HETATM   20  O   UNL     1     -10.501  15.617  66.359  1.00  0.00    -0.290 OA 
HETATM   21  O   UNL     1      -8.805  16.567  67.943  1.00  0.00    -0.189 OA 
BRANCH  19  22
HETATM   22  C   UNL     1     -10.836  15.355  68.944  1.00  0.00    -0.251 A  
HETATM   23  C   UNL     1     -10.302  15.340  70.227  1.00  0.00    -0.136 A  
HETATM   24  F   UNL     1      -8.977  15.276  70.420  1.00  0.00     0.033 F  
HETATM   25  C   UNL     1     -11.132  15.401  71.347  1.00  0.00    -0.319 A  
HETATM   26  C   UNL     1     -12.514  15.480  71.182  1.00  0.00    -0.491 A  
HETATM   27  C   UNL     1     -13.053  15.472  69.896  1.00  0.00     0.339 A  
HETATM   28  C   UNL     1     -12.212  15.412  68.781  1.00  0.00    -0.030 A  
HETATM   29  F   UNL     1     -12.784  15.442  67.573  1.00  0.00     0.560 F  
ENDBRANCH  19  22
ENDBRANCH  17  19
ENDBRANCH  15  17
ENDBRANCH   7  10
BRANCH   8  30
HETATM   30  C   UNL     1      -9.337   7.964  69.917  1.00  0.00    -0.156 A  
HETATM   31  C   UNL     1      -9.152   8.042  72.191  1.00  0.00    -0.168 A  
HETATM   32  N   UNL     1      -8.575   8.223  70.996  1.00  0.00    -0.134 NA 
HETATM   33  N   UNL     1      -8.409   8.292  73.322  1.00  0.00    -0.295 NA 
HETATM   34  N   UNL     1     -10.427   7.692  72.390  1.00  0.00    -0.229 NA 
HETATM   35  C   UNL     1     -11.167   7.476  71.297  1.00  0.00    -0.251 A  
HETATM   36  H2  UNL     1      -7.441   8.608  73.252  1.00  0.00     0.000 HD 
HETATM   37  C   UNL     1     -10.668   7.591  70.027  1.00  0.00    -0.248 A  
HETATM   38  H1  UNL     1      -8.848   8.154  74.233  1.00  0.00     0.000 HD 
ENDBRANCH   8  30
ENDBRANCH   2   5
TORSDOF 6
ENDMDL
MODEL      239
REMARK 921   NORMALIZED FREE ENERGY PREDICTED BY IDOCK:   -2.95 KCAL/MOL
REMARK 922        TOTAL FREE ENERGY PREDICTED BY IDOCK:   -5.11 KCAL/MOL
REMARK 923 INTER-LIGAND FREE ENERGY PREDICTED BY IDOCK:   -4.04 KCAL/MOL
REMARK 924 INTRA-LIGAND FREE ENERGY PREDICTED BY IDOCK:   -1.07 KCAL/MOL
REMARK 927      BINDING AFFINITY PREDICTED BY RF-SCORE:    0.00 PKD
ROOT
HETATM    1  C   UNL     1      -5.831   6.626  74.002  1.00  0.00    -0.062 C  
HETATM    2  C   UNL     1      -7.251   6.655  73.408  1.00  0.00    -0.080 C  
HETATM    3  C   UNL     1      -8.195   7.262  74.473  1.00  0.00    -0.216 C  
HETATM    4  C   UNL     1      -7.684   5.194  73.145  1.00  0.00    -0.097 C  
ENDROOT
BRANCH   2   5
HETATM    5  C   UNL     1      -7.313   7.463  72.100  1.00  0.00    -0.072 A  
HETATM    6  N   UNL     1      -7.958   7.163  70.986  1.00  0.00    -0.102 NA 
HETATM    7  C   UNL     1      -7.801   8.173  70.006  1.00  0.00    -0.103 A  
HETATM    8  C   UNL     1      -6.961   9.215  70.400  1.00  0.00    -0.071 A  
HETATM    9  S   UNL     1      -6.493   8.963  72.040  1.00  0.00     0.028 SA 
BRANCH   7  10
HETATM   10  C   UNL     1      -8.494   8.064  68.706  1.00  0.00    -0.127 A  
HETATM   11  C   UNL     1      -7.851   7.509  67.581  1.00  0.00    -0.113 A  
HETATM   12  C   UNL     1      -9.835   8.456  68.539  1.00  0.00    -0.186 A  
HETATM   13  F   UNL     1      -6.559   7.143  67.636  1.00  0.00    -0.047 F  
HETATM   14  C   UNL     1     -10.530   8.219  67.346  1.00  0.00    -0.353 A  
HETATM   15  C   UNL     1      -8.541   7.275  66.377  1.00  0.00    -0.138 A  
HETATM   16  C   UNL     1      -9.886   7.622  66.267  1.00  0.00    -0.080 A  
BRANCH  15  17
HETATM   17  N   UNL     1      -7.902   6.603  65.285  1.00  0.00    -0.103 N  
HETATM   18  H   UNL     1      -7.444   7.143  64.551  1.00  0.00     0.000 HD 
BRANCH  17  19
HETATM   19  S   UNL     1      -7.909   4.914  65.215  1.00  0.00    -0.094 S  
HETATM   20  O   UNL     1      -6.595   4.468  64.801  1.00  0.00    -0.041 OA 
HETATM   21  O   UNL     1      -9.075   4.540  64.443  1.00  0.00    -0.151 OA 
BRANCH  19  22
HETATM   22  C   UNL     1      -8.215   4.390  66.857  1.00  0.00    -0.102 A  
HETATM   23  C   UNL     1      -7.134   4.243  67.717  1.00  0.00    -0.064 A  
HETATM   24  F   UNL     1      -5.876   4.327  67.261  1.00  0.00    -0.019 F  
HETATM   25  C   UNL     1      -7.330   4.012  69.080  1.00  0.00    -0.054 A  
HETATM   26  C   UNL     1      -8.625   3.930  69.589  1.00  0.00    -0.107 A  
HETATM   27  C   UNL     1      -9.711   4.054  68.724  1.00  0.00    -0.143 A  
HETATM   28  C   UNL     1      -9.503   4.287  67.362  1.00  0.00    -0.180 A  
HETATM   29  F   UNL     1     -10.584   4.432  66.587  1.00  0.00    -0.225 F  
ENDBRANCH  19  22
ENDBRANCH  17  19
ENDBRANCH  15  17
ENDBRANCH   7  10
BRANCH   8  30
HETATM   30  C   UNL     1      -6.436  10.444  69.779  1.00  0.00    -0.089 A  
HETATM   31  C   UNL     1      -6.106  11.677  67.885  1.00  0.00    -0.050 A  
HETATM   32  N   UNL     1      -6.613  10.573  68.451  1.00  0.00    -0.055 NA 
HETATM   33  N   UNL     1      -6.262  11.849  66.529  1.00  0.00    -0.465 NA 
HETATM   34  N   UNL     1      -5.505  12.675  68.540  1.00  0.00    -0.055 NA 
HETATM   35  C   UNL     1      -5.375  12.532  69.864  1.00  0.00    -0.091 A  
HETATM   36  H2  UNL     1      -6.752  11.152  65.967  1.00  0.00     0.000 HD 
HETATM   37  C   UNL     1      -5.819  11.426  70.539  1.00  0.00    -0.131 A  
HETATM   38  H1  UNL     1      -5.876  12.690  66.098  1.00  0.00     0.000 HD 
ENDBRANCH   8  30
ENDBRANCH   2   5
TORSDOF 6
ENDMDL
MODEL      240
REMARK 921   NORMALIZED FREE ENERGY PREDICTED BY IDOCK:   -2.95 KCAL/MOL
REMARK 922        TOTAL FREE ENERGY PREDICTED BY IDOCK:   -5.11 KCAL/MOL
REMARK 923 INTER-LIGAND FREE ENERGY PREDICTED BY IDOCK:   -6.27 KCAL/MOL
REMARK 924 INTRA-LIGAND FREE ENERGY PREDICTED BY IDOCK:    1.16 KCAL/MOL
REMARK 927      BINDING AFFINITY PREDICTED BY RF-SCORE:    0.00 PKD
ROOT
HETATM    1  C   UNL     1     -12.537   8.148  71.584  1.00  0.00    -0.347 C  
HETATM    2  C   UNL     1     -11.230   7.339  71.653  1.00  0.00    -0.275 C  
HETATM    3  C   UNL     1     -11.605   5.856  71.882  1.00  0.00    -0.255 C  
HETATM    4  C   UNL     1     -10.430   7.837  72.879  1.00  0.00    -0.412 C  
ENDROOT
BRANCH   2   5
HETATM    5  C   UNL     1     -10.385   7.498  70.377  1.00  0.00    -0.214 A  
HETATM    6  N   UNL     1     -10.483   8.431  69.446  1.00  0.00    -0.220 NA 
HETATM    7  C   UNL     1      -9.507   8.260  68.434  1.00  0.00    -0.139 A  
HETATM    8  C   UNL     1      -8.712   7.127  68.604  1.00  0.00    -0.127 A  
HETATM    9  S   UNL     1      -9.125   6.375  70.099  1.00  0.00    -0.154 SA 
BRANCH   7  10
HETATM   10  C   UNL     1      -9.401   9.235  67.328  1.00  0.00    -0.161 A  
HETATM   11  C   UNL     1      -9.097  10.588  67.576  1.00  0.00    -0.138 A  
HETATM   12  C   UNL     1      -9.546   8.854  65.981  1.00  0.00    -0.320 A  
HETATM   13  F   UNL     1      -8.979  11.050  68.833  1.00  0.00    -0.159 F  
HETATM   14  C   UNL     1      -9.306   9.751  64.932  1.00  0.00    -0.327 A  
HETATM   15  C   UNL     1      -8.861  11.495  66.526  1.00  0.00    -0.190 A  
HETATM   16  C   UNL     1      -8.955  11.069  65.204  1.00  0.00    -0.159 A  
BRANCH  15  17
HETATM   17  N   UNL     1      -8.437  12.836  66.799  1.00  0.00    -0.397 N  
HETATM   18  H   UNL     1      -7.837  13.327  66.136  1.00  0.00     0.000 HD 
BRANCH  17  19
HETATM   19  S   UNL     1      -8.933  13.606  68.220  1.00  0.00    -0.168 S  
HETATM   20  O   UNL     1      -8.028  13.228  69.285  1.00  0.00     0.292 OA 
HETATM   21  O   UNL     1     -10.352  13.349  68.352  1.00  0.00    -0.242 OA 
BRANCH  19  22
HETATM   22  C   UNL     1      -8.770  15.318  67.893  1.00  0.00    -0.164 A  
HETATM   23  C   UNL     1      -7.581  15.775  67.336  1.00  0.00    -0.191 A  
HETATM   24  F   UNL     1      -6.522  14.963  67.214  1.00  0.00    -0.182 F  
HETATM   25  C   UNL     1      -7.464  17.090  66.881  1.00  0.00    -0.248 A  
HETATM   26  C   UNL     1      -8.549  17.958  66.982  1.00  0.00    -0.248 A  
HETATM   27  C   UNL     1      -9.735  17.508  67.561  1.00  0.00    -0.278 A  
HETATM   28  C   UNL     1      -9.843  16.190  68.011  1.00  0.00    -0.231 A  
HETATM   29  F   UNL     1     -11.016  15.806  68.526  1.00  0.00    -0.253 F  
ENDBRANCH  19  22
ENDBRANCH  17  19
ENDBRANCH  15  17
ENDBRANCH   7  10
BRANCH   8  30
HETATM   30  C   UNL     1      -7.624   6.475  67.852  1.00  0.00    -0.103 A  
HETATM   31  C   UNL     1      -6.388   4.595  67.461  1.00  0.00    -0.041 A  
HETATM   32  N   UNL     1      -7.397   5.176  68.123  1.00  0.00    -0.074 NA 
HETATM   33  N   UNL     1      -6.119   3.269  67.709  1.00  0.00    -0.027 NA 
HETATM   34  N   UNL     1      -5.642   5.181  66.519  1.00  0.00    -0.016 NA 
HETATM   35  C   UNL     1      -5.915   6.463  66.248  1.00  0.00    -0.029 A  
HETATM   36  H2  UNL     1      -6.675   2.740  68.381  1.00  0.00     0.000 HD 
HETATM   37  C   UNL     1      -6.898   7.165  66.895  1.00  0.00    -0.072 A  
HETATM   38  H1  UNL     1      -5.350   2.826  67.204  1.00  0.00     0.000 HD 
ENDBRANCH   8  30
ENDBRANCH   2   5
TORSDOF 6
ENDMDL
MODEL      241
REMARK 921   NORMALIZED FREE ENERGY PREDICTED BY IDOCK:   -2.88 KCAL/MOL
REMARK 922        TOTAL FREE ENERGY PREDICTED BY IDOCK:   -5.02 KCAL/MOL
REMARK 923 INTER-LIGAND FREE ENERGY PREDICTED BY IDOCK:   -3.79 KCAL/MOL
REMARK 924 INTRA-LIGAND FREE ENERGY PREDICTED BY IDOCK:   -1.23 KCAL/MOL
REMARK 927      BINDING AFFINITY PREDICTED BY RF-SCORE:    0.00 PKD
ROOT
HETATM    1  C   UNL     1      -6.537   2.340  69.381  1.00  0.00    -0.029 C  
HETATM    2  C   UNL     1      -7.597   3.305  68.820  1.00  0.00    -0.048 C  
HETATM    3  C   UNL     1      -8.903   2.501  68.613  1.00  0.00    -0.154 C  
HETATM    4  C   UNL     1      -7.103   3.802  67.442  1.00  0.00    -0.059 C  
ENDROOT
BRANCH   2   5
HETATM    5  C   UNL     1      -7.837   4.504  69.754  1.00  0.00    -0.057 A  
HETATM    6  N   UNL     1      -8.963   5.166  69.958  1.00  0.00    -0.119 NA 
HETATM    7  C   UNL     1      -8.796   6.193  70.918  1.00  0.00    -0.136 A  
HETATM    8  C   UNL     1      -7.487   6.322  71.384  1.00  0.00    -0.090 A  
HETATM    9  S   UNL     1      -6.526   5.065  70.699  1.00  0.00    -0.035 SA 
BRANCH   7  10
HETATM   10  C   UNL     1      -9.950   7.015  71.339  1.00  0.00    -0.190 A  
HETATM   11  C   UNL     1     -10.008   8.393  71.049  1.00  0.00    -0.190 A  
HETATM   12  C   UNL     1     -11.062   6.458  71.997  1.00  0.00    -0.306 A  
HETATM   13  F   UNL     1      -8.975   9.018  70.458  1.00  0.00    -0.151 F  
HETATM   14  C   UNL     1     -12.212   7.211  72.267  1.00  0.00    -0.181 A  
HETATM   15  C   UNL     1     -11.158   9.156  71.324  1.00  0.00    -0.335 A  
HETATM   16  C   UNL     1     -12.264   8.558  71.923  1.00  0.00    -0.411 A  
BRANCH  15  17
HETATM   17  N   UNL     1     -11.242  10.527  70.916  1.00  0.00    -0.331 N  
HETATM   18  H   UNL     1     -10.960  11.269  71.557  1.00  0.00     0.000 HD 
BRANCH  17  19
HETATM   19  S   UNL     1     -11.807  10.914  69.370  1.00  0.00    -0.322 S  
HETATM   20  O   UNL     1     -12.049  12.340  69.315  1.00  0.00    -0.258 OA 
HETATM   21  O   UNL     1     -12.882   9.987  69.083  1.00  0.00     0.768 OA 
BRANCH  19  22
HETATM   22  C   UNL     1     -10.495  10.499  68.287  1.00  0.00    -0.183 A  
HETATM   23  C   UNL     1     -10.665   9.422  67.425  1.00  0.00    -0.210 A  
HETATM   24  F   UNL     1     -11.727   8.612  67.536  1.00  0.00     0.780 F  
HETATM   25  C   UNL     1      -9.737   9.162  66.415  1.00  0.00    -0.330 A  
HETATM   26  C   UNL     1      -8.627   9.990  66.264  1.00  0.00    -0.137 A  
HETATM   27  C   UNL     1      -8.443  11.058  67.142  1.00  0.00    -0.137 A  
HETATM   28  C   UNL     1      -9.379  11.310  68.148  1.00  0.00    -0.181 A  
HETATM   29  F   UNL     1      -9.167  12.369  68.939  1.00  0.00    -0.071 F  
ENDBRANCH  19  22
ENDBRANCH  17  19
ENDBRANCH  15  17
ENDBRANCH   7  10
BRANCH   8  30
HETATM   30  C   UNL     1      -6.777   7.220  72.312  1.00  0.00    -0.059 A  
HETATM   31  C   UNL     1      -5.645   9.176  72.639  1.00  0.00    -0.060 A  
HETATM   32  N   UNL     1      -6.317   8.377  71.799  1.00  0.00    -0.056 NA 
HETATM   33  N   UNL     1      -5.154  10.368  72.157  1.00  0.00    -0.258 NA 
HETATM   34  N   UNL     1      -5.457   8.946  73.942  1.00  0.00    -0.107 NA 
HETATM   35  C   UNL     1      -5.957   7.804  74.428  1.00  0.00    -0.081 A  
HETATM   36  H2  UNL     1      -5.298  10.636  71.183  1.00  0.00     0.000 HD 
HETATM   37  C   UNL     1      -6.624   6.895  73.651  1.00  0.00    -0.067 A  
HETATM   38  H1  UNL     1      -4.642  10.977  72.796  1.00  0.00     0.000 HD 
ENDBRANCH   8  30
ENDBRANCH   2   5
TORSDOF 6
ENDMDL
MODEL      242
REMARK 921   NORMALIZED FREE ENERGY PREDICTED BY IDOCK:   -2.72 KCAL/MOL
REMARK 922        TOTAL FREE ENERGY PREDICTED BY IDOCK:   -4.80 KCAL/MOL
REMARK 923 INTER-LIGAND FREE ENERGY PREDICTED BY IDOCK:   -4.37 KCAL/MOL
REMARK 924 INTRA-LIGAND FREE ENERGY PREDICTED BY IDOCK:   -0.43 KCAL/MOL
REMARK 927      BINDING AFFINITY PREDICTED BY RF-SCORE:    0.00 PKD
ROOT
HETATM    1  C   UNL     1     -12.001  16.944  73.325  1.00  0.00    -0.073 C  
HETATM    2  C   UNL     1     -12.537  15.690  72.610  1.00  0.00    -0.532 C  
HETATM    3  C   UNL     1     -14.074  15.832  72.500  1.00  0.00    -0.491 C  
HETATM    4  C   UNL     1     -12.220  14.467  73.501  1.00  0.00    -0.001 C  
ENDROOT
BRANCH   2   5
HETATM    5  C   UNL     1     -11.905  15.504  71.220  1.00  0.00    -0.399 A  
HETATM    6  N   UNL     1     -12.057  14.491  70.385  1.00  0.00    -0.301 NA 
HETATM    7  C   UNL     1     -11.335  14.695  69.183  1.00  0.00    -0.281 A  
HETATM    8  C   UNL     1     -10.584  15.870  69.170  1.00  0.00    -0.246 A  
HETATM    9  S   UNL     1     -10.903  16.752  70.616  1.00  0.00     0.698 SA 
BRANCH   7  10
HETATM   10  C   UNL     1     -11.420  13.708  68.086  1.00  0.00    -0.348 A  
HETATM   11  C   UNL     1     -10.649  12.528  68.107  1.00  0.00    -0.226 A  
HETATM   12  C   UNL     1     -12.304  13.869  67.004  1.00  0.00    -0.287 A  
HETATM   13  F   UNL     1      -9.750  12.308  69.081  1.00  0.00    -0.007 F  
HETATM   14  C   UNL     1     -12.483  12.865  66.043  1.00  0.00    -0.171 A  
HETATM   15  C   UNL     1     -10.819  11.519  67.140  1.00  0.00    -0.268 A  
HETATM   16  C   UNL     1     -11.747  11.687  66.115  1.00  0.00     0.023 A  
BRANCH  15  17
HETATM   17  N   UNL     1     -10.112  10.278  67.245  1.00  0.00    -0.193 N  
HETATM   18  H   UNL     1      -9.540   9.949  66.467  1.00  0.00     0.000 HD 
BRANCH  17  19
HETATM   19  S   UNL     1     -10.225   9.359  68.659  1.00  0.00    -0.207 S  
HETATM   20  O   UNL     1     -11.500   9.639  69.286  1.00  0.00    -0.041 OA 
HETATM   21  O   UNL     1      -8.995   9.578  69.391  1.00  0.00    -0.150 OA 
BRANCH  19  22
HETATM   22  C   UNL     1     -10.189   7.692  68.123  1.00  0.00    -0.196 A  
HETATM   23  C   UNL     1     -10.599   6.703  69.009  1.00  0.00    -0.239 A  
HETATM   24  F   UNL     1     -10.847   6.992  70.295  1.00  0.00    -0.234 F  
HETATM   25  C   UNL     1     -10.771   5.386  68.582  1.00  0.00    -0.088 A  
HETATM   26  C   UNL     1     -10.532   5.053  67.250  1.00  0.00    -0.151 A  
HETATM   27  C   UNL     1     -10.099   6.039  66.364  1.00  0.00    -0.142 A  
HETATM   28  C   UNL     1      -9.932   7.355  66.802  1.00  0.00    -0.230 A  
HETATM   29  F   UNL     1      -9.548   8.264  65.899  1.00  0.00    -0.256 F  
ENDBRANCH  19  22
ENDBRANCH  17  19
ENDBRANCH  15  17
ENDBRANCH   7  10
BRANCH   8  30
HETATM   30  C   UNL     1      -9.650  16.519  68.231  1.00  0.00    -0.223 A  
HETATM   31  C   UNL     1      -9.187  17.177  66.094  1.00  0.00    -0.184 A  
HETATM   32  N   UNL     1     -10.051  16.615  66.950  1.00  0.00    -0.273 NA 
HETATM   33  N   UNL     1      -9.554  17.294  64.774  1.00  0.00     2.098 NA 
HETATM   34  N   UNL     1      -8.003  17.701  66.425  1.00  0.00    -0.289 NA 
HETATM   35  C   UNL     1      -7.648  17.622  67.713  1.00  0.00    -0.206 A  
HETATM   36  H2  UNL     1     -10.463  16.959  64.453  1.00  0.00     0.000 HD 
HETATM   37  C   UNL     1      -8.436  17.030  68.664  1.00  0.00    -0.262 A  
HETATM   38  H1  UNL     1      -8.896  17.722  64.122  1.00  0.00     0.000 HD 
ENDBRANCH   8  30
ENDBRANCH   2   5
TORSDOF 6
ENDMDL
MODEL      243
REMARK 921   NORMALIZED FREE ENERGY PREDICTED BY IDOCK:   -2.45 KCAL/MOL
REMARK 922        TOTAL FREE ENERGY PREDICTED BY IDOCK:   -4.43 KCAL/MOL
REMARK 923 INTER-LIGAND FREE ENERGY PREDICTED BY IDOCK:   -4.58 KCAL/MOL
REMARK 924 INTRA-LIGAND FREE ENERGY PREDICTED BY IDOCK:    0.15 KCAL/MOL
REMARK 927      BINDING AFFINITY PREDICTED BY RF-SCORE:    0.00 PKD
ROOT
HETATM    1  C   UNL     1      -7.811   1.708  66.913  1.00  0.00    -0.066 C  
HETATM    2  C   UNL     1      -8.926   2.747  66.698  1.00  0.00    -0.165 C  
HETATM    3  C   UNL     1     -10.106   2.371  67.626  1.00  0.00     1.364 C  
HETATM    4  C   UNL     1      -9.401   2.634  65.231  1.00  0.00    -0.080 C  
ENDROOT
BRANCH   2   5
HETATM    5  C   UNL     1      -8.443   4.179  66.984  1.00  0.00    -0.100 A  
HETATM    6  N   UNL     1      -8.504   5.234  66.190  1.00  0.00    -0.115 NA 
HETATM    7  C   UNL     1      -7.983   6.390  66.820  1.00  0.00    -0.109 A  
HETATM    8  C   UNL     1      -7.468   6.154  68.094  1.00  0.00    -0.090 A  
HETATM    9  S   UNL     1      -7.768   4.511  68.521  1.00  0.00    -0.075 SA 
BRANCH   7  10
HETATM   10  C   UNL     1      -8.014   7.695  66.126  1.00  0.00    -0.110 A  
HETATM   11  C   UNL     1      -8.649   8.813  66.704  1.00  0.00    -0.112 A  
HETATM   12  C   UNL     1      -7.374   7.899  64.890  1.00  0.00    -0.073 A  
HETATM   13  F   UNL     1      -9.319   8.702  67.864  1.00  0.00    -0.139 F  
HETATM   14  C   UNL     1      -7.286   9.169  64.306  1.00  0.00    -0.099 A  
HETATM   15  C   UNL     1      -8.570  10.090  66.119  1.00  0.00    -0.133 A  
HETATM   16  C   UNL     1      -7.877  10.266  64.924  1.00  0.00    -0.134 A  
BRANCH  15  17
HETATM   17  N   UNL     1      -9.121  11.234  66.781  1.00  0.00    -0.169 N  
HETATM   18  H   UNL     1      -8.569  11.738  67.475  1.00  0.00     0.000 HD 
BRANCH  17  19
HETATM   19  S   UNL     1     -10.688  11.751  66.411  1.00  0.00    -0.277 S  
HETATM   20  O   UNL     1     -11.594  11.211  67.403  1.00  0.00    -0.522 OA 
HETATM   21  O   UNL     1     -10.895  11.460  65.008  1.00  0.00    -0.291 OA 
BRANCH  19  22
HETATM   22  C   UNL     1     -10.638  13.496  66.551  1.00  0.00    -0.281 A  
HETATM   23  C   UNL     1     -10.344  14.242  65.417  1.00  0.00    -0.370 A  
HETATM   24  F   UNL     1      -9.935  13.646  64.288  1.00  0.00    -0.397 F  
HETATM   25  C   UNL     1     -10.475  15.632  65.422  1.00  0.00    -0.435 A  
HETATM   26  C   UNL     1     -10.907  16.284  66.575  1.00  0.00    -0.105 A  
HETATM   27  C   UNL     1     -11.181  15.538  67.722  1.00  0.00    -0.302 A  
HETATM   28  C   UNL     1     -11.049  14.147  67.705  1.00  0.00    -0.276 A  
HETATM   29  F   UNL     1     -11.359  13.483  68.824  1.00  0.00    -0.253 F  
ENDBRANCH  19  22
ENDBRANCH  17  19
ENDBRANCH  15  17
ENDBRANCH   7  10
BRANCH   8  30
HETATM   30  C   UNL     1      -6.790   6.958  69.128  1.00  0.00    -0.068 A  
HETATM   31  C   UNL     1      -6.669   8.913  70.300  1.00  0.00    -0.043 A  
HETATM   32  N   UNL     1      -7.307   8.174  69.382  1.00  0.00    -0.074 NA 
HETATM   33  N   UNL     1      -7.161  10.165  70.591  1.00  0.00    -0.409 NA 
HETATM   34  N   UNL     1      -5.614   8.514  71.018  1.00  0.00    -0.032 NA 
HETATM   35  C   UNL     1      -5.146   7.286  70.765  1.00  0.00    -0.023 A  
HETATM   36  H2  UNL     1      -7.992  10.522  70.118  1.00  0.00     0.000 HD 
HETATM   37  C   UNL     1      -5.695   6.462  69.819  1.00  0.00    -0.014 A  
HETATM   38  H1  UNL     1      -6.676  10.728  71.290  1.00  0.00     0.000 HD 
ENDBRANCH   8  30
ENDBRANCH   2   5
TORSDOF 6
ENDMDL
MODEL      244
REMARK 921   NORMALIZED FREE ENERGY PREDICTED BY IDOCK:   -2.38 KCAL/MOL
REMARK 922        TOTAL FREE ENERGY PREDICTED BY IDOCK:   -4.34 KCAL/MOL
REMARK 923 INTER-LIGAND FREE ENERGY PREDICTED BY IDOCK:   -3.07 KCAL/MOL
REMARK 924 INTRA-LIGAND FREE ENERGY PREDICTED BY IDOCK:   -1.27 KCAL/MOL
REMARK 927      BINDING AFFINITY PREDICTED BY RF-SCORE:    0.00 PKD
ROOT
HETATM    1  C   UNL     1      -5.161   7.923  73.232  1.00  0.00    -0.040 C  
HETATM    2  C   UNL     1      -6.656   7.928  72.867  1.00  0.00    -0.078 C  
HETATM    3  C   UNL     1      -7.413   8.680  73.987  1.00  0.00    -0.045 C  
HETATM    4  C   UNL     1      -7.142   6.461  72.845  1.00  0.00    -0.079 C  
ENDROOT
BRANCH   2   5
HETATM    5  C   UNL     1      -6.913   8.585  71.499  1.00  0.00    -0.082 A  
HETATM    6  N   UNL     1      -7.720   8.174  70.537  1.00  0.00    -0.082 NA 
HETATM    7  C   UNL     1      -7.710   9.064  69.435  1.00  0.00    -0.083 A  
HETATM    8  C   UNL     1      -6.818  10.127  69.576  1.00  0.00    -0.079 A  
HETATM    9  S   UNL     1      -6.107  10.052  71.145  1.00  0.00     0.086 SA 
BRANCH   7  10
HETATM   10  C   UNL     1      -8.593   8.823  68.274  1.00  0.00    -0.134 A  
HETATM   11  C   UNL     1      -8.408   7.704  67.438  1.00  0.00    -0.116 A  
HETATM   12  C   UNL     1      -9.685   9.660  67.980  1.00  0.00    -0.167 A  
HETATM   13  F   UNL     1      -7.369   6.872  67.619  1.00  0.00    -0.084 F  
HETATM   14  C   UNL     1     -10.601   9.349  66.967  1.00  0.00    -0.272 A  
HETATM   15  C   UNL     1      -9.321   7.390  66.413  1.00  0.00    -0.155 A  
HETATM   16  C   UNL     1     -10.424   8.210  66.189  1.00  0.00     0.738 A  
BRANCH  15  17
HETATM   17  N   UNL     1      -9.180   6.186  65.651  1.00  0.00    -0.366 N  
HETATM   18  H   UNL     1      -8.619   6.183  64.799  1.00  0.00     0.000 HD 
BRANCH  17  19
HETATM   19  S   UNL     1      -9.943   4.768  66.164  1.00  0.00    -0.262 S  
HETATM   20  O   UNL     1      -9.593   3.702  65.249  1.00  0.00    -0.162 OA 
HETATM   21  O   UNL     1     -11.334   5.106  66.381  1.00  0.00     0.282 OA 
BRANCH  19  22
HETATM   22  C   UNL     1      -9.265   4.430  67.743  1.00  0.00    -0.136 A  
HETATM   23  C   UNL     1      -9.920   4.926  68.864  1.00  0.00    -0.149 A  
HETATM   24  F   UNL     1     -10.941   5.786  68.739  1.00  0.00    -0.328 F  
HETATM   25  C   UNL     1      -9.538   4.535  70.148  1.00  0.00    -0.264 A  
HETATM   26  C   UNL     1      -8.487   3.634  70.313  1.00  0.00    -0.092 A  
HETATM   27  C   UNL     1      -7.814   3.152  69.191  1.00  0.00    -0.054 A  
HETATM   28  C   UNL     1      -8.207   3.549  67.910  1.00  0.00    -0.083 A  
HETATM   29  F   UNL     1      -7.546   3.028  66.870  1.00  0.00    -0.070 F  
ENDBRANCH  19  22
ENDBRANCH  17  19
ENDBRANCH  15  17
ENDBRANCH   7  10
BRANCH   8  30
HETATM   30  C   UNL     1      -6.389  11.267  68.746  1.00  0.00    -0.051 A  
HETATM   31  C   UNL     1      -6.492  13.508  68.321  1.00  0.00    -0.104 A  
HETATM   32  N   UNL     1      -6.859  12.479  69.096  1.00  0.00    -0.091 NA 
HETATM   33  N   UNL     1      -6.951  14.765  68.640  1.00  0.00    -0.104 NA 
HETATM   34  N   UNL     1      -5.655  13.433  67.281  1.00  0.00    -0.323 NA 
HETATM   35  C   UNL     1      -5.178  12.220  66.980  1.00  0.00     0.004 A  
HETATM   36  H2  UNL     1      -7.557  14.911  69.448  1.00  0.00     0.000 HD 
HETATM   37  C   UNL     1      -5.521  11.093  67.680  1.00  0.00    -0.041 A  
HETATM   38  H1  UNL     1      -6.672  15.549  68.050  1.00  0.00     0.000 HD 
ENDBRANCH   8  30
ENDBRANCH   2   5
TORSDOF 6
ENDMDL
MODEL      245
REMARK 921   NORMALIZED FREE ENERGY PREDICTED BY IDOCK:   -2.35 KCAL/MOL
REMARK 922        TOTAL FREE ENERGY PREDICTED BY IDOCK:   -4.30 KCAL/MOL
REMARK 923 INTER-LIGAND FREE ENERGY PREDICTED BY IDOCK:   -3.16 KCAL/MOL
REMARK 924 INTRA-LIGAND FREE ENERGY PREDICTED BY IDOCK:   -1.14 KCAL/MOL
REMARK 927      BINDING AFFINITY PREDICTED BY RF-SCORE:    0.00 PKD
ROOT
HETATM    1  C   UNL     1      -6.816  13.683  67.318  1.00  0.00     0.126 C  
HETATM    2  C   UNL     1      -7.774  13.352  68.476  1.00  0.00    -0.124 C  
HETATM    3  C   UNL     1      -9.137  14.014  68.163  1.00  0.00    -0.192 C  
HETATM    4  C   UNL     1      -7.202  13.992  69.761  1.00  0.00     0.248 C  
ENDROOT
BRANCH   2   5
HETATM    5  C   UNL     1      -7.938  11.835  68.674  1.00  0.00    -0.116 A  
HETATM    6  N   UNL     1      -7.377  11.068  69.593  1.00  0.00    -0.075 NA 
HETATM    7  C   UNL     1      -7.795   9.720  69.472  1.00  0.00    -0.128 A  
HETATM    8  C   UNL     1      -8.643   9.489  68.389  1.00  0.00    -0.120 A  
HETATM    9  S   UNL     1      -8.995  10.994  67.624  1.00  0.00    -0.143 SA 
BRANCH   7  10
HETATM   10  C   UNL     1      -7.333   8.707  70.443  1.00  0.00    -0.060 A  
HETATM   11  C   UNL     1      -6.683   7.532  70.016  1.00  0.00    -0.046 A  
HETATM   12  C   UNL     1      -7.471   8.886  71.832  1.00  0.00     0.022 A  
HETATM   13  F   UNL     1      -6.541   7.258  68.708  1.00  0.00    -0.041 F  
HETATM   14  C   UNL     1      -6.906   7.992  72.750  1.00  0.00    -0.095 A  
HETATM   15  C   UNL     1      -6.120   6.626  70.934  1.00  0.00    -0.028 A  
HETATM   16  C   UNL     1      -6.224   6.866  72.302  1.00  0.00    -0.045 A  
BRANCH  15  17
HETATM   17  N   UNL     1      -5.361   5.499  70.479  1.00  0.00    -0.005 N  
HETATM   18  H   UNL     1      -4.518   5.642  69.923  1.00  0.00     0.000 HD 
BRANCH  17  19
HETATM   19  S   UNL     1      -5.863   3.932  70.866  1.00  0.00    -0.014 S  
HETATM   20  O   UNL     1      -5.325   3.586  72.165  1.00  0.00     0.000 OA 
HETATM   21  O   UNL     1      -5.559   3.108  69.715  1.00  0.00    -0.016 OA 
BRANCH  19  22
HETATM   22  C   UNL     1      -7.609   4.022  70.960  1.00  0.00    -0.048 A  
HETATM   23  C   UNL     1      -8.202   4.072  72.216  1.00  0.00    -0.097 A  
HETATM   24  F   UNL     1      -7.477   3.878  73.327  1.00  0.00    -0.062 F  
HETATM   25  C   UNL     1      -9.566   4.333  72.352  1.00  0.00    -0.194 A  
HETATM   26  C   UNL     1     -10.348   4.550  71.219  1.00  0.00    -0.102 A  
HETATM   27  C   UNL     1      -9.759   4.478  69.956  1.00  0.00    -0.283 A  
HETATM   28  C   UNL     1      -8.392   4.218  69.831  1.00  0.00    -0.061 A  
HETATM   29  F   UNL     1      -7.877   4.196  68.597  1.00  0.00    -0.070 F  
ENDBRANCH  19  22
ENDBRANCH  17  19
ENDBRANCH  15  17
ENDBRANCH   7  10
BRANCH   8  30
HETATM   30  C   UNL     1      -9.306   8.313  67.795  1.00  0.00    -0.138 A  
HETATM   31  C   UNL     1      -9.360   6.743  66.138  1.00  0.00    -0.051 A  
HETATM   32  N   UNL     1      -8.737   7.792  66.692  1.00  0.00    -0.133 NA 
HETATM   33  N   UNL     1      -8.815   6.180  65.007  1.00  0.00    -0.363 NA 
HETATM   34  N   UNL     1     -10.450   6.144  66.628  1.00  0.00    -0.218 NA 
HETATM   35  C   UNL     1     -10.971   6.665  67.745  1.00  0.00    -0.281 A  
HETATM   36  H2  UNL     1      -7.957   6.552  64.599  1.00  0.00     0.000 HD 
HETATM   37  C   UNL     1     -10.440   7.762  68.371  1.00  0.00    -0.207 A  
HETATM   38  H1  UNL     1      -9.290   5.381  64.585  1.00  0.00     0.000 HD 
ENDBRANCH   8  30
ENDBRANCH   2   5
TORSDOF 6
ENDMDL
MODEL      246
REMARK 921   NORMALIZED FREE ENERGY PREDICTED BY IDOCK:   -2.34 KCAL/MOL
REMARK 922        TOTAL FREE ENERGY PREDICTED BY IDOCK:   -4.29 KCAL/MOL
REMARK 923 INTER-LIGAND FREE ENERGY PREDICTED BY IDOCK:   -6.16 KCAL/MOL
REMARK 924 INTRA-LIGAND FREE ENERGY PREDICTED BY IDOCK:    1.88 KCAL/MOL
REMARK 927      BINDING AFFINITY PREDICTED BY RF-SCORE:    0.00 PKD
ROOT
HETATM    1  C   UNL     1     -11.704   6.119  72.997  1.00  0.00     0.147 C  
HETATM    2  C   UNL     1     -10.248   6.050  72.504  1.00  0.00    -0.210 C  
HETATM    3  C   UNL     1     -10.058   4.695  71.782  1.00  0.00    -0.261 C  
HETATM    4  C   UNL     1      -9.327   6.077  73.746  1.00  0.00    -0.130 C  
ENDROOT
BRANCH   2   5
HETATM    5  C   UNL     1      -9.900   7.220  71.568  1.00  0.00    -0.174 A  
HETATM    6  N   UNL     1     -10.684   8.208  71.173  1.00  0.00    -0.218 NA 
HETATM    7  C   UNL     1      -9.993   9.115  70.332  1.00  0.00    -0.218 A  
HETATM    8  C   UNL     1      -8.678   8.740  70.058  1.00  0.00    -0.144 A  
HETATM    9  S   UNL     1      -8.302   7.323  70.966  1.00  0.00    -0.120 SA 
BRANCH   7  10
HETATM   10  C   UNL     1     -10.671  10.329  69.830  1.00  0.00    -0.328 A  
HETATM   11  C   UNL     1     -10.383  10.847  68.551  1.00  0.00    -0.187 A  
HETATM   12  C   UNL     1     -11.665  10.990  70.573  1.00  0.00    -0.416 A  
HETATM   13  F   UNL     1      -9.421  10.303  67.786  1.00  0.00    -0.145 F  
HETATM   14  C   UNL     1     -12.404  12.053  70.035  1.00  0.00    -0.179 A  
HETATM   15  C   UNL     1     -11.116  11.919  68.008  1.00  0.00    -0.240 A  
HETATM   16  C   UNL     1     -12.135  12.512  68.750  1.00  0.00    -0.154 A  
BRANCH  15  17
HETATM   17  N   UNL     1     -10.889  12.355  66.663  1.00  0.00    -0.239 N  
HETATM   18  H   UNL     1     -10.218  11.862  66.073  1.00  0.00     0.000 HD 
BRANCH  17  19
HETATM   19  S   UNL     1     -11.733  13.686  66.053  1.00  0.00    -0.377 S  
HETATM   20  O   UNL     1     -13.051  13.706  66.650  1.00  0.00     0.258 OA 
HETATM   21  O   UNL     1     -11.593  13.636  64.612  1.00  0.00    -0.343 OA 
BRANCH  19  22
HETATM   22  C   UNL     1     -10.826  15.086  66.588  1.00  0.00    -0.318 A  
HETATM   23  C   UNL     1     -10.053  15.769  65.657  1.00  0.00    -0.371 A  
HETATM   24  F   UNL     1      -9.862  15.274  64.426  1.00  0.00     0.089 F  
HETATM   25  C   UNL     1      -9.463  16.992  65.977  1.00  0.00    -0.195 A  
HETATM   26  C   UNL     1      -9.649  17.541  67.245  1.00  0.00    -0.273 A  
HETATM   27  C   UNL     1     -10.406  16.846  68.188  1.00  0.00    -0.336 A  
HETATM   28  C   UNL     1     -10.994  15.623  67.856  1.00  0.00    -0.319 A  
HETATM   29  F   UNL     1     -11.737  15.019  68.790  1.00  0.00    -0.301 F  
ENDBRANCH  19  22
ENDBRANCH  17  19
ENDBRANCH  15  17
ENDBRANCH   7  10
BRANCH   8  30
HETATM   30  C   UNL     1      -7.575   9.271  69.237  1.00  0.00    -0.080 A  
HETATM   31  C   UNL     1      -6.277   9.080  67.368  1.00  0.00    -0.059 A  
HETATM   32  N   UNL     1      -7.301   8.613  68.095  1.00  0.00    -0.090 NA 
HETATM   33  N   UNL     1      -5.960   8.437  66.194  1.00  0.00    -0.044 NA 
HETATM   34  N   UNL     1      -5.561  10.172  67.653  1.00  0.00    -0.042 NA 
HETATM   35  C   UNL     1      -5.881  10.824  68.777  1.00  0.00    -0.040 A  
HETATM   36  H2  UNL     1      -6.492   7.623  65.884  1.00  0.00     0.000 HD 
HETATM   37  C   UNL     1      -6.881  10.410  69.616  1.00  0.00    -0.108 A  
HETATM   38  H1  UNL     1      -5.181   8.793  65.640  1.00  0.00     0.000 HD 
ENDBRANCH   8  30
ENDBRANCH   2   5
TORSDOF 6
ENDMDL
MODEL      247
REMARK 921   NORMALIZED FREE ENERGY PREDICTED BY IDOCK:   -1.55 KCAL/MOL
REMARK 922        TOTAL FREE ENERGY PREDICTED BY IDOCK:   -3.23 KCAL/MOL
REMARK 923 INTER-LIGAND FREE ENERGY PREDICTED BY IDOCK:   -2.40 KCAL/MOL
REMARK 924 INTRA-LIGAND FREE ENERGY PREDICTED BY IDOCK:   -0.83 KCAL/MOL
REMARK 927      BINDING AFFINITY PREDICTED BY RF-SCORE:    0.00 PKD
ROOT
HETATM    1  C   UNL     1      -9.410   6.758  62.818  1.00  0.00     1.836 C  
HETATM    2  C   UNL     1      -7.994   7.263  63.147  1.00  0.00    -0.085 C  
HETATM    3  C   UNL     1      -7.755   8.559  62.336  1.00  0.00    -0.127 C  
HETATM    4  C   UNL     1      -6.987   6.192  62.668  1.00  0.00    -0.042 C  
ENDROOT
BRANCH   2   5
HETATM    5  C   UNL     1      -7.809   7.520  64.653  1.00  0.00    -0.130 A  
HETATM    6  N   UNL     1      -7.865   8.673  65.296  1.00  0.00    -0.102 NA 
HETATM    7  C   UNL     1      -7.673   8.502  66.688  1.00  0.00    -0.090 A  
HETATM    8  C   UNL     1      -7.409   7.185  67.063  1.00  0.00    -0.089 A  
HETATM    9  S   UNL     1      -7.534   6.174  65.672  1.00  0.00    -0.085 SA 
BRANCH   7  10
HETATM   10  C   UNL     1      -7.760   9.662  67.600  1.00  0.00    -0.095 A  
HETATM   11  C   UNL     1      -8.990  10.053  68.167  1.00  0.00    -0.122 A  
HETATM   12  C   UNL     1      -6.623  10.394  67.987  1.00  0.00    -0.061 A  
HETATM   13  F   UNL     1     -10.134   9.436  67.826  1.00  0.00    -0.183 F  
HETATM   14  C   UNL     1      -6.688  11.400  68.959  1.00  0.00    -0.092 A  
HETATM   15  C   UNL     1      -9.064  11.068  69.139  1.00  0.00     0.010 A  
HETATM   16  C   UNL     1      -7.908  11.732  69.542  1.00  0.00     0.601 A  
BRANCH  15  17
HETATM   17  N   UNL     1     -10.304  11.371  69.789  1.00  0.00    -0.284 N  
HETATM   18  H   UNL     1     -10.476  11.043  70.739  1.00  0.00     0.000 HD 
BRANCH  17  19
HETATM   19  S   UNL     1     -11.483  12.272  68.979  1.00  0.00    -0.317 S  
HETATM   20  O   UNL     1     -12.253  13.006  69.962  1.00  0.00    -0.299 OA 
HETATM   21  O   UNL     1     -12.148  11.359  68.074  1.00  0.00    -0.629 OA 
BRANCH  19  22
HETATM   22  C   UNL     1     -10.589  13.396  67.977  1.00  0.00    -0.243 A  
HETATM   23  C   UNL     1     -10.200  14.611  68.529  1.00  0.00    -0.240 A  
HETATM   24  F   UNL     1     -10.645  14.991  69.735  1.00  0.00    -0.235 F  
HETATM   25  C   UNL     1      -9.330  15.461  67.845  1.00  0.00    -0.192 A  
HETATM   26  C   UNL     1      -8.840  15.092  66.594  1.00  0.00    -0.307 A  
HETATM   27  C   UNL     1      -9.246  13.883  66.028  1.00  0.00     0.045 A  
HETATM   28  C   UNL     1     -10.117  13.039  66.722  1.00  0.00    -0.247 A  
HETATM   29  F   UNL     1     -10.444  11.877  66.144  1.00  0.00    -0.242 F  
ENDBRANCH  19  22
ENDBRANCH  17  19
ENDBRANCH  15  17
ENDBRANCH   7  10
BRANCH   8  30
HETATM   30  C   UNL     1      -7.097   6.485  68.323  1.00  0.00    -0.083 A  
HETATM   31  C   UNL     1      -6.641   4.519  69.391  1.00  0.00    -0.040 A  
HETATM   32  N   UNL     1      -6.893   5.157  68.240  1.00  0.00    -0.055 NA 
HETATM   33  N   UNL     1      -6.429   3.160  69.355  1.00  0.00    -0.032 NA 
HETATM   34  N   UNL     1      -6.515   5.103  70.587  1.00  0.00    -0.029 NA 
HETATM   35  C   UNL     1      -6.689   6.429  70.629  1.00  0.00    -0.057 A  
HETATM   36  H2  UNL     1      -6.462   2.650  68.472  1.00  0.00     0.000 HD 
HETATM   37  C   UNL     1      -6.992   7.174  69.521  1.00  0.00    -0.058 A  
HETATM   38  H1  UNL     1      -6.237   2.675  70.232  1.00  0.00     0.000 HD 
ENDBRANCH   8  30
ENDBRANCH   2   5
TORSDOF 6
ENDMDL
MODEL      248
REMARK 921   NORMALIZED FREE ENERGY PREDICTED BY IDOCK:   -1.34 KCAL/MOL
REMARK 922        TOTAL FREE ENERGY PREDICTED BY IDOCK:   -2.94 KCAL/MOL
REMARK 923 INTER-LIGAND FREE ENERGY PREDICTED BY IDOCK:   -3.15 KCAL/MOL
REMARK 924 INTRA-LIGAND FREE ENERGY PREDICTED BY IDOCK:    0.21 KCAL/MOL
REMARK 927      BINDING AFFINITY PREDICTED BY RF-SCORE:    0.00 PKD
ROOT
HETATM    1  C   UNL     1      -5.363   2.263  69.781  1.00  0.00    -0.012 C  
HETATM    2  C   UNL     1      -6.169   3.016  68.707  1.00  0.00    -0.029 C  
HETATM    3  C   UNL     1      -7.352   2.114  68.285  1.00  0.00    -0.047 C  
HETATM    4  C   UNL     1      -5.248   3.222  67.482  1.00  0.00    -0.008 C  
ENDROOT
BRANCH   2   5
HETATM    5  C   UNL     1      -6.675   4.378  69.216  1.00  0.00    -0.045 A  
HETATM    6  N   UNL     1      -7.790   5.007  68.888  1.00  0.00    -0.077 NA 
HETATM    7  C   UNL     1      -7.924   6.228  69.592  1.00  0.00    -0.112 A  
HETATM    8  C   UNL     1      -6.838   6.527  70.414  1.00  0.00    -0.062 A  
HETATM    9  S   UNL     1      -5.733   5.204  70.381  1.00  0.00    -0.017 SA 
BRANCH   7  10
HETATM   10  C   UNL     1      -9.134   7.059  69.419  1.00  0.00    -0.145 A  
HETATM   11  C   UNL     1      -9.070   8.465  69.500  1.00  0.00    -0.153 A  
HETATM   12  C   UNL     1     -10.387   6.498  69.114  1.00  0.00    -0.226 A  
HETATM   13  F   UNL     1      -7.924   9.086  69.825  1.00  0.00    -0.082 F  
HETATM   14  C   UNL     1     -11.498   7.296  68.811  1.00  0.00     0.455 A  
HETATM   15  C   UNL     1     -10.185   9.272  69.204  1.00  0.00    -0.206 A  
HETATM   16  C   UNL     1     -11.396   8.683  68.848  1.00  0.00     0.558 A  
BRANCH  15  17
HETATM   17  N   UNL     1     -10.069  10.699  69.179  1.00  0.00    -0.215 N  
HETATM   18  H   UNL     1      -9.863  11.211  70.036  1.00  0.00     0.000 HD 
BRANCH  17  19
HETATM   19  S   UNL     1     -10.276  11.536  67.724  1.00  0.00    -0.186 S  
HETATM   20  O   UNL     1      -9.772  12.883  67.895  1.00  0.00    -0.204 OA 
HETATM   21  O   UNL     1     -11.650  11.325  67.321  1.00  0.00    -0.527 OA 
BRANCH  19  22
HETATM   22  C   UNL     1      -9.283  10.682  66.561  1.00  0.00    -0.166 A  
HETATM   23  C   UNL     1      -9.875  10.242  65.384  1.00  0.00    -0.296 A  
HETATM   24  F   UNL     1     -11.203  10.309  65.215  1.00  0.00     0.184 F  
HETATM   25  C   UNL     1      -9.101   9.727  64.343  1.00  0.00    -0.296 A  
HETATM   26  C   UNL     1      -7.716   9.652  64.481  1.00  0.00    -0.131 A  
HETATM   27  C   UNL     1      -7.122  10.072  65.671  1.00  0.00    -0.119 A  
HETATM   28  C   UNL     1      -7.907  10.589  66.705  1.00  0.00    -0.121 A  
HETATM   29  F   UNL     1      -7.278  11.008  67.809  1.00  0.00    -0.084 F  
ENDBRANCH  19  22
ENDBRANCH  17  19
ENDBRANCH  15  17
ENDBRANCH   7  10
BRANCH   8  30
HETATM   30  C   UNL     1      -6.451   7.646  71.293  1.00  0.00    -0.038 A  
HETATM   31  C   UNL     1      -6.792   8.800  73.233  1.00  0.00     0.134 A  
HETATM   32  N   UNL     1      -7.126   7.764  72.452  1.00  0.00    -0.075 NA 
HETATM   33  N   UNL     1      -7.458   8.962  74.427  1.00  0.00    -0.413 NA 
HETATM   34  N   UNL     1      -5.811   9.673  72.983  1.00  0.00    -0.292 NA 
HETATM   35  C   UNL     1      -5.136   9.507  71.840  1.00  0.00    -0.073 A  
HETATM   36  H2  UNL     1      -8.188   8.309  74.710  1.00  0.00     0.000 HD 
HETATM   37  C   UNL     1      -5.421   8.507  70.948  1.00  0.00    -0.028 A  
HETATM   38  H1  UNL     1      -7.204   9.751  75.022  1.00  0.00     0.000 HD 
ENDBRANCH   8  30
ENDBRANCH   2   5
TORSDOF 6
ENDMDL
MODEL      249
REMARK 921   NORMALIZED FREE ENERGY PREDICTED BY IDOCK:   -1.34 KCAL/MOL
REMARK 922        TOTAL FREE ENERGY PREDICTED BY IDOCK:   -2.94 KCAL/MOL
REMARK 923 INTER-LIGAND FREE ENERGY PREDICTED BY IDOCK:   -2.60 KCAL/MOL
REMARK 924 INTRA-LIGAND FREE ENERGY PREDICTED BY IDOCK:   -0.33 KCAL/MOL
REMARK 927      BINDING AFFINITY PREDICTED BY RF-SCORE:    0.00 PKD
ROOT
HETATM    1  C   UNL     1      -5.145   7.899  73.254  1.00  0.00    -0.040 C  
HETATM    2  C   UNL     1      -6.628   7.923  72.843  1.00  0.00    -0.078 C  
HETATM    3  C   UNL     1      -7.398   8.746  73.904  1.00  0.00     0.078 C  
HETATM    4  C   UNL     1      -7.151   6.469  72.876  1.00  0.00    -0.081 C  
ENDROOT
BRANCH   2   5
HETATM    5  C   UNL     1      -6.827   8.520  71.439  1.00  0.00    -0.076 A  
HETATM    6  N   UNL     1      -7.642   8.104  70.485  1.00  0.00    -0.077 NA 
HETATM    7  C   UNL     1      -7.566   8.933  69.339  1.00  0.00    -0.081 A  
HETATM    8  C   UNL     1      -6.619   9.951  69.441  1.00  0.00    -0.051 A  
HETATM    9  S   UNL     1      -5.936   9.920  71.025  1.00  0.00    -0.041 SA 
BRANCH   7  10
HETATM   10  C   UNL     1      -8.443   8.679  68.177  1.00  0.00    -0.131 A  
HETATM   11  C   UNL     1      -8.301   7.514  67.397  1.00  0.00    -0.112 A  
HETATM   12  C   UNL     1      -9.488   9.553  67.826  1.00  0.00    -0.151 A  
HETATM   13  F   UNL     1      -7.306   6.641  67.635  1.00  0.00    -0.084 F  
HETATM   14  C   UNL     1     -10.404   9.238  66.814  1.00  0.00    -0.296 A  
HETATM   15  C   UNL     1      -9.213   7.195  66.374  1.00  0.00    -0.157 A  
HETATM   16  C   UNL     1     -10.272   8.055  66.093  1.00  0.00     0.309 A  
BRANCH  15  17
HETATM   17  N   UNL     1      -9.120   5.950  65.671  1.00  0.00    -0.317 N  
HETATM   18  H   UNL     1      -8.799   5.933  64.703  1.00  0.00     0.000 HD 
BRANCH  17  19
HETATM   19  S   UNL     1      -9.543   4.510  66.448  1.00  0.00    -0.209 S  
HETATM   20  O   UNL     1     -10.940   4.582  66.819  1.00  0.00     0.480 OA 
HETATM   21  O   UNL     1      -8.536   4.280  67.463  1.00  0.00    -0.102 OA 
BRANCH  19  22
HETATM   22  C   UNL     1      -9.321   3.259  65.242  1.00  0.00    -0.146 A  
HETATM   23  C   UNL     1     -10.271   3.133  64.236  1.00  0.00    -0.095 A  
HETATM   24  F   UNL     1     -11.417   3.828  64.282  1.00  0.00    -0.089 F  
HETATM   25  C   UNL     1     -10.054   2.287  63.148  1.00  0.00    -0.119 A  
HETATM   26  C   UNL     1      -8.869   1.558  63.063  1.00  0.00    -0.075 A  
HETATM   27  C   UNL     1      -7.923   1.666  64.083  1.00  0.00    -0.065 A  
HETATM   28  C   UNL     1      -8.151   2.518  65.166  1.00  0.00    -0.083 A  
HETATM   29  F   UNL     1      -7.193   2.605  66.096  1.00  0.00    -0.059 F  
ENDBRANCH  19  22
ENDBRANCH  17  19
ENDBRANCH  15  17
ENDBRANCH   7  10
BRANCH   8  30
HETATM   30  C   UNL     1      -6.115  11.021  68.561  1.00  0.00    -0.042 A  
HETATM   31  C   UNL     1      -5.577  11.711  66.452  1.00  0.00     0.013 A  
HETATM   32  N   UNL     1      -6.065  10.747  67.245  1.00  0.00    -0.054 NA 
HETATM   33  N   UNL     1      -5.506  11.473  65.099  1.00  0.00    -0.252 NA 
HETATM   34  N   UNL     1      -5.204  12.929  66.856  1.00  0.00    -0.160 NA 
HETATM   35  C   UNL     1      -5.298  13.182  68.167  1.00  0.00    -0.096 A  
HETATM   36  H2  UNL     1      -5.816  10.583  64.708  1.00  0.00     0.000 HD 
HETATM   37  C   UNL     1      -5.744  12.255  69.072  1.00  0.00    -0.066 A  
HETATM   38  H1  UNL     1      -5.134  12.207  64.495  1.00  0.00     0.000 HD 
ENDBRANCH   8  30
ENDBRANCH   2   5
TORSDOF 6
ENDMDL
MODEL      250
REMARK 921   NORMALIZED FREE ENERGY PREDICTED BY IDOCK:   -0.91 KCAL/MOL
REMARK 922        TOTAL FREE ENERGY PREDICTED BY IDOCK:   -2.36 KCAL/MOL
REMARK 923 INTER-LIGAND FREE ENERGY PREDICTED BY IDOCK:   -3.09 KCAL/MOL
REMARK 924 INTRA-LIGAND FREE ENERGY PREDICTED BY IDOCK:    0.73 KCAL/MOL
REMARK 927      BINDING AFFINITY PREDICTED BY RF-SCORE:    0.00 PKD
ROOT
HETATM    1  C   UNL     1      -5.370   2.267  69.780  1.00  0.00    -0.012 C  
HETATM    2  C   UNL     1      -6.168   2.995  68.683  1.00  0.00    -0.029 C  
HETATM    3  C   UNL     1      -7.322   2.064  68.242  1.00  0.00    -0.047 C  
HETATM    4  C   UNL     1      -5.225   3.211  67.477  1.00  0.00    -0.008 C  
ENDROOT
BRANCH   2   5
HETATM    5  C   UNL     1      -6.714   4.348  69.170  1.00  0.00    -0.045 A  
HETATM    6  N   UNL     1      -7.836   4.950  68.814  1.00  0.00    -0.077 NA 
HETATM    7  C   UNL     1      -8.011   6.174  69.504  1.00  0.00    -0.107 A  
HETATM    8  C   UNL     1      -6.949   6.503  70.347  1.00  0.00    -0.064 A  
HETATM    9  S   UNL     1      -5.816   5.204  70.348  1.00  0.00    -0.018 SA 
BRANCH   7  10
HETATM   10  C   UNL     1      -9.234   6.977  69.299  1.00  0.00    -0.139 A  
HETATM   11  C   UNL     1      -9.198   8.385  69.339  1.00  0.00    -0.154 A  
HETATM   12  C   UNL     1     -10.475   6.384  69.002  1.00  0.00    -0.267 A  
HETATM   13  F   UNL     1      -8.065   9.037  69.653  1.00  0.00    -0.088 F  
HETATM   14  C   UNL     1     -11.599   7.152  68.668  1.00  0.00     0.596 A  
HETATM   15  C   UNL     1     -10.325   9.162  69.012  1.00  0.00    -0.215 A  
HETATM   16  C   UNL     1     -11.522   8.541  68.666  1.00  0.00     0.977 A  
BRANCH  15  17
HETATM   17  N   UNL     1     -10.235  10.591  68.945  1.00  0.00    -0.197 N  
HETATM   18  H   UNL     1     -10.749  11.167  69.612  1.00  0.00     0.000 HD 
BRANCH  17  19
HETATM   19  S   UNL     1      -9.276  11.321  67.760  1.00  0.00    -0.160 S  
HETATM   20  O   UNL     1      -9.036  10.357  66.707  1.00  0.00    -0.143 OA 
HETATM   21  O   UNL     1      -8.159  11.928  68.453  1.00  0.00    -0.147 OA 
BRANCH  19  22
HETATM   22  C   UNL     1     -10.246  12.640  67.138  1.00  0.00    -0.225 A  
HETATM   23  C   UNL     1     -11.630  12.536  67.212  1.00  0.00    -0.367 A  
HETATM   24  F   UNL     1     -12.214  11.389  67.585  1.00  0.00    -0.194 F  
HETATM   25  C   UNL     1     -12.446  13.627  66.908  1.00  0.00    -0.189 A  
HETATM   26  C   UNL     1     -11.871  14.838  66.527  1.00  0.00    -0.238 A  
HETATM   27  C   UNL     1     -10.484  14.938  66.430  1.00  0.00    -0.301 A  
HETATM   28  C   UNL     1      -9.676  13.840  66.739  1.00  0.00    -0.275 A  
HETATM   29  F   UNL     1      -8.351  14.006  66.661  1.00  0.00    -0.159 F  
ENDBRANCH  19  22
ENDBRANCH  17  19
ENDBRANCH  15  17
ENDBRANCH   7  10
BRANCH   8  30
HETATM   30  C   UNL     1      -6.606   7.636  71.225  1.00  0.00    -0.041 A  
HETATM   31  C   UNL     1      -6.825   8.657  73.256  1.00  0.00     0.043 A  
HETATM   32  N   UNL     1      -7.114   7.610  72.471  1.00  0.00    -0.070 NA 
HETATM   33  N   UNL     1      -7.325   8.674  74.537  1.00  0.00    -0.376 NA 
HETATM   34  N   UNL     1      -6.029   9.678  72.921  1.00  0.00    -0.251 NA 
HETATM   35  C   UNL     1      -5.512   9.657  71.687  1.00  0.00    -0.072 A  
HETATM   36  H2  UNL     1      -7.903   7.907  74.882  1.00  0.00     0.000 HD 
HETATM   37  C   UNL     1      -5.775   8.657  70.789  1.00  0.00    -0.032 A  
HETATM   38  H1  UNL     1      -7.105   9.471  75.135  1.00  0.00     0.000 HD 
ENDBRANCH   8  30
ENDBRANCH   2   5
TORSDOF 6
ENDMDL
MODEL      251
REMARK 921   NORMALIZED FREE ENERGY PREDICTED BY IDOCK:   -0.52 KCAL/MOL
REMARK 922        TOTAL FREE ENERGY PREDICTED BY IDOCK:   -1.83 KCAL/MOL
REMARK 923 INTER-LIGAND FREE ENERGY PREDICTED BY IDOCK:   -3.82 KCAL/MOL
REMARK 924 INTRA-LIGAND FREE ENERGY PREDICTED BY IDOCK:    1.99 KCAL/MOL
REMARK 927      BINDING AFFINITY PREDICTED BY RF-SCORE:    0.00 PKD
ROOT
HETATM    1  C   UNL     1      -9.813  16.478  68.154  1.00  0.00    -0.244 C  
HETATM    2  C   UNL     1      -8.416  15.913  67.841  1.00  0.00    -0.164 C  
HETATM    3  C   UNL     1      -7.454  16.390  68.955  1.00  0.00    -0.214 C  
HETATM    4  C   UNL     1      -7.951  16.521  66.498  1.00  0.00    -0.345 C  
ENDROOT
BRANCH   2   5
HETATM    5  C   UNL     1      -8.423  14.377  67.746  1.00  0.00    -0.173 A  
HETATM    6  N   UNL     1      -8.728  13.627  66.702  1.00  0.00    -0.075 NA 
HETATM    7  C   UNL     1      -8.588  12.248  66.994  1.00  0.00    -0.191 A  
HETATM    8  C   UNL     1      -8.228  11.986  68.315  1.00  0.00    -0.161 A  
HETATM    9  S   UNL     1      -7.949  13.482  69.125  1.00  0.00     0.457 SA 
BRANCH   7  10
HETATM   10  C   UNL     1      -8.820  11.236  65.942  1.00  0.00    -0.174 A  
HETATM   11  C   UNL     1      -8.802   9.859  66.239  1.00  0.00    -0.143 A  
HETATM   12  C   UNL     1      -9.120  11.594  64.615  1.00  0.00     0.227 A  
HETATM   13  F   UNL     1      -8.486   9.422  67.470  1.00  0.00    -0.118 F  
HETATM   14  C   UNL     1      -9.478  10.638  63.656  1.00  0.00    -0.337 A  
HETATM   15  C   UNL     1      -9.153   8.892  65.278  1.00  0.00    -0.136 A  
HETATM   16  C   UNL     1      -9.503   9.288  63.989  1.00  0.00     0.483 A  
BRANCH  15  17
HETATM   17  N   UNL     1      -9.243   7.507  65.631  1.00  0.00    -0.387 N  
HETATM   18  H   UNL     1     -10.082   7.149  66.088  1.00  0.00     0.000 HD 
BRANCH  17  19
HETATM   19  S   UNL     1      -7.957   6.464  65.289  1.00  0.00    -0.118 S  
HETATM   20  O   UNL     1      -6.740   7.053  65.807  1.00  0.00    -0.050 OA 
HETATM   21  O   UNL     1      -8.059   6.134  63.883  1.00  0.00    -0.117 OA 
BRANCH  19  22
HETATM   22  C   UNL     1      -8.316   4.993  66.168  1.00  0.00    -0.113 A  
HETATM   23  C   UNL     1      -8.633   5.089  67.518  1.00  0.00    -0.104 A  
HETATM   24  F   UNL     1      -8.496   6.250  68.175  1.00  0.00    -0.113 F  
HETATM   25  C   UNL     1      -9.110   3.982  68.222  1.00  0.00    -0.183 A  
HETATM   26  C   UNL     1      -9.274   2.763  67.567  1.00  0.00    -0.227 A  
HETATM   27  C   UNL     1      -8.935   2.658  66.218  1.00  0.00    -0.143 A  
HETATM   28  C   UNL     1      -8.461   3.774  65.523  1.00  0.00    -0.110 A  
HETATM   29  F   UNL     1      -8.186   3.621  64.222  1.00  0.00    -0.087 F  
ENDBRANCH  19  22
ENDBRANCH  17  19
ENDBRANCH  15  17
ENDBRANCH   7  10
BRANCH   8  30
HETATM   30  C   UNL     1      -8.005  10.779  69.133  1.00  0.00    -0.134 A  
HETATM   31  C   UNL     1      -6.528   9.300  70.051  1.00  0.00    -0.049 A  
HETATM   32  N   UNL     1      -6.725  10.414  69.334  1.00  0.00    -0.059 NA 
HETATM   33  N   UNL     1      -5.235   8.888  70.280  1.00  0.00    -0.027 NA 
HETATM   34  N   UNL     1      -7.489   8.571  70.628  1.00  0.00    -0.060 NA 
HETATM   35  C   UNL     1      -8.749   8.980  70.437  1.00  0.00    -0.199 A  
HETATM   36  H2  UNL     1      -4.445   9.418  69.912  1.00  0.00     0.000 HD 
HETATM   37  C   UNL     1      -9.066  10.081  69.687  1.00  0.00    -0.230 A  
HETATM   38  H1  UNL     1      -5.085   8.039  70.826  1.00  0.00     0.000 HD 
ENDBRANCH   8  30
ENDBRANCH   2   5
TORSDOF 6
ENDMDL
MODEL      252
REMARK 921   NORMALIZED FREE ENERGY PREDICTED BY IDOCK:   -0.49 KCAL/MOL
REMARK 922        TOTAL FREE ENERGY PREDICTED BY IDOCK:   -1.78 KCAL/MOL
REMARK 923 INTER-LIGAND FREE ENERGY PREDICTED BY IDOCK:   -3.42 KCAL/MOL
REMARK 924 INTRA-LIGAND FREE ENERGY PREDICTED BY IDOCK:    1.64 KCAL/MOL
REMARK 927      BINDING AFFINITY PREDICTED BY RF-SCORE:    0.00 PKD
ROOT
HETATM    1  C   UNL     1     -12.648   8.107  70.841  1.00  0.00     0.042 C  
HETATM    2  C   UNL     1     -11.664   6.926  70.921  1.00  0.00    -0.408 C  
HETATM    3  C   UNL     1     -12.489   5.620  70.855  1.00  0.00     2.267 C  
HETATM    4  C   UNL     1     -10.958   6.992  72.295  1.00  0.00    -0.279 C  
ENDROOT
BRANCH   2   5
HETATM    5  C   UNL     1     -10.618   6.970  69.793  1.00  0.00    -0.233 A  
HETATM    6  N   UNL     1     -10.559   7.803  68.768  1.00  0.00    -0.178 NA 
HETATM    7  C   UNL     1      -9.428   7.547  67.955  1.00  0.00    -0.142 A  
HETATM    8  C   UNL     1      -8.672   6.451  68.370  1.00  0.00    -0.113 A  
HETATM    9  S   UNL     1      -9.329   5.846  69.845  1.00  0.00    -0.151 SA 
BRANCH   7  10
HETATM   10  C   UNL     1      -9.140   8.407  66.788  1.00  0.00    -0.192 A  
HETATM   11  C   UNL     1      -9.307   9.804  66.854  1.00  0.00    -0.149 A  
HETATM   12  C   UNL     1      -8.638   7.884  65.582  1.00  0.00    -0.159 A  
HETATM   13  F   UNL     1      -9.817  10.388  67.952  1.00  0.00    -0.157 F  
HETATM   14  C   UNL     1      -8.233   8.716  64.530  1.00  0.00    -0.166 A  
HETATM   15  C   UNL     1      -8.909  10.645  65.798  1.00  0.00    -0.184 A  
HETATM   16  C   UNL     1      -8.361  10.097  64.641  1.00  0.00    -0.167 A  
BRANCH  15  17
HETATM   17  N   UNL     1      -8.978  12.070  65.930  1.00  0.00    -0.414 N  
HETATM   18  H   UNL     1      -9.366  12.635  65.175  1.00  0.00     0.000 HD 
BRANCH  17  19
HETATM   19  S   UNL     1      -8.415  12.815  67.340  1.00  0.00    -0.200 S  
HETATM   20  O   UNL     1      -7.135  13.428  67.054  1.00  0.00     0.017 OA 
HETATM   21  O   UNL     1      -8.526  11.831  68.396  1.00  0.00    -0.155 OA 
BRANCH  19  22
HETATM   22  C   UNL     1      -9.594  14.059  67.700  1.00  0.00    -0.221 A  
HETATM   23  C   UNL     1     -10.943  13.747  67.582  1.00  0.00    -0.264 A  
HETATM   24  F   UNL     1     -11.335  12.585  67.039  1.00  0.00    -0.291 F  
HETATM   25  C   UNL     1     -11.924  14.631  68.034  1.00  0.00    -0.292 A  
HETATM   26  C   UNL     1     -11.552  15.842  68.612  1.00  0.00    -0.383 A  
HETATM   27  C   UNL     1     -10.199  16.168  68.711  1.00  0.00    -0.238 A  
HETATM   28  C   UNL     1      -9.225  15.274  68.258  1.00  0.00    -0.189 A  
HETATM   29  F   UNL     1      -7.943  15.626  68.411  1.00  0.00    -0.126 F  
ENDBRANCH  19  22
ENDBRANCH  17  19
ENDBRANCH  15  17
ENDBRANCH   7  10
BRANCH   8  30
HETATM   30  C   UNL     1      -7.474   5.744  67.880  1.00  0.00    -0.078 A  
HETATM   31  C   UNL     1      -6.569   4.226  66.434  1.00  0.00    -0.045 A  
HETATM   32  N   UNL     1      -7.654   4.890  66.856  1.00  0.00    -0.087 NA 
HETATM   33  N   UNL     1      -6.706   3.340  65.391  1.00  0.00    -0.040 NA 
HETATM   34  N   UNL     1      -5.329   4.395  66.904  1.00  0.00    -0.012 NA 
HETATM   35  C   UNL     1      -5.178   5.277  67.899  1.00  0.00    -0.004 A  
HETATM   36  H2  UNL     1      -7.613   3.192  64.948  1.00  0.00     0.000 HD 
HETATM   37  C   UNL     1      -6.226   5.979  68.434  1.00  0.00    -0.029 A  
HETATM   38  H1  UNL     1      -5.880   2.835  65.070  1.00  0.00     0.000 HD 
ENDBRANCH   8  30
ENDBRANCH   2   5
TORSDOF 6
ENDMDL
MODEL      253
REMARK 921   NORMALIZED FREE ENERGY PREDICTED BY IDOCK:   -0.11 KCAL/MOL
REMARK 922        TOTAL FREE ENERGY PREDICTED BY IDOCK:   -1.27 KCAL/MOL
REMARK 923 INTER-LIGAND FREE ENERGY PREDICTED BY IDOCK:   -1.23 KCAL/MOL
REMARK 924 INTRA-LIGAND FREE ENERGY PREDICTED BY IDOCK:   -0.04 KCAL/MOL
REMARK 927      BINDING AFFINITY PREDICTED BY RF-SCORE:    0.00 PKD
ROOT
HETATM    1  C   UNL     1     -10.756   9.114  65.976  1.00  0.00     0.824 C  
HETATM    2  C   UNL     1      -9.342   9.241  66.570  1.00  0.00    -0.231 C  
HETATM    3  C   UNL     1      -8.327   8.930  65.444  1.00  0.00    -0.155 C  
HETATM    4  C   UNL     1      -9.194   8.168  67.673  1.00  0.00    -0.150 C  
ENDROOT
BRANCH   2   5
HETATM    5  C   UNL     1      -9.088  10.639  67.161  1.00  0.00    -0.143 A  
HETATM    6  N   UNL     1      -9.852  11.714  67.067  1.00  0.00    -0.191 NA 
HETATM    7  C   UNL     1      -9.296  12.810  67.772  1.00  0.00    -0.199 A  
HETATM    8  C   UNL     1      -8.056  12.538  68.349  1.00  0.00    -0.136 A  
HETATM    9  S   UNL     1      -7.677  10.875  68.099  1.00  0.00    -0.108 SA 
BRANCH   7  10
HETATM   10  C   UNL     1     -10.024  14.094  67.847  1.00  0.00    -0.231 A  
HETATM   11  C   UNL     1      -9.751  15.139  66.942  1.00  0.00    -0.239 A  
HETATM   12  C   UNL     1     -11.052  14.317  68.781  1.00  0.00    -0.276 A  
HETATM   13  F   UNL     1      -8.760  15.031  66.040  1.00  0.00    -0.259 F  
HETATM   14  C   UNL     1     -11.833  15.479  68.755  1.00  0.00    -0.335 A  
HETATM   15  C   UNL     1     -10.527  16.313  66.916  1.00  0.00    -0.302 A  
HETATM   16  C   UNL     1     -11.576  16.474  67.818  1.00  0.00     0.287 A  
BRANCH  15  17
HETATM   17  N   UNL     1     -10.310  17.313  65.913  1.00  0.00    -0.332 N  
HETATM   18  H   UNL     1     -10.838  17.285  65.041  1.00  0.00     0.000 HD 
BRANCH  17  19
HETATM   19  S   UNL     1      -9.176  18.539  66.175  1.00  0.00    -0.011 S  
HETATM   20  O   UNL     1      -9.359  19.557  65.162  1.00  0.00     0.435 OA 
HETATM   21  O   UNL     1      -7.891  17.886  66.319  1.00  0.00    -0.287 OA 
BRANCH  19  22
HETATM   22  C   UNL     1      -9.572  19.198  67.748  1.00  0.00    -0.313 A  
HETATM   23  C   UNL     1      -8.651  19.053  68.778  1.00  0.00    -0.321 A  
HETATM   24  F   UNL     1      -7.567  18.279  68.627  1.00  0.00    -0.266 F  
HETATM   25  C   UNL     1      -8.826  19.717  69.993  1.00  0.00     1.000 A  
HETATM   26  C   UNL     1      -9.936  20.538  70.180  1.00  0.00     0.887 A  
HETATM   27  C   UNL     1     -10.874  20.668  69.156  1.00  0.00     0.851 A  
HETATM   28  C   UNL     1     -10.687  20.000  67.943  1.00  0.00    -0.127 A  
HETATM   29  F   UNL     1     -11.602  20.190  66.985  1.00  0.00    -0.034 F  
ENDBRANCH  19  22
ENDBRANCH  17  19
ENDBRANCH  15  17
ENDBRANCH   7  10
BRANCH   8  30
HETATM   30  C   UNL     1      -7.056  13.301  69.119  1.00  0.00     0.005 A  
HETATM   31  C   UNL     1      -6.204  15.331  69.723  1.00  0.00    -0.155 A  
HETATM   32  N   UNL     1      -7.133  14.642  69.047  1.00  0.00    -0.120 NA 
HETATM   33  N   UNL     1      -6.243  16.705  69.675  1.00  0.00    -0.222 NA 
HETATM   34  N   UNL     1      -5.261  14.795  70.504  1.00  0.00    -0.115 NA 
HETATM   35  C   UNL     1      -5.233  13.460  70.582  1.00  0.00    -0.130 A  
HETATM   36  H2  UNL     1      -6.962  17.189  69.137  1.00  0.00     0.000 HD 
HETATM   37  C   UNL     1      -6.108  12.657  69.900  1.00  0.00    -0.125 A  
HETATM   38  H1  UNL     1      -5.535  17.230  70.190  1.00  0.00     0.000 HD 
ENDBRANCH   8  30
ENDBRANCH   2   5
TORSDOF 6
ENDMDL
MODEL      254
REMARK 921   NORMALIZED FREE ENERGY PREDICTED BY IDOCK:    4.84 KCAL/MOL
REMARK 922        TOTAL FREE ENERGY PREDICTED BY IDOCK:    5.41 KCAL/MOL
REMARK 923 INTER-LIGAND FREE ENERGY PREDICTED BY IDOCK:    4.31 KCAL/MOL
REMARK 924 INTRA-LIGAND FREE ENERGY PREDICTED BY IDOCK:    1.10 KCAL/MOL
REMARK 927      BINDING AFFINITY PREDICTED BY RF-SCORE:    0.00 PKD
ROOT
HETATM    1  C   UNL     1      -5.292  18.816  66.526  1.00  0.00    -0.161 C  
HETATM    2  C   UNL     1      -6.387  18.055  65.756  1.00  0.00    -0.287 C  
HETATM    3  C   UNL     1      -5.810  17.671  64.373  1.00  0.00     2.049 C  
HETATM    4  C   UNL     1      -7.573  19.024  65.540  1.00  0.00     0.167 C  
ENDROOT
BRANCH   2   5
HETATM    5  C   UNL     1      -6.863  16.805  66.515  1.00  0.00    -0.165 A  
HETATM    6  N   UNL     1      -8.049  16.224  66.466  1.00  0.00    -0.287 NA 
HETATM    7  C   UNL     1      -8.098  15.071  67.287  1.00  0.00    -0.210 A  
HETATM    8  C   UNL     1      -6.924  14.840  68.004  1.00  0.00    -0.140 A  
HETATM    9  S   UNL     1      -5.744  16.005  67.533  1.00  0.00    -0.095 SA 
BRANCH   7  10
HETATM   10  C   UNL     1      -9.317  14.237  67.328  1.00  0.00    -0.215 A  
HETATM   11  C   UNL     1      -9.956  13.940  68.549  1.00  0.00    -0.221 A  
HETATM   12  C   UNL     1      -9.926  13.746  66.159  1.00  0.00    -0.318 A  
HETATM   13  F   UNL     1      -9.426  14.334  69.719  1.00  0.00     0.232 F  
HETATM   14  C   UNL     1     -11.157  13.078  66.193  1.00  0.00    -0.311 A  
HETATM   15  C   UNL     1     -11.189  13.262  68.590  1.00  0.00    -0.274 A  
HETATM   16  C   UNL     1     -11.792  12.843  67.408  1.00  0.00    -0.418 A  
BRANCH  15  17
HETATM   17  N   UNL     1     -11.880  13.074  69.831  1.00  0.00    -0.428 N  
HETATM   18  H   UNL     1     -12.086  12.132  70.163  1.00  0.00     0.000 HD 
BRANCH  17  19
HETATM   19  S   UNL     1     -12.353  14.414  70.746  1.00  0.00    -0.371 S  
HETATM   20  O   UNL     1     -11.811  14.273  72.080  1.00  0.00    -0.019 OA 
HETATM   21  O   UNL     1     -13.782  14.555  70.558  1.00  0.00     0.037 OA 
BRANCH  19  22
HETATM   22  C   UNL     1     -11.614  15.791  69.955  1.00  0.00    -0.351 A  
HETATM   23  C   UNL     1     -12.277  16.372  68.881  1.00  0.00     0.697 A  
HETATM   24  F   UNL     1     -13.363  15.793  68.349  1.00  0.00     1.641 F  
HETATM   25  C   UNL     1     -11.835  17.578  68.334  1.00  0.00     1.807 A  
HETATM   26  C   UNL     1     -10.715  18.212  68.870  1.00  0.00     0.299 A  
HETATM   27  C   UNL     1     -10.035  17.619  69.933  1.00  0.00     0.695 A  
HETATM   28  C   UNL     1     -10.488  16.413  70.474  1.00  0.00     0.408 A  
HETATM   29  F   UNL     1      -9.814  15.910  71.515  1.00  0.00     1.235 F  
ENDBRANCH  19  22
ENDBRANCH  17  19
ENDBRANCH  15  17
ENDBRANCH   7  10
BRANCH   8  30
HETATM   30  C   UNL     1      -6.469  13.852  69.000  1.00  0.00    -0.103 A  
HETATM   31  C   UNL     1      -5.861  11.701  69.467  1.00  0.00    -0.080 A  
HETATM   32  N   UNL     1      -6.245  12.603  68.553  1.00  0.00    -0.063 NA 
HETATM   33  N   UNL     1      -5.624  10.411  69.055  1.00  0.00    -0.041 NA 
HETATM   34  N   UNL     1      -5.625  11.961  70.757  1.00  0.00    -0.264 NA 
HETATM   35  C   UNL     1      -5.823  13.221  71.162  1.00  0.00     0.013 A  
HETATM   36  H2  UNL     1      -5.738  10.145  68.076  1.00  0.00     0.000 HD 
HETATM   37  C   UNL     1      -6.255  14.212  70.322  1.00  0.00    -0.146 A  
HETATM   38  H1  UNL     1      -5.332   9.724  69.751  1.00  0.00     0.000 HD 
ENDBRANCH   8  30
ENDBRANCH   2   5
TORSDOF 6
ENDMDL
MODEL      255
REMARK 921   NORMALIZED FREE ENERGY PREDICTED BY IDOCK:    8.51 KCAL/MOL
REMARK 922        TOTAL FREE ENERGY PREDICTED BY IDOCK:   10.36 KCAL/MOL
REMARK 923 INTER-LIGAND FREE ENERGY PREDICTED BY IDOCK:    3.23 KCAL/MOL
REMARK 924 INTRA-LIGAND FREE ENERGY PREDICTED BY IDOCK:    7.13 KCAL/MOL
REMARK 927      BINDING AFFINITY PREDICTED BY RF-SCORE:    0.00 PKD
ROOT
HETATM    1  C   UNL     1     -12.896  16.644  65.432  1.00  0.00     5.132 C  
HETATM    2  C   UNL     1     -12.506  15.212  65.025  1.00  0.00     0.164 C  
HETATM    3  C   UNL     1     -12.008  15.257  63.561  1.00  0.00     1.013 C  
HETATM    4  C   UNL     1     -13.781  14.339  65.082  1.00  0.00     1.664 C  
ENDROOT
BRANCH   2   5
HETATM    5  C   UNL     1     -11.426  14.623  65.950  1.00  0.00    -0.338 A  
HETATM    6  N   UNL     1     -11.386  13.418  66.492  1.00  0.00    -0.311 NA 
HETATM    7  C   UNL     1     -10.213  13.234  67.263  1.00  0.00    -0.240 A  
HETATM    8  C   UNL     1      -9.401  14.366  67.334  1.00  0.00    -0.199 A  
HETATM    9  S   UNL     1     -10.069  15.594  66.325  1.00  0.00    -0.322 SA 
BRANCH   7  10
HETATM   10  C   UNL     1      -9.941  11.931  67.906  1.00  0.00    -0.195 A  
HETATM   11  C   UNL     1      -8.787  11.732  68.690  1.00  0.00    -0.060 A  
HETATM   12  C   UNL     1     -10.838  10.851  67.813  1.00  0.00    -0.309 A  
HETATM   13  F   UNL     1      -7.855  12.694  68.804  1.00  0.00    -0.121 F  
HETATM   14  C   UNL     1     -10.646   9.668  68.539  1.00  0.00    -0.253 A  
HETATM   15  C   UNL     1      -8.584  10.543  69.416  1.00  0.00    -0.086 A  
HETATM   16  C   UNL     1      -9.523   9.517  69.347  1.00  0.00    -0.182 A  
BRANCH  15  17
HETATM   17  N   UNL     1      -7.464  10.406  70.298  1.00  0.00    -0.260 N  
HETATM   18  H   UNL     1      -7.344  11.055  71.076  1.00  0.00     0.000 HD 
BRANCH  17  19
HETATM   19  S   UNL     1      -6.342   9.166  70.051  1.00  0.00    -0.042 S  
HETATM   20  O   UNL     1      -6.310   8.334  71.235  1.00  0.00    -0.034 OA 
HETATM   21  O   UNL     1      -5.128   9.799  69.579  1.00  0.00    -0.035 OA 
BRANCH  19  22
HETATM   22  C   UNL     1      -6.972   8.242  68.703  1.00  0.00    -0.068 A  
HETATM   23  C   UNL     1      -6.890   8.792  67.429  1.00  0.00    -0.071 A  
HETATM   24  F   UNL     1      -6.503  10.063  67.252  1.00  0.00    -0.064 F  
HETATM   25  C   UNL     1      -7.200   8.031  66.301  1.00  0.00    -0.071 A  
HETATM   26  C   UNL     1      -7.595   6.702  66.448  1.00  0.00    -0.090 A  
HETATM   27  C   UNL     1      -7.700   6.156  67.727  1.00  0.00    -0.098 A  
HETATM   28  C   UNL     1      -7.385   6.926  68.849  1.00  0.00    -0.094 A  
HETATM   29  F   UNL     1      -7.471   6.338  70.047  1.00  0.00    -0.077 F  
ENDBRANCH  19  22
ENDBRANCH  17  19
ENDBRANCH  15  17
ENDBRANCH   7  10
BRANCH   8  30
HETATM   30  C   UNL     1      -8.143  14.726  68.013  1.00  0.00    -0.139 A  
HETATM   31  C   UNL     1      -6.728  14.412  69.777  1.00  0.00    -0.124 A  
HETATM   32  N   UNL     1      -7.856  14.060  69.147  1.00  0.00     0.027 NA 
HETATM   33  N   UNL     1      -6.396  13.759  70.942  1.00  0.00    -0.450 NA 
HETATM   34  N   UNL     1      -5.846  15.315  69.336  1.00  0.00    -0.099 NA 
HETATM   35  C   UNL     1      -6.143  15.934  68.188  1.00  0.00    -0.122 A  
HETATM   36  H2  UNL     1      -6.996  13.024  71.317  1.00  0.00     0.000 HD 
HETATM   37  C   UNL     1      -7.290  15.682  67.483  1.00  0.00    -0.213 A  
HETATM   38  H1  UNL     1      -5.537  14.028  71.421  1.00  0.00     0.000 HD 
ENDBRANCH   8  30
ENDBRANCH   2   5
TORSDOF 6
ENDMDL
MODEL      256
REMARK 921   NORMALIZED FREE ENERGY PREDICTED BY IDOCK:   29.03 KCAL/MOL
REMARK 922        TOTAL FREE ENERGY PREDICTED BY IDOCK:   38.09 KCAL/MOL
REMARK 923 INTER-LIGAND FREE ENERGY PREDICTED BY IDOCK:   37.33 KCAL/MOL
REMARK 924 INTRA-LIGAND FREE ENERGY PREDICTED BY IDOCK:    0.76 KCAL/MOL
REMARK 927      BINDING AFFINITY PREDICTED BY RF-SCORE:    0.00 PKD
ROOT
HETATM    1  C   UNL     1      -5.207  17.745  66.273  1.00  0.00    -0.223 C  
HETATM    2  C   UNL     1      -6.068  17.413  65.041  1.00  0.00     1.589 C  
HETATM    3  C   UNL     1      -5.126  17.318  63.818  1.00  0.00     2.932 C  
HETATM    4  C   UNL     1      -7.046  18.589  64.817  1.00  0.00     1.551 C  
ENDROOT
BRANCH   2   5
HETATM    5  C   UNL     1      -6.856  16.104  65.225  1.00  0.00     5.880 A  
HETATM    6  N   UNL     1      -8.163  15.951  65.355  1.00  0.00     1.677 NA 
HETATM    7  C   UNL     1      -8.517  14.584  65.473  1.00  0.00     2.670 A  
HETATM    8  C   UNL     1      -7.424  13.718  65.490  1.00  0.00     6.908 A  
HETATM    9  S   UNL     1      -5.985  14.632  65.230  1.00  0.00    15.140 SA 
BRANCH   7  10
HETATM   10  C   UNL     1      -9.938  14.188  65.566  1.00  0.00    -0.323 A  
HETATM   11  C   UNL     1     -10.358  13.188  66.465  1.00  0.00    -0.283 A  
HETATM   12  C   UNL     1     -10.940  14.820  64.807  1.00  0.00    -0.393 A  
HETATM   13  F   UNL     1      -9.467  12.504  67.202  1.00  0.00    -0.189 F  
HETATM   14  C   UNL     1     -12.299  14.541  65.001  1.00  0.00    -0.353 A  
HETATM   15  C   UNL     1     -11.722  12.897  66.659  1.00  0.00    -0.390 A  
HETATM   16  C   UNL     1     -12.690  13.585  65.933  1.00  0.00    -0.382 A  
BRANCH  15  17
HETATM   17  N   UNL     1     -12.135  11.960  67.661  1.00  0.00    -0.029 N  
HETATM   18  H   UNL     1     -12.669  11.133  67.397  1.00  0.00     0.000 HD 
BRANCH  17  19
HETATM   19  S   UNL     1     -11.736  12.228  69.282  1.00  0.00    -0.326 S  
HETATM   20  O   UNL     1     -12.521  13.343  69.769  1.00  0.00    -0.202 OA 
HETATM   21  O   UNL     1     -10.290  12.280  69.345  1.00  0.00     0.165 OA 
BRANCH  19  22
HETATM   22  C   UNL     1     -12.213  10.765  70.117  1.00  0.00    -0.346 A  
HETATM   23  C   UNL     1     -11.445   9.621  69.939  1.00  0.00    -0.100 A  
HETATM   24  F   UNL     1     -10.470   9.583  69.020  1.00  0.00    -0.191 F  
HETATM   25  C   UNL     1     -11.663   8.484  70.720  1.00  0.00    -0.228 A  
HETATM   26  C   UNL     1     -12.661   8.492  71.692  1.00  0.00    -0.365 A  
HETATM   27  C   UNL     1     -13.449   9.632  71.857  1.00  0.00    -0.496 A  
HETATM   28  C   UNL     1     -13.220  10.765  71.071  1.00  0.00    -0.124 A  
HETATM   29  F   UNL     1     -13.984  11.839  71.299  1.00  0.00     0.416 F  
ENDBRANCH  19  22
ENDBRANCH  17  19
ENDBRANCH  15  17
ENDBRANCH   7  10
BRANCH   8  30
HETATM   30  C   UNL     1      -7.227  12.265  65.638  1.00  0.00     2.708 A  
HETATM   31  C   UNL     1      -7.665  10.157  64.876  1.00  0.00    -0.143 A  
HETATM   32  N   UNL     1      -7.821  11.479  64.720  1.00  0.00     1.108 NA 
HETATM   33  N   UNL     1      -8.257   9.316  63.962  1.00  0.00    -0.154 NA 
HETATM   34  N   UNL     1      -6.922   9.572  65.820  1.00  0.00    -0.092 NA 
HETATM   35  C   UNL     1      -6.316  10.383  66.696  1.00  0.00    -0.079 A  
HETATM   36  H2  UNL     1      -8.802   9.689  63.185  1.00  0.00     0.000 HD 
HETATM   37  C   UNL     1      -6.441  11.746  66.655  1.00  0.00    -0.005 A  
HETATM   38  H1  UNL     1      -8.138   8.309  64.081  1.00  0.00     0.000 HD 
ENDBRANCH   8  30
ENDBRANCH   2   5
TORSDOF 6
ENDMDL
