MODEL        1
REMARK 921   NORMALIZED FREE ENERGY PREDICTED BY IDOCK:   -5.35 KCAL/MOL
REMARK 922        TOTAL FREE ENERGY PREDICTED BY IDOCK:   -7.04 KCAL/MOL
REMARK 923 INTER-LIGAND FREE ENERGY PREDICTED BY IDOCK:   -6.60 KCAL/MOL
REMARK 924 INTRA-LIGAND FREE ENERGY PREDICTED BY IDOCK:   -0.44 KCAL/MOL
REMARK 927      BINDING AFFINITY PREDICTED BY RF-SCORE:    0.00 PKD
ROOT
HETATM    1  C   UNL     1     -11.541  11.692  69.583  1.00  0.00    -0.330 C  
HETATM    2  N   UNL     1     -12.134  12.825  68.896  1.00  0.00    -0.218 NA 
HETATM    3  C   UNL     1     -11.986  14.157  69.472  1.00  0.00    -0.340 C  
ENDROOT
BRANCH   2   4
HETATM    4  N   UNL     1     -12.268  12.661  67.540  1.00  0.00    -0.340 NA 
HETATM    5  H   UNL     1     -12.332  11.746  67.093  1.00  0.00     0.000 HD 
BRANCH   4   6
HETATM    6  N   UNL     1     -12.304  13.733  66.904  1.00  0.00    -0.429 NA 
HETATM    7  H   UNL     1     -12.315  14.642  67.368  1.00  0.00     0.000 HD 
BRANCH   6   8
HETATM    8  C   UNL     1     -12.327  13.609  65.553  1.00  0.00    -0.482 A  
HETATM    9  C   UNL     1     -11.930  14.432  64.512  1.00  0.00    -0.472 A  
HETATM   10  N   UNL     1     -12.189  13.828  63.280  1.00  0.00    -1.096 NA 
HETATM   11  N   UNL     1     -12.848  12.503  64.922  1.00  0.00    -0.800 NA 
HETATM   12  C   UNL     1     -12.737  12.673  63.574  1.00  0.00    -0.183 A  
HETATM   13  H   UNL     1     -11.994  14.204  62.352  1.00  0.00     0.000 HD 
BRANCH   9  14
HETATM   14  C   UNL     1     -11.315  15.753  64.618  1.00  0.00    -0.337 C  
HETATM   15  N   UNL     1     -10.411  15.852  65.640  1.00  0.00    -0.372 N  
HETATM   16  H2  UNL     1     -10.189  15.078  66.266  1.00  0.00     0.000 HD 
HETATM   17  H1  UNL     1      -9.982  16.773  65.714  1.00  0.00     0.000 HD 
HETATM   18  O   UNL     1     -11.557  16.708  63.887  1.00  0.00    -1.204 OA 
ENDBRANCH   9  14
ENDBRANCH   6   8
ENDBRANCH   4   6
ENDBRANCH   2   4
TORSDOF 4
ENDMDL
MODEL        2
REMARK 921   NORMALIZED FREE ENERGY PREDICTED BY IDOCK:   -5.15 KCAL/MOL
REMARK 922        TOTAL FREE ENERGY PREDICTED BY IDOCK:   -6.79 KCAL/MOL
REMARK 923 INTER-LIGAND FREE ENERGY PREDICTED BY IDOCK:   -5.91 KCAL/MOL
REMARK 924 INTRA-LIGAND FREE ENERGY PREDICTED BY IDOCK:   -0.88 KCAL/MOL
REMARK 927      BINDING AFFINITY PREDICTED BY RF-SCORE:    0.00 PKD
ROOT
HETATM    1  C   UNL     1      -8.573  16.145  66.131  1.00  0.00    -0.296 C  
HETATM    2  N   UNL     1      -9.972  16.385  65.825  1.00  0.00    -0.478 NA 
HETATM    3  C   UNL     1     -10.602  17.607  66.313  1.00  0.00    -0.215 C  
ENDROOT
BRANCH   2   4
HETATM    4  N   UNL     1     -10.413  15.783  64.674  1.00  0.00    -0.651 NA 
HETATM    5  H   UNL     1      -9.786  15.482  63.927  1.00  0.00     0.000 HD 
BRANCH   4   6
HETATM    6  N   UNL     1     -11.651  15.639  64.624  1.00  0.00    -0.452 NA 
HETATM    7  H   UNL     1     -12.295  16.427  64.687  1.00  0.00     0.000 HD 
BRANCH   6   8
HETATM    8  C   UNL     1     -12.083  14.360  64.480  1.00  0.00    -0.481 A  
HETATM    9  C   UNL     1     -12.305  13.322  65.371  1.00  0.00    -0.479 A  
HETATM   10  N   UNL     1     -12.745  12.181  64.697  1.00  0.00    -0.536 NA 
HETATM   11  N   UNL     1     -12.379  13.814  63.253  1.00  0.00    -0.727 NA 
HETATM   12  C   UNL     1     -12.776  12.522  63.431  1.00  0.00    -0.191 A  
HETATM   13  H   UNL     1     -12.988  11.277  65.102  1.00  0.00     0.000 HD 
BRANCH   9  14
HETATM   14  C   UNL     1     -12.131  13.352  66.821  1.00  0.00    -0.365 C  
HETATM   15  N   UNL     1     -12.043  14.618  67.331  1.00  0.00    -0.552 N  
HETATM   16  H2  UNL     1     -12.093  15.458  66.755  1.00  0.00     0.000 HD 
HETATM   17  H1  UNL     1     -11.921  14.639  68.343  1.00  0.00     0.000 HD 
HETATM   18  O   UNL     1     -12.064  12.366  67.547  1.00  0.00    -0.491 OA 
ENDBRANCH   9  14
ENDBRANCH   6   8
ENDBRANCH   4   6
ENDBRANCH   2   4
TORSDOF 4
ENDMDL
MODEL        3
REMARK 921   NORMALIZED FREE ENERGY PREDICTED BY IDOCK:   -5.15 KCAL/MOL
REMARK 922        TOTAL FREE ENERGY PREDICTED BY IDOCK:   -6.79 KCAL/MOL
REMARK 923 INTER-LIGAND FREE ENERGY PREDICTED BY IDOCK:   -6.19 KCAL/MOL
REMARK 924 INTRA-LIGAND FREE ENERGY PREDICTED BY IDOCK:   -0.60 KCAL/MOL
REMARK 927      BINDING AFFINITY PREDICTED BY RF-SCORE:    0.00 PKD
ROOT
HETATM    1  C   UNL     1     -10.581  17.652  66.349  1.00  0.00    -0.208 C  
HETATM    2  N   UNL     1      -9.747  16.686  65.657  1.00  0.00    -0.548 NA 
HETATM    3  C   UNL     1      -8.487  16.276  66.267  1.00  0.00    -0.334 C  
ENDROOT
BRANCH   2   4
HETATM    4  N   UNL     1     -10.432  15.835  64.827  1.00  0.00    -0.651 NA 
HETATM    5  H   UNL     1     -11.238  16.126  64.273  1.00  0.00     0.000 HD 
BRANCH   4   6
HETATM    6  N   UNL     1      -9.979  14.673  64.813  1.00  0.00    -0.519 NA 
HETATM    7  H   UNL     1      -9.110  14.433  64.335  1.00  0.00     0.000 HD 
BRANCH   6   8
HETATM    8  C   UNL     1     -10.721  13.751  65.476  1.00  0.00    -0.302 A  
HETATM    9  C   UNL     1     -11.770  12.924  65.107  1.00  0.00    -0.349 A  
HETATM   10  N   UNL     1     -12.197  12.156  66.192  1.00  0.00    -0.514 NA 
HETATM   11  N   UNL     1     -10.538  13.478  66.812  1.00  0.00    -0.271 NA 
HETATM   12  C   UNL     1     -11.430  12.519  67.191  1.00  0.00    -0.351 A  
HETATM   13  H   UNL     1     -12.945  11.463  66.204  1.00  0.00     0.000 HD 
BRANCH   9  14
HETATM   14  C   UNL     1     -12.384  12.817  63.785  1.00  0.00    -0.446 C  
HETATM   15  N   UNL     1     -12.454  14.009  63.121  1.00  0.00    -1.070 N  
HETATM   16  H2  UNL     1     -12.111  14.887  63.509  1.00  0.00     0.000 HD 
HETATM   17  H1  UNL     1     -12.883  13.935  62.199  1.00  0.00     0.000 HD 
HETATM   18  O   UNL     1     -12.811  11.781  63.284  1.00  0.00    -0.627 OA 
ENDBRANCH   9  14
ENDBRANCH   6   8
ENDBRANCH   4   6
ENDBRANCH   2   4
TORSDOF 4
ENDMDL
MODEL        4
REMARK 921   NORMALIZED FREE ENERGY PREDICTED BY IDOCK:   -5.10 KCAL/MOL
REMARK 922        TOTAL FREE ENERGY PREDICTED BY IDOCK:   -6.73 KCAL/MOL
REMARK 923 INTER-LIGAND FREE ENERGY PREDICTED BY IDOCK:   -6.14 KCAL/MOL
REMARK 924 INTRA-LIGAND FREE ENERGY PREDICTED BY IDOCK:   -0.59 KCAL/MOL
REMARK 927      BINDING AFFINITY PREDICTED BY RF-SCORE:    0.00 PKD
ROOT
HETATM    1  C   UNL     1     -11.868  14.554  70.582  1.00  0.00    -0.303 C  
HETATM    2  N   UNL     1     -11.826  15.416  69.415  1.00  0.00    -0.341 NA 
HETATM    3  C   UNL     1     -10.831  16.480  69.358  1.00  0.00    -0.311 C  
ENDROOT
BRANCH   2   4
HETATM    4  N   UNL     1     -12.296  14.836  68.263  1.00  0.00    -0.586 NA 
HETATM    5  H   UNL     1     -13.272  14.889  67.970  1.00  0.00     0.000 HD 
BRANCH   4   6
HETATM    6  N   UNL     1     -11.419  14.237  67.608  1.00  0.00    -0.327 NA 
HETATM    7  H   UNL     1     -10.498  14.029  67.993  1.00  0.00     0.000 HD 
BRANCH   6   8
HETATM    8  C   UNL     1     -11.775  13.883  66.347  1.00  0.00    -0.383 A  
HETATM    9  C   UNL     1     -11.739  14.536  65.126  1.00  0.00    -0.376 A  
HETATM   10  N   UNL     1     -12.244  13.717  64.114  1.00  0.00    -0.605 NA 
HETATM   11  N   UNL     1     -12.329  12.658  66.053  1.00  0.00    -0.569 NA 
HETATM   12  C   UNL     1     -12.583  12.601  64.715  1.00  0.00    -0.454 A  
HETATM   13  H   UNL     1     -12.331  13.939  63.122  1.00  0.00     0.000 HD 
BRANCH   9  14
HETATM   14  C   UNL     1     -11.250  15.888  64.863  1.00  0.00    -0.337 C  
HETATM   15  N   UNL     1     -10.395  16.352  65.824  1.00  0.00    -0.371 N  
HETATM   16  H2  UNL     1     -10.126  15.808  66.643  1.00  0.00     0.000 HD 
HETATM   17  H1  UNL     1     -10.054  17.295  65.641  1.00  0.00     0.000 HD 
HETATM   18  O   UNL     1     -11.553  16.575  63.892  1.00  0.00    -1.175 OA 
ENDBRANCH   9  14
ENDBRANCH   6   8
ENDBRANCH   4   6
ENDBRANCH   2   4
TORSDOF 4
ENDMDL
MODEL        5
REMARK 921   NORMALIZED FREE ENERGY PREDICTED BY IDOCK:   -5.07 KCAL/MOL
REMARK 922        TOTAL FREE ENERGY PREDICTED BY IDOCK:   -6.70 KCAL/MOL
REMARK 923 INTER-LIGAND FREE ENERGY PREDICTED BY IDOCK:   -6.19 KCAL/MOL
REMARK 924 INTRA-LIGAND FREE ENERGY PREDICTED BY IDOCK:   -0.51 KCAL/MOL
REMARK 927      BINDING AFFINITY PREDICTED BY RF-SCORE:    0.00 PKD
ROOT
HETATM    1  C   UNL     1     -10.836  15.705  70.095  1.00  0.00    -0.343 C  
HETATM    2  N   UNL     1     -11.698  14.627  69.644  1.00  0.00    -0.295 NA 
HETATM    3  C   UNL     1     -12.455  13.867  70.632  1.00  0.00    -0.366 C  
ENDROOT
BRANCH   2   4
HETATM    4  N   UNL     1     -12.170  14.776  68.364  1.00  0.00    -0.605 NA 
HETATM    5  H   UNL     1     -13.072  15.203  68.149  1.00  0.00     0.000 HD 
BRANCH   4   6
HETATM    6  N   UNL     1     -11.395  14.342  67.488  1.00  0.00    -0.310 NA 
HETATM    7  H   UNL     1     -10.904  13.453  67.587  1.00  0.00     0.000 HD 
BRANCH   6   8
HETATM    8  C   UNL     1     -11.251  15.133  66.395  1.00  0.00    -0.277 A  
HETATM    9  C   UNL     1     -11.626  15.004  65.067  1.00  0.00    -0.332 A  
HETATM   10  N   UNL     1     -11.218  16.117  64.330  1.00  0.00    -1.138 NA 
HETATM   11  N   UNL     1     -10.591  16.339  66.438  1.00  0.00    -0.288 NA 
HETATM   12  C   UNL     1     -10.604  16.892  65.192  1.00  0.00    -0.069 A  
HETATM   13  H   UNL     1     -11.366  16.290  63.336  1.00  0.00     0.000 HD 
BRANCH   9  14
HETATM   14  C   UNL     1     -12.353  13.891  64.461  1.00  0.00    -0.372 C  
HETATM   15  N   UNL     1     -12.407  13.957  63.096  1.00  0.00    -1.106 N  
HETATM   16  H2  UNL     1     -11.982  14.709  62.555  1.00  0.00     0.000 HD 
HETATM   17  H1  UNL     1     -12.914  13.180  62.673  1.00  0.00     0.000 HD 
HETATM   18  O   UNL     1     -12.880  12.970  65.076  1.00  0.00    -0.689 OA 
ENDBRANCH   9  14
ENDBRANCH   6   8
ENDBRANCH   4   6
ENDBRANCH   2   4
TORSDOF 4
ENDMDL
MODEL        6
REMARK 921   NORMALIZED FREE ENERGY PREDICTED BY IDOCK:   -5.03 KCAL/MOL
REMARK 922        TOTAL FREE ENERGY PREDICTED BY IDOCK:   -6.64 KCAL/MOL
REMARK 923 INTER-LIGAND FREE ENERGY PREDICTED BY IDOCK:   -6.25 KCAL/MOL
REMARK 924 INTRA-LIGAND FREE ENERGY PREDICTED BY IDOCK:   -0.40 KCAL/MOL
REMARK 927      BINDING AFFINITY PREDICTED BY RF-SCORE:    0.00 PKD
ROOT
HETATM    1  C   UNL     1      -8.918  18.095  66.453  1.00  0.00    -0.239 C  
HETATM    2  N   UNL     1     -10.242  18.320  65.902  1.00  0.00    -0.587 NA 
HETATM    3  C   UNL     1     -10.693  19.689  65.683  1.00  0.00    -0.329 C  
ENDROOT
BRANCH   2   4
HETATM    4  N   UNL     1     -10.713  17.295  65.120  1.00  0.00    -0.651 NA 
HETATM    5  H   UNL     1     -11.407  17.429  64.384  1.00  0.00     0.000 HD 
BRANCH   4   6
HETATM    6  N   UNL     1     -10.214  16.184  65.392  1.00  0.00    -0.538 NA 
HETATM    7  H   UNL     1      -9.314  15.884  65.016  1.00  0.00     0.000 HD 
BRANCH   6   8
HETATM    8  C   UNL     1     -10.949  15.403  66.223  1.00  0.00    -0.278 A  
HETATM    9  C   UNL     1     -11.883  14.401  66.013  1.00  0.00    -0.372 A  
HETATM   10  N   UNL     1     -12.366  13.915  67.231  1.00  0.00    -0.495 NA 
HETATM   11  N   UNL     1     -10.893  15.524  67.592  1.00  0.00    -0.300 NA 
HETATM   12  C   UNL     1     -11.743  14.615  68.149  1.00  0.00    -0.330 A  
HETATM   13  H   UNL     1     -13.054  13.176  67.374  1.00  0.00     0.000 HD 
BRANCH   9  14
HETATM   14  C   UNL     1     -12.339  13.876  64.728  1.00  0.00    -0.400 C  
HETATM   15  N   UNL     1     -12.177  14.755  63.694  1.00  0.00    -1.025 N  
HETATM   16  H2  UNL     1     -11.778  15.686  63.809  1.00  0.00     0.000 HD 
HETATM   17  H1  UNL     1     -12.495  14.389  62.797  1.00  0.00     0.000 HD 
HETATM   18  O   UNL     1     -12.827  12.764  64.551  1.00  0.00    -0.701 OA 
ENDBRANCH   9  14
ENDBRANCH   6   8
ENDBRANCH   4   6
ENDBRANCH   2   4
TORSDOF 4
ENDMDL
MODEL        7
REMARK 921   NORMALIZED FREE ENERGY PREDICTED BY IDOCK:   -4.99 KCAL/MOL
REMARK 922        TOTAL FREE ENERGY PREDICTED BY IDOCK:   -6.59 KCAL/MOL
REMARK 923 INTER-LIGAND FREE ENERGY PREDICTED BY IDOCK:   -6.10 KCAL/MOL
REMARK 924 INTRA-LIGAND FREE ENERGY PREDICTED BY IDOCK:   -0.49 KCAL/MOL
REMARK 927      BINDING AFFINITY PREDICTED BY RF-SCORE:    0.00 PKD
ROOT
HETATM    1  C   UNL     1     -12.842  11.703  63.336  1.00  0.00    -0.023 C  
HETATM    2  N   UNL     1     -11.749  12.647  63.483  1.00  0.00    -0.509 NA 
HETATM    3  C   UNL     1     -10.378  12.152  63.438  1.00  0.00    -0.402 C  
ENDROOT
BRANCH   2   4
HETATM    4  N   UNL     1     -12.045  13.925  63.081  1.00  0.00    -0.904 NA 
HETATM    5  H   UNL     1     -11.828  14.281  62.149  1.00  0.00     0.000 HD 
BRANCH   4   6
HETATM    6  N   UNL     1     -12.603  14.613  63.959  1.00  0.00    -0.909 NA 
HETATM    7  H   UNL     1     -13.614  14.747  63.986  1.00  0.00     0.000 HD 
BRANCH   6   8
HETATM    8  C   UNL     1     -11.773  15.170  64.877  1.00  0.00    -0.290 A  
HETATM    9  C   UNL     1     -11.498  14.894  66.207  1.00  0.00    -0.269 A  
HETATM   10  N   UNL     1     -10.555  15.793  66.712  1.00  0.00    -0.310 NA 
HETATM   11  N   UNL     1     -10.990  16.266  64.596  1.00  0.00    -0.681 NA 
HETATM   12  C   UNL     1     -10.278  16.595  65.711  1.00  0.00    -0.307 A  
HETATM   13  H   UNL     1     -10.167  15.819  67.654  1.00  0.00     0.000 HD 
BRANCH   9  14
HETATM   14  C   UNL     1     -12.072  13.826  67.023  1.00  0.00    -0.397 C  
HETATM   15  N   UNL     1     -12.404  14.228  68.287  1.00  0.00    -0.580 N  
HETATM   16  H2  UNL     1     -12.265  15.179  68.627  1.00  0.00     0.000 HD 
HETATM   17  H1  UNL     1     -12.805  13.483  68.856  1.00  0.00     0.000 HD 
HETATM   18  O   UNL     1     -12.252  12.671  66.652  1.00  0.00    -0.517 OA 
ENDBRANCH   9  14
ENDBRANCH   6   8
ENDBRANCH   4   6
ENDBRANCH   2   4
TORSDOF 4
ENDMDL
MODEL        8
REMARK 921   NORMALIZED FREE ENERGY PREDICTED BY IDOCK:   -4.90 KCAL/MOL
REMARK 922        TOTAL FREE ENERGY PREDICTED BY IDOCK:   -6.48 KCAL/MOL
REMARK 923 INTER-LIGAND FREE ENERGY PREDICTED BY IDOCK:   -5.83 KCAL/MOL
REMARK 924 INTRA-LIGAND FREE ENERGY PREDICTED BY IDOCK:   -0.65 KCAL/MOL
REMARK 927      BINDING AFFINITY PREDICTED BY RF-SCORE:    0.00 PKD
ROOT
HETATM    1  C   UNL     1     -11.148  10.390  67.532  1.00  0.00    -0.267 C  
HETATM    2  N   UNL     1     -11.901  11.355  68.314  1.00  0.00    -0.567 NA 
HETATM    3  C   UNL     1     -12.164  11.072  69.720  1.00  0.00    -0.318 C  
ENDROOT
BRANCH   2   4
HETATM    4  N   UNL     1     -11.801  12.648  67.867  1.00  0.00    -0.353 NA 
HETATM    5  H   UNL     1     -12.500  13.364  68.071  1.00  0.00     0.000 HD 
BRANCH   4   6
HETATM    6  N   UNL     1     -10.778  12.869  67.189  1.00  0.00    -0.251 NA 
HETATM    7  H   UNL     1      -9.962  12.257  67.218  1.00  0.00     0.000 HD 
BRANCH   6   8
HETATM    8  C   UNL     1     -10.824  13.979  66.410  1.00  0.00    -0.299 A  
HETATM    9  C   UNL     1     -11.445  14.277  65.207  1.00  0.00    -0.344 A  
HETATM   10  N   UNL     1     -11.158  15.586  64.815  1.00  0.00    -0.586 NA 
HETATM   11  N   UNL     1     -10.142  15.131  66.725  1.00  0.00    -0.253 NA 
HETATM   12  C   UNL     1     -10.376  16.060  65.756  1.00  0.00    -0.378 A  
HETATM   13  H   UNL     1     -11.486  16.068  63.979  1.00  0.00     0.000 HD 
BRANCH   9  14
HETATM   14  C   UNL     1     -12.297  13.394  64.413  1.00  0.00    -0.341 C  
HETATM   15  N   UNL     1     -12.334  13.724  63.087  1.00  0.00    -1.106 N  
HETATM   16  H2  UNL     1     -11.818  14.509  62.691  1.00  0.00     0.000 HD 
HETATM   17  H1  UNL     1     -12.929  13.109  62.533  1.00  0.00     0.000 HD 
HETATM   18  O   UNL     1     -12.935  12.443  64.852  1.00  0.00    -0.762 OA 
ENDBRANCH   9  14
ENDBRANCH   6   8
ENDBRANCH   4   6
ENDBRANCH   2   4
TORSDOF 4
ENDMDL
MODEL        9
REMARK 921   NORMALIZED FREE ENERGY PREDICTED BY IDOCK:   -4.87 KCAL/MOL
REMARK 922        TOTAL FREE ENERGY PREDICTED BY IDOCK:   -6.44 KCAL/MOL
REMARK 923 INTER-LIGAND FREE ENERGY PREDICTED BY IDOCK:   -5.78 KCAL/MOL
REMARK 924 INTRA-LIGAND FREE ENERGY PREDICTED BY IDOCK:   -0.66 KCAL/MOL
REMARK 927      BINDING AFFINITY PREDICTED BY RF-SCORE:    0.00 PKD
ROOT
HETATM    1  C   UNL     1     -11.374  10.735  67.726  1.00  0.00    -0.279 C  
HETATM    2  N   UNL     1     -11.061  11.443  66.498  1.00  0.00    -0.281 NA 
HETATM    3  C   UNL     1     -10.234  10.784  65.494  1.00  0.00    -0.266 C  
ENDROOT
BRANCH   2   4
HETATM    4  N   UNL     1     -11.992  12.382  66.130  1.00  0.00    -0.608 NA 
HETATM    5  H   UNL     1     -12.659  12.238  65.371  1.00  0.00     0.000 HD 
BRANCH   4   6
HETATM    6  N   UNL     1     -11.948  13.427  66.810  1.00  0.00    -0.396 NA 
HETATM    7  H   UNL     1     -12.632  13.632  67.539  1.00  0.00     0.000 HD 
BRANCH   6   8
HETATM    8  C   UNL     1     -10.930  14.273  66.513  1.00  0.00    -0.316 A  
HETATM    9  C   UNL     1     -10.715  15.188  65.494  1.00  0.00    -0.365 A  
HETATM   10  N   UNL     1      -9.472  15.806  65.642  1.00  0.00    -0.341 NA 
HETATM   11  N   UNL     1      -9.781  14.340  67.267  1.00  0.00    -0.230 NA 
HETATM   12  C   UNL     1      -8.948  15.269  66.718  1.00  0.00    -0.262 A  
HETATM   13  H   UNL     1      -9.060  16.521  65.042  1.00  0.00     0.000 HD 
BRANCH   9  14
HETATM   14  C   UNL     1     -11.621  15.512  64.395  1.00  0.00    -0.258 C  
HETATM   15  N   UNL     1     -12.301  14.428  63.914  1.00  0.00    -1.023 N  
HETATM   16  H2  UNL     1     -12.186  13.486  64.285  1.00  0.00     0.000 HD 
HETATM   17  H1  UNL     1     -12.934  14.654  63.147  1.00  0.00     0.000 HD 
HETATM   18  O   UNL     1     -11.785  16.631  63.919  1.00  0.00    -1.153 OA 
ENDBRANCH   9  14
ENDBRANCH   6   8
ENDBRANCH   4   6
ENDBRANCH   2   4
TORSDOF 4
ENDMDL
MODEL       10
REMARK 921   NORMALIZED FREE ENERGY PREDICTED BY IDOCK:   -4.86 KCAL/MOL
REMARK 922        TOTAL FREE ENERGY PREDICTED BY IDOCK:   -6.44 KCAL/MOL
REMARK 923 INTER-LIGAND FREE ENERGY PREDICTED BY IDOCK:   -5.52 KCAL/MOL
REMARK 924 INTRA-LIGAND FREE ENERGY PREDICTED BY IDOCK:   -0.92 KCAL/MOL
REMARK 927      BINDING AFFINITY PREDICTED BY RF-SCORE:    0.00 PKD
ROOT
HETATM    1  C   UNL     1     -12.731  10.379  70.986  1.00  0.00    -0.394 C  
HETATM    2  N   UNL     1     -11.753  10.607  69.937  1.00  0.00    -0.290 NA 
HETATM    3  C   UNL     1     -10.435   9.995  70.055  1.00  0.00    -0.287 C  
ENDROOT
BRANCH   2   4
HETATM    4  N   UNL     1     -12.295  10.870  68.704  1.00  0.00    -0.777 NA 
HETATM    5  H   UNL     1     -13.281  10.726  68.486  1.00  0.00     0.000 HD 
BRANCH   4   6
HETATM    6  N   UNL     1     -11.470  11.302  67.874  1.00  0.00    -0.433 NA 
HETATM    7  H   UNL     1     -10.559  10.865  67.733  1.00  0.00     0.000 HD 
BRANCH   6   8
HETATM    8  C   UNL     1     -11.866  12.394  67.172  1.00  0.00    -0.291 A  
HETATM    9  C   UNL     1     -12.004  13.735  67.490  1.00  0.00    -0.376 A  
HETATM   10  N   UNL     1     -12.470  14.457  66.390  1.00  0.00    -0.466 NA 
HETATM   11  N   UNL     1     -12.277  12.319  65.861  1.00  0.00    -0.600 NA 
HETATM   12  C   UNL     1     -12.618  13.569  65.436  1.00  0.00    -0.483 A  
HETATM   13  H   UNL     1     -12.656  15.459  66.339  1.00  0.00     0.000 HD 
BRANCH   9  14
HETATM   14  C   UNL     1     -11.714  14.371  68.774  1.00  0.00    -0.337 C  
HETATM   15  N   UNL     1     -10.984  13.581  69.618  1.00  0.00    -0.458 N  
HETATM   16  H2  UNL     1     -10.674  12.641  69.376  1.00  0.00     0.000 HD 
HETATM   17  H1  UNL     1     -10.782  14.024  70.514  1.00  0.00     0.000 HD 
HETATM   18  O   UNL     1     -12.071  15.497  69.103  1.00  0.00    -0.326 OA 
ENDBRANCH   9  14
ENDBRANCH   6   8
ENDBRANCH   4   6
ENDBRANCH   2   4
TORSDOF 4
ENDMDL
MODEL       11
REMARK 921   NORMALIZED FREE ENERGY PREDICTED BY IDOCK:   -4.85 KCAL/MOL
REMARK 922        TOTAL FREE ENERGY PREDICTED BY IDOCK:   -6.43 KCAL/MOL
REMARK 923 INTER-LIGAND FREE ENERGY PREDICTED BY IDOCK:   -5.95 KCAL/MOL
REMARK 924 INTRA-LIGAND FREE ENERGY PREDICTED BY IDOCK:   -0.48 KCAL/MOL
REMARK 927      BINDING AFFINITY PREDICTED BY RF-SCORE:    0.00 PKD
ROOT
HETATM    1  C   UNL     1     -11.189  10.958  67.813  1.00  0.00    -0.317 C  
HETATM    2  N   UNL     1     -10.512  12.186  67.437  1.00  0.00    -0.211 NA 
HETATM    3  C   UNL     1     -10.382  13.252  68.424  1.00  0.00    -0.251 C  
ENDROOT
BRANCH   2   4
HETATM    4  N   UNL     1      -9.580  12.038  66.440  1.00  0.00    -0.224 NA 
HETATM    5  H   UNL     1      -8.980  11.217  66.356  1.00  0.00     0.000 HD 
BRANCH   4   6
HETATM    6  N   UNL     1      -9.535  12.999  65.647  1.00  0.00    -0.469 NA 
HETATM    7  H   UNL     1      -8.750  13.650  65.622  1.00  0.00     0.000 HD 
BRANCH   6   8
HETATM    8  C   UNL     1     -10.603  13.121  64.818  1.00  0.00    -0.372 A  
HETATM    9  C   UNL     1     -11.350  14.201  64.375  1.00  0.00    -0.299 A  
HETATM   10  N   UNL     1     -12.373  13.777  63.525  1.00  0.00    -1.032 NA 
HETATM   11  N   UNL     1     -11.210  12.035  64.230  1.00  0.00    -0.336 NA 
HETATM   12  C   UNL     1     -12.249  12.473  63.465  1.00  0.00    -0.558 A  
HETATM   13  H   UNL     1     -13.067  14.357  63.053  1.00  0.00     0.000 HD 
BRANCH   9  14
HETATM   14  C   UNL     1     -11.146  15.609  64.708  1.00  0.00    -0.412 C  
HETATM   15  N   UNL     1     -10.544  15.799  65.920  1.00  0.00    -0.329 N  
HETATM   16  H2  UNL     1     -10.264  15.033  66.532  1.00  0.00     0.000 HD 
HETATM   17  H1  UNL     1     -10.401  16.782  66.153  1.00  0.00     0.000 HD 
HETATM   18  O   UNL     1     -11.469  16.558  64.000  1.00  0.00    -1.137 OA 
ENDBRANCH   9  14
ENDBRANCH   6   8
ENDBRANCH   4   6
ENDBRANCH   2   4
TORSDOF 4
ENDMDL
MODEL       12
REMARK 921   NORMALIZED FREE ENERGY PREDICTED BY IDOCK:   -4.84 KCAL/MOL
REMARK 922        TOTAL FREE ENERGY PREDICTED BY IDOCK:   -6.41 KCAL/MOL
REMARK 923 INTER-LIGAND FREE ENERGY PREDICTED BY IDOCK:   -5.75 KCAL/MOL
REMARK 924 INTRA-LIGAND FREE ENERGY PREDICTED BY IDOCK:   -0.66 KCAL/MOL
REMARK 927      BINDING AFFINITY PREDICTED BY RF-SCORE:    0.00 PKD
ROOT
HETATM    1  C   UNL     1     -11.335  10.475  69.390  1.00  0.00    -0.269 C  
HETATM    2  N   UNL     1     -11.793  11.508  68.477  1.00  0.00    -0.473 NA 
HETATM    3  C   UNL     1     -11.766  12.899  68.914  1.00  0.00    -0.327 C  
ENDROOT
BRANCH   2   4
HETATM    4  N   UNL     1     -11.664  11.189  67.149  1.00  0.00    -0.447 NA 
HETATM    5  H   UNL     1     -12.388  10.702  66.619  1.00  0.00     0.000 HD 
BRANCH   4   6
HETATM    6  N   UNL     1     -10.579  11.549  66.648  1.00  0.00    -0.242 NA 
HETATM    7  H   UNL     1      -9.788  11.846  67.219  1.00  0.00     0.000 HD 
BRANCH   6   8
HETATM    8  C   UNL     1     -10.525  11.518  65.292  1.00  0.00    -0.283 A  
HETATM    9  C   UNL     1     -11.168  12.232  64.294  1.00  0.00    -0.350 A  
HETATM   10  N   UNL     1     -10.758  11.794  63.033  1.00  0.00    -0.680 NA 
HETATM   11  N   UNL     1      -9.732  10.627  64.606  1.00  0.00    -0.273 NA 
HETATM   12  C   UNL     1      -9.896  10.834  63.268  1.00  0.00    -0.346 A  
HETATM   13  H   UNL     1     -11.063  12.146  62.126  1.00  0.00     0.000 HD 
BRANCH   9  14
HETATM   14  C   UNL     1     -12.142  13.307  64.468  1.00  0.00    -0.408 C  
HETATM   15  N   UNL     1     -12.405  13.994  63.316  1.00  0.00    -1.145 N  
HETATM   16  H2  UNL     1     -11.963  13.777  62.423  1.00  0.00     0.000 HD 
HETATM   17  H1  UNL     1     -13.084  14.744  63.437  1.00  0.00     0.000 HD 
HETATM   18  O   UNL     1     -12.693  13.600  65.525  1.00  0.00    -0.504 OA 
ENDBRANCH   9  14
ENDBRANCH   6   8
ENDBRANCH   4   6
ENDBRANCH   2   4
TORSDOF 4
ENDMDL
MODEL       13
REMARK 921   NORMALIZED FREE ENERGY PREDICTED BY IDOCK:   -4.79 KCAL/MOL
REMARK 922        TOTAL FREE ENERGY PREDICTED BY IDOCK:   -6.34 KCAL/MOL
REMARK 923 INTER-LIGAND FREE ENERGY PREDICTED BY IDOCK:   -5.97 KCAL/MOL
REMARK 924 INTRA-LIGAND FREE ENERGY PREDICTED BY IDOCK:   -0.37 KCAL/MOL
REMARK 927      BINDING AFFINITY PREDICTED BY RF-SCORE:    0.00 PKD
ROOT
HETATM    1  C   UNL     1     -10.929   9.973  67.846  1.00  0.00    -0.252 C  
HETATM    2  N   UNL     1     -11.879  10.909  68.419  1.00  0.00    -0.525 NA 
HETATM    3  C   UNL     1     -12.120  10.879  69.857  1.00  0.00    -0.354 C  
ENDROOT
BRANCH   2   4
HETATM    4  N   UNL     1     -12.026  12.075  67.710  1.00  0.00    -0.553 NA 
HETATM    5  H   UNL     1     -12.207  12.977  68.151  1.00  0.00     0.000 HD 
BRANCH   4   6
HETATM    6  N   UNL     1     -11.920  11.929  66.476  1.00  0.00    -0.545 NA 
HETATM    7  H   UNL     1     -12.287  11.111  65.989  1.00  0.00     0.000 HD 
BRANCH   6   8
HETATM    8  C   UNL     1     -11.281  12.933  65.823  1.00  0.00    -0.294 A  
HETATM    9  C   UNL     1     -10.755  13.061  64.548  1.00  0.00    -0.385 A  
HETATM   10  N   UNL     1     -10.178  14.321  64.376  1.00  0.00    -0.631 NA 
HETATM   11  N   UNL     1     -10.992  14.137  66.424  1.00  0.00    -0.307 NA 
HETATM   12  C   UNL     1     -10.345  14.932  65.525  1.00  0.00    -0.365 A  
HETATM   13  H   UNL     1      -9.725  14.686  63.539  1.00  0.00     0.000 HD 
BRANCH   9  14
HETATM   14  C   UNL     1     -10.773  12.060  63.483  1.00  0.00    -0.455 C  
HETATM   15  N   UNL     1     -12.033  11.660  63.135  1.00  0.00    -0.926 N  
HETATM   16  H2  UNL     1     -12.877  12.024  63.576  1.00  0.00     0.000 HD 
HETATM   17  H1  UNL     1     -12.046  10.962  62.392  1.00  0.00     0.000 HD 
HETATM   18  O   UNL     1      -9.781  11.596  62.930  1.00  0.00    -0.382 OA 
ENDBRANCH   9  14
ENDBRANCH   6   8
ENDBRANCH   4   6
ENDBRANCH   2   4
TORSDOF 4
ENDMDL
MODEL       14
REMARK 921   NORMALIZED FREE ENERGY PREDICTED BY IDOCK:   -4.78 KCAL/MOL
REMARK 922        TOTAL FREE ENERGY PREDICTED BY IDOCK:   -6.34 KCAL/MOL
REMARK 923 INTER-LIGAND FREE ENERGY PREDICTED BY IDOCK:   -5.69 KCAL/MOL
REMARK 924 INTRA-LIGAND FREE ENERGY PREDICTED BY IDOCK:   -0.66 KCAL/MOL
REMARK 927      BINDING AFFINITY PREDICTED BY RF-SCORE:    0.00 PKD
ROOT
HETATM    1  C   UNL     1     -12.819  11.721  63.348  1.00  0.00    -0.176 C  
HETATM    2  N   UNL     1     -11.822  12.698  63.748  1.00  0.00    -0.454 NA 
HETATM    3  C   UNL     1     -10.417  12.429  63.467  1.00  0.00    -0.393 C  
ENDROOT
BRANCH   2   4
HETATM    4  N   UNL     1     -12.287  13.987  63.817  1.00  0.00    -0.976 NA 
HETATM    5  H   UNL     1     -12.136  14.675  63.078  1.00  0.00     0.000 HD 
BRANCH   4   6
HETATM    6  N   UNL     1     -12.913  14.241  64.866  1.00  0.00    -0.634 NA 
HETATM    7  H   UNL     1     -13.932  14.283  64.896  1.00  0.00     0.000 HD 
BRANCH   6   8
HETATM    8  C   UNL     1     -12.146  14.457  65.964  1.00  0.00    -0.357 A  
HETATM    9  C   UNL     1     -11.179  15.397  66.283  1.00  0.00    -0.162 A  
HETATM   10  N   UNL     1     -10.673  15.166  67.564  1.00  0.00    -0.278 NA 
HETATM   11  N   UNL     1     -12.198  13.643  67.072  1.00  0.00    -0.370 NA 
HETATM   12  C   UNL     1     -11.313  14.108  68.000  1.00  0.00    -0.299 A  
HETATM   13  H   UNL     1      -9.959  15.705  68.054  1.00  0.00     0.000 HD 
BRANCH   9  14
HETATM   14  C   UNL     1     -10.714  16.502  65.448  1.00  0.00    -0.259 C  
HETATM   15  N   UNL     1      -9.700  17.222  66.016  1.00  0.00    -0.215 N  
HETATM   16  H2  UNL     1      -9.308  17.009  66.932  1.00  0.00     0.000 HD 
HETATM   17  H1  UNL     1      -9.376  17.993  65.433  1.00  0.00     0.000 HD 
HETATM   18  O   UNL     1     -11.162  16.791  64.343  1.00  0.00    -1.112 OA 
ENDBRANCH   9  14
ENDBRANCH   6   8
ENDBRANCH   4   6
ENDBRANCH   2   4
TORSDOF 4
ENDMDL
MODEL       15
REMARK 921   NORMALIZED FREE ENERGY PREDICTED BY IDOCK:   -4.78 KCAL/MOL
REMARK 922        TOTAL FREE ENERGY PREDICTED BY IDOCK:   -6.34 KCAL/MOL
REMARK 923 INTER-LIGAND FREE ENERGY PREDICTED BY IDOCK:   -5.71 KCAL/MOL
REMARK 924 INTRA-LIGAND FREE ENERGY PREDICTED BY IDOCK:   -0.63 KCAL/MOL
REMARK 927      BINDING AFFINITY PREDICTED BY RF-SCORE:    0.00 PKD
ROOT
HETATM    1  C   UNL     1      -8.628  10.555  65.357  1.00  0.00    -0.180 C  
HETATM    2  N   UNL     1      -9.643  10.800  66.365  1.00  0.00    -0.184 NA 
HETATM    3  C   UNL     1      -9.645   9.988  67.576  1.00  0.00    -0.153 C  
ENDROOT
BRANCH   2   4
HETATM    4  N   UNL     1     -10.127  12.084  66.383  1.00  0.00    -0.214 NA 
HETATM    5  H   UNL     1     -10.795  12.419  67.079  1.00  0.00     0.000 HD 
BRANCH   4   6
HETATM    6  N   UNL     1      -9.676  12.805  65.470  1.00  0.00    -0.446 NA 
HETATM    7  H   UNL     1      -8.700  12.765  65.176  1.00  0.00     0.000 HD 
BRANCH   6   8
HETATM    8  C   UNL     1     -10.573  13.645  64.894  1.00  0.00    -0.408 A  
HETATM    9  C   UNL     1     -11.671  13.450  64.071  1.00  0.00    -0.416 A  
HETATM   10  N   UNL     1     -12.260  14.672  63.739  1.00  0.00    -1.048 NA 
HETATM   11  N   UNL     1     -10.501  15.011  65.035  1.00  0.00    -0.400 NA 
HETATM   12  C   UNL     1     -11.527  15.579  64.340  1.00  0.00    -0.259 A  
HETATM   13  H   UNL     1     -13.082  14.826  63.155  1.00  0.00     0.000 HD 
BRANCH   9  14
HETATM   14  C   UNL     1     -12.196  12.175  63.589  1.00  0.00    -0.562 C  
HETATM   15  N   UNL     1     -11.221  11.275  63.262  1.00  0.00    -0.832 N  
HETATM   16  H2  UNL     1     -10.225  11.474  63.347  1.00  0.00     0.000 HD 
HETATM   17  H1  UNL     1     -11.587  10.385  62.925  1.00  0.00     0.000 HD 
HETATM   18  O   UNL     1     -13.386  11.898  63.470  1.00  0.00    -0.605 OA 
ENDBRANCH   9  14
ENDBRANCH   6   8
ENDBRANCH   4   6
ENDBRANCH   2   4
TORSDOF 4
ENDMDL
MODEL       16
REMARK 921   NORMALIZED FREE ENERGY PREDICTED BY IDOCK:   -4.78 KCAL/MOL
REMARK 922        TOTAL FREE ENERGY PREDICTED BY IDOCK:   -6.34 KCAL/MOL
REMARK 923 INTER-LIGAND FREE ENERGY PREDICTED BY IDOCK:   -5.71 KCAL/MOL
REMARK 924 INTRA-LIGAND FREE ENERGY PREDICTED BY IDOCK:   -0.63 KCAL/MOL
REMARK 927      BINDING AFFINITY PREDICTED BY RF-SCORE:    0.00 PKD
ROOT
HETATM    1  C   UNL     1     -11.563  12.352  66.989  1.00  0.00    -0.365 C  
HETATM    2  N   UNL     1     -11.459  10.995  67.492  1.00  0.00    -0.515 NA 
HETATM    3  C   UNL     1     -10.247  10.231  67.218  1.00  0.00    -0.218 C  
ENDROOT
BRANCH   2   4
HETATM    4  N   UNL     1     -12.200  10.749  68.621  1.00  0.00    -0.827 NA 
HETATM    5  H   UNL     1     -13.171  10.436  68.593  1.00  0.00     0.000 HD 
BRANCH   4   6
HETATM    6  N   UNL     1     -11.577  10.944  69.684  1.00  0.00    -0.292 NA 
HETATM    7  H   UNL     1     -10.589  10.713  69.787  1.00  0.00     0.000 HD 
BRANCH   6   8
HETATM    8  C   UNL     1     -12.305  11.484  70.695  1.00  0.00    -0.364 A  
HETATM    9  C   UNL     1     -13.103  10.944  71.690  1.00  0.00    -0.433 A  
HETATM   10  N   UNL     1     -13.649  11.954  72.485  1.00  0.00    -0.445 NA 
HETATM   11  N   UNL     1     -12.396  12.842  70.895  1.00  0.00    -0.350 NA 
HETATM   12  C   UNL     1     -13.196  13.074  71.974  1.00  0.00    -0.444 A  
HETATM   13  H   UNL     1     -14.266  11.844  73.290  1.00  0.00     0.000 HD 
BRANCH   9  14
HETATM   14  C   UNL     1     -13.372   9.529  71.934  1.00  0.00    -0.437 C  
HETATM   15  N   UNL     1     -12.716   8.695  71.071  1.00  0.00    -0.493 N  
HETATM   16  H2  UNL     1     -12.100   9.029  70.331  1.00  0.00     0.000 HD 
HETATM   17  H1  UNL     1     -12.904   7.707  71.241  1.00  0.00     0.000 HD 
HETATM   18  O   UNL     1     -14.109   9.089  72.811  1.00  0.00    -0.524 OA 
ENDBRANCH   9  14
ENDBRANCH   6   8
ENDBRANCH   4   6
ENDBRANCH   2   4
TORSDOF 4
ENDMDL
MODEL       17
REMARK 921   NORMALIZED FREE ENERGY PREDICTED BY IDOCK:   -4.75 KCAL/MOL
REMARK 922        TOTAL FREE ENERGY PREDICTED BY IDOCK:   -6.31 KCAL/MOL
REMARK 923 INTER-LIGAND FREE ENERGY PREDICTED BY IDOCK:   -5.74 KCAL/MOL
REMARK 924 INTRA-LIGAND FREE ENERGY PREDICTED BY IDOCK:   -0.56 KCAL/MOL
REMARK 927      BINDING AFFINITY PREDICTED BY RF-SCORE:    0.00 PKD
ROOT
HETATM    1  C   UNL     1      -9.712  18.831  68.548  1.00  0.00    -0.380 C  
HETATM    2  N   UNL     1     -10.326  18.796  67.233  1.00  0.00    -0.392 NA 
HETATM    3  C   UNL     1     -10.465  20.040  66.485  1.00  0.00    -0.404 C  
ENDROOT
BRANCH   2   4
HETATM    4  N   UNL     1     -10.198  17.597  66.578  1.00  0.00    -0.345 NA 
HETATM    5  H   UNL     1      -9.679  17.490  65.706  1.00  0.00     0.000 HD 
BRANCH   4   6
HETATM    6  N   UNL     1     -10.774  16.648  67.148  1.00  0.00    -0.256 NA 
HETATM    7  H   UNL     1     -11.354  16.782  67.977  1.00  0.00     0.000 HD 
BRANCH   6   8
HETATM    8  C   UNL     1     -10.577  15.427  66.590  1.00  0.00    -0.306 A  
HETATM    9  C   UNL     1     -10.949  14.857  65.384  1.00  0.00    -0.364 A  
HETATM   10  N   UNL     1     -10.498  13.538  65.302  1.00  0.00    -0.320 NA 
HETATM   11  N   UNL     1      -9.907  14.417  67.242  1.00  0.00    -0.243 NA 
HETATM   12  C   UNL     1      -9.877  13.318  66.436  1.00  0.00    -0.281 A  
HETATM   13  H   UNL     1     -10.624  12.887  64.527  1.00  0.00     0.000 HD 
BRANCH   9  14
HETATM   14  C   UNL     1     -11.703  15.492  64.304  1.00  0.00    -0.190 C  
HETATM   15  N   UNL     1     -12.489  14.620  63.605  1.00  0.00    -1.064 N  
HETATM   16  H2  UNL     1     -12.545  13.624  63.816  1.00  0.00     0.000 HD 
HETATM   17  H1  UNL     1     -13.015  15.062  62.852  1.00  0.00     0.000 HD 
HETATM   18  O   UNL     1     -11.661  16.684  64.018  1.00  0.00    -1.197 OA 
ENDBRANCH   9  14
ENDBRANCH   6   8
ENDBRANCH   4   6
ENDBRANCH   2   4
TORSDOF 4
ENDMDL
MODEL       18
REMARK 921   NORMALIZED FREE ENERGY PREDICTED BY IDOCK:   -4.71 KCAL/MOL
REMARK 922        TOTAL FREE ENERGY PREDICTED BY IDOCK:   -6.25 KCAL/MOL
REMARK 923 INTER-LIGAND FREE ENERGY PREDICTED BY IDOCK:   -5.45 KCAL/MOL
REMARK 924 INTRA-LIGAND FREE ENERGY PREDICTED BY IDOCK:   -0.80 KCAL/MOL
REMARK 927      BINDING AFFINITY PREDICTED BY RF-SCORE:    0.00 PKD
ROOT
HETATM    1  C   UNL     1     -10.151  11.214  64.400  1.00  0.00    -0.320 C  
HETATM    2  N   UNL     1     -10.807  12.342  63.762  1.00  0.00    -0.402 NA 
HETATM    3  C   UNL     1     -12.234  12.257  63.472  1.00  0.00    -0.568 C  
ENDROOT
BRANCH   2   4
HETATM    4  N   UNL     1     -10.214  13.555  64.005  1.00  0.00    -0.713 NA 
HETATM    5  H   UNL     1      -9.203  13.694  63.995  1.00  0.00     0.000 HD 
BRANCH   4   6
HETATM    6  N   UNL     1     -11.025  14.473  64.241  1.00  0.00    -0.587 NA 
HETATM    7  H   UNL     1     -11.863  14.619  63.677  1.00  0.00     0.000 HD 
BRANCH   6   8
HETATM    8  C   UNL     1     -10.716  15.266  65.298  1.00  0.00    -0.415 A  
HETATM    9  C   UNL     1     -10.574  15.033  66.657  1.00  0.00    -0.301 A  
HETATM   10  N   UNL     1     -10.256  16.215  67.329  1.00  0.00    -0.271 NA 
HETATM   11  N   UNL     1     -10.494  16.618  65.168  1.00  0.00    -0.672 NA 
HETATM   12  C   UNL     1     -10.216  17.138  66.397  1.00  0.00    -0.328 A  
HETATM   13  H   UNL     1     -10.090  16.335  68.328  1.00  0.00     0.000 HD 
BRANCH   9  14
HETATM   14  C   UNL     1     -10.718  13.756  67.352  1.00  0.00    -0.275 C  
HETATM   15  N   UNL     1     -11.739  12.986  66.867  1.00  0.00    -0.365 N  
HETATM   16  H2  UNL     1     -12.340  13.275  66.096  1.00  0.00     0.000 HD 
HETATM   17  H1  UNL     1     -11.839  12.095  67.352  1.00  0.00     0.000 HD 
HETATM   18  O   UNL     1     -10.017  13.374  68.284  1.00  0.00    -0.231 OA 
ENDBRANCH   9  14
ENDBRANCH   6   8
ENDBRANCH   4   6
ENDBRANCH   2   4
TORSDOF 4
ENDMDL
MODEL       19
REMARK 921   NORMALIZED FREE ENERGY PREDICTED BY IDOCK:   -4.70 KCAL/MOL
REMARK 922        TOTAL FREE ENERGY PREDICTED BY IDOCK:   -6.24 KCAL/MOL
REMARK 923 INTER-LIGAND FREE ENERGY PREDICTED BY IDOCK:   -5.64 KCAL/MOL
REMARK 924 INTRA-LIGAND FREE ENERGY PREDICTED BY IDOCK:   -0.60 KCAL/MOL
REMARK 927      BINDING AFFINITY PREDICTED BY RF-SCORE:    0.00 PKD
ROOT
HETATM    1  C   UNL     1     -11.803  10.817  69.407  1.00  0.00    -0.298 C  
HETATM    2  N   UNL     1     -11.090  10.335  68.238  1.00  0.00    -0.266 NA 
HETATM    3  C   UNL     1     -10.613   8.957  68.220  1.00  0.00    -0.152 C  
ENDROOT
BRANCH   2   4
HETATM    4  N   UNL     1     -11.415  10.979  67.070  1.00  0.00    -0.395 NA 
HETATM    5  H   UNL     1     -12.370  11.043  66.716  1.00  0.00     0.000 HD 
BRANCH   4   6
HETATM    6  N   UNL     1     -10.435  11.477  66.481  1.00  0.00    -0.235 NA 
HETATM    7  H   UNL     1      -9.696  11.975  66.977  1.00  0.00     0.000 HD 
BRANCH   6   8
HETATM    8  C   UNL     1     -10.420  11.312  65.134  1.00  0.00    -0.291 A  
HETATM    9  C   UNL     1     -11.179  11.835  64.099  1.00  0.00    -0.364 A  
HETATM   10  N   UNL     1     -10.758  11.322  62.871  1.00  0.00    -0.792 NA 
HETATM   11  N   UNL     1      -9.543  10.459  64.504  1.00  0.00    -0.283 NA 
HETATM   12  C   UNL     1      -9.774  10.504  63.161  1.00  0.00    -0.305 A  
HETATM   13  H   UNL     1     -11.133  11.537  61.948  1.00  0.00     0.000 HD 
BRANCH   9  14
HETATM   14  C   UNL     1     -12.276  12.795  64.209  1.00  0.00    -0.425 C  
HETATM   15  N   UNL     1     -12.393  13.612  63.119  1.00  0.00    -1.076 N  
HETATM   16  H2  UNL     1     -11.775  13.557  62.310  1.00  0.00     0.000 HD 
HETATM   17  H1  UNL     1     -13.158  14.282  63.195  1.00  0.00     0.000 HD 
HETATM   18  O   UNL     1     -13.038  12.894  65.165  1.00  0.00    -0.753 OA 
ENDBRANCH   9  14
ENDBRANCH   6   8
ENDBRANCH   4   6
ENDBRANCH   2   4
TORSDOF 4
ENDMDL
MODEL       20
REMARK 921   NORMALIZED FREE ENERGY PREDICTED BY IDOCK:   -4.68 KCAL/MOL
REMARK 922        TOTAL FREE ENERGY PREDICTED BY IDOCK:   -6.22 KCAL/MOL
REMARK 923 INTER-LIGAND FREE ENERGY PREDICTED BY IDOCK:   -5.76 KCAL/MOL
REMARK 924 INTRA-LIGAND FREE ENERGY PREDICTED BY IDOCK:   -0.46 KCAL/MOL
REMARK 927      BINDING AFFINITY PREDICTED BY RF-SCORE:    0.00 PKD
ROOT
HETATM    1  C   UNL     1     -10.857   9.991  70.412  1.00  0.00    -0.318 C  
HETATM    2  N   UNL     1     -10.945  10.059  68.964  1.00  0.00    -0.225 NA 
HETATM    3  C   UNL     1     -10.478   8.925  68.174  1.00  0.00    -0.202 C  
ENDROOT
BRANCH   2   4
HETATM    4  N   UNL     1     -11.943  10.875  68.494  1.00  0.00    -0.762 NA 
HETATM    5  H   UNL     1     -12.781  11.099  69.033  1.00  0.00     0.000 HD 
BRANCH   4   6
HETATM    6  N   UNL     1     -11.732  11.319  67.348  1.00  0.00    -0.584 NA 
HETATM    7  H   UNL     1     -11.614  10.707  66.540  1.00  0.00     0.000 HD 
BRANCH   6   8
HETATM    8  C   UNL     1     -11.670  12.671  67.249  1.00  0.00    -0.370 A  
HETATM    9  C   UNL     1     -12.035  13.574  66.263  1.00  0.00    -0.413 A  
HETATM   10  N   UNL     1     -11.742  14.880  66.659  1.00  0.00    -0.280 NA 
HETATM   11  N   UNL     1     -11.133  13.460  68.239  1.00  0.00    -0.250 NA 
HETATM   12  C   UNL     1     -11.205  14.764  67.850  1.00  0.00    -0.306 A  
HETATM   13  H   UNL     1     -11.909  15.739  66.135  1.00  0.00     0.000 HD 
BRANCH   9  14
HETATM   14  C   UNL     1     -12.651  13.269  64.973  1.00  0.00    -0.423 C  
HETATM   15  N   UNL     1     -12.529  14.281  64.061  1.00  0.00    -0.863 N  
HETATM   16  H2  UNL     1     -12.055  15.161  64.262  1.00  0.00     0.000 HD 
HETATM   17  H1  UNL     1     -12.958  14.068  63.161  1.00  0.00     0.000 HD 
HETATM   18  O   UNL     1     -13.231  12.225  64.694  1.00  0.00    -0.763 OA 
ENDBRANCH   9  14
ENDBRANCH   6   8
ENDBRANCH   4   6
ENDBRANCH   2   4
TORSDOF 4
ENDMDL
MODEL       21
REMARK 921   NORMALIZED FREE ENERGY PREDICTED BY IDOCK:   -4.67 KCAL/MOL
REMARK 922        TOTAL FREE ENERGY PREDICTED BY IDOCK:   -6.20 KCAL/MOL
REMARK 923 INTER-LIGAND FREE ENERGY PREDICTED BY IDOCK:   -5.33 KCAL/MOL
REMARK 924 INTRA-LIGAND FREE ENERGY PREDICTED BY IDOCK:   -0.87 KCAL/MOL
REMARK 927      BINDING AFFINITY PREDICTED BY RF-SCORE:    0.00 PKD
ROOT
HETATM    1  C   UNL     1     -10.899  15.975  69.890  1.00  0.00    -0.351 C  
HETATM    2  N   UNL     1     -11.645  14.785  69.525  1.00  0.00    -0.286 NA 
HETATM    3  C   UNL     1     -12.056  13.859  70.574  1.00  0.00    -0.356 C  
ENDROOT
BRANCH   2   4
HETATM    4  N   UNL     1     -12.382  14.908  68.373  1.00  0.00    -0.578 NA 
HETATM    5  H   UNL     1     -12.921  15.744  68.143  1.00  0.00     0.000 HD 
BRANCH   4   6
HETATM    6  N   UNL     1     -12.331  13.905  67.634  1.00  0.00    -0.460 NA 
HETATM    7  H   UNL     1     -12.568  12.970  67.967  1.00  0.00     0.000 HD 
BRANCH   6   8
HETATM    8  C   UNL     1     -11.940  14.141  66.356  1.00  0.00    -0.436 A  
HETATM    9  C   UNL     1     -10.745  14.545  65.783  1.00  0.00    -0.315 A  
HETATM   10  N   UNL     1     -10.876  14.655  64.397  1.00  0.00    -0.600 NA 
HETATM   11  N   UNL     1     -12.800  14.028  65.288  1.00  0.00    -0.744 NA 
HETATM   12  C   UNL     1     -12.123  14.334  64.145  1.00  0.00    -0.393 A  
HETATM   13  H   UNL     1     -10.158  14.927  63.726  1.00  0.00     0.000 HD 
BRANCH   9  14
HETATM   14  C   UNL     1      -9.488  14.826  66.472  1.00  0.00    -0.293 C  
HETATM   15  N   UNL     1      -9.237  13.977  67.514  1.00  0.00    -0.189 N  
HETATM   16  H2  UNL     1      -9.867  13.222  67.783  1.00  0.00     0.000 HD 
HETATM   17  H1  UNL     1      -8.360  14.173  67.994  1.00  0.00     0.000 HD 
HETATM   18  O   UNL     1      -8.706  15.726  66.180  1.00  0.00    -0.325 OA 
ENDBRANCH   9  14
ENDBRANCH   6   8
ENDBRANCH   4   6
ENDBRANCH   2   4
TORSDOF 4
ENDMDL
MODEL       22
REMARK 921   NORMALIZED FREE ENERGY PREDICTED BY IDOCK:   -4.66 KCAL/MOL
REMARK 922        TOTAL FREE ENERGY PREDICTED BY IDOCK:   -6.19 KCAL/MOL
REMARK 923 INTER-LIGAND FREE ENERGY PREDICTED BY IDOCK:   -5.25 KCAL/MOL
REMARK 924 INTRA-LIGAND FREE ENERGY PREDICTED BY IDOCK:   -0.94 KCAL/MOL
REMARK 927      BINDING AFFINITY PREDICTED BY RF-SCORE:    0.00 PKD
ROOT
HETATM    1  C   UNL     1      -8.457  17.844  66.351  1.00  0.00    -0.234 C  
HETATM    2  N   UNL     1      -9.809  18.310  66.102  1.00  0.00    -0.505 NA 
HETATM    3  C   UNL     1     -10.058  19.745  66.023  1.00  0.00    -0.477 C  
ENDROOT
BRANCH   2   4
HETATM    4  N   UNL     1     -10.597  17.424  65.411  1.00  0.00    -0.631 NA 
HETATM    5  H   UNL     1     -11.498  17.679  65.005  1.00  0.00     0.000 HD 
BRANCH   4   6
HETATM    6  N   UNL     1     -10.110  16.279  65.325  1.00  0.00    -0.525 NA 
HETATM    7  H   UNL     1      -9.124  16.120  65.116  1.00  0.00     0.000 HD 
BRANCH   6   8
HETATM    8  C   UNL     1     -10.981  15.259  65.530  1.00  0.00    -0.359 A  
HETATM    9  C   UNL     1     -11.489  14.651  66.667  1.00  0.00    -0.357 A  
HETATM   10  N   UNL     1     -12.360  13.615  66.324  1.00  0.00    -0.430 NA 
HETATM   11  N   UNL     1     -11.550  14.554  64.495  1.00  0.00    -0.393 NA 
HETATM   12  C   UNL     1     -12.368  13.595  65.013  1.00  0.00    -0.427 A  
HETATM   13  H   UNL     1     -12.878  13.006  66.957  1.00  0.00     0.000 HD 
BRANCH   9  14
HETATM   14  C   UNL     1     -11.201  15.000  68.057  1.00  0.00    -0.316 C  
HETATM   15  N   UNL     1     -11.102  16.347  68.269  1.00  0.00    -0.352 N  
HETATM   16  H2  UNL     1     -11.218  17.040  67.530  1.00  0.00     0.000 HD 
HETATM   17  H1  UNL     1     -10.902  16.591  69.238  1.00  0.00     0.000 HD 
HETATM   18  O   UNL     1     -11.053  14.197  68.972  1.00  0.00    -0.247 OA 
ENDBRANCH   9  14
ENDBRANCH   6   8
ENDBRANCH   4   6
ENDBRANCH   2   4
TORSDOF 4
ENDMDL
MODEL       23
REMARK 921   NORMALIZED FREE ENERGY PREDICTED BY IDOCK:   -4.66 KCAL/MOL
REMARK 922        TOTAL FREE ENERGY PREDICTED BY IDOCK:   -6.19 KCAL/MOL
REMARK 923 INTER-LIGAND FREE ENERGY PREDICTED BY IDOCK:   -5.34 KCAL/MOL
REMARK 924 INTRA-LIGAND FREE ENERGY PREDICTED BY IDOCK:   -0.85 KCAL/MOL
REMARK 927      BINDING AFFINITY PREDICTED BY RF-SCORE:    0.00 PKD
ROOT
HETATM    1  C   UNL     1     -12.038  15.963  71.845  1.00  0.00    -0.498 C  
HETATM    2  N   UNL     1     -12.987  15.005  71.307  1.00  0.00    -0.346 NA 
HETATM    3  C   UNL     1     -14.389  15.109  71.692  1.00  0.00    -0.585 C  
ENDROOT
BRANCH   2   4
HETATM    4  N   UNL     1     -12.632  14.477  70.091  1.00  0.00    -0.487 NA 
HETATM    5  H   UNL     1     -13.154  14.655  69.232  1.00  0.00     0.000 HD 
BRANCH   4   6
HETATM    6  N   UNL     1     -11.614  13.758  70.133  1.00  0.00    -0.480 NA 
HETATM    7  H   UNL     1     -10.798  14.000  70.697  1.00  0.00     0.000 HD 
BRANCH   6   8
HETATM    8  C   UNL     1     -11.664  12.631  69.378  1.00  0.00    -0.325 A  
HETATM    9  C   UNL     1     -12.159  11.356  69.598  1.00  0.00    -0.305 A  
HETATM   10  N   UNL     1     -11.945  10.545  68.481  1.00  0.00    -0.786 NA 
HETATM   11  N   UNL     1     -11.132  12.567  68.111  1.00  0.00    -0.228 NA 
HETATM   12  C   UNL     1     -11.329  11.313  67.614  1.00  0.00    -0.282 A  
HETATM   13  H   UNL     1     -12.211   9.568  68.364  1.00  0.00     0.000 HD 
BRANCH   9  14
HETATM   14  C   UNL     1     -12.825  10.864  70.801  1.00  0.00    -0.289 C  
HETATM   15  N   UNL     1     -12.982  11.821  71.765  1.00  0.00    -0.409 N  
HETATM   16  H2  UNL     1     -12.664  12.784  71.654  1.00  0.00     0.000 HD 
HETATM   17  H1  UNL     1     -13.447  11.479  72.605  1.00  0.00     0.000 HD 
HETATM   18  O   UNL     1     -13.219   9.715  70.974  1.00  0.00    -0.324 OA 
ENDBRANCH   9  14
ENDBRANCH   6   8
ENDBRANCH   4   6
ENDBRANCH   2   4
TORSDOF 4
ENDMDL
MODEL       24
REMARK 921   NORMALIZED FREE ENERGY PREDICTED BY IDOCK:   -4.65 KCAL/MOL
REMARK 922        TOTAL FREE ENERGY PREDICTED BY IDOCK:   -6.17 KCAL/MOL
REMARK 923 INTER-LIGAND FREE ENERGY PREDICTED BY IDOCK:   -5.69 KCAL/MOL
REMARK 924 INTRA-LIGAND FREE ENERGY PREDICTED BY IDOCK:   -0.48 KCAL/MOL
REMARK 927      BINDING AFFINITY PREDICTED BY RF-SCORE:    0.00 PKD
ROOT
HETATM    1  C   UNL     1     -11.285  15.544  71.443  1.00  0.00    -0.346 C  
HETATM    2  N   UNL     1     -11.619  16.027  70.115  1.00  0.00    -0.336 NA 
HETATM    3  C   UNL     1     -10.641  16.826  69.387  1.00  0.00    -0.318 C  
ENDROOT
BRANCH   2   4
HETATM    4  N   UNL     1     -12.529  15.251  69.441  1.00  0.00    -0.601 NA 
HETATM    5  H   UNL     1     -13.414  14.948  69.849  1.00  0.00     0.000 HD 
BRANCH   4   6
HETATM    6  N   UNL     1     -12.174  14.950  68.284  1.00  0.00    -0.576 NA 
HETATM    7  H   UNL     1     -12.064  15.648  67.548  1.00  0.00     0.000 HD 
BRANCH   6   8
HETATM    8  C   UNL     1     -11.943  13.629  68.071  1.00  0.00    -0.350 A  
HETATM    9  C   UNL     1     -11.988  12.822  66.945  1.00  0.00    -0.310 A  
HETATM   10  N   UNL     1     -11.672  11.502  67.273  1.00  0.00    -0.603 NA 
HETATM   11  N   UNL     1     -11.612  12.764  69.087  1.00  0.00    -0.301 NA 
HETATM   12  C   UNL     1     -11.452  11.514  68.566  1.00  0.00    -0.292 A  
HETATM   13  H   UNL     1     -11.623  10.702  66.643  1.00  0.00     0.000 HD 
BRANCH   9  14
HETATM   14  C   UNL     1     -12.307  13.231  65.579  1.00  0.00    -0.480 C  
HETATM   15  N   UNL     1     -11.770  14.441  65.235  1.00  0.00    -0.353 N  
HETATM   16  H2  UNL     1     -11.203  15.002  65.870  1.00  0.00     0.000 HD 
HETATM   17  H1  UNL     1     -11.992  14.727  64.282  1.00  0.00     0.000 HD 
HETATM   18  O   UNL     1     -12.987  12.587  64.787  1.00  0.00    -0.827 OA 
ENDBRANCH   9  14
ENDBRANCH   6   8
ENDBRANCH   4   6
ENDBRANCH   2   4
TORSDOF 4
ENDMDL
MODEL       25
REMARK 921   NORMALIZED FREE ENERGY PREDICTED BY IDOCK:   -4.63 KCAL/MOL
REMARK 922        TOTAL FREE ENERGY PREDICTED BY IDOCK:   -6.16 KCAL/MOL
REMARK 923 INTER-LIGAND FREE ENERGY PREDICTED BY IDOCK:   -5.58 KCAL/MOL
REMARK 924 INTRA-LIGAND FREE ENERGY PREDICTED BY IDOCK:   -0.58 KCAL/MOL
REMARK 927      BINDING AFFINITY PREDICTED BY RF-SCORE:    0.00 PKD
ROOT
HETATM    1  C   UNL     1     -11.964  13.322  69.234  1.00  0.00    -0.303 C  
HETATM    2  N   UNL     1     -11.729  11.929  68.900  1.00  0.00    -0.302 NA 
HETATM    3  C   UNL     1     -11.819  10.925  69.955  1.00  0.00    -0.349 C  
ENDROOT
BRANCH   2   4
HETATM    4  N   UNL     1     -12.009  11.601  67.597  1.00  0.00    -0.625 NA 
HETATM    5  H   UNL     1     -12.273  10.660  67.303  1.00  0.00     0.000 HD 
BRANCH   4   6
HETATM    6  N   UNL     1     -11.913  12.561  66.806  1.00  0.00    -0.559 NA 
HETATM    7  H   UNL     1     -11.815  13.524  67.127  1.00  0.00     0.000 HD 
BRANCH   6   8
HETATM    8  C   UNL     1     -11.948  12.235  65.489  1.00  0.00    -0.321 A  
HETATM    9  C   UNL     1     -11.058  11.597  64.640  1.00  0.00    -0.278 A  
HETATM   10  N   UNL     1     -11.579  11.522  63.346  1.00  0.00    -0.807 NA 
HETATM   11  N   UNL     1     -13.009  12.560  64.675  1.00  0.00    -0.844 NA 
HETATM   12  C   UNL     1     -12.750  12.109  63.415  1.00  0.00    -0.381 A  
HETATM   13  H   UNL     1     -11.143  11.102  62.526  1.00  0.00     0.000 HD 
BRANCH   9  14
HETATM   14  C   UNL     1      -9.747  11.051  64.985  1.00  0.00    -0.254 C  
HETATM   15  N   UNL     1      -8.829  11.164  63.978  1.00  0.00    -0.384 N  
HETATM   16  H2  UNL     1      -9.039  11.587  63.075  1.00  0.00     0.000 HD 
HETATM   17  H1  UNL     1      -7.915  10.783  64.219  1.00  0.00     0.000 HD 
HETATM   18  O   UNL     1      -9.457  10.531  66.058  1.00  0.00    -0.170 OA 
ENDBRANCH   9  14
ENDBRANCH   6   8
ENDBRANCH   4   6
ENDBRANCH   2   4
TORSDOF 4
ENDMDL
MODEL       26
REMARK 921   NORMALIZED FREE ENERGY PREDICTED BY IDOCK:   -4.63 KCAL/MOL
REMARK 922        TOTAL FREE ENERGY PREDICTED BY IDOCK:   -6.15 KCAL/MOL
REMARK 923 INTER-LIGAND FREE ENERGY PREDICTED BY IDOCK:   -5.60 KCAL/MOL
REMARK 924 INTRA-LIGAND FREE ENERGY PREDICTED BY IDOCK:   -0.56 KCAL/MOL
REMARK 927      BINDING AFFINITY PREDICTED BY RF-SCORE:    0.00 PKD
ROOT
HETATM    1  C   UNL     1     -12.041  14.187  66.121  1.00  0.00    -0.435 C  
HETATM    2  N   UNL     1     -11.985  13.351  67.307  1.00  0.00    -0.363 NA 
HETATM    3  C   UNL     1     -11.073  12.214  67.327  1.00  0.00    -0.287 C  
ENDROOT
BRANCH   2   4
HETATM    4  N   UNL     1     -12.329  13.993  68.470  1.00  0.00    -0.506 NA 
HETATM    5  H   UNL     1     -13.075  14.687  68.525  1.00  0.00     0.000 HD 
BRANCH   4   6
HETATM    6  N   UNL     1     -11.645  13.649  69.455  1.00  0.00    -0.298 NA 
HETATM    7  H   UNL     1     -10.628  13.733  69.469  1.00  0.00     0.000 HD 
BRANCH   6   8
HETATM    8  C   UNL     1     -12.346  13.156  70.508  1.00  0.00    -0.304 A  
HETATM    9  C   UNL     1     -13.146  13.737  71.479  1.00  0.00    -0.357 A  
HETATM   10  N   UNL     1     -13.633  12.769  72.359  1.00  0.00    -0.583 NA 
HETATM   11  N   UNL     1     -12.346  11.819  70.833  1.00  0.00    -0.366 NA 
HETATM   12  C   UNL     1     -13.130  11.635  71.933  1.00  0.00    -0.385 A  
HETATM   13  H   UNL     1     -14.246  12.912  73.161  1.00  0.00     0.000 HD 
BRANCH   9  14
HETATM   14  C   UNL     1     -13.479  15.153  71.615  1.00  0.00    -0.443 C  
HETATM   15  N   UNL     1     -13.167  15.893  70.509  1.00  0.00    -0.703 N  
HETATM   16  H2  UNL     1     -12.744  15.495  69.671  1.00  0.00     0.000 HD 
HETATM   17  H1  UNL     1     -13.399  16.881  70.604  1.00  0.00     0.000 HD 
HETATM   18  O   UNL     1     -13.985  15.669  72.606  1.00  0.00    -0.566 OA 
ENDBRANCH   9  14
ENDBRANCH   6   8
ENDBRANCH   4   6
ENDBRANCH   2   4
TORSDOF 4
ENDMDL
MODEL       27
REMARK 921   NORMALIZED FREE ENERGY PREDICTED BY IDOCK:   -4.63 KCAL/MOL
REMARK 922        TOTAL FREE ENERGY PREDICTED BY IDOCK:   -6.15 KCAL/MOL
REMARK 923 INTER-LIGAND FREE ENERGY PREDICTED BY IDOCK:   -5.45 KCAL/MOL
REMARK 924 INTRA-LIGAND FREE ENERGY PREDICTED BY IDOCK:   -0.70 KCAL/MOL
REMARK 927      BINDING AFFINITY PREDICTED BY RF-SCORE:    0.00 PKD
ROOT
HETATM    1  C   UNL     1     -12.364  14.922  64.289  1.00  0.00    -0.277 C  
HETATM    2  N   UNL     1     -12.805  13.764  65.046  1.00  0.00    -0.735 NA 
HETATM    3  C   UNL     1     -12.693  12.441  64.443  1.00  0.00    -0.342 C  
ENDROOT
BRANCH   2   4
HETATM    4  N   UNL     1     -12.743  13.919  66.408  1.00  0.00    -0.439 NA 
HETATM    5  H   UNL     1     -13.492  14.345  66.955  1.00  0.00     0.000 HD 
BRANCH   4   6
HETATM    6  N   UNL     1     -11.687  13.491  66.915  1.00  0.00    -0.362 NA 
HETATM    7  H   UNL     1     -10.778  13.618  66.470  1.00  0.00     0.000 HD 
BRANCH   6   8
HETATM    8  C   UNL     1     -11.831  12.846  68.101  1.00  0.00    -0.336 A  
HETATM    9  C   UNL     1     -11.882  13.270  69.419  1.00  0.00    -0.329 A  
HETATM   10  N   UNL     1     -12.030  12.182  70.281  1.00  0.00    -0.462 NA 
HETATM   11  N   UNL     1     -11.932  11.477  68.188  1.00  0.00    -0.610 NA 
HETATM   12  C   UNL     1     -12.057  11.128  69.500  1.00  0.00    -0.326 A  
HETATM   13  H   UNL     1     -12.101  12.202  71.298  1.00  0.00     0.000 HD 
BRANCH   9  14
HETATM   14  C   UNL     1     -11.806  14.646  69.905  1.00  0.00    -0.319 C  
HETATM   15  N   UNL     1     -12.339  15.559  69.039  1.00  0.00    -0.611 N  
HETATM   16  H2  UNL     1     -12.749  15.305  68.141  1.00  0.00     0.000 HD 
HETATM   17  H1  UNL     1     -12.285  16.519  69.378  1.00  0.00     0.000 HD 
HETATM   18  O   UNL     1     -11.318  14.992  70.977  1.00  0.00    -0.304 OA 
ENDBRANCH   9  14
ENDBRANCH   6   8
ENDBRANCH   4   6
ENDBRANCH   2   4
TORSDOF 4
ENDMDL
MODEL       28
REMARK 921   NORMALIZED FREE ENERGY PREDICTED BY IDOCK:   -4.61 KCAL/MOL
REMARK 922        TOTAL FREE ENERGY PREDICTED BY IDOCK:   -6.13 KCAL/MOL
REMARK 923 INTER-LIGAND FREE ENERGY PREDICTED BY IDOCK:   -5.29 KCAL/MOL
REMARK 924 INTRA-LIGAND FREE ENERGY PREDICTED BY IDOCK:   -0.83 KCAL/MOL
REMARK 927      BINDING AFFINITY PREDICTED BY RF-SCORE:    0.00 PKD
ROOT
HETATM    1  C   UNL     1     -10.219  11.975  64.922  1.00  0.00    -0.270 C  
HETATM    2  N   UNL     1     -11.582  12.447  64.759  1.00  0.00    -0.330 NA 
HETATM    3  C   UNL     1     -12.257  12.227  63.486  1.00  0.00    -0.568 C  
ENDROOT
BRANCH   2   4
HETATM    4  N   UNL     1     -12.298  12.528  65.927  1.00  0.00    -0.603 NA 
HETATM    5  H   UNL     1     -12.522  11.714  66.500  1.00  0.00     0.000 HD 
BRANCH   4   6
HETATM    6  N   UNL     1     -12.651  13.687  66.222  1.00  0.00    -0.353 NA 
HETATM    7  H   UNL     1     -13.524  14.093  65.886  1.00  0.00     0.000 HD 
BRANCH   6   8
HETATM    8  C   UNL     1     -11.793  14.371  67.020  1.00  0.00    -0.412 A  
HETATM    9  C   UNL     1     -10.878  15.386  66.789  1.00  0.00    -0.306 A  
HETATM   10  N   UNL     1     -10.223  15.737  67.972  1.00  0.00    -0.226 NA 
HETATM   11  N   UNL     1     -11.662  14.105  68.363  1.00  0.00    -0.325 NA 
HETATM   12  C   UNL     1     -10.726  14.945  68.889  1.00  0.00    -0.245 A  
HETATM   13  H   UNL     1      -9.508  16.453  68.095  1.00  0.00     0.000 HD 
BRANCH   9  14
HETATM   14  C   UNL     1     -10.594  16.045  65.516  1.00  0.00    -0.398 C  
HETATM   15  N   UNL     1     -11.125  15.394  64.438  1.00  0.00    -0.700 N  
HETATM   16  H2  UNL     1     -11.666  14.533  64.515  1.00  0.00     0.000 HD 
HETATM   17  H1  UNL     1     -10.928  15.853  63.549  1.00  0.00     0.000 HD 
HETATM   18  O   UNL     1      -9.946  17.078  65.382  1.00  0.00    -0.556 OA 
ENDBRANCH   9  14
ENDBRANCH   6   8
ENDBRANCH   4   6
ENDBRANCH   2   4
TORSDOF 4
ENDMDL
MODEL       29
REMARK 921   NORMALIZED FREE ENERGY PREDICTED BY IDOCK:   -4.59 KCAL/MOL
REMARK 922        TOTAL FREE ENERGY PREDICTED BY IDOCK:   -6.10 KCAL/MOL
REMARK 923 INTER-LIGAND FREE ENERGY PREDICTED BY IDOCK:   -5.68 KCAL/MOL
REMARK 924 INTRA-LIGAND FREE ENERGY PREDICTED BY IDOCK:   -0.42 KCAL/MOL
REMARK 927      BINDING AFFINITY PREDICTED BY RF-SCORE:    0.00 PKD
ROOT
HETATM    1  C   UNL     1     -12.038  11.378  70.369  1.00  0.00    -0.384 C  
HETATM    2  N   UNL     1     -12.991  11.161  71.443  1.00  0.00    -0.424 NA 
HETATM    3  C   UNL     1     -13.163   9.813  71.972  1.00  0.00    -0.460 C  
ENDROOT
BRANCH   2   4
HETATM    4  N   UNL     1     -13.210  12.258  72.238  1.00  0.00    -0.470 NA 
HETATM    5  H   UNL     1     -13.177  12.223  73.257  1.00  0.00     0.000 HD 
BRANCH   4   6
HETATM    6  N   UNL     1     -13.454  13.301  71.599  1.00  0.00    -0.322 NA 
HETATM    7  H   UNL     1     -13.979  13.295  70.724  1.00  0.00     0.000 HD 
BRANCH   6   8
HETATM    8  C   UNL     1     -12.973  14.446  72.147  1.00  0.00    -0.355 A  
HETATM    9  C   UNL     1     -12.197  15.485  71.660  1.00  0.00    -0.399 A  
HETATM   10  N   UNL     1     -11.965  16.436  72.656  1.00  0.00    -0.549 NA 
HETATM   11  N   UNL     1     -13.189  14.781  73.464  1.00  0.00    -0.476 NA 
HETATM   12  C   UNL     1     -12.580  15.974  73.719  1.00  0.00    -0.610 A  
HETATM   13  H   UNL     1     -11.433  17.302  72.574  1.00  0.00     0.000 HD 
BRANCH   9  14
HETATM   14  C   UNL     1     -11.668  15.630  70.305  1.00  0.00    -0.357 C  
HETATM   15  N   UNL     1     -12.629  15.549  69.336  1.00  0.00    -0.576 N  
HETATM   16  H2  UNL     1     -13.617  15.402  69.539  1.00  0.00     0.000 HD 
HETATM   17  H1  UNL     1     -12.260  15.650  68.391  1.00  0.00     0.000 HD 
HETATM   18  O   UNL     1     -10.487  15.805  70.021  1.00  0.00    -0.295 OA 
ENDBRANCH   9  14
ENDBRANCH   6   8
ENDBRANCH   4   6
ENDBRANCH   2   4
TORSDOF 4
ENDMDL
MODEL       30
REMARK 921   NORMALIZED FREE ENERGY PREDICTED BY IDOCK:   -4.58 KCAL/MOL
REMARK 922        TOTAL FREE ENERGY PREDICTED BY IDOCK:   -6.09 KCAL/MOL
REMARK 923 INTER-LIGAND FREE ENERGY PREDICTED BY IDOCK:   -5.78 KCAL/MOL
REMARK 924 INTRA-LIGAND FREE ENERGY PREDICTED BY IDOCK:   -0.31 KCAL/MOL
REMARK 927      BINDING AFFINITY PREDICTED BY RF-SCORE:    0.00 PKD
ROOT
HETATM    1  C   UNL     1     -12.170  16.052  72.148  1.00  0.00    -0.516 C  
HETATM    2  N   UNL     1     -13.059  15.302  71.280  1.00  0.00    -0.431 NA 
HETATM    3  C   UNL     1     -14.358  14.881  71.792  1.00  0.00    -0.578 C  
ENDROOT
BRANCH   2   4
HETATM    4  N   UNL     1     -12.879  15.541  69.941  1.00  0.00    -0.600 NA 
HETATM    5  H   UNL     1     -13.171  16.407  69.485  1.00  0.00     0.000 HD 
BRANCH   4   6
HETATM    6  N   UNL     1     -12.327  14.604  69.331  1.00  0.00    -0.551 NA 
HETATM    7  H   UNL     1     -12.425  13.631  69.622  1.00  0.00     0.000 HD 
BRANCH   6   8
HETATM    8  C   UNL     1     -11.584  14.966  68.254  1.00  0.00    -0.334 A  
HETATM    9  C   UNL     1     -11.505  14.505  66.950  1.00  0.00    -0.364 A  
HETATM   10  N   UNL     1     -10.552  15.226  66.229  1.00  0.00    -0.302 NA 
HETATM   11  N   UNL     1     -10.644  15.969  68.309  1.00  0.00    -0.271 NA 
HETATM   12  C   UNL     1     -10.063  16.094  67.083  1.00  0.00    -0.269 A  
HETATM   13  H   UNL     1     -10.291  15.104  65.251  1.00  0.00     0.000 HD 
BRANCH   9  14
HETATM   14  C   UNL     1     -12.285  13.425  66.349  1.00  0.00    -0.376 C  
HETATM   15  N   UNL     1     -12.970  13.808  65.229  1.00  0.00    -0.754 N  
HETATM   16  H2  UNL     1     -12.939  14.755  64.851  1.00  0.00     0.000 HD 
HETATM   17  H1  UNL     1     -13.513  13.055  64.809  1.00  0.00     0.000 HD 
HETATM   18  O   UNL     1     -12.349  12.276  66.774  1.00  0.00    -0.438 OA 
ENDBRANCH   9  14
ENDBRANCH   6   8
ENDBRANCH   4   6
ENDBRANCH   2   4
TORSDOF 4
ENDMDL
MODEL       31
REMARK 921   NORMALIZED FREE ENERGY PREDICTED BY IDOCK:   -4.57 KCAL/MOL
REMARK 922        TOTAL FREE ENERGY PREDICTED BY IDOCK:   -6.08 KCAL/MOL
REMARK 923 INTER-LIGAND FREE ENERGY PREDICTED BY IDOCK:   -5.23 KCAL/MOL
REMARK 924 INTRA-LIGAND FREE ENERGY PREDICTED BY IDOCK:   -0.85 KCAL/MOL
REMARK 927      BINDING AFFINITY PREDICTED BY RF-SCORE:    0.00 PKD
ROOT
HETATM    1  C   UNL     1     -12.309  14.964  64.289  1.00  0.00    -0.277 C  
HETATM    2  N   UNL     1     -12.503  13.529  64.398  1.00  0.00    -0.627 NA 
HETATM    3  C   UNL     1     -11.998  12.666  63.336  1.00  0.00    -0.528 C  
ENDROOT
BRANCH   2   4
HETATM    4  N   UNL     1     -12.607  13.066  65.685  1.00  0.00    -0.532 NA 
HETATM    5  H   UNL     1     -13.180  13.521  66.397  1.00  0.00     0.000 HD 
BRANCH   4   6
HETATM    6  N   UNL     1     -11.936  12.038  65.907  1.00  0.00    -0.519 NA 
HETATM    7  H   UNL     1     -11.802  11.313  65.202  1.00  0.00     0.000 HD 
BRANCH   6   8
HETATM    8  C   UNL     1     -11.398  11.950  67.149  1.00  0.00    -0.331 A  
HETATM    9  C   UNL     1     -10.186  12.343  67.695  1.00  0.00    -0.207 A  
HETATM   10  N   UNL     1     -10.121  12.000  69.047  1.00  0.00    -0.416 NA 
HETATM   11  N   UNL     1     -12.054  11.347  68.197  1.00  0.00    -0.617 NA 
HETATM   12  C   UNL     1     -11.262  11.408  69.305  1.00  0.00    -0.277 A  
HETATM   13  H   UNL     1      -9.351  12.173  69.694  1.00  0.00     0.000 HD 
BRANCH   9  14
HETATM   14  C   UNL     1      -9.092  13.028  67.010  1.00  0.00    -0.230 C  
HETATM   15  N   UNL     1      -9.476  13.638  65.848  1.00  0.00    -0.505 N  
HETATM   16  H2  UNL     1     -10.432  13.617  65.495  1.00  0.00     0.000 HD 
HETATM   17  H1  UNL     1      -8.713  14.116  65.371  1.00  0.00     0.000 HD 
HETATM   18  O   UNL     1      -7.930  13.074  67.401  1.00  0.00    -0.166 OA 
ENDBRANCH   9  14
ENDBRANCH   6   8
ENDBRANCH   4   6
ENDBRANCH   2   4
TORSDOF 4
ENDMDL
MODEL       32
REMARK 921   NORMALIZED FREE ENERGY PREDICTED BY IDOCK:   -4.55 KCAL/MOL
REMARK 922        TOTAL FREE ENERGY PREDICTED BY IDOCK:   -6.06 KCAL/MOL
REMARK 923 INTER-LIGAND FREE ENERGY PREDICTED BY IDOCK:   -5.64 KCAL/MOL
REMARK 924 INTRA-LIGAND FREE ENERGY PREDICTED BY IDOCK:   -0.42 KCAL/MOL
REMARK 927      BINDING AFFINITY PREDICTED BY RF-SCORE:    0.00 PKD
ROOT
HETATM    1  C   UNL     1     -10.610  17.122  67.774  1.00  0.00    -0.360 C  
HETATM    2  N   UNL     1     -11.319  15.872  67.987  1.00  0.00    -0.322 NA 
HETATM    3  C   UNL     1     -10.818  14.659  67.351  1.00  0.00    -0.298 C  
ENDROOT
BRANCH   2   4
HETATM    4  N   UNL     1     -12.011  15.806  69.170  1.00  0.00    -0.511 NA 
HETATM    5  H   UNL     1     -12.178  16.619  69.764  1.00  0.00     0.000 HD 
BRANCH   4   6
HETATM    6  N   UNL     1     -12.419  14.662  69.452  1.00  0.00    -0.572 NA 
HETATM    7  H   UNL     1     -12.288  13.867  68.825  1.00  0.00     0.000 HD 
BRANCH   6   8
HETATM    8  C   UNL     1     -13.048  14.545  70.649  1.00  0.00    -0.250 A  
HETATM    9  C   UNL     1     -13.264  13.485  71.514  1.00  0.00    -0.322 A  
HETATM   10  N   UNL     1     -13.995  13.901  72.629  1.00  0.00    -0.713 NA 
HETATM   11  N   UNL     1     -13.680  15.605  71.257  1.00  0.00    -0.571 NA 
HETATM   12  C   UNL     1     -14.220  15.178  72.433  1.00  0.00    -0.445 A  
HETATM   13  H   UNL     1     -14.290  13.333  73.423  1.00  0.00     0.000 HD 
BRANCH   9  14
HETATM   14  C   UNL     1     -12.813  12.105  71.347  1.00  0.00    -0.276 C  
HETATM   15  N   UNL     1     -11.885  11.953  70.356  1.00  0.00    -0.509 N  
HETATM   16  H2  UNL     1     -11.541  12.727  69.788  1.00  0.00     0.000 HD 
HETATM   17  H1  UNL     1     -11.570  10.990  70.239  1.00  0.00     0.000 HD 
HETATM   18  O   UNL     1     -13.205  11.148  72.007  1.00  0.00    -0.493 OA 
ENDBRANCH   9  14
ENDBRANCH   6   8
ENDBRANCH   4   6
ENDBRANCH   2   4
TORSDOF 4
ENDMDL
MODEL       33
REMARK 921   NORMALIZED FREE ENERGY PREDICTED BY IDOCK:   -4.55 KCAL/MOL
REMARK 922        TOTAL FREE ENERGY PREDICTED BY IDOCK:   -6.05 KCAL/MOL
REMARK 923 INTER-LIGAND FREE ENERGY PREDICTED BY IDOCK:   -5.48 KCAL/MOL
REMARK 924 INTRA-LIGAND FREE ENERGY PREDICTED BY IDOCK:   -0.57 KCAL/MOL
REMARK 927      BINDING AFFINITY PREDICTED BY RF-SCORE:    0.00 PKD
ROOT
HETATM    1  C   UNL     1     -10.910  14.684  67.766  1.00  0.00    -0.267 C  
HETATM    2  N   UNL     1      -9.959  15.076  66.741  1.00  0.00    -0.242 NA 
HETATM    3  C   UNL     1      -9.164  16.282  66.939  1.00  0.00    -0.218 C  
ENDROOT
BRANCH   2   4
HETATM    4  N   UNL     1      -9.476  14.035  65.988  1.00  0.00    -0.499 NA 
HETATM    5  H   UNL     1      -8.690  14.131  65.343  1.00  0.00     0.000 HD 
BRANCH   4   6
HETATM    6  N   UNL     1     -10.085  12.961  66.164  1.00  0.00    -0.271 NA 
HETATM    7  H   UNL     1     -10.511  12.716  67.058  1.00  0.00     0.000 HD 
BRANCH   6   8
HETATM    8  C   UNL     1     -10.144  12.141  65.084  1.00  0.00    -0.261 A  
HETATM    9  C   UNL     1     -11.053  11.988  64.049  1.00  0.00    -0.386 A  
HETATM   10  N   UNL     1     -10.646  10.971  63.183  1.00  0.00    -0.778 NA 
HETATM   11  N   UNL     1      -9.189  11.183  64.832  1.00  0.00    -0.191 NA 
HETATM   12  C   UNL     1      -9.524  10.519  63.690  1.00  0.00    -0.304 A  
HETATM   13  H   UNL     1     -11.119  10.650  62.338  1.00  0.00     0.000 HD 
BRANCH   9  14
HETATM   14  C   UNL     1     -12.279  12.752  63.833  1.00  0.00    -0.463 C  
HETATM   15  N   UNL     1     -12.065  14.095  63.695  1.00  0.00    -0.964 N  
HETATM   16  H2  UNL     1     -11.140  14.522  63.739  1.00  0.00     0.000 HD 
HETATM   17  H1  UNL     1     -12.921  14.629  63.545  1.00  0.00     0.000 HD 
HETATM   18  O   UNL     1     -13.409  12.277  63.777  1.00  0.00    -0.633 OA 
ENDBRANCH   9  14
ENDBRANCH   6   8
ENDBRANCH   4   6
ENDBRANCH   2   4
TORSDOF 4
ENDMDL
MODEL       34
REMARK 921   NORMALIZED FREE ENERGY PREDICTED BY IDOCK:   -4.53 KCAL/MOL
REMARK 922        TOTAL FREE ENERGY PREDICTED BY IDOCK:   -6.03 KCAL/MOL
REMARK 923 INTER-LIGAND FREE ENERGY PREDICTED BY IDOCK:   -5.44 KCAL/MOL
REMARK 924 INTRA-LIGAND FREE ENERGY PREDICTED BY IDOCK:   -0.59 KCAL/MOL
REMARK 927      BINDING AFFINITY PREDICTED BY RF-SCORE:    0.00 PKD
ROOT
HETATM    1  C   UNL     1      -9.772  10.243  64.789  1.00  0.00    -0.332 C  
HETATM    2  N   UNL     1      -9.601  11.245  63.753  1.00  0.00    -0.254 NA 
HETATM    3  C   UNL     1      -9.649  10.832  62.356  1.00  0.00    -0.129 C  
ENDROOT
BRANCH   2   4
HETATM    4  N   UNL     1      -9.979  12.512  64.121  1.00  0.00    -0.584 NA 
HETATM    5  H   UNL     1      -9.585  13.355  63.703  1.00  0.00     0.000 HD 
BRANCH   4   6
HETATM    6  N   UNL     1     -10.850  12.537  65.014  1.00  0.00    -0.281 NA 
HETATM    7  H   UNL     1     -11.523  11.781  65.141  1.00  0.00     0.000 HD 
BRANCH   6   8
HETATM    8  C   UNL     1     -10.841  13.640  65.805  1.00  0.00    -0.273 A  
HETATM    9  C   UNL     1     -11.174  14.969  65.595  1.00  0.00    -0.327 A  
HETATM   10  N   UNL     1     -10.968  15.718  66.756  1.00  0.00    -0.251 NA 
HETATM   11  N   UNL     1     -10.412  13.608  67.112  1.00  0.00    -0.263 NA 
HETATM   12  C   UNL     1     -10.513  14.861  67.639  1.00  0.00    -0.249 A  
HETATM   13  H   UNL     1     -11.135  16.715  66.887  1.00  0.00     0.000 HD 
BRANCH   9  14
HETATM   14  C   UNL     1     -11.681  15.566  64.362  1.00  0.00    -0.242 C  
HETATM   15  N   UNL     1     -12.446  14.710  63.618  1.00  0.00    -1.064 N  
HETATM   16  H2  UNL     1     -12.642  13.749  63.897  1.00  0.00     0.000 HD 
HETATM   17  H1  UNL     1     -12.799  15.126  62.757  1.00  0.00     0.000 HD 
HETATM   18  O   UNL     1     -11.465  16.715  63.990  1.00  0.00    -1.192 OA 
ENDBRANCH   9  14
ENDBRANCH   6   8
ENDBRANCH   4   6
ENDBRANCH   2   4
TORSDOF 4
ENDMDL
MODEL       35
REMARK 921   NORMALIZED FREE ENERGY PREDICTED BY IDOCK:   -4.53 KCAL/MOL
REMARK 922        TOTAL FREE ENERGY PREDICTED BY IDOCK:   -6.03 KCAL/MOL
REMARK 923 INTER-LIGAND FREE ENERGY PREDICTED BY IDOCK:   -5.60 KCAL/MOL
REMARK 924 INTRA-LIGAND FREE ENERGY PREDICTED BY IDOCK:   -0.42 KCAL/MOL
REMARK 927      BINDING AFFINITY PREDICTED BY RF-SCORE:    0.00 PKD
ROOT
HETATM    1  C   UNL     1     -14.037   8.500  71.728  1.00  0.00    -0.444 C  
HETATM    2  N   UNL     1     -12.969   9.411  72.099  1.00  0.00    -0.411 NA 
HETATM    3  C   UNL     1     -11.594   9.061  71.763  1.00  0.00    -0.374 C  
ENDROOT
BRANCH   2   4
HETATM    4  N   UNL     1     -13.353  10.725  72.198  1.00  0.00    -0.579 NA 
HETATM    5  H   UNL     1     -14.024  11.059  72.890  1.00  0.00     0.000 HD 
BRANCH   4   6
HETATM    6  N   UNL     1     -12.806  11.473  71.363  1.00  0.00    -0.418 NA 
HETATM    7  H   UNL     1     -12.181  11.117  70.639  1.00  0.00     0.000 HD 
BRANCH   6   8
HETATM    8  C   UNL     1     -13.099  12.792  71.483  1.00  0.00    -0.286 A  
HETATM    9  C   UNL     1     -12.765  13.915  70.743  1.00  0.00    -0.313 A  
HETATM   10  N   UNL     1     -13.322  15.063  71.311  1.00  0.00    -0.406 NA 
HETATM   11  N   UNL     1     -13.854  13.290  72.519  1.00  0.00    -0.719 NA 
HETATM   12  C   UNL     1     -13.968  14.640  72.372  1.00  0.00    -0.476 A  
HETATM   13  H   UNL     1     -13.244  16.022  70.974  1.00  0.00     0.000 HD 
BRANCH   9  14
HETATM   14  C   UNL     1     -11.954  13.962  69.528  1.00  0.00    -0.343 C  
HETATM   15  N   UNL     1     -12.128  15.107  68.802  1.00  0.00    -0.574 N  
HETATM   16  H2  UNL     1     -12.761  15.855  69.082  1.00  0.00     0.000 HD 
HETATM   17  H1  UNL     1     -11.562  15.140  67.955  1.00  0.00     0.000 HD 
HETATM   18  O   UNL     1     -11.183  13.082  69.157  1.00  0.00    -0.259 OA 
ENDBRANCH   9  14
ENDBRANCH   6   8
ENDBRANCH   4   6
ENDBRANCH   2   4
TORSDOF 4
ENDMDL
MODEL       36
REMARK 921   NORMALIZED FREE ENERGY PREDICTED BY IDOCK:   -4.51 KCAL/MOL
REMARK 922        TOTAL FREE ENERGY PREDICTED BY IDOCK:   -6.01 KCAL/MOL
REMARK 923 INTER-LIGAND FREE ENERGY PREDICTED BY IDOCK:   -5.71 KCAL/MOL
REMARK 924 INTRA-LIGAND FREE ENERGY PREDICTED BY IDOCK:   -0.30 KCAL/MOL
REMARK 927      BINDING AFFINITY PREDICTED BY RF-SCORE:    0.00 PKD
ROOT
HETATM    1  C   UNL     1     -11.958  13.113  67.653  1.00  0.00    -0.315 C  
HETATM    2  N   UNL     1     -11.792  11.857  66.944  1.00  0.00    -0.610 NA 
HETATM    3  C   UNL     1     -11.112  11.859  65.654  1.00  0.00    -0.310 C  
ENDROOT
BRANCH   2   4
HETATM    4  N   UNL     1     -11.755  10.750  67.753  1.00  0.00    -0.684 NA 
HETATM    5  H   UNL     1     -11.395   9.846  67.445  1.00  0.00     0.000 HD 
BRANCH   4   6
HETATM    6  N   UNL     1     -12.200  10.950  68.901  1.00  0.00    -0.764 NA 
HETATM    7  H   UNL     1     -12.951  11.615  69.086  1.00  0.00     0.000 HD 
BRANCH   6   8
HETATM    8  C   UNL     1     -11.618  10.222  69.887  1.00  0.00    -0.256 A  
HETATM    9  C   UNL     1     -11.936   9.987  71.215  1.00  0.00    -0.394 A  
HETATM   10  N   UNL     1     -10.983   9.159  71.811  1.00  0.00    -0.370 NA 
HETATM   11  N   UNL     1     -10.442   9.533  69.701  1.00  0.00    -0.211 NA 
HETATM   12  C   UNL     1     -10.108   8.910  70.866  1.00  0.00    -0.241 A  
HETATM   13  H   UNL     1     -10.969   8.821  72.773  1.00  0.00     0.000 HD 
BRANCH   9  14
HETATM   14  C   UNL     1     -13.093  10.497  71.948  1.00  0.00    -0.462 C  
HETATM   15  N   UNL     1     -13.828   9.515  72.553  1.00  0.00    -0.682 N  
HETATM   16  H2  UNL     1     -13.592   8.525  72.498  1.00  0.00     0.000 HD 
HETATM   17  H1  UNL     1     -14.636   9.871  73.064  1.00  0.00     0.000 HD 
HETATM   18  O   UNL     1     -13.411  11.678  72.036  1.00  0.00    -0.411 OA 
ENDBRANCH   9  14
ENDBRANCH   6   8
ENDBRANCH   4   6
ENDBRANCH   2   4
TORSDOF 4
ENDMDL
MODEL       37
REMARK 921   NORMALIZED FREE ENERGY PREDICTED BY IDOCK:   -4.50 KCAL/MOL
REMARK 922        TOTAL FREE ENERGY PREDICTED BY IDOCK:   -5.99 KCAL/MOL
REMARK 923 INTER-LIGAND FREE ENERGY PREDICTED BY IDOCK:   -5.47 KCAL/MOL
REMARK 924 INTRA-LIGAND FREE ENERGY PREDICTED BY IDOCK:   -0.52 KCAL/MOL
REMARK 927      BINDING AFFINITY PREDICTED BY RF-SCORE:    0.00 PKD
ROOT
HETATM    1  C   UNL     1     -11.057   9.546  71.256  1.00  0.00    -0.379 C  
HETATM    2  N   UNL     1     -12.491   9.599  71.036  1.00  0.00    -0.309 NA 
HETATM    3  C   UNL     1     -13.388   9.386  72.166  1.00  0.00    -0.468 C  
ENDROOT
BRANCH   2   4
HETATM    4  N   UNL     1     -12.875  10.384  69.978  1.00  0.00    -0.527 NA 
HETATM    5  H   UNL     1     -13.820  10.753  69.871  1.00  0.00     0.000 HD 
BRANCH   4   6
HETATM    6  N   UNL     1     -11.960  10.605  69.158  1.00  0.00    -0.572 NA 
HETATM    7  H   UNL     1     -11.248   9.909  68.936  1.00  0.00     0.000 HD 
BRANCH   6   8
HETATM    8  C   UNL     1     -11.978  11.834  68.584  1.00  0.00    -0.239 A  
HETATM    9  C   UNL     1     -12.031  13.123  69.089  1.00  0.00    -0.281 A  
HETATM   10  N   UNL     1     -12.040  14.059  68.052  1.00  0.00    -0.515 NA 
HETATM   11  N   UNL     1     -11.974  12.012  67.219  1.00  0.00    -0.590 NA 
HETATM   12  C   UNL     1     -12.003  13.348  66.950  1.00  0.00    -0.385 A  
HETATM   13  H   UNL     1     -12.070  15.075  68.134  1.00  0.00     0.000 HD 
BRANCH   9  14
HETATM   14  C   UNL     1     -12.068  13.518  70.495  1.00  0.00    -0.335 C  
HETATM   15  N   UNL     1     -11.187  14.518  70.802  1.00  0.00    -0.509 N  
HETATM   16  H2  UNL     1     -10.566  14.946  70.116  1.00  0.00     0.000 HD 
HETATM   17  H1  UNL     1     -11.213  14.794  71.783  1.00  0.00     0.000 HD 
HETATM   18  O   UNL     1     -12.797  13.026  71.350  1.00  0.00    -0.363 OA 
ENDBRANCH   9  14
ENDBRANCH   6   8
ENDBRANCH   4   6
ENDBRANCH   2   4
TORSDOF 4
ENDMDL
MODEL       38
REMARK 921   NORMALIZED FREE ENERGY PREDICTED BY IDOCK:   -4.50 KCAL/MOL
REMARK 922        TOTAL FREE ENERGY PREDICTED BY IDOCK:   -5.99 KCAL/MOL
REMARK 923 INTER-LIGAND FREE ENERGY PREDICTED BY IDOCK:   -5.61 KCAL/MOL
REMARK 924 INTRA-LIGAND FREE ENERGY PREDICTED BY IDOCK:   -0.37 KCAL/MOL
REMARK 927      BINDING AFFINITY PREDICTED BY RF-SCORE:    0.00 PKD
ROOT
HETATM    1  C   UNL     1     -11.104  15.792  70.096  1.00  0.00    -0.352 C  
HETATM    2  N   UNL     1     -11.493  15.828  68.698  1.00  0.00    -0.371 NA 
HETATM    3  C   UNL     1     -10.619  16.495  67.739  1.00  0.00    -0.332 C  
ENDROOT
BRANCH   2   4
HETATM    4  N   UNL     1     -12.298  14.788  68.305  1.00  0.00    -0.586 NA 
HETATM    5  H   UNL     1     -12.762  14.163  68.965  1.00  0.00     0.000 HD 
BRANCH   4   6
HETATM    6  N   UNL     1     -12.410  14.678  67.068  1.00  0.00    -0.459 NA 
HETATM    7  H   UNL     1     -12.834  15.405  66.492  1.00  0.00     0.000 HD 
BRANCH   6   8
HETATM    8  C   UNL     1     -11.929  13.524  66.540  1.00  0.00    -0.413 A  
HETATM    9  C   UNL     1     -11.769  13.060  65.244  1.00  0.00    -0.353 A  
HETATM   10  N   UNL     1     -11.230  11.772  65.245  1.00  0.00    -0.288 NA 
HETATM   11  N   UNL     1     -11.492  12.480  67.323  1.00  0.00    -0.331 NA 
HETATM   12  C   UNL     1     -11.078  11.466  66.511  1.00  0.00    -0.251 A  
HETATM   13  H   UNL     1     -11.004  11.195  64.435  1.00  0.00     0.000 HD 
BRANCH   9  14
HETATM   14  C   UNL     1     -12.093  13.770  64.008  1.00  0.00    -0.403 C  
HETATM   15  N   UNL     1     -11.893  13.019  62.883  1.00  0.00    -0.667 N  
HETATM   16  H2  UNL     1     -11.552  12.059  62.905  1.00  0.00     0.000 HD 
HETATM   17  H1  UNL     1     -12.119  13.514  62.021  1.00  0.00     0.000 HD 
HETATM   18  O   UNL     1     -12.503  14.924  63.941  1.00  0.00    -0.806 OA 
ENDBRANCH   9  14
ENDBRANCH   6   8
ENDBRANCH   4   6
ENDBRANCH   2   4
TORSDOF 4
ENDMDL
MODEL       39
REMARK 921   NORMALIZED FREE ENERGY PREDICTED BY IDOCK:   -4.49 KCAL/MOL
REMARK 922        TOTAL FREE ENERGY PREDICTED BY IDOCK:   -5.98 KCAL/MOL
REMARK 923 INTER-LIGAND FREE ENERGY PREDICTED BY IDOCK:   -5.41 KCAL/MOL
REMARK 924 INTRA-LIGAND FREE ENERGY PREDICTED BY IDOCK:   -0.58 KCAL/MOL
REMARK 927      BINDING AFFINITY PREDICTED BY RF-SCORE:    0.00 PKD
ROOT
HETATM    1  C   UNL     1     -12.193  14.693  64.290  1.00  0.00    -0.408 C  
HETATM    2  N   UNL     1     -12.539  13.342  64.691  1.00  0.00    -0.644 NA 
HETATM    3  C   UNL     1     -12.170  12.231  63.822  1.00  0.00    -0.546 C  
ENDROOT
BRANCH   2   4
HETATM    4  N   UNL     1     -12.648  13.162  66.047  1.00  0.00    -0.412 NA 
HETATM    5  H   UNL     1     -13.422  12.660  66.483  1.00  0.00     0.000 HD 
BRANCH   4   6
HETATM    6  N   UNL     1     -11.712  13.669  66.698  1.00  0.00    -0.366 NA 
HETATM    7  H   UNL     1     -10.947  14.173  66.250  1.00  0.00     0.000 HD 
BRANCH   6   8
HETATM    8  C   UNL     1     -11.782  13.504  68.044  1.00  0.00    -0.359 A  
HETATM    9  C   UNL     1     -11.799  12.391  68.869  1.00  0.00    -0.301 A  
HETATM   10  N   UNL     1     -11.898  12.773  70.209  1.00  0.00    -0.537 NA 
HETATM   11  N   UNL     1     -11.891  14.564  68.913  1.00  0.00    -0.324 NA 
HETATM   12  C   UNL     1     -11.948  14.084  70.187  1.00  0.00    -0.330 A  
HETATM   13  H   UNL     1     -11.925  12.165  71.026  1.00  0.00     0.000 HD 
BRANCH   9  14
HETATM   14  C   UNL     1     -11.723  10.990  68.462  1.00  0.00    -0.278 C  
HETATM   15  N   UNL     1     -12.042  10.115  69.462  1.00  0.00    -0.498 N  
HETATM   16  H2  UNL     1     -12.308  10.412  70.401  1.00  0.00     0.000 HD 
HETATM   17  H1  UNL     1     -11.989   9.137  69.178  1.00  0.00     0.000 HD 
HETATM   18  O   UNL     1     -11.405  10.594  67.345  1.00  0.00    -0.401 OA 
ENDBRANCH   9  14
ENDBRANCH   6   8
ENDBRANCH   4   6
ENDBRANCH   2   4
TORSDOF 4
ENDMDL
MODEL       40
REMARK 921   NORMALIZED FREE ENERGY PREDICTED BY IDOCK:   -4.47 KCAL/MOL
REMARK 922        TOTAL FREE ENERGY PREDICTED BY IDOCK:   -5.95 KCAL/MOL
REMARK 923 INTER-LIGAND FREE ENERGY PREDICTED BY IDOCK:   -5.53 KCAL/MOL
REMARK 924 INTRA-LIGAND FREE ENERGY PREDICTED BY IDOCK:   -0.43 KCAL/MOL
REMARK 927      BINDING AFFINITY PREDICTED BY RF-SCORE:    0.00 PKD
ROOT
HETATM    1  C   UNL     1     -13.208  10.095  71.858  1.00  0.00    -0.452 C  
HETATM    2  N   UNL     1     -12.917  11.421  71.344  1.00  0.00    -0.412 NA 
HETATM    3  C   UNL     1     -13.257  12.583  72.156  1.00  0.00    -0.403 C  
ENDROOT
BRANCH   2   4
HETATM    4  N   UNL     1     -11.871  11.469  70.457  1.00  0.00    -0.468 NA 
HETATM    5  H   UNL     1     -11.454  10.636  70.041  1.00  0.00     0.000 HD 
BRANCH   4   6
HETATM    6  N   UNL     1     -11.476  12.625  70.207  1.00  0.00    -0.487 NA 
HETATM    7  H   UNL     1     -11.019  13.209  70.909  1.00  0.00     0.000 HD 
BRANCH   6   8
HETATM    8  C   UNL     1     -11.695  13.054  68.939  1.00  0.00    -0.328 A  
HETATM    9  C   UNL     1     -11.892  14.305  68.374  1.00  0.00    -0.338 A  
HETATM   10  N   UNL     1     -12.092  14.197  66.996  1.00  0.00    -0.496 NA 
HETATM   11  N   UNL     1     -11.800  12.189  67.874  1.00  0.00    -0.490 NA 
HETATM   12  C   UNL     1     -12.026  12.912  66.741  1.00  0.00    -0.350 A  
HETATM   13  H   UNL     1     -12.254  14.954  66.333  1.00  0.00     0.000 HD 
BRANCH   9  14
HETATM   14  C   UNL     1     -11.895  15.593  69.064  1.00  0.00    -0.364 C  
HETATM   15  N   UNL     1     -12.858  15.689  70.030  1.00  0.00    -0.613 N  
HETATM   16  H2  UNL     1     -13.509  14.935  70.248  1.00  0.00     0.000 HD 
HETATM   17  H1  UNL     1     -12.860  16.587  70.512  1.00  0.00     0.000 HD 
HETATM   18  O   UNL     1     -11.131  16.523  68.830  1.00  0.00    -0.329 OA 
ENDBRANCH   9  14
ENDBRANCH   6   8
ENDBRANCH   4   6
ENDBRANCH   2   4
TORSDOF 4
ENDMDL
MODEL       41
REMARK 921   NORMALIZED FREE ENERGY PREDICTED BY IDOCK:   -4.44 KCAL/MOL
REMARK 922        TOTAL FREE ENERGY PREDICTED BY IDOCK:   -5.92 KCAL/MOL
REMARK 923 INTER-LIGAND FREE ENERGY PREDICTED BY IDOCK:   -4.98 KCAL/MOL
REMARK 924 INTRA-LIGAND FREE ENERGY PREDICTED BY IDOCK:   -0.94 KCAL/MOL
REMARK 927      BINDING AFFINITY PREDICTED BY RF-SCORE:    0.00 PKD
ROOT
HETATM    1  C   UNL     1     -12.341  12.340  63.824  1.00  0.00    -0.538 C  
HETATM    2  N   UNL     1     -11.081  12.713  64.440  1.00  0.00    -0.323 NA 
HETATM    3  C   UNL     1      -9.982  11.755  64.435  1.00  0.00    -0.251 C  
ENDROOT
BRANCH   2   4
HETATM    4  N   UNL     1     -10.832  14.063  64.451  1.00  0.00    -0.601 NA 
HETATM    5  H   UNL     1     -11.338  14.728  63.865  1.00  0.00     0.000 HD 
BRANCH   4   6
HETATM    6  N   UNL     1      -9.930  14.402  65.242  1.00  0.00    -0.529 NA 
HETATM    7  H   UNL     1      -9.053  13.886  65.322  1.00  0.00     0.000 HD 
BRANCH   6   8
HETATM    8  C   UNL     1     -10.194  15.503  65.990  1.00  0.00    -0.330 A  
HETATM    9  C   UNL     1     -10.801  15.698  67.221  1.00  0.00    -0.298 A  
HETATM   10  N   UNL     1     -10.837  17.056  67.542  1.00  0.00    -0.263 NA 
HETATM   11  N   UNL     1      -9.882  16.775  65.568  1.00  0.00    -0.563 NA 
HETATM   12  C   UNL     1     -10.274  17.663  66.525  1.00  0.00    -0.355 A  
HETATM   13  H   UNL     1     -11.219  17.484  68.385  1.00  0.00     0.000 HD 
BRANCH   9  14
HETATM   14  C   UNL     1     -11.341  14.672  68.109  1.00  0.00    -0.302 C  
HETATM   15  N   UNL     1     -11.839  13.585  67.445  1.00  0.00    -0.376 N  
HETATM   16  H2  UNL     1     -11.833  13.500  66.430  1.00  0.00     0.000 HD 
HETATM   17  H1  UNL     1     -12.216  12.869  68.065  1.00  0.00     0.000 HD 
HETATM   18  O   UNL     1     -11.369  14.739  69.334  1.00  0.00    -0.256 OA 
ENDBRANCH   9  14
ENDBRANCH   6   8
ENDBRANCH   4   6
ENDBRANCH   2   4
TORSDOF 4
ENDMDL
MODEL       42
REMARK 921   NORMALIZED FREE ENERGY PREDICTED BY IDOCK:   -4.44 KCAL/MOL
REMARK 922        TOTAL FREE ENERGY PREDICTED BY IDOCK:   -5.92 KCAL/MOL
REMARK 923 INTER-LIGAND FREE ENERGY PREDICTED BY IDOCK:   -5.20 KCAL/MOL
REMARK 924 INTRA-LIGAND FREE ENERGY PREDICTED BY IDOCK:   -0.72 KCAL/MOL
REMARK 927      BINDING AFFINITY PREDICTED BY RF-SCORE:    0.00 PKD
ROOT
HETATM    1  C   UNL     1     -10.083  17.735  68.665  1.00  0.00    -0.384 C  
HETATM    2  N   UNL     1     -10.508  16.394  69.023  1.00  0.00    -0.267 NA 
HETATM    3  C   UNL     1     -11.289  16.202  70.239  1.00  0.00    -0.353 C  
ENDROOT
BRANCH   2   4
HETATM    4  N   UNL     1     -10.650  15.541  67.958  1.00  0.00    -0.263 NA 
HETATM    5  H   UNL     1      -9.867  15.237  67.378  1.00  0.00     0.000 HD 
BRANCH   4   6
HETATM    6  N   UNL     1     -11.825  15.170  67.764  1.00  0.00    -0.418 NA 
HETATM    7  H   UNL     1     -12.622  15.630  68.205  1.00  0.00     0.000 HD 
BRANCH   6   8
HETATM    8  C   UNL     1     -11.972  14.112  66.926  1.00  0.00    -0.449 A  
HETATM    9  C   UNL     1     -11.908  12.739  67.103  1.00  0.00    -0.350 A  
HETATM   10  N   UNL     1     -12.123  12.077  65.892  1.00  0.00    -0.493 NA 
HETATM   11  N   UNL     1     -12.211  14.264  65.580  1.00  0.00    -0.407 NA 
HETATM   12  C   UNL     1     -12.302  13.030  65.008  1.00  0.00    -0.473 A  
HETATM   13  H   UNL     1     -12.137  11.070  65.730  1.00  0.00     0.000 HD 
BRANCH   9  14
HETATM   14  C   UNL     1     -11.662  12.021  68.351  1.00  0.00    -0.332 C  
HETATM   15  N   UNL     1     -10.706  12.605  69.135  1.00  0.00    -0.436 N  
HETATM   16  H2  UNL     1     -10.214  13.458  68.873  1.00  0.00     0.000 HD 
HETATM   17  H1  UNL     1     -10.534  12.104  70.006  1.00  0.00     0.000 HD 
HETATM   18  O   UNL     1     -12.232  10.991  68.700  1.00  0.00    -0.571 OA 
ENDBRANCH   9  14
ENDBRANCH   6   8
ENDBRANCH   4   6
ENDBRANCH   2   4
TORSDOF 4
ENDMDL
MODEL       43
REMARK 921   NORMALIZED FREE ENERGY PREDICTED BY IDOCK:   -4.42 KCAL/MOL
REMARK 922        TOTAL FREE ENERGY PREDICTED BY IDOCK:   -5.89 KCAL/MOL
REMARK 923 INTER-LIGAND FREE ENERGY PREDICTED BY IDOCK:   -5.07 KCAL/MOL
REMARK 924 INTRA-LIGAND FREE ENERGY PREDICTED BY IDOCK:   -0.82 KCAL/MOL
REMARK 927      BINDING AFFINITY PREDICTED BY RF-SCORE:    0.00 PKD
ROOT
HETATM    1  C   UNL     1     -12.005  10.916  69.795  1.00  0.00    -0.351 C  
HETATM    2  N   UNL     1     -11.109  10.932  68.652  1.00  0.00    -0.230 NA 
HETATM    3  C   UNL     1      -9.869  10.169  68.715  1.00  0.00    -0.175 C  
ENDROOT
BRANCH   2   4
HETATM    4  N   UNL     1     -11.729  11.162  67.449  1.00  0.00    -0.548 NA 
HETATM    5  H   UNL     1     -11.868  10.435  66.746  1.00  0.00     0.000 HD 
BRANCH   4   6
HETATM    6  N   UNL     1     -12.106  12.341  67.294  1.00  0.00    -0.517 NA 
HETATM    7  H   UNL     1     -12.539  12.878  68.046  1.00  0.00     0.000 HD 
BRANCH   6   8
HETATM    8  C   UNL     1     -11.902  12.860  66.057  1.00  0.00    -0.430 A  
HETATM    9  C   UNL     1     -10.915  13.665  65.510  1.00  0.00    -0.293 A  
HETATM   10  N   UNL     1     -11.185  13.931  64.166  1.00  0.00    -0.598 NA 
HETATM   11  N   UNL     1     -12.782  12.662  65.018  1.00  0.00    -0.771 NA 
HETATM   12  C   UNL     1     -12.312  13.309  63.914  1.00  0.00    -0.351 A  
HETATM   13  H   UNL     1     -10.627  14.489  63.521  1.00  0.00     0.000 HD 
BRANCH   9  14
HETATM   14  C   UNL     1      -9.730  14.189  66.186  1.00  0.00    -0.290 C  
HETATM   15  N   UNL     1      -9.317  13.416  67.236  1.00  0.00    -0.224 N  
HETATM   16  H2  UNL     1      -9.789  12.558  67.518  1.00  0.00     0.000 HD 
HETATM   17  H1  UNL     1      -8.491  13.782  67.708  1.00  0.00     0.000 HD 
HETATM   18  O   UNL     1      -9.136  15.217  65.878  1.00  0.00    -0.291 OA 
ENDBRANCH   9  14
ENDBRANCH   6   8
ENDBRANCH   4   6
ENDBRANCH   2   4
TORSDOF 4
ENDMDL
MODEL       44
REMARK 921   NORMALIZED FREE ENERGY PREDICTED BY IDOCK:   -4.42 KCAL/MOL
REMARK 922        TOTAL FREE ENERGY PREDICTED BY IDOCK:   -5.89 KCAL/MOL
REMARK 923 INTER-LIGAND FREE ENERGY PREDICTED BY IDOCK:   -5.27 KCAL/MOL
REMARK 924 INTRA-LIGAND FREE ENERGY PREDICTED BY IDOCK:   -0.62 KCAL/MOL
REMARK 927      BINDING AFFINITY PREDICTED BY RF-SCORE:    0.00 PKD
ROOT
HETATM    1  C   UNL     1     -10.921  15.183  67.707  1.00  0.00    -0.306 C  
HETATM    2  N   UNL     1     -11.886  14.102  67.614  1.00  0.00    -0.381 NA 
HETATM    3  C   UNL     1     -12.275  13.613  66.297  1.00  0.00    -0.436 C  
ENDROOT
BRANCH   2   4
HETATM    4  N   UNL     1     -11.912  13.269  68.705  1.00  0.00    -0.342 NA 
HETATM    5  H   UNL     1     -12.160  12.281  68.646  1.00  0.00     0.000 HD 
BRANCH   4   6
HETATM    6  N   UNL     1     -11.604  13.832  69.775  1.00  0.00    -0.374 NA 
HETATM    7  H   UNL     1     -10.694  14.270  69.918  1.00  0.00     0.000 HD 
BRANCH   6   8
HETATM    8  C   UNL     1     -12.562  13.821  70.736  1.00  0.00    -0.340 A  
HETATM    9  C   UNL     1     -13.128  12.819  71.508  1.00  0.00    -0.286 A  
HETATM   10  N   UNL     1     -14.105  13.344  72.356  1.00  0.00    -0.687 NA 
HETATM   11  N   UNL     1     -13.233  14.958  71.123  1.00  0.00    -0.389 NA 
HETATM   12  C   UNL     1     -14.132  14.629  72.093  1.00  0.00    -0.510 A  
HETATM   13  H   UNL     1     -14.675  12.838  73.034  1.00  0.00     0.000 HD 
BRANCH   9  14
HETATM   14  C   UNL     1     -12.792  11.397  71.492  1.00  0.00    -0.403 C  
HETATM   15  N   UNL     1     -13.573  10.645  72.324  1.00  0.00    -0.482 N  
HETATM   16  H2  UNL     1     -14.317  11.038  72.900  1.00  0.00     0.000 HD 
HETATM   17  H1  UNL     1     -13.339   9.653  72.313  1.00  0.00     0.000 HD 
HETATM   18  O   UNL     1     -11.904  10.887  70.816  1.00  0.00    -0.333 OA 
ENDBRANCH   9  14
ENDBRANCH   6   8
ENDBRANCH   4   6
ENDBRANCH   2   4
TORSDOF 4
ENDMDL
MODEL       45
REMARK 921   NORMALIZED FREE ENERGY PREDICTED BY IDOCK:   -4.40 KCAL/MOL
REMARK 922        TOTAL FREE ENERGY PREDICTED BY IDOCK:   -5.86 KCAL/MOL
REMARK 923 INTER-LIGAND FREE ENERGY PREDICTED BY IDOCK:   -5.44 KCAL/MOL
REMARK 924 INTRA-LIGAND FREE ENERGY PREDICTED BY IDOCK:   -0.42 KCAL/MOL
REMARK 927      BINDING AFFINITY PREDICTED BY RF-SCORE:    0.00 PKD
ROOT
HETATM    1  C   UNL     1     -11.781   9.828  71.210  1.00  0.00    -0.394 C  
HETATM    2  N   UNL     1     -10.993  10.445  70.157  1.00  0.00    -0.300 NA 
HETATM    3  C   UNL     1     -10.274   9.590  69.220  1.00  0.00    -0.203 C  
ENDROOT
BRANCH   2   4
HETATM    4  N   UNL     1     -11.431  11.688  69.775  1.00  0.00    -0.416 NA 
HETATM    5  H   UNL     1     -11.339  12.043  68.823  1.00  0.00     0.000 HD 
BRANCH   4   6
HETATM    6  N   UNL     1     -11.950  12.345  70.700  1.00  0.00    -0.506 NA 
HETATM    7  H   UNL     1     -12.184  11.927  71.601  1.00  0.00     0.000 HD 
BRANCH   6   8
HETATM    8  C   UNL     1     -12.184  13.653  70.425  1.00  0.00    -0.363 A  
HETATM    9  C   UNL     1     -12.840  14.668  71.103  1.00  0.00    -0.343 A  
HETATM   10  N   UNL     1     -12.809  15.854  70.366  1.00  0.00    -0.672 NA 
HETATM   11  N   UNL     1     -11.773  14.247  69.255  1.00  0.00    -0.299 NA 
HETATM   12  C   UNL     1     -12.158  15.555  69.267  1.00  0.00    -0.259 A  
HETATM   13  H   UNL     1     -13.206  16.756  70.625  1.00  0.00     0.000 HD 
BRANCH   9  14
HETATM   14  C   UNL     1     -13.488  14.580  72.410  1.00  0.00    -0.448 C  
HETATM   15  N   UNL     1     -13.637  15.792  73.025  1.00  0.00    -0.596 N  
HETATM   16  H2  UNL     1     -13.325  16.671  72.613  1.00  0.00     0.000 HD 
HETATM   17  H1  UNL     1     -14.089  15.731  73.937  1.00  0.00     0.000 HD 
HETATM   18  O   UNL     1     -13.874  13.544  72.941  1.00  0.00    -0.645 OA 
ENDBRANCH   9  14
ENDBRANCH   6   8
ENDBRANCH   4   6
ENDBRANCH   2   4
TORSDOF 4
ENDMDL
MODEL       46
REMARK 921   NORMALIZED FREE ENERGY PREDICTED BY IDOCK:   -4.37 KCAL/MOL
REMARK 922        TOTAL FREE ENERGY PREDICTED BY IDOCK:   -5.83 KCAL/MOL
REMARK 923 INTER-LIGAND FREE ENERGY PREDICTED BY IDOCK:   -5.37 KCAL/MOL
REMARK 924 INTRA-LIGAND FREE ENERGY PREDICTED BY IDOCK:   -0.45 KCAL/MOL
REMARK 927      BINDING AFFINITY PREDICTED BY RF-SCORE:    0.00 PKD
ROOT
HETATM    1  C   UNL     1     -10.898   9.682  69.625  1.00  0.00    -0.244 C  
HETATM    2  N   UNL     1     -11.856  10.646  69.115  1.00  0.00    -0.255 NA 
HETATM    3  C   UNL     1     -12.355  11.685  70.008  1.00  0.00    -0.187 C  
ENDROOT
BRANCH   2   4
HETATM    4  N   UNL     1     -11.777  10.864  67.763  1.00  0.00    -0.661 NA 
HETATM    5  H   UNL     1     -11.441  10.161  67.103  1.00  0.00     0.000 HD 
BRANCH   4   6
HETATM    6  N   UNL     1     -12.153  12.001  67.414  1.00  0.00    -0.520 NA 
HETATM    7  H   UNL     1     -13.114  12.319  67.538  1.00  0.00     0.000 HD 
BRANCH   6   8
HETATM    8  C   UNL     1     -11.196  12.785  66.857  1.00  0.00    -0.296 A  
HETATM    9  C   UNL     1     -11.124  13.514  65.680  1.00  0.00    -0.289 A  
HETATM   10  N   UNL     1      -9.886  14.150  65.570  1.00  0.00    -0.522 NA 
HETATM   11  N   UNL     1      -9.967  12.982  67.445  1.00  0.00    -0.225 NA 
HETATM   12  C   UNL     1      -9.227  13.805  66.650  1.00  0.00    -0.223 A  
HETATM   13  H   UNL     1      -9.564  14.753  64.813  1.00  0.00     0.000 HD 
BRANCH   9  14
HETATM   14  C   UNL     1     -12.161  13.644  64.660  1.00  0.00    -0.409 C  
HETATM   15  N   UNL     1     -12.826  12.477  64.408  1.00  0.00    -0.747 N  
HETATM   16  H2  UNL     1     -12.618  11.601  64.887  1.00  0.00     0.000 HD 
HETATM   17  H1  UNL     1     -13.550  12.568  63.696  1.00  0.00     0.000 HD 
HETATM   18  O   UNL     1     -12.439  14.679  64.061  1.00  0.00    -0.796 OA 
ENDBRANCH   9  14
ENDBRANCH   6   8
ENDBRANCH   4   6
ENDBRANCH   2   4
TORSDOF 4
ENDMDL
MODEL       47
REMARK 921   NORMALIZED FREE ENERGY PREDICTED BY IDOCK:   -4.34 KCAL/MOL
REMARK 922        TOTAL FREE ENERGY PREDICTED BY IDOCK:   -5.80 KCAL/MOL
REMARK 923 INTER-LIGAND FREE ENERGY PREDICTED BY IDOCK:   -5.37 KCAL/MOL
REMARK 924 INTRA-LIGAND FREE ENERGY PREDICTED BY IDOCK:   -0.43 KCAL/MOL
REMARK 927      BINDING AFFINITY PREDICTED BY RF-SCORE:    0.00 PKD
ROOT
HETATM    1  C   UNL     1      -7.733  13.363  67.404  1.00  0.00    -0.137 C  
HETATM    2  N   UNL     1      -8.173  14.744  67.316  1.00  0.00    -0.202 NA 
HETATM    3  C   UNL     1      -7.383  15.779  67.973  1.00  0.00    -0.125 C  
ENDROOT
BRANCH   2   4
HETATM    4  N   UNL     1      -8.915  15.034  66.198  1.00  0.00    -0.485 NA 
HETATM    5  H   UNL     1      -9.049  15.983  65.849  1.00  0.00     0.000 HD 
BRANCH   4   6
HETATM    6  N   UNL     1      -9.409  14.030  65.649  1.00  0.00    -0.491 NA 
HETATM    7  H   UNL     1      -8.969  13.110  65.694  1.00  0.00     0.000 HD 
BRANCH   6   8
HETATM    8  C   UNL     1     -10.574  14.243  64.986  1.00  0.00    -0.425 A  
HETATM    9  C   UNL     1     -11.456  13.412  64.314  1.00  0.00    -0.393 A  
HETATM   10  N   UNL     1     -12.519  14.147  63.784  1.00  0.00    -1.009 NA 
HETATM   11  N   UNL     1     -11.119  15.497  64.834  1.00  0.00    -0.429 NA 
HETATM   12  C   UNL     1     -12.276  15.391  64.122  1.00  0.00    -0.057 A  
HETATM   13  H   UNL     1     -13.312  13.792  63.250  1.00  0.00     0.000 HD 
BRANCH   9  14
HETATM   14  C   UNL     1     -11.352  11.963  64.150  1.00  0.00    -0.380 C  
HETATM   15  N   UNL     1     -12.160  11.469  63.165  1.00  0.00    -0.933 N  
HETATM   16  H2  UNL     1     -12.774  12.053  62.599  1.00  0.00     0.000 HD 
HETATM   17  H1  UNL     1     -12.087  10.458  63.050  1.00  0.00     0.000 HD 
HETATM   18  O   UNL     1     -10.627  11.227  64.812  1.00  0.00    -0.303 OA 
ENDBRANCH   9  14
ENDBRANCH   6   8
ENDBRANCH   4   6
ENDBRANCH   2   4
TORSDOF 4
ENDMDL
MODEL       48
REMARK 921   NORMALIZED FREE ENERGY PREDICTED BY IDOCK:   -4.30 KCAL/MOL
REMARK 922        TOTAL FREE ENERGY PREDICTED BY IDOCK:   -5.75 KCAL/MOL
REMARK 923 INTER-LIGAND FREE ENERGY PREDICTED BY IDOCK:   -5.27 KCAL/MOL
REMARK 924 INTRA-LIGAND FREE ENERGY PREDICTED BY IDOCK:   -0.48 KCAL/MOL
REMARK 927      BINDING AFFINITY PREDICTED BY RF-SCORE:    0.00 PKD
ROOT
HETATM    1  C   UNL     1     -11.834  12.571  66.736  1.00  0.00    -0.346 C  
HETATM    2  N   UNL     1     -11.582  11.222  67.209  1.00  0.00    -0.543 NA 
HETATM    3  C   UNL     1     -10.317  10.581  66.871  1.00  0.00    -0.239 C  
ENDROOT
BRANCH   2   4
HETATM    4  N   UNL     1     -12.248  10.891  68.362  1.00  0.00    -0.810 NA 
HETATM    5  H   UNL     1     -13.226  10.600  68.377  1.00  0.00     0.000 HD 
BRANCH   4   6
HETATM    6  N   UNL     1     -11.548  10.979  69.391  1.00  0.00    -0.283 NA 
HETATM    7  H   UNL     1     -10.564  11.248  69.359  1.00  0.00     0.000 HD 
BRANCH   6   8
HETATM    8  C   UNL     1     -12.184  10.693  70.555  1.00  0.00    -0.358 A  
HETATM    9  C   UNL     1     -12.844  11.466  71.497  1.00  0.00    -0.403 A  
HETATM   10  N   UNL     1     -13.319  10.670  72.541  1.00  0.00    -0.398 NA 
HETATM   11  N   UNL     1     -12.255   9.417  71.063  1.00  0.00    -0.295 NA 
HETATM   12  C   UNL     1     -12.945   9.450  72.238  1.00  0.00    -0.400 A  
HETATM   13  H   UNL     1     -13.844  10.972  73.362  1.00  0.00     0.000 HD 
BRANCH   9  14
HETATM   14  C   UNL     1     -13.055  12.911  71.460  1.00  0.00    -0.298 C  
HETATM   15  N   UNL     1     -13.867  13.367  72.461  1.00  0.00    -0.567 N  
HETATM   16  H2  UNL     1     -14.284  12.758  73.164  1.00  0.00     0.000 HD 
HETATM   17  H1  UNL     1     -14.014  14.376  72.435  1.00  0.00     0.000 HD 
HETATM   18  O   UNL     1     -12.573  13.676  70.630  1.00  0.00    -0.327 OA 
ENDBRANCH   9  14
ENDBRANCH   6   8
ENDBRANCH   4   6
ENDBRANCH   2   4
TORSDOF 4
ENDMDL
MODEL       49
REMARK 921   NORMALIZED FREE ENERGY PREDICTED BY IDOCK:   -4.28 KCAL/MOL
REMARK 922        TOTAL FREE ENERGY PREDICTED BY IDOCK:   -5.72 KCAL/MOL
REMARK 923 INTER-LIGAND FREE ENERGY PREDICTED BY IDOCK:   -5.23 KCAL/MOL
REMARK 924 INTRA-LIGAND FREE ENERGY PREDICTED BY IDOCK:   -0.50 KCAL/MOL
REMARK 927      BINDING AFFINITY PREDICTED BY RF-SCORE:    0.00 PKD
ROOT
HETATM    1  C   UNL     1     -12.264  12.789  65.497  1.00  0.00    -0.463 C  
HETATM    2  N   UNL     1     -11.308  12.807  66.590  1.00  0.00    -0.299 NA 
HETATM    3  C   UNL     1      -9.884  12.881  66.281  1.00  0.00    -0.273 C  
ENDROOT
BRANCH   2   4
HETATM    4  N   UNL     1     -11.797  13.323  67.763  1.00  0.00    -0.356 NA 
HETATM    5  H   UNL     1     -11.727  12.836  68.658  1.00  0.00     0.000 HD 
BRANCH   4   6
HETATM    6  N   UNL     1     -12.334  14.441  67.636  1.00  0.00    -0.601 NA 
HETATM    7  H   UNL     1     -13.235  14.563  67.173  1.00  0.00     0.000 HD 
BRANCH   6   8
HETATM    8  C   UNL     1     -11.639  15.484  68.155  1.00  0.00    -0.304 A  
HETATM    9  C   UNL     1     -11.497  15.995  69.435  1.00  0.00    -0.336 A  
HETATM   10  N   UNL     1     -10.661  17.113  69.430  1.00  0.00    -0.366 NA 
HETATM   11  N   UNL     1     -10.885  16.331  67.374  1.00  0.00    -0.286 NA 
HETATM   12  C   UNL     1     -10.317  17.276  68.174  1.00  0.00    -0.357 A  
HETATM   13  H   UNL     1     -10.380  17.681  70.229  1.00  0.00     0.000 HD 
BRANCH   9  14
HETATM   14  C   UNL     1     -12.103  15.480  70.661  1.00  0.00    -0.389 C  
HETATM   15  N   UNL     1     -13.469  15.474  70.631  1.00  0.00    -0.829 N  
HETATM   16  H2  UNL     1     -14.012  15.797  69.831  1.00  0.00     0.000 HD 
HETATM   17  H1  UNL     1     -13.892  15.115  71.486  1.00  0.00     0.000 HD 
HETATM   18  O   UNL     1     -11.485  15.085  71.645  1.00  0.00    -0.367 OA 
ENDBRANCH   9  14
ENDBRANCH   6   8
ENDBRANCH   4   6
ENDBRANCH   2   4
TORSDOF 4
ENDMDL
MODEL       50
REMARK 921   NORMALIZED FREE ENERGY PREDICTED BY IDOCK:   -4.28 KCAL/MOL
REMARK 922        TOTAL FREE ENERGY PREDICTED BY IDOCK:   -5.72 KCAL/MOL
REMARK 923 INTER-LIGAND FREE ENERGY PREDICTED BY IDOCK:   -5.07 KCAL/MOL
REMARK 924 INTRA-LIGAND FREE ENERGY PREDICTED BY IDOCK:   -0.65 KCAL/MOL
REMARK 927      BINDING AFFINITY PREDICTED BY RF-SCORE:    0.00 PKD
ROOT
HETATM    1  C   UNL     1      -8.995   9.022  70.841  1.00  0.00    -0.243 C  
HETATM    2  N   UNL     1      -9.656   9.497  69.639  1.00  0.00    -0.188 NA 
HETATM    3  C   UNL     1     -10.187   8.523  68.693  1.00  0.00    -0.197 C  
ENDROOT
BRANCH   2   4
HETATM    4  N   UNL     1     -10.226  10.739  69.758  1.00  0.00    -0.448 NA 
HETATM    5  H   UNL     1      -9.691  11.580  69.975  1.00  0.00     0.000 HD 
BRANCH   4   6
HETATM    6  N   UNL     1     -11.460  10.746  69.577  1.00  0.00    -0.269 NA 
HETATM    7  H   UNL     1     -11.888  10.388  68.722  1.00  0.00     0.000 HD 
BRANCH   6   8
HETATM    8  C   UNL     1     -12.196  11.261  70.594  1.00  0.00    -0.393 A  
HETATM    9  C   UNL     1     -12.899  10.696  71.646  1.00  0.00    -0.465 A  
HETATM   10  N   UNL     1     -13.508  11.686  72.420  1.00  0.00    -0.475 NA 
HETATM   11  N   UNL     1     -12.410  12.612  70.740  1.00  0.00    -0.353 NA 
HETATM   12  C   UNL     1     -13.186  12.818  71.842  1.00  0.00    -0.412 A  
HETATM   13  H   UNL     1     -14.079  11.556  73.254  1.00  0.00     0.000 HD 
BRANCH   9  14
HETATM   14  C   UNL     1     -13.021   9.274  71.961  1.00  0.00    -0.425 C  
HETATM   15  N   UNL     1     -13.898   9.017  72.978  1.00  0.00    -0.901 N  
HETATM   16  H2  UNL     1     -14.416   9.746  73.468  1.00  0.00     0.000 HD 
HETATM   17  H1  UNL     1     -13.984   8.025  73.198  1.00  0.00     0.000 HD 
HETATM   18  O   UNL     1     -12.414   8.369  71.398  1.00  0.00    -0.303 OA 
ENDBRANCH   9  14
ENDBRANCH   6   8
ENDBRANCH   4   6
ENDBRANCH   2   4
TORSDOF 4
ENDMDL
MODEL       51
REMARK 921   NORMALIZED FREE ENERGY PREDICTED BY IDOCK:   -4.27 KCAL/MOL
REMARK 922        TOTAL FREE ENERGY PREDICTED BY IDOCK:   -5.71 KCAL/MOL
REMARK 923 INTER-LIGAND FREE ENERGY PREDICTED BY IDOCK:   -5.06 KCAL/MOL
REMARK 924 INTRA-LIGAND FREE ENERGY PREDICTED BY IDOCK:   -0.64 KCAL/MOL
REMARK 927      BINDING AFFINITY PREDICTED BY RF-SCORE:    0.00 PKD
ROOT
HETATM    1  C   UNL     1     -13.609  13.760  72.510  1.00  0.00    -0.575 C  
HETATM    2  N   UNL     1     -12.576  14.682  72.073  1.00  0.00    -0.326 NA 
HETATM    3  C   UNL     1     -11.937  15.546  73.059  1.00  0.00    -0.461 C  
ENDROOT
BRANCH   2   4
HETATM    4  N   UNL     1     -11.897  14.283  70.949  1.00  0.00    -0.460 NA 
HETATM    5  H   UNL     1     -10.922  13.983  70.964  1.00  0.00     0.000 HD 
BRANCH   4   6
HETATM    6  N   UNL     1     -12.583  14.320  69.908  1.00  0.00    -0.477 NA 
HETATM    7  H   UNL     1     -13.542  14.667  69.899  1.00  0.00     0.000 HD 
BRANCH   6   8
HETATM    8  C   UNL     1     -11.966  13.867  68.787  1.00  0.00    -0.358 A  
HETATM    9  C   UNL     1     -11.581  12.609  68.351  1.00  0.00    -0.328 A  
HETATM   10  N   UNL     1     -10.956  12.690  67.105  1.00  0.00    -0.253 NA 
HETATM   11  N   UNL     1     -11.542  14.710  67.786  1.00  0.00    -0.346 NA 
HETATM   12  C   UNL     1     -10.956  13.966  66.805  1.00  0.00    -0.299 A  
HETATM   13  H   UNL     1     -10.580  11.921  66.550  1.00  0.00     0.000 HD 
BRANCH   9  14
HETATM   14  C   UNL     1     -11.778  11.338  69.044  1.00  0.00    -0.342 C  
HETATM   15  N   UNL     1     -11.533  10.247  68.258  1.00  0.00    -0.525 N  
HETATM   16  H2  UNL     1     -11.242  10.314  67.283  1.00  0.00     0.000 HD 
HETATM   17  H1  UNL     1     -11.670   9.360  68.741  1.00  0.00     0.000 HD 
HETATM   18  O   UNL     1     -12.130  11.215  70.213  1.00  0.00    -0.316 OA 
ENDBRANCH   9  14
ENDBRANCH   6   8
ENDBRANCH   4   6
ENDBRANCH   2   4
TORSDOF 4
ENDMDL
MODEL       52
REMARK 921   NORMALIZED FREE ENERGY PREDICTED BY IDOCK:   -4.27 KCAL/MOL
REMARK 922        TOTAL FREE ENERGY PREDICTED BY IDOCK:   -5.70 KCAL/MOL
REMARK 923 INTER-LIGAND FREE ENERGY PREDICTED BY IDOCK:   -5.26 KCAL/MOL
REMARK 924 INTRA-LIGAND FREE ENERGY PREDICTED BY IDOCK:   -0.45 KCAL/MOL
REMARK 927      BINDING AFFINITY PREDICTED BY RF-SCORE:    0.00 PKD
ROOT
HETATM    1  C   UNL     1      -9.179   9.751  66.709  1.00  0.00    -0.148 C  
HETATM    2  N   UNL     1      -8.633  11.037  66.312  1.00  0.00    -0.164 NA 
HETATM    3  C   UNL     1      -7.295  11.404  66.760  1.00  0.00    -0.135 C  
ENDROOT
BRANCH   2   4
HETATM    4  N   UNL     1      -9.136  11.527  65.133  1.00  0.00    -0.412 NA 
HETATM    5  H   UNL     1      -9.181  10.977  64.275  1.00  0.00     0.000 HD 
BRANCH   4   6
HETATM    6  N   UNL     1      -9.532  12.707  65.208  1.00  0.00    -0.450 NA 
HETATM    7  H   UNL     1      -9.023  13.422  65.728  1.00  0.00     0.000 HD 
BRANCH   6   8
HETATM    8  C   UNL     1     -10.688  12.977  64.548  1.00  0.00    -0.385 A  
HETATM    9  C   UNL     1     -11.467  14.114  64.414  1.00  0.00    -0.332 A  
HETATM   10  N   UNL     1     -12.588  13.853  63.623  1.00  0.00    -0.916 NA 
HETATM   11  N   UNL     1     -11.372  12.019  63.837  1.00  0.00    -0.391 NA 
HETATM   12  C   UNL     1     -12.488  12.586  63.298  1.00  0.00    -0.301 A  
HETATM   13  H   UNL     1     -13.324  14.506  63.356  1.00  0.00     0.000 HD 
BRANCH   9  14
HETATM   14  C   UNL     1     -11.207  15.433  64.986  1.00  0.00    -0.387 C  
HETATM   15  N   UNL     1     -10.842  15.392  66.303  1.00  0.00    -0.313 N  
HETATM   16  H2  UNL     1     -10.759  14.525  66.833  1.00  0.00     0.000 HD 
HETATM   17  H1  UNL     1     -10.661  16.312  66.703  1.00  0.00     0.000 HD 
HETATM   18  O   UNL     1     -11.298  16.498  64.383  1.00  0.00    -0.921 OA 
ENDBRANCH   9  14
ENDBRANCH   6   8
ENDBRANCH   4   6
ENDBRANCH   2   4
TORSDOF 4
ENDMDL
MODEL       53
REMARK 921   NORMALIZED FREE ENERGY PREDICTED BY IDOCK:   -4.27 KCAL/MOL
REMARK 922        TOTAL FREE ENERGY PREDICTED BY IDOCK:   -5.70 KCAL/MOL
REMARK 923 INTER-LIGAND FREE ENERGY PREDICTED BY IDOCK:   -5.33 KCAL/MOL
REMARK 924 INTRA-LIGAND FREE ENERGY PREDICTED BY IDOCK:   -0.37 KCAL/MOL
REMARK 927      BINDING AFFINITY PREDICTED BY RF-SCORE:    0.00 PKD
ROOT
HETATM    1  C   UNL     1     -11.907  15.345  69.021  1.00  0.00    -0.335 C  
HETATM    2  N   UNL     1     -11.530  15.042  67.652  1.00  0.00    -0.339 NA 
HETATM    3  C   UNL     1     -10.119  15.078  67.284  1.00  0.00    -0.235 C  
ENDROOT
BRANCH   2   4
HETATM    4  N   UNL     1     -12.403  14.215  66.992  1.00  0.00    -0.571 NA 
HETATM    5  H   UNL     1     -13.315  14.524  66.652  1.00  0.00     0.000 HD 
BRANCH   4   6
HETATM    6  N   UNL     1     -11.981  13.050  66.846  1.00  0.00    -0.377 NA 
HETATM    7  H   UNL     1     -11.697  12.470  67.636  1.00  0.00     0.000 HD 
BRANCH   6   8
HETATM    8  C   UNL     1     -11.925  12.607  65.564  1.00  0.00    -0.456 A  
HETATM    9  C   UNL     1     -11.080  11.740  64.890  1.00  0.00    -0.285 A  
HETATM   10  N   UNL     1     -11.453  11.632  63.549  1.00  0.00    -0.674 NA 
HETATM   11  N   UNL     1     -12.804  13.034  64.597  1.00  0.00    -0.732 NA 
HETATM   12  C   UNL     1     -12.492  12.422  63.419  1.00  0.00    -0.446 A  
HETATM   13  H   UNL     1     -11.013  11.062  62.827  1.00  0.00     0.000 HD 
BRANCH   9  14
HETATM   14  C   UNL     1      -9.944  11.006  65.445  1.00  0.00    -0.260 C  
HETATM   15  N   UNL     1      -9.788   9.760  64.906  1.00  0.00    -0.421 N  
HETATM   16  H2  UNL     1     -10.404   9.380  64.188  1.00  0.00     0.000 HD 
HETATM   17  H1  UNL     1      -8.996   9.247  65.293  1.00  0.00     0.000 HD 
HETATM   18  O   UNL     1      -9.184  11.428  66.311  1.00  0.00    -0.196 OA 
ENDBRANCH   9  14
ENDBRANCH   6   8
ENDBRANCH   4   6
ENDBRANCH   2   4
TORSDOF 4
ENDMDL
MODEL       54
REMARK 921   NORMALIZED FREE ENERGY PREDICTED BY IDOCK:   -4.27 KCAL/MOL
REMARK 922        TOTAL FREE ENERGY PREDICTED BY IDOCK:   -5.70 KCAL/MOL
REMARK 923 INTER-LIGAND FREE ENERGY PREDICTED BY IDOCK:   -5.21 KCAL/MOL
REMARK 924 INTRA-LIGAND FREE ENERGY PREDICTED BY IDOCK:   -0.50 KCAL/MOL
REMARK 927      BINDING AFFINITY PREDICTED BY RF-SCORE:    0.00 PKD
ROOT
HETATM    1  C   UNL     1     -10.416   8.986  67.309  1.00  0.00    -0.273 C  
HETATM    2  N   UNL     1     -10.779   9.908  68.370  1.00  0.00    -0.229 NA 
HETATM    3  C   UNL     1      -9.747  10.359  69.297  1.00  0.00    -0.214 C  
ENDROOT
BRANCH   2   4
HETATM    4  N   UNL     1     -11.859  10.705  68.085  1.00  0.00    -0.788 NA 
HETATM    5  H   UNL     1     -12.727  10.345  67.685  1.00  0.00     0.000 HD 
BRANCH   4   6
HETATM    6  N   UNL     1     -11.683  11.909  68.358  1.00  0.00    -0.330 NA 
HETATM    7  H   UNL     1     -11.394  12.220  69.286  1.00  0.00     0.000 HD 
BRANCH   6   8
HETATM    8  C   UNL     1     -11.903  12.776  67.338  1.00  0.00    -0.342 A  
HETATM    9  C   UNL     1     -11.994  14.157  67.262  1.00  0.00    -0.414 A  
HETATM   10  N   UNL     1     -12.250  14.562  65.950  1.00  0.00    -0.311 NA 
HETATM   11  N   UNL     1     -12.127  12.357  66.047  1.00  0.00    -0.638 NA 
HETATM   12  C   UNL     1     -12.320  13.451  65.257  1.00  0.00    -0.469 A  
HETATM   13  H   UNL     1     -12.360  15.516  65.606  1.00  0.00     0.000 HD 
BRANCH   9  14
HETATM   14  C   UNL     1     -11.847  15.112  68.358  1.00  0.00    -0.267 C  
HETATM   15  N   UNL     1     -12.541  14.759  69.482  1.00  0.00    -0.578 N  
HETATM   16  H2  UNL     1     -13.105  13.913  69.548  1.00  0.00     0.000 HD 
HETATM   17  H1  UNL     1     -12.439  15.425  70.247  1.00  0.00     0.000 HD 
HETATM   18  O   UNL     1     -11.181  16.141  68.316  1.00  0.00    -0.352 OA 
ENDBRANCH   9  14
ENDBRANCH   6   8
ENDBRANCH   4   6
ENDBRANCH   2   4
TORSDOF 4
ENDMDL
MODEL       55
REMARK 921   NORMALIZED FREE ENERGY PREDICTED BY IDOCK:   -4.26 KCAL/MOL
REMARK 922        TOTAL FREE ENERGY PREDICTED BY IDOCK:   -5.70 KCAL/MOL
REMARK 923 INTER-LIGAND FREE ENERGY PREDICTED BY IDOCK:   -5.27 KCAL/MOL
REMARK 924 INTRA-LIGAND FREE ENERGY PREDICTED BY IDOCK:   -0.43 KCAL/MOL
REMARK 927      BINDING AFFINITY PREDICTED BY RF-SCORE:    0.00 PKD
ROOT
HETATM    1  C   UNL     1      -8.028  15.260  68.467  1.00  0.00    -0.141 C  
HETATM    2  N   UNL     1      -8.029  14.303  67.376  1.00  0.00    -0.191 NA 
HETATM    3  C   UNL     1      -7.915  12.882  67.683  1.00  0.00    -0.167 C  
ENDROOT
BRANCH   2   4
HETATM    4  N   UNL     1      -8.694  14.725  66.252  1.00  0.00    -0.449 NA 
HETATM    5  H   UNL     1      -8.476  15.597  65.769  1.00  0.00     0.000 HD 
BRANCH   4   6
HETATM    6  N   UNL     1      -9.589  13.942  65.873  1.00  0.00    -0.499 NA 
HETATM    7  H   UNL     1      -9.567  12.945  66.086  1.00  0.00     0.000 HD 
BRANCH   6   8
HETATM    8  C   UNL     1     -10.595  14.509  65.159  1.00  0.00    -0.410 A  
HETATM    9  C   UNL     1     -11.717  14.003  64.524  1.00  0.00    -0.413 A  
HETATM   10  N   UNL     1     -12.438  15.028  63.907  1.00  0.00    -1.043 NA 
HETATM   11  N   UNL     1     -10.644  15.859  64.896  1.00  0.00    -0.580 NA 
HETATM   12  C   UNL     1     -11.759  16.122  64.158  1.00  0.00     0.133 A  
HETATM   13  H   UNL     1     -13.304  14.943  63.376  1.00  0.00     0.000 HD 
BRANCH   9  14
HETATM   14  C   UNL     1     -12.148  12.608  64.474  1.00  0.00    -0.417 C  
HETATM   15  N   UNL     1     -11.144  11.720  64.744  1.00  0.00    -0.310 N  
HETATM   16  H2  UNL     1     -10.189  12.004  64.960  1.00  0.00     0.000 HD 
HETATM   17  H1  UNL     1     -11.444  10.746  64.710  1.00  0.00     0.000 HD 
HETATM   18  O   UNL     1     -13.285  12.226  64.217  1.00  0.00    -0.785 OA 
ENDBRANCH   9  14
ENDBRANCH   6   8
ENDBRANCH   4   6
ENDBRANCH   2   4
TORSDOF 4
ENDMDL
MODEL       56
REMARK 921   NORMALIZED FREE ENERGY PREDICTED BY IDOCK:   -4.26 KCAL/MOL
REMARK 922        TOTAL FREE ENERGY PREDICTED BY IDOCK:   -5.69 KCAL/MOL
REMARK 923 INTER-LIGAND FREE ENERGY PREDICTED BY IDOCK:   -5.17 KCAL/MOL
REMARK 924 INTRA-LIGAND FREE ENERGY PREDICTED BY IDOCK:   -0.52 KCAL/MOL
REMARK 927      BINDING AFFINITY PREDICTED BY RF-SCORE:    0.00 PKD
ROOT
HETATM    1  C   UNL     1      -8.652  15.038  66.839  1.00  0.00    -0.249 C  
HETATM    2  N   UNL     1     -10.047  14.671  66.669  1.00  0.00    -0.266 NA 
HETATM    3  C   UNL     1     -10.937  14.725  67.822  1.00  0.00    -0.291 C  
ENDROOT
BRANCH   2   4
HETATM    4  N   UNL     1     -10.533  14.863  65.400  1.00  0.00    -0.353 NA 
HETATM    5  H   UNL     1     -11.220  15.581  65.169  1.00  0.00     0.000 HD 
BRANCH   4   6
HETATM    6  N   UNL     1     -10.059  14.077  64.555  1.00  0.00    -0.714 NA 
HETATM    7  H   UNL     1      -9.093  14.140  64.235  1.00  0.00     0.000 HD 
BRANCH   6   8
HETATM    8  C   UNL     1     -10.917  13.133  64.091  1.00  0.00    -0.390 A  
HETATM    9  C   UNL     1     -10.782  11.788  63.785  1.00  0.00    -0.419 A  
HETATM   10  N   UNL     1     -11.991  11.266  63.320  1.00  0.00    -0.688 NA 
HETATM   11  N   UNL     1     -12.228  13.414  63.783  1.00  0.00    -0.659 NA 
HETATM   12  C   UNL     1     -12.829  12.275  63.338  1.00  0.00    -0.222 A  
HETATM   13  H   UNL     1     -12.181  10.307  63.030  1.00  0.00     0.000 HD 
BRANCH   9  14
HETATM   14  C   UNL     1      -9.577  10.972  63.913  1.00  0.00    -0.272 C  
HETATM   15  N   UNL     1      -8.742  11.389  64.912  1.00  0.00    -0.369 N  
HETATM   16  H2  UNL     1      -8.940  12.192  65.508  1.00  0.00     0.000 HD 
HETATM   17  H1  UNL     1      -7.901  10.820  65.001  1.00  0.00     0.000 HD 
HETATM   18  O   UNL     1      -9.302  10.001  63.215  1.00  0.00    -0.281 OA 
ENDBRANCH   9  14
ENDBRANCH   6   8
ENDBRANCH   4   6
ENDBRANCH   2   4
TORSDOF 4
ENDMDL
MODEL       57
REMARK 921   NORMALIZED FREE ENERGY PREDICTED BY IDOCK:   -4.21 KCAL/MOL
REMARK 922        TOTAL FREE ENERGY PREDICTED BY IDOCK:   -5.64 KCAL/MOL
REMARK 923 INTER-LIGAND FREE ENERGY PREDICTED BY IDOCK:   -4.97 KCAL/MOL
REMARK 924 INTRA-LIGAND FREE ENERGY PREDICTED BY IDOCK:   -0.67 KCAL/MOL
REMARK 927      BINDING AFFINITY PREDICTED BY RF-SCORE:    0.00 PKD
ROOT
HETATM    1  C   UNL     1     -12.004  12.472  65.109  1.00  0.00    -0.434 C  
HETATM    2  N   UNL     1     -12.000  13.873  65.488  1.00  0.00    -0.363 NA 
HETATM    3  C   UNL     1     -12.040  14.888  64.442  1.00  0.00    -0.401 C  
ENDROOT
BRANCH   2   4
HETATM    4  N   UNL     1     -12.529  14.126  66.729  1.00  0.00    -0.553 NA 
HETATM    5  H   UNL     1     -13.454  14.533  66.869  1.00  0.00     0.000 HD 
BRANCH   4   6
HETATM    6  N   UNL     1     -11.773  13.813  67.671  1.00  0.00    -0.346 NA 
HETATM    7  H   UNL     1     -11.101  13.048  67.600  1.00  0.00     0.000 HD 
BRANCH   6   8
HETATM    8  C   UNL     1     -11.906  14.558  68.798  1.00  0.00    -0.315 A  
HETATM    9  C   UNL     1     -11.530  15.847  69.139  1.00  0.00    -0.377 A  
HETATM   10  N   UNL     1     -11.898  16.135  70.455  1.00  0.00    -0.467 NA 
HETATM   11  N   UNL     1     -12.492  14.069  69.942  1.00  0.00    -0.307 NA 
HETATM   12  C   UNL     1     -12.473  15.042  70.896  1.00  0.00    -0.345 A  
HETATM   13  H   UNL     1     -11.750  17.007  70.963  1.00  0.00     0.000 HD 
BRANCH   9  14
HETATM   14  C   UNL     1     -10.848  16.821  68.289  1.00  0.00    -0.366 C  
HETATM   15  N   UNL     1     -10.387  17.911  68.974  1.00  0.00    -0.420 N  
HETATM   16  H2  UNL     1     -10.507  18.032  69.979  1.00  0.00     0.000 HD 
HETATM   17  H1  UNL     1      -9.911  18.590  68.381  1.00  0.00     0.000 HD 
HETATM   18  O   UNL     1     -10.686  16.713  67.078  1.00  0.00    -0.278 OA 
ENDBRANCH   9  14
ENDBRANCH   6   8
ENDBRANCH   4   6
ENDBRANCH   2   4
TORSDOF 4
ENDMDL
MODEL       58
REMARK 921   NORMALIZED FREE ENERGY PREDICTED BY IDOCK:   -4.21 KCAL/MOL
REMARK 922        TOTAL FREE ENERGY PREDICTED BY IDOCK:   -5.64 KCAL/MOL
REMARK 923 INTER-LIGAND FREE ENERGY PREDICTED BY IDOCK:   -4.86 KCAL/MOL
REMARK 924 INTRA-LIGAND FREE ENERGY PREDICTED BY IDOCK:   -0.77 KCAL/MOL
REMARK 927      BINDING AFFINITY PREDICTED BY RF-SCORE:    0.00 PKD
ROOT
HETATM    1  C   UNL     1      -8.922  15.811  68.282  1.00  0.00    -0.182 C  
HETATM    2  N   UNL     1     -10.317  16.037  67.949  1.00  0.00    -0.262 NA 
HETATM    3  C   UNL     1     -10.759  17.391  67.641  1.00  0.00    -0.310 C  
ENDROOT
BRANCH   2   4
HETATM    4  N   UNL     1     -10.952  14.951  67.399  1.00  0.00    -0.305 NA 
HETATM    5  H   UNL     1     -10.536  14.373  66.668  1.00  0.00     0.000 HD 
BRANCH   4   6
HETATM    6  N   UNL     1     -12.084  14.737  67.876  1.00  0.00    -0.580 NA 
HETATM    7  H   UNL     1     -12.925  15.179  67.503  1.00  0.00     0.000 HD 
BRANCH   6   8
HETATM    8  C   UNL     1     -12.122  13.875  68.923  1.00  0.00    -0.319 A  
HETATM    9  C   UNL     1     -12.372  14.029  70.278  1.00  0.00    -0.358 A  
HETATM   10  N   UNL     1     -12.272  12.803  70.939  1.00  0.00    -0.447 NA 
HETATM   11  N   UNL     1     -11.851  12.533  68.786  1.00  0.00    -0.314 NA 
HETATM   12  C   UNL     1     -11.961  11.935  70.006  1.00  0.00    -0.332 A  
HETATM   13  H   UNL     1     -12.411  12.622  71.933  1.00  0.00     0.000 HD 
BRANCH   9  14
HETATM   14  C   UNL     1     -12.704  15.268  70.977  1.00  0.00    -0.424 C  
HETATM   15  N   UNL     1     -11.714  16.209  70.916  1.00  0.00    -0.535 N  
HETATM   16  H2  UNL     1     -10.831  16.060  70.429  1.00  0.00     0.000 HD 
HETATM   17  H1  UNL     1     -11.946  17.073  71.404  1.00  0.00     0.000 HD 
HETATM   18  O   UNL     1     -13.754  15.484  71.575  1.00  0.00    -0.492 OA 
ENDBRANCH   9  14
ENDBRANCH   6   8
ENDBRANCH   4   6
ENDBRANCH   2   4
TORSDOF 4
ENDMDL
MODEL       59
REMARK 921   NORMALIZED FREE ENERGY PREDICTED BY IDOCK:   -4.19 KCAL/MOL
REMARK 922        TOTAL FREE ENERGY PREDICTED BY IDOCK:   -5.61 KCAL/MOL
REMARK 923 INTER-LIGAND FREE ENERGY PREDICTED BY IDOCK:   -4.85 KCAL/MOL
REMARK 924 INTRA-LIGAND FREE ENERGY PREDICTED BY IDOCK:   -0.76 KCAL/MOL
REMARK 927      BINDING AFFINITY PREDICTED BY RF-SCORE:    0.00 PKD
ROOT
HETATM    1  C   UNL     1      -8.329   9.011  64.438  1.00  0.00    -0.176 C  
HETATM    2  N   UNL     1      -9.175   9.665  65.420  1.00  0.00    -0.220 NA 
HETATM    3  C   UNL     1     -10.078   8.853  66.227  1.00  0.00    -0.214 C  
ENDROOT
BRANCH   2   4
HETATM    4  N   UNL     1      -8.671  10.844  65.907  1.00  0.00    -0.181 NA 
HETATM    5  H   UNL     1      -7.988  10.888  66.664  1.00  0.00     0.000 HD 
BRANCH   4   6
HETATM    6  N   UNL     1      -9.124  11.858  65.339  1.00  0.00    -0.421 NA 
HETATM    7  H   UNL     1      -8.633  12.319  64.573  1.00  0.00     0.000 HD 
BRANCH   6   8
HETATM    8  C   UNL     1     -10.315  12.306  65.810  1.00  0.00    -0.258 A  
HETATM    9  C   UNL     1     -11.579  12.422  65.254  1.00  0.00    -0.373 A  
HETATM   10  N   UNL     1     -12.475  12.968  66.176  1.00  0.00    -0.447 NA 
HETATM   11  N   UNL     1     -10.464  12.811  67.081  1.00  0.00    -0.232 NA 
HETATM   12  C   UNL     1     -11.764  13.183  67.257  1.00  0.00    -0.374 A  
HETATM   13  H   UNL     1     -13.467  13.158  66.038  1.00  0.00     0.000 HD 
BRANCH   9  14
HETATM   14  C   UNL     1     -11.986  12.040  63.904  1.00  0.00    -0.443 C  
HETATM   15  N   UNL     1     -11.105  11.194  63.290  1.00  0.00    -0.789 N  
HETATM   16  H2  UNL     1     -10.249  10.862  63.731  1.00  0.00     0.000 HD 
HETATM   17  H1  UNL     1     -11.389  10.928  62.347  1.00  0.00     0.000 HD 
HETATM   18  O   UNL     1     -13.007  12.420  63.338  1.00  0.00    -0.723 OA 
ENDBRANCH   9  14
ENDBRANCH   6   8
ENDBRANCH   4   6
ENDBRANCH   2   4
TORSDOF 4
ENDMDL
MODEL       60
REMARK 921   NORMALIZED FREE ENERGY PREDICTED BY IDOCK:   -4.19 KCAL/MOL
REMARK 922        TOTAL FREE ENERGY PREDICTED BY IDOCK:   -5.60 KCAL/MOL
REMARK 923 INTER-LIGAND FREE ENERGY PREDICTED BY IDOCK:   -5.30 KCAL/MOL
REMARK 924 INTRA-LIGAND FREE ENERGY PREDICTED BY IDOCK:   -0.30 KCAL/MOL
REMARK 927      BINDING AFFINITY PREDICTED BY RF-SCORE:    0.00 PKD
ROOT
HETATM    1  C   UNL     1      -8.529  15.354  69.182  1.00  0.00    -0.241 C  
HETATM    2  N   UNL     1      -9.979  15.350  69.245  1.00  0.00    -0.241 NA 
HETATM    3  C   UNL     1     -10.737  14.952  68.065  1.00  0.00    -0.253 C  
ENDROOT
BRANCH   2   4
HETATM    4  N   UNL     1     -10.491  15.156  70.504  1.00  0.00    -0.519 NA 
HETATM    5  H   UNL     1      -9.910  14.951  71.317  1.00  0.00     0.000 HD 
BRANCH   4   6
HETATM    6  N   UNL     1     -11.734  15.252  70.562  1.00  0.00    -0.290 NA 
HETATM    7  H   UNL     1     -12.245  16.001  70.093  1.00  0.00     0.000 HD 
BRANCH   6   8
HETATM    8  C   UNL     1     -12.359  14.294  71.291  1.00  0.00    -0.363 A  
HETATM    9  C   UNL     1     -12.947  14.280  72.546  1.00  0.00    -0.419 A  
HETATM   10  N   UNL     1     -13.447  13.010  72.841  1.00  0.00    -0.593 NA 
HETATM   11  N   UNL     1     -12.499  13.000  70.845  1.00  0.00    -0.357 NA 
HETATM   12  C   UNL     1     -13.158  12.276  71.793  1.00  0.00    -0.344 A  
HETATM   13  H   UNL     1     -13.932  12.717  73.689  1.00  0.00     0.000 HD 
BRANCH   9  14
HETATM   14  C   UNL     1     -13.067  15.401  73.475  1.00  0.00    -0.458 C  
HETATM   15  N   UNL     1     -14.153  16.196  73.231  1.00  0.00    -0.599 N  
HETATM   16  H2  UNL     1     -14.814  16.022  72.475  1.00  0.00     0.000 HD 
HETATM   17  H1  UNL     1     -14.236  16.978  73.879  1.00  0.00     0.000 HD 
HETATM   18  O   UNL     1     -12.292  15.645  74.394  1.00  0.00    -0.622 OA 
ENDBRANCH   9  14
ENDBRANCH   6   8
ENDBRANCH   4   6
ENDBRANCH   2   4
TORSDOF 4
ENDMDL
MODEL       61
REMARK 921   NORMALIZED FREE ENERGY PREDICTED BY IDOCK:   -4.18 KCAL/MOL
REMARK 922        TOTAL FREE ENERGY PREDICTED BY IDOCK:   -5.59 KCAL/MOL
REMARK 923 INTER-LIGAND FREE ENERGY PREDICTED BY IDOCK:   -4.80 KCAL/MOL
REMARK 924 INTRA-LIGAND FREE ENERGY PREDICTED BY IDOCK:   -0.80 KCAL/MOL
REMARK 927      BINDING AFFINITY PREDICTED BY RF-SCORE:    0.00 PKD
ROOT
HETATM    1  C   UNL     1     -10.814   7.775  72.840  1.00  0.00    -0.392 C  
HETATM    2  N   UNL     1     -11.957   7.999  71.974  1.00  0.00    -0.309 NA 
HETATM    3  C   UNL     1     -12.410   6.916  71.108  1.00  0.00    -0.370 C  
ENDROOT
BRANCH   2   4
HETATM    4  N   UNL     1     -12.840   8.944  72.432  1.00  0.00    -0.399 NA 
HETATM    5  H   UNL     1     -13.002   9.121  73.424  1.00  0.00     0.000 HD 
BRANCH   4   6
HETATM    6  N   UNL     1     -13.427   9.567  71.525  1.00  0.00    -0.381 NA 
HETATM    7  H   UNL     1     -14.194   9.158  70.991  1.00  0.00     0.000 HD 
BRANCH   6   8
HETATM    8  C   UNL     1     -12.975  10.826  71.296  1.00  0.00    -0.402 A  
HETATM    9  C   UNL     1     -12.168  11.388  70.320  1.00  0.00    -0.349 A  
HETATM   10  N   UNL     1     -11.992  12.754  70.553  1.00  0.00    -0.532 NA 
HETATM   11  N   UNL     1     -13.266  11.879  72.133  1.00  0.00    -0.423 NA 
HETATM   12  C   UNL     1     -12.670  13.004  71.648  1.00  0.00    -0.207 A  
HETATM   13  H   UNL     1     -11.453  13.414  69.993  1.00  0.00     0.000 HD 
BRANCH   9  14
HETATM   14  C   UNL     1     -11.561  10.707  69.179  1.00  0.00    -0.271 C  
HETATM   15  N   UNL     1     -10.794   9.632  69.533  1.00  0.00    -0.232 N  
HETATM   16  H2  UNL     1     -10.659   9.335  70.499  1.00  0.00     0.000 HD 
HETATM   17  H1  UNL     1     -10.370   9.157  68.737  1.00  0.00     0.000 HD 
HETATM   18  O   UNL     1     -11.696  11.035  68.004  1.00  0.00    -0.532 OA 
ENDBRANCH   9  14
ENDBRANCH   6   8
ENDBRANCH   4   6
ENDBRANCH   2   4
TORSDOF 4
ENDMDL
MODEL       62
REMARK 921   NORMALIZED FREE ENERGY PREDICTED BY IDOCK:   -4.17 KCAL/MOL
REMARK 922        TOTAL FREE ENERGY PREDICTED BY IDOCK:   -5.58 KCAL/MOL
REMARK 923 INTER-LIGAND FREE ENERGY PREDICTED BY IDOCK:   -4.93 KCAL/MOL
REMARK 924 INTRA-LIGAND FREE ENERGY PREDICTED BY IDOCK:   -0.65 KCAL/MOL
REMARK 927      BINDING AFFINITY PREDICTED BY RF-SCORE:    0.00 PKD
ROOT
HETATM    1  C   UNL     1     -11.829  15.882  71.651  1.00  0.00    -0.490 C  
HETATM    2  N   UNL     1     -12.829  14.889  71.301  1.00  0.00    -0.322 NA 
HETATM    3  C   UNL     1     -14.044  14.797  72.102  1.00  0.00    -0.508 C  
ENDROOT
BRANCH   2   4
HETATM    4  N   UNL     1     -12.837  14.534  69.976  1.00  0.00    -0.527 NA 
HETATM    5  H   UNL     1     -13.684  14.518  69.408  1.00  0.00     0.000 HD 
BRANCH   4   6
HETATM    6  N   UNL     1     -11.712  14.232  69.529  1.00  0.00    -0.295 NA 
HETATM    7  H   UNL     1     -10.903  14.846  69.628  1.00  0.00     0.000 HD 
BRANCH   6   8
HETATM    8  C   UNL     1     -11.637  13.031  68.902  1.00  0.00    -0.311 A  
HETATM    9  C   UNL     1     -11.705  12.642  67.574  1.00  0.00    -0.368 A  
HETATM   10  N   UNL     1     -11.583  11.255  67.460  1.00  0.00    -0.559 NA 
HETATM   11  N   UNL     1     -11.491  11.848  69.588  1.00  0.00    -0.284 NA 
HETATM   12  C   UNL     1     -11.455  10.821  68.691  1.00  0.00    -0.295 A  
HETATM   13  H   UNL     1     -11.593  10.700  66.604  1.00  0.00     0.000 HD 
BRANCH   9  14
HETATM   14  C   UNL     1     -11.871  13.508  66.409  1.00  0.00    -0.394 C  
HETATM   15  N   UNL     1     -12.536  14.670  66.686  1.00  0.00    -0.287 N  
HETATM   16  H2  UNL     1     -12.882  14.908  67.615  1.00  0.00     0.000 HD 
HETATM   17  H1  UNL     1     -12.653  15.274  65.874  1.00  0.00     0.000 HD 
HETATM   18  O   UNL     1     -11.473  13.256  65.276  1.00  0.00    -0.290 OA 
ENDBRANCH   9  14
ENDBRANCH   6   8
ENDBRANCH   4   6
ENDBRANCH   2   4
TORSDOF 4
ENDMDL
MODEL       63
REMARK 921   NORMALIZED FREE ENERGY PREDICTED BY IDOCK:   -4.16 KCAL/MOL
REMARK 922        TOTAL FREE ENERGY PREDICTED BY IDOCK:   -5.57 KCAL/MOL
REMARK 923 INTER-LIGAND FREE ENERGY PREDICTED BY IDOCK:   -4.85 KCAL/MOL
REMARK 924 INTRA-LIGAND FREE ENERGY PREDICTED BY IDOCK:   -0.73 KCAL/MOL
REMARK 927      BINDING AFFINITY PREDICTED BY RF-SCORE:    0.00 PKD
ROOT
HETATM    1  C   UNL     1      -8.803  10.878  65.913  1.00  0.00    -0.186 C  
HETATM    2  N   UNL     1      -9.978  11.269  66.671  1.00  0.00    -0.204 NA 
HETATM    3  C   UNL     1     -10.551  10.325  67.622  1.00  0.00    -0.263 C  
ENDROOT
BRANCH   2   4
HETATM    4  N   UNL     1     -10.103  12.622  66.866  1.00  0.00    -0.227 NA 
HETATM    5  H   UNL     1     -10.786  13.032  67.504  1.00  0.00     0.000 HD 
BRANCH   4   6
HETATM    6  N   UNL     1      -9.305  13.303  66.192  1.00  0.00    -0.468 NA 
HETATM    7  H   UNL     1      -8.408  12.936  65.873  1.00  0.00     0.000 HD 
BRANCH   6   8
HETATM    8  C   UNL     1      -9.712  14.567  65.910  1.00  0.00    -0.293 A  
HETATM    9  C   UNL     1     -10.699  15.093  65.092  1.00  0.00    -0.422 A  
HETATM   10  N   UNL     1     -10.695  16.488  65.150  1.00  0.00    -0.643 NA 
HETATM   11  N   UNL     1      -9.100  15.676  66.448  1.00  0.00    -0.293 NA 
HETATM   12  C   UNL     1      -9.723  16.793  65.976  1.00  0.00    -0.259 A  
HETATM   13  H   UNL     1     -11.315  17.130  64.656  1.00  0.00     0.000 HD 
BRANCH   9  14
HETATM   14  C   UNL     1     -11.647  14.349  64.266  1.00  0.00    -0.262 C  
HETATM   15  N   UNL     1     -11.211  13.097  63.933  1.00  0.00    -0.530 N  
HETATM   16  H2  UNL     1     -10.313  12.719  64.232  1.00  0.00     0.000 HD 
HETATM   17  H1  UNL     1     -11.873  12.577  63.356  1.00  0.00     0.000 HD 
HETATM   18  O   UNL     1     -12.735  14.769  63.884  1.00  0.00    -0.794 OA 
ENDBRANCH   9  14
ENDBRANCH   6   8
ENDBRANCH   4   6
ENDBRANCH   2   4
TORSDOF 4
ENDMDL
MODEL       64
REMARK 921   NORMALIZED FREE ENERGY PREDICTED BY IDOCK:   -4.16 KCAL/MOL
REMARK 922        TOTAL FREE ENERGY PREDICTED BY IDOCK:   -5.57 KCAL/MOL
REMARK 923 INTER-LIGAND FREE ENERGY PREDICTED BY IDOCK:   -4.99 KCAL/MOL
REMARK 924 INTRA-LIGAND FREE ENERGY PREDICTED BY IDOCK:   -0.58 KCAL/MOL
REMARK 927      BINDING AFFINITY PREDICTED BY RF-SCORE:    0.00 PKD
ROOT
HETATM    1  C   UNL     1      -9.728   9.310  69.957  1.00  0.00    -0.207 C  
HETATM    2  N   UNL     1     -10.967  10.041  70.156  1.00  0.00    -0.288 NA 
HETATM    3  C   UNL     1     -11.942   9.532  71.113  1.00  0.00    -0.348 C  
ENDROOT
BRANCH   2   4
HETATM    4  N   UNL     1     -10.881  11.385  69.894  1.00  0.00    -0.447 NA 
HETATM    5  H   UNL     1     -10.054  11.821  69.482  1.00  0.00     0.000 HD 
BRANCH   4   6
HETATM    6  N   UNL     1     -11.905  12.025  70.204  1.00  0.00    -0.470 NA 
HETATM    7  H   UNL     1     -12.640  11.627  70.790  1.00  0.00     0.000 HD 
BRANCH   6   8
HETATM    8  C   UNL     1     -11.976  13.287  69.710  1.00  0.00    -0.324 A  
HETATM    9  C   UNL     1     -11.988  13.811  68.427  1.00  0.00    -0.360 A  
HETATM   10  N   UNL     1     -12.061  15.205  68.465  1.00  0.00    -0.581 NA 
HETATM   11  N   UNL     1     -12.024  14.397  70.522  1.00  0.00    -0.306 NA 
HETATM   12  C   UNL     1     -12.083  15.512  69.740  1.00  0.00    -0.349 A  
HETATM   13  H   UNL     1     -12.090  15.846  67.672  1.00  0.00     0.000 HD 
BRANCH   9  14
HETATM   14  C   UNL     1     -11.940  13.066  67.171  1.00  0.00    -0.329 C  
HETATM   15  N   UNL     1     -12.172  13.843  66.070  1.00  0.00    -0.439 N  
HETATM   16  H2  UNL     1     -12.360  14.844  66.121  1.00  0.00     0.000 HD 
HETATM   17  H1  UNL     1     -12.139  13.324  65.193  1.00  0.00     0.000 HD 
HETATM   18  O   UNL     1     -11.721  11.864  67.068  1.00  0.00    -0.538 OA 
ENDBRANCH   9  14
ENDBRANCH   6   8
ENDBRANCH   4   6
ENDBRANCH   2   4
TORSDOF 4
ENDMDL
MODEL       65
REMARK 921   NORMALIZED FREE ENERGY PREDICTED BY IDOCK:   -4.15 KCAL/MOL
REMARK 922        TOTAL FREE ENERGY PREDICTED BY IDOCK:   -5.56 KCAL/MOL
REMARK 923 INTER-LIGAND FREE ENERGY PREDICTED BY IDOCK:   -5.07 KCAL/MOL
REMARK 924 INTRA-LIGAND FREE ENERGY PREDICTED BY IDOCK:   -0.49 KCAL/MOL
REMARK 927      BINDING AFFINITY PREDICTED BY RF-SCORE:    0.00 PKD
ROOT
HETATM    1  C   UNL     1     -11.878  15.464  71.972  1.00  0.00    -0.442 C  
HETATM    2  N   UNL     1     -12.993  15.062  71.134  1.00  0.00    -0.359 NA 
HETATM    3  C   UNL     1     -14.343  15.107  71.684  1.00  0.00    -0.585 C  
ENDROOT
BRANCH   2   4
HETATM    4  N   UNL     1     -12.780  15.228  69.788  1.00  0.00    -0.622 NA 
HETATM    5  H   UNL     1     -13.065  16.065  69.278  1.00  0.00     0.000 HD 
BRANCH   4   6
HETATM    6  N   UNL     1     -12.206  14.263  69.246  1.00  0.00    -0.486 NA 
HETATM    7  H   UNL     1     -12.185  13.334  69.669  1.00  0.00     0.000 HD 
BRANCH   6   8
HETATM    8  C   UNL     1     -11.612  14.531  68.056  1.00  0.00    -0.336 A  
HETATM    9  C   UNL     1     -10.465  15.221  67.696  1.00  0.00    -0.263 A  
HETATM   10  N   UNL     1     -10.303  15.217  66.309  1.00  0.00    -0.281 NA 
HETATM   11  N   UNL     1     -12.147  14.127  66.855  1.00  0.00    -0.446 NA 
HETATM   12  C   UNL     1     -11.333  14.549  65.847  1.00  0.00    -0.341 A  
HETATM   13  H   UNL     1      -9.548  15.643  65.773  1.00  0.00     0.000 HD 
BRANCH   9  14
HETATM   14  C   UNL     1      -9.514  15.877  68.591  1.00  0.00    -0.214 C  
HETATM   15  N   UNL     1      -9.177  15.118  69.677  1.00  0.00    -0.450 N  
HETATM   16  H2  UNL     1      -9.552  14.186  69.845  1.00  0.00     0.000 HD 
HETATM   17  H1  UNL     1      -8.513  15.576  70.301  1.00  0.00     0.000 HD 
HETATM   18  O   UNL     1      -9.042  16.998  68.424  1.00  0.00    -0.240 OA 
ENDBRANCH   9  14
ENDBRANCH   6   8
ENDBRANCH   4   6
ENDBRANCH   2   4
TORSDOF 4
ENDMDL
MODEL       66
REMARK 921   NORMALIZED FREE ENERGY PREDICTED BY IDOCK:   -4.15 KCAL/MOL
REMARK 922        TOTAL FREE ENERGY PREDICTED BY IDOCK:   -5.55 KCAL/MOL
REMARK 923 INTER-LIGAND FREE ENERGY PREDICTED BY IDOCK:   -5.05 KCAL/MOL
REMARK 924 INTRA-LIGAND FREE ENERGY PREDICTED BY IDOCK:   -0.50 KCAL/MOL
REMARK 927      BINDING AFFINITY PREDICTED BY RF-SCORE:    0.00 PKD
ROOT
HETATM    1  C   UNL     1      -9.756   5.041  68.635  1.00  0.00    -0.158 C  
HETATM    2  N   UNL     1     -10.628   6.156  68.309  1.00  0.00    -0.233 NA 
HETATM    3  C   UNL     1     -10.824   6.514  66.909  1.00  0.00    -0.357 C  
ENDROOT
BRANCH   2   4
HETATM    4  N   UNL     1     -11.610   6.398  69.237  1.00  0.00    -0.607 NA 
HETATM    5  H   UNL     1     -12.298   5.697  69.516  1.00  0.00     0.000 HD 
BRANCH   4   6
HETATM    6  N   UNL     1     -11.584   7.553  69.707  1.00  0.00    -0.466 NA 
HETATM    7  H   UNL     1     -11.641   8.383  69.117  1.00  0.00     0.000 HD 
BRANCH   6   8
HETATM    8  C   UNL     1     -11.476   7.630  71.058  1.00  0.00    -0.276 A  
HETATM    9  C   UNL     1     -12.228   8.251  72.042  1.00  0.00    -0.348 A  
HETATM   10  N   UNL     1     -11.669   8.029  73.302  1.00  0.00    -0.464 NA 
HETATM   11  N   UNL     1     -10.441   7.044  71.750  1.00  0.00    -0.202 NA 
HETATM   12  C   UNL     1     -10.601   7.300  73.079  1.00  0.00    -0.326 A  
HETATM   13  H   UNL     1     -12.015   8.362  74.201  1.00  0.00     0.000 HD 
BRANCH   9  14
HETATM   14  C   UNL     1     -13.446   9.035  71.857  1.00  0.00    -0.425 C  
HETATM   15  N   UNL     1     -13.433   9.800  70.723  1.00  0.00    -0.588 N  
HETATM   16  H2  UNL     1     -12.650   9.820  70.071  1.00  0.00     0.000 HD 
HETATM   17  H1  UNL     1     -14.283  10.347  70.593  1.00  0.00     0.000 HD 
HETATM   18  O   UNL     1     -14.408   9.040  72.618  1.00  0.00    -0.603 OA 
ENDBRANCH   9  14
ENDBRANCH   6   8
ENDBRANCH   4   6
ENDBRANCH   2   4
TORSDOF 4
ENDMDL
MODEL       67
REMARK 921   NORMALIZED FREE ENERGY PREDICTED BY IDOCK:   -4.14 KCAL/MOL
REMARK 922        TOTAL FREE ENERGY PREDICTED BY IDOCK:   -5.55 KCAL/MOL
REMARK 923 INTER-LIGAND FREE ENERGY PREDICTED BY IDOCK:   -5.12 KCAL/MOL
REMARK 924 INTRA-LIGAND FREE ENERGY PREDICTED BY IDOCK:   -0.42 KCAL/MOL
REMARK 927      BINDING AFFINITY PREDICTED BY RF-SCORE:    0.00 PKD
ROOT
HETATM    1  C   UNL     1     -13.749  15.604  72.682  1.00  0.00    -0.579 C  
HETATM    2  N   UNL     1     -13.376  14.874  71.484  1.00  0.00    -0.365 NA 
HETATM    3  C   UNL     1     -12.501  15.515  70.509  1.00  0.00    -0.427 C  
ENDROOT
BRANCH   2   4
HETATM    4  N   UNL     1     -13.384  13.509  71.626  1.00  0.00    -0.358 NA 
HETATM    5  H   UNL     1     -14.096  13.007  72.157  1.00  0.00     0.000 HD 
BRANCH   4   6
HETATM    6  N   UNL     1     -12.439  12.937  71.046  1.00  0.00    -0.348 NA 
HETATM    7  H   UNL     1     -11.666  13.453  70.624  1.00  0.00     0.000 HD 
BRANCH   6   8
HETATM    8  C   UNL     1     -12.509  11.582  71.013  1.00  0.00    -0.356 A  
HETATM    9  C   UNL     1     -12.058  10.624  70.119  1.00  0.00    -0.333 A  
HETATM   10  N   UNL     1     -12.408   9.344  70.552  1.00  0.00    -0.488 NA 
HETATM   11  N   UNL     1     -13.154  10.853  71.985  1.00  0.00    -0.462 NA 
HETATM   12  C   UNL     1     -13.061   9.529  71.675  1.00  0.00    -0.401 A  
HETATM   13  H   UNL     1     -12.200   8.456  70.094  1.00  0.00     0.000 HD 
BRANCH   9  14
HETATM   14  C   UNL     1     -11.311  10.853  68.884  1.00  0.00    -0.288 C  
HETATM   15  N   UNL     1     -11.344   9.790  68.025  1.00  0.00    -0.499 N  
HETATM   16  H2  UNL     1     -11.841   8.923  68.227  1.00  0.00     0.000 HD 
HETATM   17  H1  UNL     1     -10.823   9.949  67.163  1.00  0.00     0.000 HD 
HETATM   18  O   UNL     1     -10.700  11.880  68.606  1.00  0.00    -0.220 OA 
ENDBRANCH   9  14
ENDBRANCH   6   8
ENDBRANCH   4   6
ENDBRANCH   2   4
TORSDOF 4
ENDMDL
MODEL       68
REMARK 921   NORMALIZED FREE ENERGY PREDICTED BY IDOCK:   -4.13 KCAL/MOL
REMARK 922        TOTAL FREE ENERGY PREDICTED BY IDOCK:   -5.54 KCAL/MOL
REMARK 923 INTER-LIGAND FREE ENERGY PREDICTED BY IDOCK:   -5.10 KCAL/MOL
REMARK 924 INTRA-LIGAND FREE ENERGY PREDICTED BY IDOCK:   -0.44 KCAL/MOL
REMARK 927      BINDING AFFINITY PREDICTED BY RF-SCORE:    0.00 PKD
ROOT
HETATM    1  C   UNL     1     -12.043  16.103  72.232  1.00  0.00    -0.531 C  
HETATM    2  N   UNL     1     -13.058  15.356  71.512  1.00  0.00    -0.433 NA 
HETATM    3  C   UNL     1     -14.320  15.056  72.178  1.00  0.00    -0.530 C  
ENDROOT
BRANCH   2   4
HETATM    4  N   UNL     1     -13.002  15.492  70.148  1.00  0.00    -0.649 NA 
HETATM    5  H   UNL     1     -13.680  15.064  69.516  1.00  0.00     0.000 HD 
BRANCH   4   6
HETATM    6  N   UNL     1     -12.047  16.189  69.751  1.00  0.00    -0.271 NA 
HETATM    7  H   UNL     1     -11.648  16.939  70.315  1.00  0.00     0.000 HD 
BRANCH   6   8
HETATM    8  C   UNL     1     -11.574  15.879  68.517  1.00  0.00    -0.349 A  
HETATM    9  C   UNL     1     -10.789  16.557  67.598  1.00  0.00    -0.269 A  
HETATM   10  N   UNL     1     -10.597  15.786  66.450  1.00  0.00    -0.309 NA 
HETATM   11  N   UNL     1     -11.866  14.690  67.890  1.00  0.00    -0.343 NA 
HETATM   12  C   UNL     1     -11.259  14.675  66.670  1.00  0.00    -0.349 A  
HETATM   13  H   UNL     1     -10.059  16.033  65.619  1.00  0.00     0.000 HD 
BRANCH   9  14
HETATM   14  C   UNL     1     -10.207  17.889  67.748  1.00  0.00    -0.368 C  
HETATM   15  N   UNL     1      -9.665  18.379  66.592  1.00  0.00    -0.321 N  
HETATM   16  H2  UNL     1      -9.667  17.865  65.712  1.00  0.00     0.000 HD 
HETATM   17  H1  UNL     1      -9.260  19.308  66.697  1.00  0.00     0.000 HD 
HETATM   18  O   UNL     1     -10.183  18.538  68.789  1.00  0.00    -0.379 OA 
ENDBRANCH   9  14
ENDBRANCH   6   8
ENDBRANCH   4   6
ENDBRANCH   2   4
TORSDOF 4
ENDMDL
MODEL       69
REMARK 921   NORMALIZED FREE ENERGY PREDICTED BY IDOCK:   -4.11 KCAL/MOL
REMARK 922        TOTAL FREE ENERGY PREDICTED BY IDOCK:   -5.50 KCAL/MOL
REMARK 923 INTER-LIGAND FREE ENERGY PREDICTED BY IDOCK:   -5.01 KCAL/MOL
REMARK 924 INTRA-LIGAND FREE ENERGY PREDICTED BY IDOCK:   -0.50 KCAL/MOL
REMARK 927      BINDING AFFINITY PREDICTED BY RF-SCORE:    0.00 PKD
ROOT
HETATM    1  C   UNL     1     -10.186  19.245  66.181  1.00  0.00    -0.470 C  
HETATM    2  N   UNL     1      -9.659  17.925  65.887  1.00  0.00    -0.530 NA 
HETATM    3  C   UNL     1      -8.443  17.484  66.561  1.00  0.00    -0.268 C  
ENDROOT
BRANCH   2   4
HETATM    4  N   UNL     1     -10.602  17.015  65.479  1.00  0.00    -0.564 NA 
HETATM    5  H   UNL     1     -11.606  17.189  65.536  1.00  0.00     0.000 HD 
BRANCH   4   6
HETATM    6  N   UNL     1     -10.118  15.955  65.033  1.00  0.00    -0.415 NA 
HETATM    7  H   UNL     1      -9.202  15.920  64.586  1.00  0.00     0.000 HD 
BRANCH   6   8
HETATM    8  C   UNL     1     -10.895  14.852  65.183  1.00  0.00    -0.414 A  
HETATM    9  C   UNL     1     -10.785  13.705  65.952  1.00  0.00    -0.281 A  
HETATM   10  N   UNL     1     -11.869  12.854  65.724  1.00  0.00    -0.396 NA 
HETATM   11  N   UNL     1     -12.059  14.667  64.473  1.00  0.00    -0.480 NA 
HETATM   12  C   UNL     1     -12.607  13.472  64.833  1.00  0.00    -0.342 A  
HETATM   13  H   UNL     1     -12.048  11.948  66.157  1.00  0.00     0.000 HD 
BRANCH   9  14
HETATM   14  C   UNL     1      -9.717  13.372  66.892  1.00  0.00    -0.253 C  
HETATM   15  N   UNL     1      -8.491  13.837  66.507  1.00  0.00    -0.386 N  
HETATM   16  H2  UNL     1      -8.337  14.364  65.648  1.00  0.00     0.000 HD 
HETATM   17  H1  UNL     1      -7.745  13.605  67.162  1.00  0.00     0.000 HD 
HETATM   18  O   UNL     1      -9.862  12.739  67.933  1.00  0.00    -0.209 OA 
ENDBRANCH   9  14
ENDBRANCH   6   8
ENDBRANCH   4   6
ENDBRANCH   2   4
TORSDOF 4
ENDMDL
MODEL       70
REMARK 921   NORMALIZED FREE ENERGY PREDICTED BY IDOCK:   -4.04 KCAL/MOL
REMARK 922        TOTAL FREE ENERGY PREDICTED BY IDOCK:   -5.43 KCAL/MOL
REMARK 923 INTER-LIGAND FREE ENERGY PREDICTED BY IDOCK:   -5.08 KCAL/MOL
REMARK 924 INTRA-LIGAND FREE ENERGY PREDICTED BY IDOCK:   -0.34 KCAL/MOL
REMARK 927      BINDING AFFINITY PREDICTED BY RF-SCORE:    0.00 PKD
ROOT
HETATM    1  C   UNL     1      -7.257  10.489  66.313  1.00  0.00    -0.133 C  
HETATM    2  N   UNL     1      -8.419  10.678  65.462  1.00  0.00    -0.177 NA 
HETATM    3  C   UNL     1      -9.100   9.505  64.926  1.00  0.00    -0.223 C  
ENDROOT
BRANCH   2   4
HETATM    4  N   UNL     1      -9.107  11.843  65.691  1.00  0.00    -0.422 NA 
HETATM    5  H   UNL     1      -8.660  12.697  66.026  1.00  0.00     0.000 HD 
BRANCH   4   6
HETATM    6  N   UNL     1     -10.328  11.761  65.452  1.00  0.00    -0.257 NA 
HETATM    7  H   UNL     1     -10.718  11.036  64.849  1.00  0.00     0.000 HD 
BRANCH   6   8
HETATM    8  C   UNL     1     -11.103  12.702  66.048  1.00  0.00    -0.287 A  
HETATM    9  C   UNL     1     -11.935  13.700  65.566  1.00  0.00    -0.384 A  
HETATM   10  N   UNL     1     -12.503  14.420  66.619  1.00  0.00    -0.500 NA 
HETATM   11  N   UNL     1     -11.167  12.849  67.415  1.00  0.00    -0.277 NA 
HETATM   12  C   UNL     1     -12.016  13.874  67.708  1.00  0.00    -0.355 A  
HETATM   13  H   UNL     1     -13.154  15.201  66.555  1.00  0.00     0.000 HD 
BRANCH   9  14
HETATM   14  C   UNL     1     -12.226  14.004  64.167  1.00  0.00    -0.396 C  
HETATM   15  N   UNL     1     -12.118  15.334  63.866  1.00  0.00    -0.973 N  
HETATM   16  H2  UNL     1     -11.859  16.043  64.552  1.00  0.00     0.000 HD 
HETATM   17  H1  UNL     1     -12.321  15.546  62.890  1.00  0.00     0.000 HD 
HETATM   18  O   UNL     1     -12.543  13.181  63.314  1.00  0.00    -0.700 OA 
ENDBRANCH   9  14
ENDBRANCH   6   8
ENDBRANCH   4   6
ENDBRANCH   2   4
TORSDOF 4
ENDMDL
MODEL       71
REMARK 921   NORMALIZED FREE ENERGY PREDICTED BY IDOCK:   -4.04 KCAL/MOL
REMARK 922        TOTAL FREE ENERGY PREDICTED BY IDOCK:   -5.42 KCAL/MOL
REMARK 923 INTER-LIGAND FREE ENERGY PREDICTED BY IDOCK:   -5.17 KCAL/MOL
REMARK 924 INTRA-LIGAND FREE ENERGY PREDICTED BY IDOCK:   -0.25 KCAL/MOL
REMARK 927      BINDING AFFINITY PREDICTED BY RF-SCORE:    0.00 PKD
ROOT
HETATM    1  C   UNL     1     -12.337  14.370  64.606  1.00  0.00    -0.418 C  
HETATM    2  N   UNL     1     -11.130  14.879  65.231  1.00  0.00    -0.358 NA 
HETATM    3  C   UNL     1     -10.040  13.954  65.519  1.00  0.00    -0.298 C  
ENDROOT
BRANCH   2   4
HETATM    4  N   UNL     1     -10.875  16.204  64.979  1.00  0.00    -0.584 NA 
HETATM    5  H   UNL     1     -11.456  16.776  64.365  1.00  0.00     0.000 HD 
BRANCH   4   6
HETATM    6  N   UNL     1      -9.869  16.644  65.570  1.00  0.00    -0.550 NA 
HETATM    7  H   UNL     1      -8.924  16.516  65.206  1.00  0.00     0.000 HD 
BRANCH   6   8
HETATM    8  C   UNL     1     -10.117  17.305  66.729  1.00  0.00    -0.302 A  
HETATM    9  C   UNL     1     -10.303  18.641  67.044  1.00  0.00    -0.404 A  
HETATM   10  N   UNL     1     -10.517  18.798  68.416  1.00  0.00    -0.380 NA 
HETATM   11  N   UNL     1     -10.204  16.662  67.942  1.00  0.00    -0.274 NA 
HETATM   12  C   UNL     1     -10.451  17.586  68.913  1.00  0.00    -0.286 A  
HETATM   13  H   UNL     1     -10.687  19.667  68.921  1.00  0.00     0.000 HD 
BRANCH   9  14
HETATM   14  C   UNL     1     -10.296  19.774  66.122  1.00  0.00    -0.524 C  
HETATM   15  N   UNL     1      -9.145  20.511  66.175  1.00  0.00    -0.584 N  
HETATM   16  H2  UNL     1      -8.368  20.290  66.798  1.00  0.00     0.000 HD 
HETATM   17  H1  UNL     1      -9.139  21.301  65.532  1.00  0.00     0.000 HD 
HETATM   18  O   UNL     1     -11.210  20.073  65.360  1.00  0.00    -0.206 OA 
ENDBRANCH   9  14
ENDBRANCH   6   8
ENDBRANCH   4   6
ENDBRANCH   2   4
TORSDOF 4
ENDMDL
MODEL       72
REMARK 921   NORMALIZED FREE ENERGY PREDICTED BY IDOCK:   -4.03 KCAL/MOL
REMARK 922        TOTAL FREE ENERGY PREDICTED BY IDOCK:   -5.41 KCAL/MOL
REMARK 923 INTER-LIGAND FREE ENERGY PREDICTED BY IDOCK:   -4.46 KCAL/MOL
REMARK 924 INTRA-LIGAND FREE ENERGY PREDICTED BY IDOCK:   -0.96 KCAL/MOL
REMARK 927      BINDING AFFINITY PREDICTED BY RF-SCORE:    0.00 PKD
ROOT
HETATM    1  C   UNL     1      -9.994   7.151  73.937  1.00  0.00    -0.318 C  
HETATM    2  N   UNL     1     -10.984   7.082  72.877  1.00  0.00    -0.294 NA 
HETATM    3  C   UNL     1     -11.229   5.803  72.222  1.00  0.00    -0.278 C  
ENDROOT
BRANCH   2   4
HETATM    4  N   UNL     1     -11.978   8.024  72.966  1.00  0.00    -0.633 NA 
HETATM    5  H   UNL     1     -12.271   8.443  73.850  1.00  0.00     0.000 HD 
BRANCH   4   6
HETATM    6  N   UNL     1     -12.490   8.321  71.868  1.00  0.00    -0.321 NA 
HETATM    7  H   UNL     1     -12.946   7.629  71.274  1.00  0.00     0.000 HD 
BRANCH   6   8
HETATM    8  C   UNL     1     -12.399   9.630  71.518  1.00  0.00    -0.390 A  
HETATM    9  C   UNL     1     -11.515  10.347  70.729  1.00  0.00    -0.332 A  
HETATM   10  N   UNL     1     -11.864  11.699  70.702  1.00  0.00    -0.471 NA 
HETATM   11  N   UNL     1     -13.278  10.581  71.982  1.00  0.00    -0.449 NA 
HETATM   12  C   UNL     1     -12.928  11.792  71.465  1.00  0.00    -0.341 A  
HETATM   13  H   UNL     1     -11.394  12.451  70.199  1.00  0.00     0.000 HD 
BRANCH   9  14
HETATM   14  C   UNL     1     -10.364   9.825  69.996  1.00  0.00    -0.263 C  
HETATM   15  N   UNL     1      -9.755   8.772  70.620  1.00  0.00    -0.184 N  
HETATM   16  H2  UNL     1     -10.073   8.389  71.509  1.00  0.00     0.000 HD 
HETATM   17  H1  UNL     1      -8.952   8.407  70.109  1.00  0.00     0.000 HD 
HETATM   18  O   UNL     1      -9.949  10.259  68.926  1.00  0.00    -0.181 OA 
ENDBRANCH   9  14
ENDBRANCH   6   8
ENDBRANCH   4   6
ENDBRANCH   2   4
TORSDOF 4
ENDMDL
MODEL       73
REMARK 921   NORMALIZED FREE ENERGY PREDICTED BY IDOCK:   -4.03 KCAL/MOL
REMARK 922        TOTAL FREE ENERGY PREDICTED BY IDOCK:   -5.41 KCAL/MOL
REMARK 923 INTER-LIGAND FREE ENERGY PREDICTED BY IDOCK:   -4.93 KCAL/MOL
REMARK 924 INTRA-LIGAND FREE ENERGY PREDICTED BY IDOCK:   -0.48 KCAL/MOL
REMARK 927      BINDING AFFINITY PREDICTED BY RF-SCORE:    0.00 PKD
ROOT
HETATM    1  C   UNL     1     -10.182  11.353  63.821  1.00  0.00    -0.382 C  
HETATM    2  N   UNL     1     -10.847  12.640  63.724  1.00  0.00    -0.427 NA 
HETATM    3  C   UNL     1     -12.252  12.681  63.335  1.00  0.00    -0.517 C  
ENDROOT
BRANCH   2   4
HETATM    4  N   UNL     1     -10.316  13.615  64.530  1.00  0.00    -0.610 NA 
HETATM    5  H   UNL     1      -9.417  14.062  64.346  1.00  0.00     0.000 HD 
BRANCH   4   6
HETATM    6  N   UNL     1     -11.033  13.905  65.509  1.00  0.00    -0.295 NA 
HETATM    7  H   UNL     1     -12.040  14.039  65.425  1.00  0.00     0.000 HD 
BRANCH   6   8
HETATM    8  C   UNL     1     -10.380  14.031  66.692  1.00  0.00    -0.278 A  
HETATM    9  C   UNL     1     -10.502  13.402  67.921  1.00  0.00    -0.240 A  
HETATM   10  N   UNL     1      -9.579  13.918  68.832  1.00  0.00    -0.406 NA 
HETATM   11  N   UNL     1      -9.376  14.950  66.888  1.00  0.00    -0.229 NA 
HETATM   12  C   UNL     1      -8.924  14.842  68.169  1.00  0.00    -0.179 A  
HETATM   13  H   UNL     1      -9.444  13.638  69.803  1.00  0.00     0.000 HD 
BRANCH   9  14
HETATM   14  C   UNL     1     -11.438  12.338  68.277  1.00  0.00    -0.315 C  
HETATM   15  N   UNL     1     -11.492  12.089  69.621  1.00  0.00    -0.439 N  
HETATM   16  H2  UNL     1     -10.933  12.597  70.306  1.00  0.00     0.000 HD 
HETATM   17  H1  UNL     1     -12.145  11.347  69.870  1.00  0.00     0.000 HD 
HETATM   18  O   UNL     1     -12.125  11.703  67.483  1.00  0.00    -0.611 OA 
ENDBRANCH   9  14
ENDBRANCH   6   8
ENDBRANCH   4   6
ENDBRANCH   2   4
TORSDOF 4
ENDMDL
MODEL       74
REMARK 921   NORMALIZED FREE ENERGY PREDICTED BY IDOCK:   -4.03 KCAL/MOL
REMARK 922        TOTAL FREE ENERGY PREDICTED BY IDOCK:   -5.41 KCAL/MOL
REMARK 923 INTER-LIGAND FREE ENERGY PREDICTED BY IDOCK:   -4.87 KCAL/MOL
REMARK 924 INTRA-LIGAND FREE ENERGY PREDICTED BY IDOCK:   -0.54 KCAL/MOL
REMARK 927      BINDING AFFINITY PREDICTED BY RF-SCORE:    0.00 PKD
ROOT
HETATM    1  C   UNL     1      -9.368   8.829  66.769  1.00  0.00    -0.179 C  
HETATM    2  N   UNL     1     -10.145  10.034  66.999  1.00  0.00    -0.208 NA 
HETATM    3  C   UNL     1     -10.369  10.952  65.888  1.00  0.00    -0.250 C  
ENDROOT
BRANCH   2   4
HETATM    4  N   UNL     1     -11.057   9.935  68.020  1.00  0.00    -0.491 NA 
HETATM    5  H   UNL     1     -10.990   9.237  68.761  1.00  0.00     0.000 HD 
BRANCH   4   6
HETATM    6  N   UNL     1     -11.974  10.778  67.959  1.00  0.00    -0.773 NA 
HETATM    7  H   UNL     1     -12.716  10.727  67.261  1.00  0.00     0.000 HD 
BRANCH   6   8
HETATM    8  C   UNL     1     -11.917  11.770  68.884  1.00  0.00    -0.271 A  
HETATM    9  C   UNL     1     -12.063  11.799  70.262  1.00  0.00    -0.342 A  
HETATM   10  N   UNL     1     -11.923  13.102  70.744  1.00  0.00    -0.506 NA 
HETATM   11  N   UNL     1     -11.704  13.086  68.544  1.00  0.00    -0.322 NA 
HETATM   12  C   UNL     1     -11.707  13.839  69.680  1.00  0.00    -0.318 A  
HETATM   13  H   UNL     1     -11.977  13.413  71.713  1.00  0.00     0.000 HD 
BRANCH   9  14
HETATM   14  C   UNL     1     -12.322  10.664  71.145  1.00  0.00    -0.400 C  
HETATM   15  N   UNL     1     -11.433   9.638  70.986  1.00  0.00    -0.339 N  
HETATM   16  H2  UNL     1     -10.664   9.663  70.316  1.00  0.00     0.000 HD 
HETATM   17  H1  UNL     1     -11.613   8.846  71.602  1.00  0.00     0.000 HD 
HETATM   18  O   UNL     1     -13.236  10.596  71.960  1.00  0.00    -0.473 OA 
ENDBRANCH   9  14
ENDBRANCH   6   8
ENDBRANCH   4   6
ENDBRANCH   2   4
TORSDOF 4
ENDMDL
MODEL       75
REMARK 921   NORMALIZED FREE ENERGY PREDICTED BY IDOCK:   -4.01 KCAL/MOL
REMARK 922        TOTAL FREE ENERGY PREDICTED BY IDOCK:   -5.38 KCAL/MOL
REMARK 923 INTER-LIGAND FREE ENERGY PREDICTED BY IDOCK:   -4.96 KCAL/MOL
REMARK 924 INTRA-LIGAND FREE ENERGY PREDICTED BY IDOCK:   -0.42 KCAL/MOL
REMARK 927      BINDING AFFINITY PREDICTED BY RF-SCORE:    0.00 PKD
ROOT
HETATM    1  C   UNL     1      -7.479  19.502  65.737  1.00  0.00    -0.259 C  
HETATM    2  N   UNL     1      -8.086  18.978  66.947  1.00  0.00    -0.258 NA 
HETATM    3  C   UNL     1      -7.433  19.223  68.228  1.00  0.00    -0.300 C  
ENDROOT
BRANCH   2   4
HETATM    4  N   UNL     1      -9.447  18.817  66.875  1.00  0.00    -0.300 NA 
HETATM    5  H   UNL     1     -10.103  19.358  67.441  1.00  0.00     0.000 HD 
BRANCH   4   6
HETATM    6  N   UNL     1      -9.808  17.950  66.056  1.00  0.00    -0.542 NA 
HETATM    7  H   UNL     1      -9.675  18.060  65.050  1.00  0.00     0.000 HD 
BRANCH   6   8
HETATM    8  C   UNL     1     -10.392  16.848  66.592  1.00  0.00    -0.299 A  
HETATM    9  C   UNL     1     -11.013  15.736  66.048  1.00  0.00    -0.177 A  
HETATM   10  N   UNL     1     -11.464  14.881  67.056  1.00  0.00    -0.349 NA 
HETATM   11  N   UNL     1     -10.494  16.654  67.951  1.00  0.00    -0.310 NA 
HETATM   12  C   UNL     1     -11.130  15.470  68.179  1.00  0.00    -0.325 A  
HETATM   13  H   UNL     1     -11.949  13.991  66.943  1.00  0.00     0.000 HD 
BRANCH   9  14
HETATM   14  C   UNL     1     -11.198  15.435  64.630  1.00  0.00    -0.364 C  
HETATM   15  N   UNL     1     -11.009  14.116  64.325  1.00  0.00    -0.593 N  
HETATM   16  H2  UNL     1     -10.762  13.411  65.019  1.00  0.00     0.000 HD 
HETATM   17  H1  UNL     1     -11.138  13.906  63.336  1.00  0.00     0.000 HD 
HETATM   18  O   UNL     1     -11.492  16.254  63.765  1.00  0.00    -0.888 OA 
ENDBRANCH   9  14
ENDBRANCH   6   8
ENDBRANCH   4   6
ENDBRANCH   2   4
TORSDOF 4
ENDMDL
MODEL       76
REMARK 921   NORMALIZED FREE ENERGY PREDICTED BY IDOCK:   -3.99 KCAL/MOL
REMARK 922        TOTAL FREE ENERGY PREDICTED BY IDOCK:   -5.37 KCAL/MOL
REMARK 923 INTER-LIGAND FREE ENERGY PREDICTED BY IDOCK:   -4.99 KCAL/MOL
REMARK 924 INTRA-LIGAND FREE ENERGY PREDICTED BY IDOCK:   -0.38 KCAL/MOL
REMARK 927      BINDING AFFINITY PREDICTED BY RF-SCORE:    0.00 PKD
ROOT
HETATM    1  C   UNL     1      -6.305  15.112  68.176  1.00  0.00    -0.131 C  
HETATM    2  N   UNL     1      -6.987  14.140  67.340  1.00  0.00    -0.204 NA 
HETATM    3  C   UNL     1      -6.746  12.720  67.568  1.00  0.00    -0.154 C  
ENDROOT
BRANCH   2   4
HETATM    4  N   UNL     1      -8.184  14.573  66.827  1.00  0.00    -0.386 NA 
HETATM    5  H   UNL     1      -8.449  15.557  66.785  1.00  0.00     0.000 HD 
BRANCH   4   6
HETATM    6  N   UNL     1      -8.918  13.651  66.417  1.00  0.00    -0.465 NA 
HETATM    7  H   UNL     1      -8.553  12.856  65.892  1.00  0.00     0.000 HD 
BRANCH   6   8
HETATM    8  C   UNL     1     -10.235  13.779  66.717  1.00  0.00    -0.268 A  
HETATM    9  C   UNL     1     -11.285  14.471  66.133  1.00  0.00    -0.339 A  
HETATM   10  N   UNL     1     -12.464  14.278  66.856  1.00  0.00    -0.543 NA 
HETATM   11  N   UNL     1     -10.804  13.180  67.817  1.00  0.00    -0.240 NA 
HETATM   12  C   UNL     1     -12.129  13.496  67.855  1.00  0.00    -0.269 A  
HETATM   13  H   UNL     1     -13.386  14.662  66.651  1.00  0.00     0.000 HD 
BRANCH   9  14
HETATM   14  C   UNL     1     -11.234  15.298  64.930  1.00  0.00    -0.415 C  
HETATM   15  N   UNL     1     -12.161  14.945  63.989  1.00  0.00    -0.967 N  
HETATM   16  H2  UNL     1     -12.823  14.180  64.115  1.00  0.00     0.000 HD 
HETATM   17  H1  UNL     1     -12.126  15.521  63.149  1.00  0.00     0.000 HD 
HETATM   18  O   UNL     1     -10.452  16.224  64.739  1.00  0.00    -0.607 OA 
ENDBRANCH   9  14
ENDBRANCH   6   8
ENDBRANCH   4   6
ENDBRANCH   2   4
TORSDOF 4
ENDMDL
MODEL       77
REMARK 921   NORMALIZED FREE ENERGY PREDICTED BY IDOCK:   -3.98 KCAL/MOL
REMARK 922        TOTAL FREE ENERGY PREDICTED BY IDOCK:   -5.35 KCAL/MOL
REMARK 923 INTER-LIGAND FREE ENERGY PREDICTED BY IDOCK:   -4.42 KCAL/MOL
REMARK 924 INTRA-LIGAND FREE ENERGY PREDICTED BY IDOCK:   -0.93 KCAL/MOL
REMARK 927      BINDING AFFINITY PREDICTED BY RF-SCORE:    0.00 PKD
ROOT
HETATM    1  C   UNL     1     -12.167  12.941  63.640  1.00  0.00    -0.499 C  
HETATM    2  N   UNL     1     -11.767  13.826  64.719  1.00  0.00    -0.363 NA 
HETATM    3  C   UNL     1     -11.324  15.177  64.397  1.00  0.00    -0.203 C  
ENDROOT
BRANCH   2   4
HETATM    4  N   UNL     1     -12.361  13.554  65.926  1.00  0.00    -0.455 NA 
HETATM    5  H   UNL     1     -13.368  13.429  66.037  1.00  0.00     0.000 HD 
BRANCH   4   6
HETATM    6  N   UNL     1     -11.556  13.474  66.876  1.00  0.00    -0.344 NA 
HETATM    7  H   UNL     1     -10.993  14.268  67.182  1.00  0.00     0.000 HD 
BRANCH   6   8
HETATM    8  C   UNL     1     -11.481  12.259  67.475  1.00  0.00    -0.347 A  
HETATM    9  C   UNL     1     -10.834  11.076  67.156  1.00  0.00    -0.282 A  
HETATM   10  N   UNL     1     -11.096  10.096  68.116  1.00  0.00    -0.424 NA 
HETATM   11  N   UNL     1     -12.154  11.966  68.639  1.00  0.00    -0.377 NA 
HETATM   12  C   UNL     1     -11.889  10.675  68.987  1.00  0.00    -0.185 A  
HETATM   13  H   UNL     1     -10.746   9.139  68.137  1.00  0.00     0.000 HD 
BRANCH   9  14
HETATM   14  C   UNL     1      -9.979  10.823  65.998  1.00  0.00    -0.242 C  
HETATM   15  N   UNL     1      -9.378  11.950  65.511  1.00  0.00    -0.408 N  
HETATM   16  H2  UNL     1      -9.514  12.876  65.915  1.00  0.00     0.000 HD 
HETATM   17  H1  UNL     1      -8.782  11.774  64.703  1.00  0.00     0.000 HD 
HETATM   18  O   UNL     1      -9.793   9.726  65.481  1.00  0.00    -0.294 OA 
ENDBRANCH   9  14
ENDBRANCH   6   8
ENDBRANCH   4   6
ENDBRANCH   2   4
TORSDOF 4
ENDMDL
MODEL       78
REMARK 921   NORMALIZED FREE ENERGY PREDICTED BY IDOCK:   -3.97 KCAL/MOL
REMARK 922        TOTAL FREE ENERGY PREDICTED BY IDOCK:   -5.34 KCAL/MOL
REMARK 923 INTER-LIGAND FREE ENERGY PREDICTED BY IDOCK:   -4.47 KCAL/MOL
REMARK 924 INTRA-LIGAND FREE ENERGY PREDICTED BY IDOCK:   -0.87 KCAL/MOL
REMARK 927      BINDING AFFINITY PREDICTED BY RF-SCORE:    0.00 PKD
ROOT
HETATM    1  C   UNL     1     -10.250   9.609  68.702  1.00  0.00    -0.189 C  
HETATM    2  N   UNL     1     -11.149  10.666  68.274  1.00  0.00    -0.258 NA 
HETATM    3  C   UNL     1     -11.387  10.855  66.848  1.00  0.00     0.037 C  
ENDROOT
BRANCH   2   4
HETATM    4  N   UNL     1     -12.109  11.002  69.195  1.00  0.00    -0.540 NA 
HETATM    5  H   UNL     1     -13.110  10.922  69.011  1.00  0.00     0.000 HD 
BRANCH   4   6
HETATM    6  N   UNL     1     -11.646  11.413  70.277  1.00  0.00    -0.475 NA 
HETATM    7  H   UNL     1     -10.808  11.013  70.699  1.00  0.00     0.000 HD 
BRANCH   6   8
HETATM    8  C   UNL     1     -12.334  12.430  70.856  1.00  0.00    -0.262 A  
HETATM    9  C   UNL     1     -12.382  13.797  70.635  1.00  0.00    -0.375 A  
HETATM   10  N   UNL     1     -13.259  14.410  71.533  1.00  0.00    -0.330 NA 
HETATM   11  N   UNL     1     -13.185  12.234  71.919  1.00  0.00    -0.451 NA 
HETATM   12  C   UNL     1     -13.718  13.436  72.281  1.00  0.00    -0.607 A  
HETATM   13  H   UNL     1     -13.491  15.401  71.594  1.00  0.00     0.000 HD 
BRANCH   9  14
HETATM   14  C   UNL     1     -11.652  14.552  69.620  1.00  0.00    -0.299 C  
HETATM   15  N   UNL     1     -10.670  13.826  69.005  1.00  0.00    -0.359 N  
HETATM   16  H2  UNL     1     -10.468  12.853  69.232  1.00  0.00     0.000 HD 
HETATM   17  H1  UNL     1     -10.160  14.353  68.296  1.00  0.00     0.000 HD 
HETATM   18  O   UNL     1     -11.863  15.723  69.320  1.00  0.00    -0.365 OA 
ENDBRANCH   9  14
ENDBRANCH   6   8
ENDBRANCH   4   6
ENDBRANCH   2   4
TORSDOF 4
ENDMDL
MODEL       79
REMARK 921   NORMALIZED FREE ENERGY PREDICTED BY IDOCK:   -3.97 KCAL/MOL
REMARK 922        TOTAL FREE ENERGY PREDICTED BY IDOCK:   -5.33 KCAL/MOL
REMARK 923 INTER-LIGAND FREE ENERGY PREDICTED BY IDOCK:   -4.69 KCAL/MOL
REMARK 924 INTRA-LIGAND FREE ENERGY PREDICTED BY IDOCK:   -0.64 KCAL/MOL
REMARK 927      BINDING AFFINITY PREDICTED BY RF-SCORE:    0.00 PKD
ROOT
HETATM    1  C   UNL     1      -8.677  10.392  68.872  1.00  0.00    -0.157 C  
HETATM    2  N   UNL     1     -10.097  10.667  68.747  1.00  0.00    -0.183 NA 
HETATM    3  C   UNL     1     -10.776  10.323  67.503  1.00  0.00    -0.294 C  
ENDROOT
BRANCH   2   4
HETATM    4  N   UNL     1     -10.780  10.676  69.938  1.00  0.00    -0.415 NA 
HETATM    5  H   UNL     1     -11.582  11.280  70.115  1.00  0.00     0.000 HD 
BRANCH   4   6
HETATM    6  N   UNL     1     -10.329   9.877  70.782  1.00  0.00    -0.365 NA 
HETATM    7  H   UNL     1      -9.452  10.043  71.277  1.00  0.00     0.000 HD 
BRANCH   6   8
HETATM    8  C   UNL     1     -11.084   8.770  70.999  1.00  0.00    -0.270 A  
HETATM    9  C   UNL     1     -12.328   8.560  71.570  1.00  0.00    -0.314 A  
HETATM   10  N   UNL     1     -12.652   7.201  71.561  1.00  0.00    -0.374 NA 
HETATM   11  N   UNL     1     -10.655   7.506  70.662  1.00  0.00    -0.221 NA 
HETATM   12  C   UNL     1     -11.622   6.609  71.006  1.00  0.00    -0.346 A  
HETATM   13  H   UNL     1     -13.504   6.765  71.911  1.00  0.00     0.000 HD 
BRANCH   9  14
HETATM   14  C   UNL     1     -13.229   9.572  72.118  1.00  0.00    -0.451 C  
HETATM   15  N   UNL     1     -14.148   9.065  72.994  1.00  0.00    -0.830 N  
HETATM   16  H2  UNL     1     -14.200   8.077  73.240  1.00  0.00     0.000 HD 
HETATM   17  H1  UNL     1     -14.776   9.771  73.376  1.00  0.00     0.000 HD 
HETATM   18  O   UNL     1     -13.200  10.768  71.844  1.00  0.00    -0.469 OA 
ENDBRANCH   9  14
ENDBRANCH   6   8
ENDBRANCH   4   6
ENDBRANCH   2   4
TORSDOF 4
ENDMDL
MODEL       80
REMARK 921   NORMALIZED FREE ENERGY PREDICTED BY IDOCK:   -3.95 KCAL/MOL
REMARK 922        TOTAL FREE ENERGY PREDICTED BY IDOCK:   -5.31 KCAL/MOL
REMARK 923 INTER-LIGAND FREE ENERGY PREDICTED BY IDOCK:   -4.37 KCAL/MOL
REMARK 924 INTRA-LIGAND FREE ENERGY PREDICTED BY IDOCK:   -0.94 KCAL/MOL
REMARK 927      BINDING AFFINITY PREDICTED BY RF-SCORE:    0.00 PKD
ROOT
HETATM    1  C   UNL     1     -10.841  10.709  67.308  1.00  0.00    -0.287 C  
HETATM    2  N   UNL     1     -10.617  10.249  68.666  1.00  0.00    -0.196 NA 
HETATM    3  C   UNL     1      -9.248  10.112  69.149  1.00  0.00    -0.197 C  
ENDROOT
BRANCH   2   4
HETATM    4  N   UNL     1     -11.641  10.529  69.536  1.00  0.00    -0.332 NA 
HETATM    5  H   UNL     1     -12.502  10.997  69.251  1.00  0.00     0.000 HD 
BRANCH   4   6
HETATM    6  N   UNL     1     -11.422  10.158  70.707  1.00  0.00    -0.335 NA 
HETATM    7  H   UNL     1     -10.605  10.469  71.233  1.00  0.00     0.000 HD 
BRANCH   6   8
HETATM    8  C   UNL     1     -12.345   9.313  71.232  1.00  0.00    -0.328 A  
HETATM    9  C   UNL     1     -12.496   7.935  71.217  1.00  0.00    -0.264 A  
HETATM   10  N   UNL     1     -13.647   7.558  71.911  1.00  0.00    -0.512 NA 
HETATM   11  N   UNL     1     -13.440   9.759  71.935  1.00  0.00    -0.406 NA 
HETATM   12  C   UNL     1     -14.180   8.683  72.326  1.00  0.00    -0.417 A  
HETATM   13  H   UNL     1     -13.998   6.613  72.063  1.00  0.00     0.000 HD 
BRANCH   9  14
HETATM   14  C   UNL     1     -11.610   6.958  70.588  1.00  0.00    -0.353 C  
HETATM   15  N   UNL     1     -11.290   7.268  69.295  1.00  0.00    -0.467 N  
HETATM   16  H2  UNL     1     -11.637   8.099  68.817  1.00  0.00     0.000 HD 
HETATM   17  H1  UNL     1     -10.672   6.587  68.856  1.00  0.00     0.000 HD 
HETATM   18  O   UNL     1     -11.174   5.946  71.128  1.00  0.00    -0.276 OA 
ENDBRANCH   9  14
ENDBRANCH   6   8
ENDBRANCH   4   6
ENDBRANCH   2   4
TORSDOF 4
ENDMDL
MODEL       81
REMARK 921   NORMALIZED FREE ENERGY PREDICTED BY IDOCK:   -3.94 KCAL/MOL
REMARK 922        TOTAL FREE ENERGY PREDICTED BY IDOCK:   -5.31 KCAL/MOL
REMARK 923 INTER-LIGAND FREE ENERGY PREDICTED BY IDOCK:   -4.82 KCAL/MOL
REMARK 924 INTRA-LIGAND FREE ENERGY PREDICTED BY IDOCK:   -0.48 KCAL/MOL
REMARK 927      BINDING AFFINITY PREDICTED BY RF-SCORE:    0.00 PKD
ROOT
HETATM    1  C   UNL     1     -10.129  11.748  63.295  1.00  0.00    -0.420 C  
HETATM    2  N   UNL     1     -11.301  12.591  63.450  1.00  0.00    -0.467 NA 
HETATM    3  C   UNL     1     -12.620  11.969  63.471  1.00  0.00    -0.507 C  
ENDROOT
BRANCH   2   4
HETATM    4  N   UNL     1     -11.071  13.765  64.121  1.00  0.00    -0.587 NA 
HETATM    5  H   UNL     1     -11.613  14.615  63.961  1.00  0.00     0.000 HD 
BRANCH   4   6
HETATM    6  N   UNL     1     -10.136  13.699  64.945  1.00  0.00    -0.600 NA 
HETATM    7  H   UNL     1      -9.157  13.677  64.658  1.00  0.00     0.000 HD 
BRANCH   6   8
HETATM    8  C   UNL     1     -10.511  13.658  66.249  1.00  0.00    -0.291 A  
HETATM    9  C   UNL     1      -9.897  13.202  67.404  1.00  0.00    -0.226 A  
HETATM   10  N   UNL     1     -10.732  13.380  68.509  1.00  0.00    -0.257 NA 
HETATM   11  N   UNL     1     -11.741  14.099  66.678  1.00  0.00    -0.384 NA 
HETATM   12  C   UNL     1     -11.825  13.923  68.027  1.00  0.00    -0.375 A  
HETATM   13  H   UNL     1     -10.535  13.141  69.480  1.00  0.00     0.000 HD 
BRANCH   9  14
HETATM   14  C   UNL     1      -8.565  12.612  67.521  1.00  0.00    -0.185 C  
HETATM   15  N   UNL     1      -8.134  12.013  66.371  1.00  0.00    -0.388 N  
HETATM   16  H2  UNL     1      -8.687  11.980  65.515  1.00  0.00     0.000 HD 
HETATM   17  H1  UNL     1      -7.204  11.602  66.452  1.00  0.00     0.000 HD 
HETATM   18  O   UNL     1      -7.870  12.628  68.532  1.00  0.00    -0.137 OA 
ENDBRANCH   9  14
ENDBRANCH   6   8
ENDBRANCH   4   6
ENDBRANCH   2   4
TORSDOF 4
ENDMDL
MODEL       82
REMARK 921   NORMALIZED FREE ENERGY PREDICTED BY IDOCK:   -3.93 KCAL/MOL
REMARK 922        TOTAL FREE ENERGY PREDICTED BY IDOCK:   -5.29 KCAL/MOL
REMARK 923 INTER-LIGAND FREE ENERGY PREDICTED BY IDOCK:   -4.68 KCAL/MOL
REMARK 924 INTRA-LIGAND FREE ENERGY PREDICTED BY IDOCK:   -0.61 KCAL/MOL
REMARK 927      BINDING AFFINITY PREDICTED BY RF-SCORE:    0.00 PKD
ROOT
HETATM    1  C   UNL     1      -8.738  20.090  67.332  1.00  0.00    -0.345 C  
HETATM    2  N   UNL     1     -10.142  19.746  67.197  1.00  0.00    -0.394 NA 
HETATM    3  C   UNL     1     -10.752  19.774  65.873  1.00  0.00    -0.383 C  
ENDROOT
BRANCH   2   4
HETATM    4  N   UNL     1     -10.615  18.899  68.167  1.00  0.00    -0.348 NA 
HETATM    5  H   UNL     1     -11.535  19.001  68.598  1.00  0.00     0.000 HD 
BRANCH   4   6
HETATM    6  N   UNL     1      -9.816  17.992  68.475  1.00  0.00    -0.360 NA 
HETATM    7  H   UNL     1      -8.849  18.182  68.737  1.00  0.00     0.000 HD 
BRANCH   6   8
HETATM    8  C   UNL     1     -10.322  16.733  68.438  1.00  0.00    -0.319 A  
HETATM    9  C   UNL     1     -10.317  15.730  67.482  1.00  0.00    -0.280 A  
HETATM   10  N   UNL     1     -11.005  14.605  67.944  1.00  0.00    -0.269 NA 
HETATM   11  N   UNL     1     -11.043  16.195  69.479  1.00  0.00    -0.327 NA 
HETATM   12  C   UNL     1     -11.420  14.929  69.145  1.00  0.00    -0.302 A  
HETATM   13  H   UNL     1     -11.152  13.724  67.453  1.00  0.00     0.000 HD 
BRANCH   9  14
HETATM   14  C   UNL     1      -9.695  15.775  66.160  1.00  0.00    -0.322 C  
HETATM   15  N   UNL     1      -9.729  14.576  65.503  1.00  0.00    -0.531 N  
HETATM   16  H2  UNL     1     -10.147  13.734  65.897  1.00  0.00     0.000 HD 
HETATM   17  H1  UNL     1      -9.295  14.608  64.581  1.00  0.00     0.000 HD 
HETATM   18  O   UNL     1      -9.180  16.766  65.653  1.00  0.00    -0.503 OA 
ENDBRANCH   9  14
ENDBRANCH   6   8
ENDBRANCH   4   6
ENDBRANCH   2   4
TORSDOF 4
ENDMDL
MODEL       83
REMARK 921   NORMALIZED FREE ENERGY PREDICTED BY IDOCK:   -3.93 KCAL/MOL
REMARK 922        TOTAL FREE ENERGY PREDICTED BY IDOCK:   -5.29 KCAL/MOL
REMARK 923 INTER-LIGAND FREE ENERGY PREDICTED BY IDOCK:   -4.96 KCAL/MOL
REMARK 924 INTRA-LIGAND FREE ENERGY PREDICTED BY IDOCK:   -0.33 KCAL/MOL
REMARK 927      BINDING AFFINITY PREDICTED BY RF-SCORE:    0.00 PKD
ROOT
HETATM    1  C   UNL     1     -12.052  13.061  69.923  1.00  0.00    -0.277 C  
HETATM    2  N   UNL     1     -12.506  14.385  70.312  1.00  0.00    -0.349 NA 
HETATM    3  C   UNL     1     -12.174  14.882  71.642  1.00  0.00    -0.345 C  
ENDROOT
BRANCH   2   4
HETATM    4  N   UNL     1     -12.686  15.253  69.265  1.00  0.00    -0.417 NA 
HETATM    5  H   UNL     1     -13.440  15.940  69.234  1.00  0.00     0.000 HD 
BRANCH   4   6
HETATM    6  N   UNL     1     -11.844  15.125  68.354  1.00  0.00    -0.495 NA 
HETATM    7  H   UNL     1     -11.718  14.249  67.847  1.00  0.00     0.000 HD 
BRANCH   6   8
HETATM    8  C   UNL     1     -11.106  16.232  68.083  1.00  0.00    -0.329 A  
HETATM    9  C   UNL     1     -10.412  16.666  66.965  1.00  0.00    -0.283 A  
HETATM   10  N   UNL     1      -9.796  17.894  67.215  1.00  0.00    -0.298 NA 
HETATM   11  N   UNL     1     -10.880  17.215  69.018  1.00  0.00    -0.218 NA 
HETATM   12  C   UNL     1     -10.105  18.186  68.456  1.00  0.00    -0.400 A  
HETATM   13  H   UNL     1      -9.228  18.445  66.572  1.00  0.00     0.000 HD 
BRANCH   9  14
HETATM   14  C   UNL     1     -10.305  15.988  65.676  1.00  0.00    -0.392 C  
HETATM   15  N   UNL     1      -9.424  14.943  65.683  1.00  0.00    -0.486 N  
HETATM   16  H2  UNL     1      -8.894  14.664  66.508  1.00  0.00     0.000 HD 
HETATM   17  H1  UNL     1      -9.349  14.469  64.784  1.00  0.00     0.000 HD 
HETATM   18  O   UNL     1     -10.923  16.295  64.661  1.00  0.00    -0.674 OA 
ENDBRANCH   9  14
ENDBRANCH   6   8
ENDBRANCH   4   6
ENDBRANCH   2   4
TORSDOF 4
ENDMDL
MODEL       84
REMARK 921   NORMALIZED FREE ENERGY PREDICTED BY IDOCK:   -3.92 KCAL/MOL
REMARK 922        TOTAL FREE ENERGY PREDICTED BY IDOCK:   -5.27 KCAL/MOL
REMARK 923 INTER-LIGAND FREE ENERGY PREDICTED BY IDOCK:   -4.65 KCAL/MOL
REMARK 924 INTRA-LIGAND FREE ENERGY PREDICTED BY IDOCK:   -0.62 KCAL/MOL
REMARK 927      BINDING AFFINITY PREDICTED BY RF-SCORE:    0.00 PKD
ROOT
HETATM    1  C   UNL     1     -10.053  11.282  63.274  1.00  0.00    -0.386 C  
HETATM    2  N   UNL     1     -11.006  12.361  63.466  1.00  0.00    -0.460 NA 
HETATM    3  C   UNL     1     -12.431  12.050  63.478  1.00  0.00    -0.540 C  
ENDROOT
BRANCH   2   4
HETATM    4  N   UNL     1     -10.517  13.431  64.171  1.00  0.00    -0.581 NA 
HETATM    5  H   UNL     1     -10.596  14.396  63.847  1.00  0.00     0.000 HD 
BRANCH   4   6
HETATM    6  N   UNL     1      -9.967  13.117  65.245  1.00  0.00    -0.480 NA 
HETATM    7  H   UNL     1      -9.100  12.580  65.277  1.00  0.00     0.000 HD 
BRANCH   6   8
HETATM    8  C   UNL     1     -10.601  13.537  66.369  1.00  0.00    -0.283 A  
HETATM    9  C   UNL     1     -10.375  14.572  67.263  1.00  0.00    -0.260 A  
HETATM   10  N   UNL     1     -11.331  14.562  68.281  1.00  0.00    -0.282 NA 
HETATM   11  N   UNL     1     -11.703  12.892  66.881  1.00  0.00    -0.366 NA 
HETATM   12  C   UNL     1     -12.107  13.540  68.010  1.00  0.00    -0.262 A  
HETATM   13  H   UNL     1     -11.408  15.210  69.065  1.00  0.00     0.000 HD 
BRANCH   9  14
HETATM   14  C   UNL     1      -9.310  15.571  67.203  1.00  0.00    -0.216 C  
HETATM   15  N   UNL     1      -8.604  15.543  66.033  1.00  0.00    -0.339 N  
HETATM   16  H2  UNL     1      -8.802  14.890  65.276  1.00  0.00     0.000 HD 
HETATM   17  H1  UNL     1      -7.861  16.240  65.991  1.00  0.00     0.000 HD 
HETATM   18  O   UNL     1      -9.039  16.372  68.093  1.00  0.00    -0.195 OA 
ENDBRANCH   9  14
ENDBRANCH   6   8
ENDBRANCH   4   6
ENDBRANCH   2   4
TORSDOF 4
ENDMDL
MODEL       85
REMARK 921   NORMALIZED FREE ENERGY PREDICTED BY IDOCK:   -3.91 KCAL/MOL
REMARK 922        TOTAL FREE ENERGY PREDICTED BY IDOCK:   -5.26 KCAL/MOL
REMARK 923 INTER-LIGAND FREE ENERGY PREDICTED BY IDOCK:   -4.35 KCAL/MOL
REMARK 924 INTRA-LIGAND FREE ENERGY PREDICTED BY IDOCK:   -0.91 KCAL/MOL
REMARK 927      BINDING AFFINITY PREDICTED BY RF-SCORE:    0.00 PKD
ROOT
HETATM    1  C   UNL     1      -8.013  20.162  66.994  1.00  0.00    -0.323 C  
HETATM    2  N   UNL     1      -9.222  19.396  67.236  1.00  0.00    -0.307 NA 
HETATM    3  C   UNL     1     -10.228  19.933  68.145  1.00  0.00    -0.432 C  
ENDROOT
BRANCH   2   4
HETATM    4  N   UNL     1      -9.584  18.565  66.205  1.00  0.00    -0.438 NA 
HETATM    5  H   UNL     1      -9.136  18.587  65.288  1.00  0.00     0.000 HD 
BRANCH   4   6
HETATM    6  N   UNL     1     -10.509  17.780  66.493  1.00  0.00    -0.330 NA 
HETATM    7  H   UNL     1     -11.317  18.068  67.045  1.00  0.00     0.000 HD 
BRANCH   6   8
HETATM    8  C   UNL     1     -10.367  16.515  66.022  1.00  0.00    -0.345 A  
HETATM    9  C   UNL     1      -9.723  15.385  66.500  1.00  0.00    -0.272 A  
HETATM   10  N   UNL     1      -9.871  14.320  65.609  1.00  0.00    -0.481 NA 
HETATM   11  N   UNL     1     -10.892  16.113  64.815  1.00  0.00    -0.669 NA 
HETATM   12  C   UNL     1     -10.580  14.801  64.615  1.00  0.00    -0.206 A  
HETATM   13  H   UNL     1      -9.507  13.373  65.709  1.00  0.00     0.000 HD 
BRANCH   9  14
HETATM   14  C   UNL     1      -8.982  15.256  67.752  1.00  0.00    -0.177 C  
HETATM   15  N   UNL     1      -8.716  16.456  68.352  1.00  0.00    -0.205 N  
HETATM   16  H2  UNL     1      -9.007  17.352  67.963  1.00  0.00     0.000 HD 
HETATM   17  H1  UNL     1      -8.199  16.366  69.226  1.00  0.00     0.000 HD 
HETATM   18  O   UNL     1      -8.612  14.198  68.251  1.00  0.00    -0.162 OA 
ENDBRANCH   9  14
ENDBRANCH   6   8
ENDBRANCH   4   6
ENDBRANCH   2   4
TORSDOF 4
ENDMDL
MODEL       86
REMARK 921   NORMALIZED FREE ENERGY PREDICTED BY IDOCK:   -3.89 KCAL/MOL
REMARK 922        TOTAL FREE ENERGY PREDICTED BY IDOCK:   -5.23 KCAL/MOL
REMARK 923 INTER-LIGAND FREE ENERGY PREDICTED BY IDOCK:   -4.70 KCAL/MOL
REMARK 924 INTRA-LIGAND FREE ENERGY PREDICTED BY IDOCK:   -0.53 KCAL/MOL
REMARK 927      BINDING AFFINITY PREDICTED BY RF-SCORE:    0.00 PKD
ROOT
HETATM    1  C   UNL     1      -7.370  15.626  67.269  1.00  0.00    -0.220 C  
HETATM    2  N   UNL     1      -8.282  16.456  66.502  1.00  0.00    -0.278 NA 
HETATM    3  C   UNL     1      -7.776  17.675  65.883  1.00  0.00    -0.101 C  
ENDROOT
BRANCH   2   4
HETATM    4  N   UNL     1      -9.339  15.777  65.949  1.00  0.00    -0.338 NA 
HETATM    5  H   UNL     1      -9.227  14.925  65.398  1.00  0.00     0.000 HD 
BRANCH   4   6
HETATM    6  N   UNL     1     -10.448  16.298  66.181  1.00  0.00    -0.329 NA 
HETATM    7  H   UNL     1     -10.828  17.051  65.606  1.00  0.00     0.000 HD 
BRANCH   6   8
HETATM    8  C   UNL     1     -11.116  15.795  67.250  1.00  0.00    -0.211 A  
HETATM    9  C   UNL     1     -11.909  14.674  67.439  1.00  0.00    -0.348 A  
HETATM   10  N   UNL     1     -12.378  14.619  68.753  1.00  0.00    -0.588 NA 
HETATM   11  N   UNL     1     -11.132  16.424  68.473  1.00  0.00    -0.356 NA 
HETATM   12  C   UNL     1     -11.886  15.686  69.337  1.00  0.00    -0.375 A  
HETATM   13  H   UNL     1     -12.975  13.905  69.169  1.00  0.00     0.000 HD 
BRANCH   9  14
HETATM   14  C   UNL     1     -12.242  13.652  66.449  1.00  0.00    -0.423 C  
HETATM   15  N   UNL     1     -12.601  14.169  65.235  1.00  0.00    -0.576 N  
HETATM   16  H2  UNL     1     -12.634  15.169  65.041  1.00  0.00     0.000 HD 
HETATM   17  H1  UNL     1     -12.833  13.456  64.544  1.00  0.00     0.000 HD 
HETATM   18  O   UNL     1     -12.217  12.442  66.645  1.00  0.00    -0.562 OA 
ENDBRANCH   9  14
ENDBRANCH   6   8
ENDBRANCH   4   6
ENDBRANCH   2   4
TORSDOF 4
ENDMDL
MODEL       87
REMARK 921   NORMALIZED FREE ENERGY PREDICTED BY IDOCK:   -3.88 KCAL/MOL
REMARK 922        TOTAL FREE ENERGY PREDICTED BY IDOCK:   -5.22 KCAL/MOL
REMARK 923 INTER-LIGAND FREE ENERGY PREDICTED BY IDOCK:   -4.64 KCAL/MOL
REMARK 924 INTRA-LIGAND FREE ENERGY PREDICTED BY IDOCK:   -0.58 KCAL/MOL
REMARK 927      BINDING AFFINITY PREDICTED BY RF-SCORE:    0.00 PKD
ROOT
HETATM    1  C   UNL     1     -10.607   5.718  69.684  1.00  0.00    -0.326 C  
HETATM    2  N   UNL     1     -10.405   6.944  68.934  1.00  0.00    -0.181 NA 
HETATM    3  C   UNL     1      -9.893   6.861  67.571  1.00  0.00    -0.138 C  
ENDROOT
BRANCH   2   4
HETATM    4  N   UNL     1     -11.218   7.982  69.314  1.00  0.00    -0.418 NA 
HETATM    5  H   UNL     1     -12.227   7.984  69.163  1.00  0.00     0.000 HD 
BRANCH   4   6
HETATM    6  N   UNL     1     -10.609   8.924  69.860  1.00  0.00    -0.218 NA 
HETATM    7  H   UNL     1      -9.591   8.955  69.915  1.00  0.00     0.000 HD 
BRANCH   6   8
HETATM    8  C   UNL     1     -11.394   9.903  70.377  1.00  0.00    -0.307 A  
HETATM    9  C   UNL     1     -12.358   9.928  71.371  1.00  0.00    -0.404 A  
HETATM   10  N   UNL     1     -12.889  11.213  71.510  1.00  0.00    -0.440 NA 
HETATM   11  N   UNL     1     -11.367  11.196  69.907  1.00  0.00    -0.279 NA 
HETATM   12  C   UNL     1     -12.264  11.939  70.614  1.00  0.00    -0.331 A  
HETATM   13  H   UNL     1     -13.607  11.519  72.165  1.00  0.00     0.000 HD 
BRANCH   9  14
HETATM   14  C   UNL     1     -12.801   8.808  72.198  1.00  0.00    -0.400 C  
HETATM   15  N   UNL     1     -13.972   9.052  72.860  1.00  0.00    -0.896 N  
HETATM   16  H2  UNL     1     -14.486   9.929  72.784  1.00  0.00     0.000 HD 
HETATM   17  H1  UNL     1     -14.281   8.270  73.438  1.00  0.00     0.000 HD 
HETATM   18  O   UNL     1     -12.210   7.740  72.319  1.00  0.00    -0.302 OA 
ENDBRANCH   9  14
ENDBRANCH   6   8
ENDBRANCH   4   6
ENDBRANCH   2   4
TORSDOF 4
ENDMDL
MODEL       88
REMARK 921   NORMALIZED FREE ENERGY PREDICTED BY IDOCK:   -3.87 KCAL/MOL
REMARK 922        TOTAL FREE ENERGY PREDICTED BY IDOCK:   -5.22 KCAL/MOL
REMARK 923 INTER-LIGAND FREE ENERGY PREDICTED BY IDOCK:   -4.75 KCAL/MOL
REMARK 924 INTRA-LIGAND FREE ENERGY PREDICTED BY IDOCK:   -0.46 KCAL/MOL
REMARK 927      BINDING AFFINITY PREDICTED BY RF-SCORE:    0.00 PKD
ROOT
HETATM    1  C   UNL     1     -10.351  18.653  66.264  1.00  0.00    -0.444 C  
HETATM    2  N   UNL     1      -9.852  18.160  67.535  1.00  0.00    -0.303 NA 
HETATM    3  C   UNL     1      -9.877  19.045  68.694  1.00  0.00    -0.413 C  
ENDROOT
BRANCH   2   4
HETATM    4  N   UNL     1      -9.943  16.800  67.692  1.00  0.00    -0.256 NA 
HETATM    5  H   UNL     1      -9.203  16.156  67.409  1.00  0.00     0.000 HD 
BRANCH   4   6
HETATM    6  N   UNL     1     -11.012  16.423  68.211  1.00  0.00    -0.350 NA 
HETATM    7  H   UNL     1     -11.566  17.028  68.818  1.00  0.00     0.000 HD 
BRANCH   6   8
HETATM    8  C   UNL     1     -11.389  15.154  67.913  1.00  0.00    -0.338 A  
HETATM    9  C   UNL     1     -11.944  14.124  68.655  1.00  0.00    -0.338 A  
HETATM   10  N   UNL     1     -12.131  12.990  67.862  1.00  0.00    -0.272 NA 
HETATM   11  N   UNL     1     -11.228  14.611  66.659  1.00  0.00    -0.342 NA 
HETATM   12  C   UNL     1     -11.691  13.328  66.673  1.00  0.00    -0.377 A  
HETATM   13  H   UNL     1     -12.525  12.093  68.145  1.00  0.00     0.000 HD 
BRANCH   9  14
HETATM   14  C   UNL     1     -12.312  14.155  70.069  1.00  0.00    -0.344 C  
HETATM   15  N   UNL     1     -12.994  15.284  70.428  1.00  0.00    -0.654 N  
HETATM   16  H2  UNL     1     -13.223  16.031  69.773  1.00  0.00     0.000 HD 
HETATM   17  H1  UNL     1     -13.250  15.306  71.415  1.00  0.00     0.000 HD 
HETATM   18  O   UNL     1     -12.052  13.279  70.888  1.00  0.00    -0.321 OA 
ENDBRANCH   9  14
ENDBRANCH   6   8
ENDBRANCH   4   6
ENDBRANCH   2   4
TORSDOF 4
ENDMDL
MODEL       89
REMARK 921   NORMALIZED FREE ENERGY PREDICTED BY IDOCK:   -3.86 KCAL/MOL
REMARK 922        TOTAL FREE ENERGY PREDICTED BY IDOCK:   -5.20 KCAL/MOL
REMARK 923 INTER-LIGAND FREE ENERGY PREDICTED BY IDOCK:   -4.79 KCAL/MOL
REMARK 924 INTRA-LIGAND FREE ENERGY PREDICTED BY IDOCK:   -0.41 KCAL/MOL
REMARK 927      BINDING AFFINITY PREDICTED BY RF-SCORE:    0.00 PKD
ROOT
HETATM    1  C   UNL     1     -10.390  11.135  63.446  1.00  0.00    -0.360 C  
HETATM    2  N   UNL     1     -10.780  12.532  63.519  1.00  0.00    -0.426 NA 
HETATM    3  C   UNL     1     -12.187  12.880  63.362  1.00  0.00    -0.490 C  
ENDROOT
BRANCH   2   4
HETATM    4  N   UNL     1      -9.945  13.316  64.273  1.00  0.00    -0.713 NA 
HETATM    5  H   UNL     1      -8.935  13.354  64.130  1.00  0.00     0.000 HD 
BRANCH   4   6
HETATM    6  N   UNL     1     -10.534  13.980  65.150  1.00  0.00    -0.373 NA 
HETATM    7  H   UNL     1     -11.144  14.765  64.921  1.00  0.00     0.000 HD 
BRANCH   6   8
HETATM    8  C   UNL     1     -10.307  13.587  66.429  1.00  0.00    -0.289 A  
HETATM    9  C   UNL     1     -10.540  14.173  67.663  1.00  0.00    -0.253 A  
HETATM   10  N   UNL     1     -10.099  13.340  68.694  1.00  0.00    -0.372 NA 
HETATM   11  N   UNL     1      -9.699  12.392  66.737  1.00  0.00    -0.218 NA 
HETATM   12  C   UNL     1      -9.605  12.284  68.093  1.00  0.00    -0.213 A  
HETATM   13  H   UNL     1     -10.150  13.516  69.697  1.00  0.00     0.000 HD 
BRANCH   9  14
HETATM   14  C   UNL     1     -11.160  15.471  67.920  1.00  0.00    -0.321 C  
HETATM   15  N   UNL     1     -11.962  15.480  69.027  1.00  0.00    -0.537 N  
HETATM   16  H2  UNL     1     -12.112  14.661  69.615  1.00  0.00     0.000 HD 
HETATM   17  H1  UNL     1     -12.395  16.385  69.206  1.00  0.00     0.000 HD 
HETATM   18  O   UNL     1     -11.006  16.477  67.235  1.00  0.00    -0.225 OA 
ENDBRANCH   9  14
ENDBRANCH   6   8
ENDBRANCH   4   6
ENDBRANCH   2   4
TORSDOF 4
ENDMDL
MODEL       90
REMARK 921   NORMALIZED FREE ENERGY PREDICTED BY IDOCK:   -3.86 KCAL/MOL
REMARK 922        TOTAL FREE ENERGY PREDICTED BY IDOCK:   -5.20 KCAL/MOL
REMARK 923 INTER-LIGAND FREE ENERGY PREDICTED BY IDOCK:   -4.54 KCAL/MOL
REMARK 924 INTRA-LIGAND FREE ENERGY PREDICTED BY IDOCK:   -0.65 KCAL/MOL
REMARK 927      BINDING AFFINITY PREDICTED BY RF-SCORE:    0.00 PKD
ROOT
HETATM    1  C   UNL     1      -8.369   8.057  63.024  1.00  0.00    -0.004 C  
HETATM    2  N   UNL     1      -8.254   9.417  63.520  1.00  0.00    -0.157 NA 
HETATM    3  C   UNL     1      -7.448  10.375  62.774  1.00  0.00    -0.124 C  
ENDROOT
BRANCH   2   4
HETATM    4  N   UNL     1      -9.321   9.838  64.275  1.00  0.00    -0.382 NA 
HETATM    5  H   UNL     1     -10.176   9.292  64.383  1.00  0.00     0.000 HD 
BRANCH   4   6
HETATM    6  N   UNL     1      -9.147  10.948  64.815  1.00  0.00    -0.254 NA 
HETATM    7  H   UNL     1      -8.274  11.469  64.724  1.00  0.00     0.000 HD 
BRANCH   6   8
HETATM    8  C   UNL     1     -10.199  11.417  65.534  1.00  0.00    -0.264 A  
HETATM    9  C   UNL     1     -11.402  12.011  65.188  1.00  0.00    -0.304 A  
HETATM   10  N   UNL     1     -12.142  12.326  66.329  1.00  0.00    -0.620 NA 
HETATM   11  N   UNL     1     -10.221  11.398  66.909  1.00  0.00    -0.213 NA 
HETATM   12  C   UNL     1     -11.397  11.939  67.337  1.00  0.00    -0.324 A  
HETATM   13  H   UNL     1     -13.063  12.762  66.370  1.00  0.00     0.000 HD 
BRANCH   9  14
HETATM   14  C   UNL     1     -11.892  12.291  63.840  1.00  0.00    -0.464 C  
HETATM   15  N   UNL     1     -11.482  11.374  62.912  1.00  0.00    -0.707 N  
HETATM   16  H2  UNL     1     -10.892  10.574  63.139  1.00  0.00     0.000 HD 
HETATM   17  H1  UNL     1     -11.823  11.569  61.971  1.00  0.00     0.000 HD 
HETATM   18  O   UNL     1     -12.599  13.243  63.527  1.00  0.00    -0.728 OA 
ENDBRANCH   9  14
ENDBRANCH   6   8
ENDBRANCH   4   6
ENDBRANCH   2   4
TORSDOF 4
ENDMDL
MODEL       91
REMARK 921   NORMALIZED FREE ENERGY PREDICTED BY IDOCK:   -3.85 KCAL/MOL
REMARK 922        TOTAL FREE ENERGY PREDICTED BY IDOCK:   -5.19 KCAL/MOL
REMARK 923 INTER-LIGAND FREE ENERGY PREDICTED BY IDOCK:   -4.74 KCAL/MOL
REMARK 924 INTRA-LIGAND FREE ENERGY PREDICTED BY IDOCK:   -0.44 KCAL/MOL
REMARK 927      BINDING AFFINITY PREDICTED BY RF-SCORE:    0.00 PKD
ROOT
HETATM    1  C   UNL     1     -10.525   8.988  67.494  1.00  0.00    -0.272 C  
HETATM    2  N   UNL     1     -11.002  10.020  68.398  1.00  0.00    -0.236 NA 
HETATM    3  C   UNL     1     -11.462  11.287  67.842  1.00  0.00    -0.288 C  
ENDROOT
BRANCH   2   4
HETATM    4  N   UNL     1     -11.515   9.547  69.579  1.00  0.00    -0.442 NA 
HETATM    5  H   UNL     1     -12.003  10.139  70.252  1.00  0.00     0.000 HD 
BRANCH   4   6
HETATM    6  N   UNL     1     -11.330   8.326  69.755  1.00  0.00    -0.449 NA 
HETATM    7  H   UNL     1     -11.207   7.676  68.979  1.00  0.00     0.000 HD 
BRANCH   6   8
HETATM    8  C   UNL     1     -11.303   7.921  71.050  1.00  0.00    -0.274 A  
HETATM    9  C   UNL     1     -12.223   7.971  72.085  1.00  0.00    -0.331 A  
HETATM   10  N   UNL     1     -11.685   7.420  73.250  1.00  0.00    -0.472 NA 
HETATM   11  N   UNL     1     -10.192   7.345  71.621  1.00  0.00    -0.188 NA 
HETATM   12  C   UNL     1     -10.467   7.056  72.925  1.00  0.00    -0.254 A  
HETATM   13  H   UNL     1     -12.140   7.322  74.157  1.00  0.00     0.000 HD 
BRANCH   9  14
HETATM   14  C   UNL     1     -13.583   8.504  72.031  1.00  0.00    -0.392 C  
HETATM   15  N   UNL     1     -14.320   8.008  70.992  1.00  0.00    -0.665 N  
HETATM   16  H2  UNL     1     -13.956   7.332  70.321  1.00  0.00     0.000 HD 
HETATM   17  H1  UNL     1     -15.268   8.380  70.954  1.00  0.00     0.000 HD 
HETATM   18  O   UNL     1     -14.055   9.319  72.817  1.00  0.00    -0.481 OA 
ENDBRANCH   9  14
ENDBRANCH   6   8
ENDBRANCH   4   6
ENDBRANCH   2   4
TORSDOF 4
ENDMDL
MODEL       92
REMARK 921   NORMALIZED FREE ENERGY PREDICTED BY IDOCK:   -3.85 KCAL/MOL
REMARK 922        TOTAL FREE ENERGY PREDICTED BY IDOCK:   -5.18 KCAL/MOL
REMARK 923 INTER-LIGAND FREE ENERGY PREDICTED BY IDOCK:   -4.73 KCAL/MOL
REMARK 924 INTRA-LIGAND FREE ENERGY PREDICTED BY IDOCK:   -0.45 KCAL/MOL
REMARK 927      BINDING AFFINITY PREDICTED BY RF-SCORE:    0.00 PKD
ROOT
HETATM    1  C   UNL     1     -10.170  17.748  66.500  1.00  0.00    -0.358 C  
HETATM    2  N   UNL     1      -9.360  16.752  65.821  1.00  0.00    -0.523 NA 
HETATM    3  C   UNL     1      -8.199  16.199  66.509  1.00  0.00    -0.308 C  
ENDROOT
BRANCH   2   4
HETATM    4  N   UNL     1     -10.037  16.012  64.884  1.00  0.00    -0.371 NA 
HETATM    5  H   UNL     1     -10.669  16.426  64.198  1.00  0.00     0.000 HD 
BRANCH   4   6
HETATM    6  N   UNL     1      -9.807  14.788  64.949  1.00  0.00    -0.395 NA 
HETATM    7  H   UNL     1      -8.860  14.412  64.987  1.00  0.00     0.000 HD 
BRANCH   6   8
HETATM    8  C   UNL     1     -10.905  13.990  64.965  1.00  0.00    -0.392 A  
HETATM    9  C   UNL     1     -11.166  12.716  64.486  1.00  0.00    -0.333 A  
HETATM   10  N   UNL     1     -12.487  12.351  64.754  1.00  0.00    -0.512 NA 
HETATM   11  N   UNL     1     -12.102  14.392  65.512  1.00  0.00    -0.372 NA 
HETATM   12  C   UNL     1     -13.009  13.384  65.372  1.00  0.00    -0.173 A  
HETATM   13  H   UNL     1     -12.946  11.471  64.521  1.00  0.00     0.000 HD 
BRANCH   9  14
HETATM   14  C   UNL     1     -10.236  11.826  63.796  1.00  0.00    -0.399 C  
HETATM   15  N   UNL     1     -10.401  10.509  64.122  1.00  0.00    -0.407 N  
HETATM   16  H2  UNL     1     -11.104  10.180  64.782  1.00  0.00     0.000 HD 
HETATM   17  H1  UNL     1      -9.752   9.888  63.640  1.00  0.00     0.000 HD 
HETATM   18  O   UNL     1      -9.375  12.183  62.997  1.00  0.00    -0.188 OA 
ENDBRANCH   9  14
ENDBRANCH   6   8
ENDBRANCH   4   6
ENDBRANCH   2   4
TORSDOF 4
ENDMDL
MODEL       93
REMARK 921   NORMALIZED FREE ENERGY PREDICTED BY IDOCK:   -3.82 KCAL/MOL
REMARK 922        TOTAL FREE ENERGY PREDICTED BY IDOCK:   -5.15 KCAL/MOL
REMARK 923 INTER-LIGAND FREE ENERGY PREDICTED BY IDOCK:   -4.74 KCAL/MOL
REMARK 924 INTRA-LIGAND FREE ENERGY PREDICTED BY IDOCK:   -0.41 KCAL/MOL
REMARK 927      BINDING AFFINITY PREDICTED BY RF-SCORE:    0.00 PKD
ROOT
HETATM    1  C   UNL     1     -12.669  10.466  71.197  1.00  0.00    -0.415 C  
HETATM    2  N   UNL     1     -12.401  11.812  70.725  1.00  0.00    -0.374 NA 
HETATM    3  C   UNL     1     -12.837  12.944  71.534  1.00  0.00    -0.282 C  
ENDROOT
BRANCH   2   4
HETATM    4  N   UNL     1     -11.305  11.919  69.906  1.00  0.00    -0.505 NA 
HETATM    5  H   UNL     1     -10.640  11.158  69.762  1.00  0.00     0.000 HD 
BRANCH   4   6
HETATM    6  N   UNL     1     -11.196  13.032  69.354  1.00  0.00    -0.436 NA 
HETATM    7  H   UNL     1     -11.064  13.893  69.884  1.00  0.00     0.000 HD 
BRANCH   6   8
HETATM    8  C   UNL     1     -11.266  13.018  67.998  1.00  0.00    -0.278 A  
HETATM    9  C   UNL     1     -10.720  13.818  67.006  1.00  0.00    -0.283 A  
HETATM   10  N   UNL     1     -11.120  13.377  65.743  1.00  0.00    -0.282 NA 
HETATM   11  N   UNL     1     -12.018  12.097  67.306  1.00  0.00    -0.578 NA 
HETATM   12  C   UNL     1     -11.895  12.343  65.971  1.00  0.00    -0.395 A  
HETATM   13  H   UNL     1     -10.865  13.773  64.839  1.00  0.00     0.000 HD 
BRANCH   9  14
HETATM   14  C   UNL     1      -9.839  14.969  67.187  1.00  0.00    -0.233 C  
HETATM   15  N   UNL     1      -8.913  15.106  66.191  1.00  0.00    -0.468 N  
HETATM   16  H2  UNL     1      -8.844  14.467  65.400  1.00  0.00     0.000 HD 
HETATM   17  H1  UNL     1      -8.298  15.910  66.317  1.00  0.00     0.000 HD 
HETATM   18  O   UNL     1      -9.889  15.758  68.126  1.00  0.00    -0.208 OA 
ENDBRANCH   9  14
ENDBRANCH   6   8
ENDBRANCH   4   6
ENDBRANCH   2   4
TORSDOF 4
ENDMDL
MODEL       94
REMARK 921   NORMALIZED FREE ENERGY PREDICTED BY IDOCK:   -3.80 KCAL/MOL
REMARK 922        TOTAL FREE ENERGY PREDICTED BY IDOCK:   -5.13 KCAL/MOL
REMARK 923 INTER-LIGAND FREE ENERGY PREDICTED BY IDOCK:   -4.47 KCAL/MOL
REMARK 924 INTRA-LIGAND FREE ENERGY PREDICTED BY IDOCK:   -0.65 KCAL/MOL
REMARK 927      BINDING AFFINITY PREDICTED BY RF-SCORE:    0.00 PKD
ROOT
HETATM    1  C   UNL     1      -9.911  11.229  67.407  1.00  0.00    -0.182 C  
HETATM    2  N   UNL     1     -10.885  12.132  66.821  1.00  0.00    -0.238 NA 
HETATM    3  C   UNL     1     -11.152  12.050  65.390  1.00  0.00    -0.320 C  
ENDROOT
BRANCH   2   4
HETATM    4  N   UNL     1     -11.855  12.563  67.690  1.00  0.00    -0.419 NA 
HETATM    5  H   UNL     1     -12.139  12.033  68.515  1.00  0.00     0.000 HD 
BRANCH   4   6
HETATM    6  N   UNL     1     -12.359  13.661  67.379  1.00  0.00    -0.371 NA 
HETATM    7  H   UNL     1     -13.164  13.735  66.757  1.00  0.00     0.000 HD 
BRANCH   6   8
HETATM    8  C   UNL     1     -11.761  14.751  67.924  1.00  0.00    -0.341 A  
HETATM    9  C   UNL     1     -11.727  15.280  69.204  1.00  0.00    -0.335 A  
HETATM   10  N   UNL     1     -10.964  16.450  69.233  1.00  0.00    -0.322 NA 
HETATM   11  N   UNL     1     -11.018  15.636  67.178  1.00  0.00    -0.304 NA 
HETATM   12  C   UNL     1     -10.558  16.623  67.998  1.00  0.00    -0.338 A  
HETATM   13  H   UNL     1     -10.766  17.041  70.040  1.00  0.00     0.000 HD 
BRANCH   9  14
HETATM   14  C   UNL     1     -12.369  14.739  70.400  1.00  0.00    -0.344 C  
HETATM   15  N   UNL     1     -11.915  13.496  70.745  1.00  0.00    -0.516 N  
HETATM   16  H2  UNL     1     -11.199  12.996  70.219  1.00  0.00     0.000 HD 
HETATM   17  H1  UNL     1     -12.364  13.118  71.579  1.00  0.00     0.000 HD 
HETATM   18  O   UNL     1     -13.235  15.307  71.057  1.00  0.00    -0.444 OA 
ENDBRANCH   9  14
ENDBRANCH   6   8
ENDBRANCH   4   6
ENDBRANCH   2   4
TORSDOF 4
ENDMDL
MODEL       95
REMARK 921   NORMALIZED FREE ENERGY PREDICTED BY IDOCK:   -3.78 KCAL/MOL
REMARK 922        TOTAL FREE ENERGY PREDICTED BY IDOCK:   -5.10 KCAL/MOL
REMARK 923 INTER-LIGAND FREE ENERGY PREDICTED BY IDOCK:   -4.64 KCAL/MOL
REMARK 924 INTRA-LIGAND FREE ENERGY PREDICTED BY IDOCK:   -0.46 KCAL/MOL
REMARK 927      BINDING AFFINITY PREDICTED BY RF-SCORE:    0.00 PKD
ROOT
HETATM    1  C   UNL     1     -11.986  10.120  70.965  1.00  0.00    -0.378 C  
HETATM    2  N   UNL     1     -12.259  11.169  69.999  1.00  0.00    -0.326 NA 
HETATM    3  C   UNL     1     -12.070  12.560  70.395  1.00  0.00    -0.297 C  
ENDROOT
BRANCH   2   4
HETATM    4  N   UNL     1     -12.108  10.788  68.690  1.00  0.00    -0.816 NA 
HETATM    5  H   UNL     1     -12.895  10.657  68.053  1.00  0.00     0.000 HD 
BRANCH   4   6
HETATM    6  N   UNL     1     -10.921  10.616  68.349  1.00  0.00    -0.231 NA 
HETATM    7  H   UNL     1     -10.163  10.544  69.029  1.00  0.00     0.000 HD 
BRANCH   6   8
HETATM    8  C   UNL     1     -10.705  10.532  67.012  1.00  0.00    -0.250 A  
HETATM    9  C   UNL     1     -11.151  11.266  65.925  1.00  0.00    -0.101 A  
HETATM   10  N   UNL     1     -10.634  10.749  64.735  1.00  0.00    -0.270 NA 
HETATM   11  N   UNL     1      -9.922   9.550  66.451  1.00  0.00    -0.256 NA 
HETATM   12  C   UNL     1      -9.902   9.723  65.099  1.00  0.00    -0.224 A  
HETATM   13  H   UNL     1     -10.792  11.094  63.789  1.00  0.00     0.000 HD 
BRANCH   9  14
HETATM   14  C   UNL     1     -12.033  12.431  65.950  1.00  0.00    -0.367 C  
HETATM   15  N   UNL     1     -11.772  13.288  66.983  1.00  0.00    -0.368 N  
HETATM   16  H2  UNL     1     -11.035  13.129  67.668  1.00  0.00     0.000 HD 
HETATM   17  H1  UNL     1     -12.388  14.100  67.001  1.00  0.00     0.000 HD 
HETATM   18  O   UNL     1     -12.932  12.656  65.146  1.00  0.00    -0.754 OA 
ENDBRANCH   9  14
ENDBRANCH   6   8
ENDBRANCH   4   6
ENDBRANCH   2   4
TORSDOF 4
ENDMDL
MODEL       96
REMARK 921   NORMALIZED FREE ENERGY PREDICTED BY IDOCK:   -3.77 KCAL/MOL
REMARK 922        TOTAL FREE ENERGY PREDICTED BY IDOCK:   -5.09 KCAL/MOL
REMARK 923 INTER-LIGAND FREE ENERGY PREDICTED BY IDOCK:   -4.24 KCAL/MOL
REMARK 924 INTRA-LIGAND FREE ENERGY PREDICTED BY IDOCK:   -0.85 KCAL/MOL
REMARK 927      BINDING AFFINITY PREDICTED BY RF-SCORE:    0.00 PKD
ROOT
HETATM    1  C   UNL     1     -10.576   7.679  67.094  1.00  0.00    -0.340 C  
HETATM    2  N   UNL     1     -10.193   8.918  67.747  1.00  0.00    -0.214 NA 
HETATM    3  C   UNL     1      -8.782   9.166  68.018  1.00  0.00    -0.129 C  
ENDROOT
BRANCH   2   4
HETATM    4  N   UNL     1     -11.059   9.961  67.537  1.00  0.00    -0.401 NA 
HETATM    5  H   UNL     1     -12.073   9.853  67.540  1.00  0.00     0.000 HD 
BRANCH   4   6
HETATM    6  N   UNL     1     -10.491  11.055  67.341  1.00  0.00    -0.206 NA 
HETATM    7  H   UNL     1      -9.583  11.279  67.749  1.00  0.00     0.000 HD 
BRANCH   6   8
HETATM    8  C   UNL     1     -11.163  11.926  66.547  1.00  0.00    -0.327 A  
HETATM    9  C   UNL     1     -11.224  12.117  65.176  1.00  0.00    -0.329 A  
HETATM   10  N   UNL     1     -12.073  13.181  64.864  1.00  0.00    -0.378 NA 
HETATM   11  N   UNL     1     -11.979  12.910  67.056  1.00  0.00    -0.392 NA 
HETATM   12  C   UNL     1     -12.505  13.625  66.021  1.00  0.00    -0.426 A  
HETATM   13  H   UNL     1     -12.307  13.537  63.937  1.00  0.00     0.000 HD 
BRANCH   9  14
HETATM   14  C   UNL     1     -10.529  11.347  64.147  1.00  0.00    -0.363 C  
HETATM   15  N   UNL     1     -10.152  10.100  64.564  1.00  0.00    -0.370 N  
HETATM   16  H2  UNL     1     -10.337   9.744  65.501  1.00  0.00     0.000 HD 
HETATM   17  H1  UNL     1      -9.667   9.563  63.846  1.00  0.00     0.000 HD 
HETATM   18  O   UNL     1     -10.286  11.740  63.011  1.00  0.00    -0.366 OA 
ENDBRANCH   9  14
ENDBRANCH   6   8
ENDBRANCH   4   6
ENDBRANCH   2   4
TORSDOF 4
ENDMDL
MODEL       97
REMARK 921   NORMALIZED FREE ENERGY PREDICTED BY IDOCK:   -3.77 KCAL/MOL
REMARK 922        TOTAL FREE ENERGY PREDICTED BY IDOCK:   -5.09 KCAL/MOL
REMARK 923 INTER-LIGAND FREE ENERGY PREDICTED BY IDOCK:   -4.38 KCAL/MOL
REMARK 924 INTRA-LIGAND FREE ENERGY PREDICTED BY IDOCK:   -0.70 KCAL/MOL
REMARK 927      BINDING AFFINITY PREDICTED BY RF-SCORE:    0.00 PKD
ROOT
HETATM    1  C   UNL     1      -6.821  15.656  68.044  1.00  0.00    -0.132 C  
HETATM    2  N   UNL     1      -7.271  14.559  67.206  1.00  0.00    -0.149 NA 
HETATM    3  C   UNL     1      -6.893  13.197  67.564  1.00  0.00    -0.149 C  
ENDROOT
BRANCH   2   4
HETATM    4  N   UNL     1      -8.437  14.805  66.526  1.00  0.00    -0.422 NA 
HETATM    5  H   UNL     1      -8.766  15.746  66.305  1.00  0.00     0.000 HD 
BRANCH   4   6
HETATM    6  N   UNL     1      -9.059  13.774  66.202  1.00  0.00    -0.486 NA 
HETATM    7  H   UNL     1      -8.588  12.884  66.032  1.00  0.00     0.000 HD 
BRANCH   6   8
HETATM    8  C   UNL     1     -10.404  13.915  66.090  1.00  0.00    -0.301 A  
HETATM    9  C   UNL     1     -11.417  14.162  67.003  1.00  0.00    -0.352 A  
HETATM   10  N   UNL     1     -12.657  14.201  66.363  1.00  0.00    -0.516 NA 
HETATM   11  N   UNL     1     -11.062  13.787  64.889  1.00  0.00    -0.344 NA 
HETATM   12  C   UNL     1     -12.397  13.974  65.097  1.00  0.00    -0.453 A  
HETATM   13  H   UNL     1     -13.569  14.369  66.788  1.00  0.00     0.000 HD 
BRANCH   9  14
HETATM   14  C   UNL     1     -11.275  14.368  68.442  1.00  0.00    -0.273 C  
HETATM   15  N   UNL     1     -12.471  14.477  69.096  1.00  0.00    -0.575 N  
HETATM   16  H2  UNL     1     -13.373  14.419  68.624  1.00  0.00     0.000 HD 
HETATM   17  H1  UNL     1     -12.373  14.620  70.100  1.00  0.00     0.000 HD 
HETATM   18  O   UNL     1     -10.210  14.445  69.045  1.00  0.00    -0.230 OA 
ENDBRANCH   9  14
ENDBRANCH   6   8
ENDBRANCH   4   6
ENDBRANCH   2   4
TORSDOF 4
ENDMDL
MODEL       98
REMARK 921   NORMALIZED FREE ENERGY PREDICTED BY IDOCK:   -3.76 KCAL/MOL
REMARK 922        TOTAL FREE ENERGY PREDICTED BY IDOCK:   -5.07 KCAL/MOL
REMARK 923 INTER-LIGAND FREE ENERGY PREDICTED BY IDOCK:   -4.59 KCAL/MOL
REMARK 924 INTRA-LIGAND FREE ENERGY PREDICTED BY IDOCK:   -0.48 KCAL/MOL
REMARK 927      BINDING AFFINITY PREDICTED BY RF-SCORE:    0.00 PKD
ROOT
HETATM    1  C   UNL     1      -8.906   8.442  69.384  1.00  0.00    -0.142 C  
HETATM    2  N   UNL     1     -10.190   8.257  68.732  1.00  0.00    -0.207 NA 
HETATM    3  C   UNL     1     -10.556   6.926  68.260  1.00  0.00    -0.215 C  
ENDROOT
BRANCH   2   4
HETATM    4  N   UNL     1     -11.155   9.154  69.113  1.00  0.00    -0.440 NA 
HETATM    5  H   UNL     1     -11.953   9.397  68.525  1.00  0.00     0.000 HD 
BRANCH   4   6
HETATM    6  N   UNL     1     -10.967   9.646  70.243  1.00  0.00    -0.264 NA 
HETATM    7  H   UNL     1     -10.165  10.241  70.453  1.00  0.00     0.000 HD 
BRANCH   6   8
HETATM    8  C   UNL     1     -11.902   9.335  71.177  1.00  0.00    -0.325 A  
HETATM    9  C   UNL     1     -11.886   8.554  72.321  1.00  0.00    -0.383 A  
HETATM   10  N   UNL     1     -13.141   8.552  72.934  1.00  0.00    -0.701 NA 
HETATM   11  N   UNL     1     -13.198   9.790  71.103  1.00  0.00    -0.364 NA 
HETATM   12  C   UNL     1     -13.895   9.307  72.171  1.00  0.00    -0.413 A  
HETATM   13  H   UNL     1     -13.412   8.068  73.789  1.00  0.00     0.000 HD 
BRANCH   9  14
HETATM   14  C   UNL     1     -10.750   7.815  72.868  1.00  0.00    -0.385 C  
HETATM   15  N   UNL     1     -11.098   6.611  73.414  1.00  0.00    -0.495 N  
HETATM   16  H2  UNL     1     -12.056   6.263  73.437  1.00  0.00     0.000 HD 
HETATM   17  H1  UNL     1     -10.306   6.095  73.795  1.00  0.00     0.000 HD 
HETATM   18  O   UNL     1      -9.586   8.200  72.862  1.00  0.00    -0.257 OA 
ENDBRANCH   9  14
ENDBRANCH   6   8
ENDBRANCH   4   6
ENDBRANCH   2   4
TORSDOF 4
ENDMDL
MODEL       99
REMARK 921   NORMALIZED FREE ENERGY PREDICTED BY IDOCK:   -3.75 KCAL/MOL
REMARK 922        TOTAL FREE ENERGY PREDICTED BY IDOCK:   -5.07 KCAL/MOL
REMARK 923 INTER-LIGAND FREE ENERGY PREDICTED BY IDOCK:   -4.68 KCAL/MOL
REMARK 924 INTRA-LIGAND FREE ENERGY PREDICTED BY IDOCK:   -0.39 KCAL/MOL
REMARK 927      BINDING AFFINITY PREDICTED BY RF-SCORE:    0.00 PKD
ROOT
HETATM    1  C   UNL     1     -12.212  14.466  70.546  1.00  0.00    -0.341 C  
HETATM    2  N   UNL     1     -11.998  13.540  69.448  1.00  0.00    -0.329 NA 
HETATM    3  C   UNL     1     -11.971  14.056  68.084  1.00  0.00    -0.347 C  
ENDROOT
BRANCH   2   4
HETATM    4  N   UNL     1     -11.288  12.415  69.784  1.00  0.00    -0.490 NA 
HETATM    5  H   UNL     1     -10.379  12.188  69.380  1.00  0.00     0.000 HD 
BRANCH   4   6
HETATM    6  N   UNL     1     -11.856  11.696  70.630  1.00  0.00    -0.471 NA 
HETATM    7  H   UNL     1     -12.416  12.085  71.389  1.00  0.00     0.000 HD 
BRANCH   6   8
HETATM    8  C   UNL     1     -11.678  10.359  70.473  1.00  0.00    -0.344 A  
HETATM    9  C   UNL     1     -12.319   9.244  70.987  1.00  0.00    -0.233 A  
HETATM   10  N   UNL     1     -11.726   8.072  70.511  1.00  0.00    -0.459 NA 
HETATM   11  N   UNL     1     -10.675   9.835  69.691  1.00  0.00    -0.229 NA 
HETATM   12  C   UNL     1     -10.747   8.475  69.736  1.00  0.00    -0.213 A  
HETATM   13  H   UNL     1     -11.997   7.112  70.720  1.00  0.00     0.000 HD 
BRANCH   9  14
HETATM   14  C   UNL     1     -13.461   9.225  71.898  1.00  0.00    -0.430 C  
HETATM   15  N   UNL     1     -13.784  10.459  72.390  1.00  0.00    -0.459 N  
HETATM   16  H2  UNL     1     -13.277  11.309  72.145  1.00  0.00     0.000 HD 
HETATM   17  H1  UNL     1     -14.581  10.447  73.025  1.00  0.00     0.000 HD 
HETATM   18  O   UNL     1     -14.095   8.225  72.218  1.00  0.00    -0.339 OA 
ENDBRANCH   9  14
ENDBRANCH   6   8
ENDBRANCH   4   6
ENDBRANCH   2   4
TORSDOF 4
ENDMDL
MODEL      100
REMARK 921   NORMALIZED FREE ENERGY PREDICTED BY IDOCK:   -3.75 KCAL/MOL
REMARK 922        TOTAL FREE ENERGY PREDICTED BY IDOCK:   -5.06 KCAL/MOL
REMARK 923 INTER-LIGAND FREE ENERGY PREDICTED BY IDOCK:   -4.32 KCAL/MOL
REMARK 924 INTRA-LIGAND FREE ENERGY PREDICTED BY IDOCK:   -0.74 KCAL/MOL
REMARK 927      BINDING AFFINITY PREDICTED BY RF-SCORE:    0.00 PKD
ROOT
HETATM    1  C   UNL     1      -8.974   7.380  68.355  1.00  0.00    -0.134 C  
HETATM    2  N   UNL     1     -10.070   8.330  68.277  1.00  0.00    -0.192 NA 
HETATM    3  C   UNL     1     -10.293   9.050  67.029  1.00  0.00    -0.269 C  
ENDROOT
BRANCH   2   4
HETATM    4  N   UNL     1     -11.114   8.063  69.127  1.00  0.00    -0.419 NA 
HETATM    5  H   UNL     1     -12.008   7.688  68.810  1.00  0.00     0.000 HD 
BRANCH   4   6
HETATM    6  N   UNL     1     -10.868   8.322  70.322  1.00  0.00    -0.240 NA 
HETATM    7  H   UNL     1      -9.980   8.078  70.761  1.00  0.00     0.000 HD 
BRANCH   6   8
HETATM    8  C   UNL     1     -11.863   8.949  70.999  1.00  0.00    -0.276 A  
HETATM    9  C   UNL     1     -12.262  10.272  71.101  1.00  0.00    -0.397 A  
HETATM   10  N   UNL     1     -13.359  10.392  71.956  1.00  0.00    -0.498 NA 
HETATM   11  N   UNL     1     -12.733   8.276  71.826  1.00  0.00    -0.325 NA 
HETATM   12  C   UNL     1     -13.608   9.170  72.365  1.00  0.00    -0.483 A  
HETATM   13  H   UNL     1     -13.859  11.244  72.208  1.00  0.00     0.000 HD 
BRANCH   9  14
HETATM   14  C   UNL     1     -11.666  11.426  70.430  1.00  0.00    -0.268 C  
HETATM   15  N   UNL     1     -10.610  11.101  69.626  1.00  0.00    -0.454 N  
HETATM   16  H2  UNL     1     -10.271  10.147  69.505  1.00  0.00     0.000 HD 
HETATM   17  H1  UNL     1     -10.194  11.906  69.158  1.00  0.00     0.000 HD 
HETATM   18  O   UNL     1     -12.043  12.587  70.551  1.00  0.00    -0.365 OA 
ENDBRANCH   9  14
ENDBRANCH   6   8
ENDBRANCH   4   6
ENDBRANCH   2   4
TORSDOF 4
ENDMDL
MODEL      101
REMARK 921   NORMALIZED FREE ENERGY PREDICTED BY IDOCK:   -3.72 KCAL/MOL
REMARK 922        TOTAL FREE ENERGY PREDICTED BY IDOCK:   -5.03 KCAL/MOL
REMARK 923 INTER-LIGAND FREE ENERGY PREDICTED BY IDOCK:   -4.55 KCAL/MOL
REMARK 924 INTRA-LIGAND FREE ENERGY PREDICTED BY IDOCK:   -0.49 KCAL/MOL
REMARK 927      BINDING AFFINITY PREDICTED BY RF-SCORE:    0.00 PKD
ROOT
HETATM    1  C   UNL     1     -11.065  10.684  68.353  1.00  0.00    -0.272 C  
HETATM    2  N   UNL     1     -11.412  12.069  68.086  1.00  0.00    -0.297 NA 
HETATM    3  C   UNL     1     -11.644  12.485  66.708  1.00  0.00    -0.382 C  
ENDROOT
BRANCH   2   4
HETATM    4  N   UNL     1     -12.041  12.706  69.125  1.00  0.00    -0.209 NA 
HETATM    5  H   UNL     1     -12.239  12.255  70.018  1.00  0.00     0.000 HD 
BRANCH   4   6
HETATM    6  N   UNL     1     -12.349  13.889  68.877  1.00  0.00    -0.454 NA 
HETATM    7  H   UNL     1     -12.689  14.184  67.961  1.00  0.00     0.000 HD 
BRANCH   6   8
HETATM    8  C   UNL     1     -12.202  14.759  69.909  1.00  0.00    -0.311 A  
HETATM    9  C   UNL     1     -11.525  15.959  70.056  1.00  0.00    -0.354 A  
HETATM   10  N   UNL     1     -11.683  16.457  71.351  1.00  0.00    -0.649 NA 
HETATM   11  N   UNL     1     -12.755  14.535  71.148  1.00  0.00    -0.316 NA 
HETATM   12  C   UNL     1     -12.429  15.572  71.969  1.00  0.00    -0.398 A  
HETATM   13  H   UNL     1     -11.300  17.321  71.733  1.00  0.00     0.000 HD 
BRANCH   9  14
HETATM   14  C   UNL     1     -10.744  16.661  69.040  1.00  0.00    -0.343 C  
HETATM   15  N   UNL     1     -10.315  15.849  68.028  1.00  0.00    -0.256 N  
HETATM   16  H2  UNL     1     -10.519  14.851  67.986  1.00  0.00     0.000 HD 
HETATM   17  H1  UNL     1      -9.770  16.339  67.319  1.00  0.00     0.000 HD 
HETATM   18  O   UNL     1     -10.475  17.858  69.056  1.00  0.00    -0.306 OA 
ENDBRANCH   9  14
ENDBRANCH   6   8
ENDBRANCH   4   6
ENDBRANCH   2   4
TORSDOF 4
ENDMDL
MODEL      102
REMARK 921   NORMALIZED FREE ENERGY PREDICTED BY IDOCK:   -3.70 KCAL/MOL
REMARK 922        TOTAL FREE ENERGY PREDICTED BY IDOCK:   -5.00 KCAL/MOL
REMARK 923 INTER-LIGAND FREE ENERGY PREDICTED BY IDOCK:   -4.51 KCAL/MOL
REMARK 924 INTRA-LIGAND FREE ENERGY PREDICTED BY IDOCK:   -0.49 KCAL/MOL
REMARK 927      BINDING AFFINITY PREDICTED BY RF-SCORE:    0.00 PKD
ROOT
HETATM    1  C   UNL     1     -10.378   5.361  74.419  1.00  0.00    -0.267 C  
HETATM    2  N   UNL     1      -9.931   6.571  73.751  1.00  0.00    -0.224 NA 
HETATM    3  C   UNL     1      -8.538   6.979  73.886  1.00  0.00    -0.153 C  
ENDROOT
BRANCH   2   4
HETATM    4  N   UNL     1     -10.649   6.897  72.628  1.00  0.00    -0.220 NA 
HETATM    5  H   UNL     1     -10.635   6.336  71.775  1.00  0.00     0.000 HD 
BRANCH   4   6
HETATM    6  N   UNL     1     -11.321   7.941  72.746  1.00  0.00    -0.440 NA 
HETATM    7  H   UNL     1     -11.989   8.077  73.505  1.00  0.00     0.000 HD 
BRANCH   6   8
HETATM    8  C   UNL     1     -11.103   8.884  71.794  1.00  0.00    -0.363 A  
HETATM    9  C   UNL     1     -11.805  10.007  71.385  1.00  0.00    -0.363 A  
HETATM   10  N   UNL     1     -11.143  10.645  70.334  1.00  0.00    -0.440 NA 
HETATM   11  N   UNL     1     -10.014   8.849  70.955  1.00  0.00    -0.232 NA 
HETATM   12  C   UNL     1     -10.074   9.918  70.111  1.00  0.00    -0.255 A  
HETATM   13  H   UNL     1     -11.429  11.492  69.845  1.00  0.00     0.000 HD 
BRANCH   9  14
HETATM   14  C   UNL     1     -13.061  10.511  71.936  1.00  0.00    -0.462 C  
HETATM   15  N   UNL     1     -13.890   9.523  72.390  1.00  0.00    -0.616 N  
HETATM   16  H2  UNL     1     -13.654   8.532  72.348  1.00  0.00     0.000 HD 
HETATM   17  H1  UNL     1     -14.766   9.875  72.774  1.00  0.00     0.000 HD 
HETATM   18  O   UNL     1     -13.381  11.693  72.001  1.00  0.00    -0.481 OA 
ENDBRANCH   9  14
ENDBRANCH   6   8
ENDBRANCH   4   6
ENDBRANCH   2   4
TORSDOF 4
ENDMDL
MODEL      103
REMARK 921   NORMALIZED FREE ENERGY PREDICTED BY IDOCK:   -3.69 KCAL/MOL
REMARK 922        TOTAL FREE ENERGY PREDICTED BY IDOCK:   -4.99 KCAL/MOL
REMARK 923 INTER-LIGAND FREE ENERGY PREDICTED BY IDOCK:   -4.44 KCAL/MOL
REMARK 924 INTRA-LIGAND FREE ENERGY PREDICTED BY IDOCK:   -0.55 KCAL/MOL
REMARK 927      BINDING AFFINITY PREDICTED BY RF-SCORE:    0.00 PKD
ROOT
HETATM    1  C   UNL     1      -9.921  10.688  68.581  1.00  0.00    -0.181 C  
HETATM    2  N   UNL     1     -11.362  10.805  68.716  1.00  0.00    -0.269 NA 
HETATM    3  C   UNL     1     -11.939  10.914  70.051  1.00  0.00    -0.350 C  
ENDROOT
BRANCH   2   4
HETATM    4  N   UNL     1     -11.989  11.370  67.634  1.00  0.00    -0.626 NA 
HETATM    5  H   UNL     1     -12.197  10.854  66.779  1.00  0.00     0.000 HD 
BRANCH   4   6
HETATM    6  N   UNL     1     -12.282  12.572  67.793  1.00  0.00    -0.301 NA 
HETATM    7  H   UNL     1     -12.796  12.905  68.609  1.00  0.00     0.000 HD 
BRANCH   6   8
HETATM    8  C   UNL     1     -11.869  13.407  66.806  1.00  0.00    -0.403 A  
HETATM    9  C   UNL     1     -10.928  14.422  66.746  1.00  0.00    -0.314 A  
HETATM   10  N   UNL     1     -10.899  14.992  65.472  1.00  0.00    -0.331 NA 
HETATM   11  N   UNL     1     -12.421  13.390  65.546  1.00  0.00    -0.476 NA 
HETATM   12  C   UNL     1     -11.808  14.342  64.786  1.00  0.00    -0.429 A  
HETATM   13  H   UNL     1     -10.301  15.751  65.145  1.00  0.00     0.000 HD 
BRANCH   9  14
HETATM   14  C   UNL     1     -10.052  14.877  67.823  1.00  0.00    -0.234 C  
HETATM   15  N   UNL     1     -10.317  14.284  69.026  1.00  0.00    -0.342 N  
HETATM   16  H2  UNL     1     -11.054  13.592  69.158  1.00  0.00     0.000 HD 
HETATM   17  H1  UNL     1      -9.706  14.601  69.778  1.00  0.00     0.000 HD 
HETATM   18  O   UNL     1      -9.157  15.708  67.705  1.00  0.00    -0.180 OA 
ENDBRANCH   9  14
ENDBRANCH   6   8
ENDBRANCH   4   6
ENDBRANCH   2   4
TORSDOF 4
ENDMDL
MODEL      104
REMARK 921   NORMALIZED FREE ENERGY PREDICTED BY IDOCK:   -3.67 KCAL/MOL
REMARK 922        TOTAL FREE ENERGY PREDICTED BY IDOCK:   -4.97 KCAL/MOL
REMARK 923 INTER-LIGAND FREE ENERGY PREDICTED BY IDOCK:   -4.83 KCAL/MOL
REMARK 924 INTRA-LIGAND FREE ENERGY PREDICTED BY IDOCK:   -0.14 KCAL/MOL
REMARK 927      BINDING AFFINITY PREDICTED BY RF-SCORE:    0.00 PKD
ROOT
HETATM    1  C   UNL     1     -10.955  16.374  70.088  1.00  0.00    -0.285 C  
HETATM    2  N   UNL     1     -11.103  15.239  69.194  1.00  0.00    -0.247 NA 
HETATM    3  C   UNL     1      -9.907  14.633  68.621  1.00  0.00    -0.224 C  
ENDROOT
BRANCH   2   4
HETATM    4  N   UNL     1     -12.233  14.491  69.408  1.00  0.00    -0.497 NA 
HETATM    5  H   UNL     1     -13.154  14.904  69.560  1.00  0.00     0.000 HD 
BRANCH   4   6
HETATM    6  N   UNL     1     -12.031  13.261  69.401  1.00  0.00    -0.313 NA 
HETATM    7  H   UNL     1     -11.528  12.795  68.644  1.00  0.00     0.000 HD 
BRANCH   6   8
HETATM    8  C   UNL     1     -12.525  12.582  70.467  1.00  0.00    -0.185 A  
HETATM    9  C   UNL     1     -13.179  12.970  71.625  1.00  0.00    -0.336 A  
HETATM   10  N   UNL     1     -13.469  11.861  72.423  1.00  0.00    -0.510 NA 
HETATM   11  N   UNL     1     -12.410  11.217  70.592  1.00  0.00    -0.373 NA 
HETATM   12  C   UNL     1     -12.992  10.832  71.763  1.00  0.00    -0.463 A  
HETATM   13  H   UNL     1     -13.948  11.853  73.323  1.00  0.00     0.000 HD 
BRANCH   9  14
HETATM   14  C   UNL     1     -13.550  14.329  72.016  1.00  0.00    -0.430 C  
HETATM   15  N   UNL     1     -12.875  14.781  73.115  1.00  0.00    -0.494 N  
HETATM   16  H2  UNL     1     -12.181  14.225  73.613  1.00  0.00     0.000 HD 
HETATM   17  H1  UNL     1     -13.133  15.729  73.387  1.00  0.00     0.000 HD 
HETATM   18  O   UNL     1     -14.380  15.028  71.444  1.00  0.00    -0.476 OA 
ENDBRANCH   9  14
ENDBRANCH   6   8
ENDBRANCH   4   6
ENDBRANCH   2   4
TORSDOF 4
ENDMDL
MODEL      105
REMARK 921   NORMALIZED FREE ENERGY PREDICTED BY IDOCK:   -3.67 KCAL/MOL
REMARK 922        TOTAL FREE ENERGY PREDICTED BY IDOCK:   -4.96 KCAL/MOL
REMARK 923 INTER-LIGAND FREE ENERGY PREDICTED BY IDOCK:   -4.30 KCAL/MOL
REMARK 924 INTRA-LIGAND FREE ENERGY PREDICTED BY IDOCK:   -0.67 KCAL/MOL
REMARK 927      BINDING AFFINITY PREDICTED BY RF-SCORE:    0.00 PKD
ROOT
HETATM    1  C   UNL     1      -8.469   6.816  72.603  1.00  0.00    -0.121 C  
HETATM    2  N   UNL     1      -9.371   6.784  71.467  1.00  0.00    -0.153 NA 
HETATM    3  C   UNL     1     -10.316   5.680  71.346  1.00  0.00    -0.228 C  
ENDROOT
BRANCH   2   4
HETATM    4  N   UNL     1      -9.665   8.017  70.940  1.00  0.00    -0.164 NA 
HETATM    5  H   UNL     1      -9.515   8.255  69.959  1.00  0.00     0.000 HD 
BRANCH   4   6
HETATM    6  N   UNL     1     -10.134   8.820  71.772  1.00  0.00    -0.306 NA 
HETATM    7  H   UNL     1      -9.567   9.229  72.514  1.00  0.00     0.000 HD 
BRANCH   6   8
HETATM    8  C   UNL     1     -11.451   9.112  71.621  1.00  0.00    -0.381 A  
HETATM    9  C   UNL     1     -12.160   9.888  70.718  1.00  0.00    -0.308 A  
HETATM   10  N   UNL     1     -13.524   9.867  71.015  1.00  0.00    -0.497 NA 
HETATM   11  N   UNL     1     -12.416   8.637  72.480  1.00  0.00    -0.366 NA 
HETATM   12  C   UNL     1     -13.631   9.104  72.076  1.00  0.00    -0.459 A  
HETATM   13  H   UNL     1     -14.275  10.343  70.515  1.00  0.00     0.000 HD 
BRANCH   9  14
HETATM   14  C   UNL     1     -11.619  10.643  69.590  1.00  0.00    -0.296 C  
HETATM   15  N   UNL     1     -10.283  10.908  69.704  1.00  0.00    -0.445 N  
HETATM   16  H2  UNL     1      -9.719  10.609  70.500  1.00  0.00     0.000 HD 
HETATM   17  H1  UNL     1      -9.905  11.434  68.917  1.00  0.00     0.000 HD 
HETATM   18  O   UNL     1     -12.264  11.022  68.617  1.00  0.00    -0.571 OA 
ENDBRANCH   9  14
ENDBRANCH   6   8
ENDBRANCH   4   6
ENDBRANCH   2   4
TORSDOF 4
ENDMDL
MODEL      106
REMARK 921   NORMALIZED FREE ENERGY PREDICTED BY IDOCK:   -3.67 KCAL/MOL
REMARK 922        TOTAL FREE ENERGY PREDICTED BY IDOCK:   -4.96 KCAL/MOL
REMARK 923 INTER-LIGAND FREE ENERGY PREDICTED BY IDOCK:   -4.34 KCAL/MOL
REMARK 924 INTRA-LIGAND FREE ENERGY PREDICTED BY IDOCK:   -0.62 KCAL/MOL
REMARK 927      BINDING AFFINITY PREDICTED BY RF-SCORE:    0.00 PKD
ROOT
HETATM    1  C   UNL     1     -10.315   9.570  67.001  1.00  0.00    -0.250 C  
HETATM    2  N   UNL     1      -9.823   9.652  68.365  1.00  0.00    -0.150 NA 
HETATM    3  C   UNL     1      -8.402   9.437  68.616  1.00  0.00    -0.117 C  
ENDROOT
BRANCH   2   4
HETATM    4  N   UNL     1     -10.565  10.460  69.189  1.00  0.00    -0.213 NA 
HETATM    5  H   UNL     1     -11.165  11.209  68.843  1.00  0.00     0.000 HD 
BRANCH   4   6
HETATM    6  N   UNL     1     -10.437  10.195  70.401  1.00  0.00    -0.412 NA 
HETATM    7  H   UNL     1      -9.525  10.144  70.855  1.00  0.00     0.000 HD 
BRANCH   6   8
HETATM    8  C   UNL     1     -11.595   9.979  71.075  1.00  0.00    -0.393 A  
HETATM    9  C   UNL     1     -12.598  10.813  71.542  1.00  0.00    -0.395 A  
HETATM   10  N   UNL     1     -13.586  10.076  72.197  1.00  0.00    -0.511 NA 
HETATM   11  N   UNL     1     -11.990   8.725  71.480  1.00  0.00    -0.305 NA 
HETATM   12  C   UNL     1     -13.182   8.830  72.134  1.00  0.00    -0.414 A  
HETATM   13  H   UNL     1     -14.438  10.430  72.632  1.00  0.00     0.000 HD 
BRANCH   9  14
HETATM   14  C   UNL     1     -12.676  12.265  71.396  1.00  0.00    -0.248 C  
HETATM   15  N   UNL     1     -13.523  12.856  72.292  1.00  0.00    -0.576 N  
HETATM   16  H2  UNL     1     -14.049  12.334  72.992  1.00  0.00     0.000 HD 
HETATM   17  H1  UNL     1     -13.577  13.869  72.190  1.00  0.00     0.000 HD 
HETATM   18  O   UNL     1     -12.061  12.927  70.566  1.00  0.00    -0.356 OA 
ENDBRANCH   9  14
ENDBRANCH   6   8
ENDBRANCH   4   6
ENDBRANCH   2   4
TORSDOF 4
ENDMDL
MODEL      107
REMARK 921   NORMALIZED FREE ENERGY PREDICTED BY IDOCK:   -3.66 KCAL/MOL
REMARK 922        TOTAL FREE ENERGY PREDICTED BY IDOCK:   -4.96 KCAL/MOL
REMARK 923 INTER-LIGAND FREE ENERGY PREDICTED BY IDOCK:   -4.48 KCAL/MOL
REMARK 924 INTRA-LIGAND FREE ENERGY PREDICTED BY IDOCK:   -0.48 KCAL/MOL
REMARK 927      BINDING AFFINITY PREDICTED BY RF-SCORE:    0.00 PKD
ROOT
HETATM    1  C   UNL     1     -10.719   9.356  70.224  1.00  0.00    -0.253 C  
HETATM    2  N   UNL     1     -11.690  10.249  69.618  1.00  0.00    -0.200 NA 
HETATM    3  C   UNL     1     -12.260  11.322  70.424  1.00  0.00    -0.365 C  
ENDROOT
BRANCH   2   4
HETATM    4  N   UNL     1     -11.566  10.385  68.258  1.00  0.00    -0.682 NA 
HETATM    5  H   UNL     1     -11.898   9.683  67.595  1.00  0.00     0.000 HD 
BRANCH   4   6
HETATM    6  N   UNL     1     -11.011  11.445  67.907  1.00  0.00    -0.222 NA 
HETATM    7  H   UNL     1     -10.370  11.953  68.518  1.00  0.00     0.000 HD 
BRANCH   6   8
HETATM    8  C   UNL     1     -11.316  11.876  66.657  1.00  0.00    -0.337 A  
HETATM    9  C   UNL     1     -10.909  11.494  65.389  1.00  0.00    -0.259 A  
HETATM   10  N   UNL     1     -11.524  12.284  64.416  1.00  0.00    -0.336 NA 
HETATM   11  N   UNL     1     -12.176  12.926  66.428  1.00  0.00    -0.482 NA 
HETATM   12  C   UNL     1     -12.276  13.126  65.084  1.00  0.00    -0.450 A  
HETATM   13  H   UNL     1     -11.412  12.220  63.404  1.00  0.00     0.000 HD 
BRANCH   9  14
HETATM   14  C   UNL     1      -9.977  10.422  65.049  1.00  0.00    -0.330 C  
HETATM   15  N   UNL     1     -10.115   9.969  63.766  1.00  0.00    -0.417 N  
HETATM   16  H2  UNL     1     -10.801  10.343  63.112  1.00  0.00     0.000 HD 
HETATM   17  H1  UNL     1      -9.464   9.221  63.528  1.00  0.00     0.000 HD 
HETATM   18  O   UNL     1      -9.139   9.944  65.808  1.00  0.00    -0.150 OA 
ENDBRANCH   9  14
ENDBRANCH   6   8
ENDBRANCH   4   6
ENDBRANCH   2   4
TORSDOF 4
ENDMDL
MODEL      108
REMARK 921   NORMALIZED FREE ENERGY PREDICTED BY IDOCK:   -3.66 KCAL/MOL
REMARK 922        TOTAL FREE ENERGY PREDICTED BY IDOCK:   -4.96 KCAL/MOL
REMARK 923 INTER-LIGAND FREE ENERGY PREDICTED BY IDOCK:   -4.07 KCAL/MOL
REMARK 924 INTRA-LIGAND FREE ENERGY PREDICTED BY IDOCK:   -0.88 KCAL/MOL
REMARK 927      BINDING AFFINITY PREDICTED BY RF-SCORE:    0.00 PKD
ROOT
HETATM    1  C   UNL     1     -11.909  15.063  68.548  1.00  0.00    -0.291 C  
HETATM    2  N   UNL     1     -11.194  15.763  69.600  1.00  0.00    -0.292 NA 
HETATM    3  C   UNL     1     -11.735  15.748  70.953  1.00  0.00    -0.406 C  
ENDROOT
BRANCH   2   4
HETATM    4  N   UNL     1      -9.842  15.877  69.388  1.00  0.00    -0.268 NA 
HETATM    5  H   UNL     1      -9.215  16.354  70.037  1.00  0.00     0.000 HD 
BRANCH   4   6
HETATM    6  N   UNL     1      -9.452  15.345  68.330  1.00  0.00    -0.198 NA 
HETATM    7  H   UNL     1      -9.742  14.407  68.052  1.00  0.00     0.000 HD 
BRANCH   6   8
HETATM    8  C   UNL     1      -8.615  16.098  67.573  1.00  0.00    -0.177 A  
HETATM    9  C   UNL     1      -8.791  17.230  66.793  1.00  0.00    -0.247 A  
HETATM   10  N   UNL     1      -7.586  17.610  66.198  1.00  0.00    -0.415 NA 
HETATM   11  N   UNL     1      -7.282  15.793  67.420  1.00  0.00    -0.184 NA 
HETATM   12  C   UNL     1      -6.710  16.722  66.603  1.00  0.00    -0.206 A  
HETATM   13  H   UNL     1      -7.424  18.406  65.581  1.00  0.00     0.000 HD 
BRANCH   9  14
HETATM   14  C   UNL     1     -10.032  17.973  66.585  1.00  0.00    -0.362 C  
HETATM   15  N   UNL     1     -10.621  18.383  67.749  1.00  0.00    -0.411 N  
HETATM   16  H2  UNL     1     -10.232  18.189  68.671  1.00  0.00     0.000 HD 
HETATM   17  H1  UNL     1     -11.487  18.901  67.604  1.00  0.00     0.000 HD 
HETATM   18  O   UNL     1     -10.533  18.224  65.494  1.00  0.00    -0.616 OA 
ENDBRANCH   9  14
ENDBRANCH   6   8
ENDBRANCH   4   6
ENDBRANCH   2   4
TORSDOF 4
ENDMDL
MODEL      109
REMARK 921   NORMALIZED FREE ENERGY PREDICTED BY IDOCK:   -3.65 KCAL/MOL
REMARK 922        TOTAL FREE ENERGY PREDICTED BY IDOCK:   -4.94 KCAL/MOL
REMARK 923 INTER-LIGAND FREE ENERGY PREDICTED BY IDOCK:   -4.37 KCAL/MOL
REMARK 924 INTRA-LIGAND FREE ENERGY PREDICTED BY IDOCK:   -0.57 KCAL/MOL
REMARK 927      BINDING AFFINITY PREDICTED BY RF-SCORE:    0.00 PKD
ROOT
HETATM    1  C   UNL     1      -7.050  14.121  68.327  1.00  0.00    -0.112 C  
HETATM    2  N   UNL     1      -8.111  14.927  68.904  1.00  0.00    -0.158 NA 
HETATM    3  C   UNL     1      -8.088  16.371  68.706  1.00  0.00    -0.234 C  
ENDROOT
BRANCH   2   4
HETATM    4  N   UNL     1      -9.300  14.263  69.073  1.00  0.00    -0.396 NA 
HETATM    5  H   UNL     1      -9.370  13.350  69.524  1.00  0.00     0.000 HD 
BRANCH   4   6
HETATM    6  N   UNL     1     -10.288  14.878  68.624  1.00  0.00    -0.231 NA 
HETATM    7  H   UNL     1     -10.560  15.798  68.970  1.00  0.00     0.000 HD 
BRANCH   6   8
HETATM    8  C   UNL     1     -10.976  14.239  67.644  1.00  0.00    -0.277 A  
HETATM    9  C   UNL     1     -11.665  13.037  67.589  1.00  0.00    -0.366 A  
HETATM   10  N   UNL     1     -12.194  12.831  66.313  1.00  0.00    -0.538 NA 
HETATM   11  N   UNL     1     -11.086  14.744  66.369  1.00  0.00    -0.336 NA 
HETATM   12  C   UNL     1     -11.825  13.880  65.617  1.00  0.00    -0.371 A  
HETATM   13  H   UNL     1     -12.748  12.037  65.993  1.00  0.00     0.000 HD 
BRANCH   9  14
HETATM   14  C   UNL     1     -11.853  12.079  68.676  1.00  0.00    -0.311 C  
HETATM   15  N   UNL     1     -11.611  12.606  69.913  1.00  0.00    -0.511 N  
HETATM   16  H2  UNL     1     -11.326  13.573  70.063  1.00  0.00     0.000 HD 
HETATM   17  H1  UNL     1     -11.742  11.937  70.672  1.00  0.00     0.000 HD 
HETATM   18  O   UNL     1     -12.192  10.908  68.536  1.00  0.00    -0.535 OA 
ENDBRANCH   9  14
ENDBRANCH   6   8
ENDBRANCH   4   6
ENDBRANCH   2   4
TORSDOF 4
ENDMDL
MODEL      110
REMARK 921   NORMALIZED FREE ENERGY PREDICTED BY IDOCK:   -3.63 KCAL/MOL
REMARK 922        TOTAL FREE ENERGY PREDICTED BY IDOCK:   -4.92 KCAL/MOL
REMARK 923 INTER-LIGAND FREE ENERGY PREDICTED BY IDOCK:   -4.25 KCAL/MOL
REMARK 924 INTRA-LIGAND FREE ENERGY PREDICTED BY IDOCK:   -0.66 KCAL/MOL
REMARK 927      BINDING AFFINITY PREDICTED BY RF-SCORE:    0.00 PKD
ROOT
HETATM    1  C   UNL     1     -12.767  10.315  71.198  1.00  0.00    -0.403 C  
HETATM    2  N   UNL     1     -12.514  11.589  70.549  1.00  0.00    -0.305 NA 
HETATM    3  C   UNL     1     -12.561  12.809  71.347  1.00  0.00    -0.207 C  
ENDROOT
BRANCH   2   4
HETATM    4  N   UNL     1     -11.714  11.510  69.437  1.00  0.00    -0.315 NA 
HETATM    5  H   UNL     1     -11.913  10.892  68.650  1.00  0.00     0.000 HD 
BRANCH   4   6
HETATM    6  N   UNL     1     -10.720  12.263  69.478  1.00  0.00    -0.433 NA 
HETATM    7  H   UNL     1     -10.412  12.712  70.341  1.00  0.00     0.000 HD 
BRANCH   6   8
HETATM    8  C   UNL     1     -10.077  12.443  68.297  1.00  0.00    -0.227 A  
HETATM    9  C   UNL     1     -10.391  13.129  67.134  1.00  0.00    -0.247 A  
HETATM   10  N   UNL     1      -9.374  12.986  66.188  1.00  0.00    -0.453 NA 
HETATM   11  N   UNL     1      -8.857  11.868  68.024  1.00  0.00    -0.170 NA 
HETATM   12  C   UNL     1      -8.475  12.225  66.765  1.00  0.00    -0.119 A  
HETATM   13  H   UNL     1      -9.338  13.387  65.251  1.00  0.00     0.000 HD 
BRANCH   9  14
HETATM   14  C   UNL     1     -11.595  13.915  66.872  1.00  0.00    -0.378 C  
HETATM   15  N   UNL     1     -12.221  14.345  68.009  1.00  0.00    -0.609 N  
HETATM   16  H2  UNL     1     -11.881  14.136  68.947  1.00  0.00     0.000 HD 
HETATM   17  H1  UNL     1     -13.061  14.893  67.827  1.00  0.00     0.000 HD 
HETATM   18  O   UNL     1     -12.036  14.185  65.760  1.00  0.00    -0.386 OA 
ENDBRANCH   9  14
ENDBRANCH   6   8
ENDBRANCH   4   6
ENDBRANCH   2   4
TORSDOF 4
ENDMDL
MODEL      111
REMARK 921   NORMALIZED FREE ENERGY PREDICTED BY IDOCK:   -3.60 KCAL/MOL
REMARK 922        TOTAL FREE ENERGY PREDICTED BY IDOCK:   -4.88 KCAL/MOL
REMARK 923 INTER-LIGAND FREE ENERGY PREDICTED BY IDOCK:   -4.49 KCAL/MOL
REMARK 924 INTRA-LIGAND FREE ENERGY PREDICTED BY IDOCK:   -0.39 KCAL/MOL
REMARK 927      BINDING AFFINITY PREDICTED BY RF-SCORE:    0.00 PKD
ROOT
HETATM    1  C   UNL     1     -11.874  12.557  69.536  1.00  0.00    -0.310 C  
HETATM    2  N   UNL     1     -12.155  13.616  68.583  1.00  0.00    -0.349 NA 
HETATM    3  C   UNL     1     -11.932  15.001  68.980  1.00  0.00    -0.264 C  
ENDROOT
BRANCH   2   4
HETATM    4  N   UNL     1     -12.047  13.239  67.268  1.00  0.00    -0.333 NA 
HETATM    5  H   UNL     1     -12.793  13.376  66.585  1.00  0.00     0.000 HD 
BRANCH   4   6
HETATM    6  N   UNL     1     -10.952  12.713  66.984  1.00  0.00    -0.257 NA 
HETATM    7  H   UNL     1     -10.842  11.704  66.881  1.00  0.00     0.000 HD 
BRANCH   6   8
HETATM    8  C   UNL     1      -9.916  13.576  66.822  1.00  0.00    -0.269 A  
HETATM    9  C   UNL     1      -9.691  14.649  65.974  1.00  0.00    -0.312 A  
HETATM   10  N   UNL     1      -8.432  15.204  66.207  1.00  0.00    -0.385 NA 
HETATM   11  N   UNL     1      -8.757  13.485  67.558  1.00  0.00    -0.195 NA 
HETATM   12  C   UNL     1      -7.909  14.477  67.165  1.00  0.00    -0.101 A  
HETATM   13  H   UNL     1      -8.010  16.003  65.734  1.00  0.00     0.000 HD 
BRANCH   9  14
HETATM   14  C   UNL     1     -10.603  15.179  64.963  1.00  0.00    -0.413 C  
HETATM   15  N   UNL     1     -11.261  14.207  64.262  1.00  0.00    -0.604 N  
HETATM   16  H2  UNL     1     -11.128  13.210  64.428  1.00  0.00     0.000 HD 
HETATM   17  H1  UNL     1     -11.897  14.577  63.556  1.00  0.00     0.000 HD 
HETATM   18  O   UNL     1     -10.787  16.370  64.731  1.00  0.00    -0.697 OA 
ENDBRANCH   9  14
ENDBRANCH   6   8
ENDBRANCH   4   6
ENDBRANCH   2   4
TORSDOF 4
ENDMDL
MODEL      112
REMARK 921   NORMALIZED FREE ENERGY PREDICTED BY IDOCK:   -3.60 KCAL/MOL
REMARK 922        TOTAL FREE ENERGY PREDICTED BY IDOCK:   -4.88 KCAL/MOL
REMARK 923 INTER-LIGAND FREE ENERGY PREDICTED BY IDOCK:   -4.26 KCAL/MOL
REMARK 924 INTRA-LIGAND FREE ENERGY PREDICTED BY IDOCK:   -0.62 KCAL/MOL
REMARK 927      BINDING AFFINITY PREDICTED BY RF-SCORE:    0.00 PKD
ROOT
HETATM    1  C   UNL     1     -10.481   8.172  67.536  1.00  0.00    -0.256 C  
HETATM    2  N   UNL     1     -10.792   6.780  67.811  1.00  0.00    -0.260 NA 
HETATM    3  C   UNL     1     -10.423   5.768  66.829  1.00  0.00    -0.287 C  
ENDROOT
BRANCH   2   4
HETATM    4  N   UNL     1     -10.864   6.467  69.145  1.00  0.00    -0.272 NA 
HETATM    5  H   UNL     1     -10.074   6.098  69.675  1.00  0.00     0.000 HD 
BRANCH   4   6
HETATM    6  N   UNL     1     -11.985   6.676  69.650  1.00  0.00    -0.590 NA 
HETATM    7  H   UNL     1     -12.853   6.432  69.173  1.00  0.00     0.000 HD 
BRANCH   6   8
HETATM    8  C   UNL     1     -11.972   7.252  70.879  1.00  0.00    -0.305 A  
HETATM    9  C   UNL     1     -11.593   6.809  72.137  1.00  0.00    -0.288 A  
HETATM   10  N   UNL     1     -11.794   7.808  73.092  1.00  0.00    -0.634 NA 
HETATM   11  N   UNL     1     -12.423   8.533  71.100  1.00  0.00    -0.232 NA 
HETATM   12  C   UNL     1     -12.290   8.823  72.425  1.00  0.00    -0.344 A  
HETATM   13  H   UNL     1     -11.597   7.758  74.091  1.00  0.00     0.000 HD 
BRANCH   9  14
HETATM   14  C   UNL     1     -11.048   5.498  72.482  1.00  0.00    -0.270 C  
HETATM   15  N   UNL     1     -11.126   5.212  73.817  1.00  0.00    -0.409 N  
HETATM   16  H2  UNL     1     -11.525   5.851  74.503  1.00  0.00     0.000 HD 
HETATM   17  H1  UNL     1     -10.745   4.298  74.058  1.00  0.00     0.000 HD 
HETATM   18  O   UNL     1     -10.557   4.703  71.687  1.00  0.00    -0.110 OA 
ENDBRANCH   9  14
ENDBRANCH   6   8
ENDBRANCH   4   6
ENDBRANCH   2   4
TORSDOF 4
ENDMDL
MODEL      113
REMARK 921   NORMALIZED FREE ENERGY PREDICTED BY IDOCK:   -3.59 KCAL/MOL
REMARK 922        TOTAL FREE ENERGY PREDICTED BY IDOCK:   -4.87 KCAL/MOL
REMARK 923 INTER-LIGAND FREE ENERGY PREDICTED BY IDOCK:   -4.37 KCAL/MOL
REMARK 924 INTRA-LIGAND FREE ENERGY PREDICTED BY IDOCK:   -0.50 KCAL/MOL
REMARK 927      BINDING AFFINITY PREDICTED BY RF-SCORE:    0.00 PKD
ROOT
HETATM    1  C   UNL     1      -6.738  16.703  68.892  1.00  0.00    -0.184 C  
HETATM    2  N   UNL     1      -7.065  16.371  67.517  1.00  0.00    -0.130 NA 
HETATM    3  C   UNL     1      -7.949  15.242  67.254  1.00  0.00    -0.202 C  
ENDROOT
BRANCH   2   4
HETATM    4  N   UNL     1      -7.008  17.432  66.648  1.00  0.00    -0.207 NA 
HETATM    5  H   UNL     1      -6.197  18.047  66.571  1.00  0.00     0.000 HD 
BRANCH   4   6
HETATM    6  N   UNL     1      -8.040  17.575  65.961  1.00  0.00    -0.528 NA 
HETATM    7  H   UNL     1      -8.242  16.988  65.152  1.00  0.00     0.000 HD 
BRANCH   6   8
HETATM    8  C   UNL     1      -8.875  18.567  66.364  1.00  0.00    -0.256 A  
HETATM    9  C   UNL     1      -8.690  19.906  66.669  1.00  0.00    -0.349 A  
HETATM   10  N   UNL     1      -9.896  20.494  67.053  1.00  0.00    -0.551 NA 
HETATM   11  N   UNL     1     -10.215  18.356  66.591  1.00  0.00    -0.373 NA 
HETATM   12  C   UNL     1     -10.783  19.530  66.989  1.00  0.00    -0.477 A  
HETATM   13  H   UNL     1     -10.054  21.465  67.325  1.00  0.00     0.000 HD 
BRANCH   9  14
HETATM   14  C   UNL     1      -7.439  20.658  66.612  1.00  0.00    -0.163 C  
HETATM   15  N   UNL     1      -6.760  20.495  65.436  1.00  0.00    -0.408 N  
HETATM   16  H2  UNL     1      -7.095  19.906  64.674  1.00  0.00     0.000 HD 
HETATM   17  H1  UNL     1      -5.887  21.020  65.396  1.00  0.00     0.000 HD 
HETATM   18  O   UNL     1      -7.001  21.374  67.507  1.00  0.00    -0.539 OA 
ENDBRANCH   9  14
ENDBRANCH   6   8
ENDBRANCH   4   6
ENDBRANCH   2   4
TORSDOF 4
ENDMDL
MODEL      114
REMARK 921   NORMALIZED FREE ENERGY PREDICTED BY IDOCK:   -3.58 KCAL/MOL
REMARK 922        TOTAL FREE ENERGY PREDICTED BY IDOCK:   -4.86 KCAL/MOL
REMARK 923 INTER-LIGAND FREE ENERGY PREDICTED BY IDOCK:   -4.37 KCAL/MOL
REMARK 924 INTRA-LIGAND FREE ENERGY PREDICTED BY IDOCK:   -0.49 KCAL/MOL
REMARK 927      BINDING AFFINITY PREDICTED BY RF-SCORE:    0.00 PKD
ROOT
HETATM    1  C   UNL     1     -10.588  12.562  64.135  1.00  0.00    -0.398 C  
HETATM    2  N   UNL     1     -11.307  13.769  64.501  1.00  0.00    -0.375 NA 
HETATM    3  C   UNL     1     -12.578  13.647  65.205  1.00  0.00    -0.469 C  
ENDROOT
BRANCH   2   4
HETATM    4  N   UNL     1     -10.510  14.871  64.681  1.00  0.00    -0.547 NA 
HETATM    5  H   UNL     1      -9.626  15.007  64.189  1.00  0.00     0.000 HD 
BRANCH   4   6
HETATM    6  N   UNL     1     -10.966  15.693  65.501  1.00  0.00    -0.325 NA 
HETATM    7  H   UNL     1     -11.915  16.063  65.432  1.00  0.00     0.000 HD 
BRANCH   6   8
HETATM    8  C   UNL     1     -10.115  16.061  66.492  1.00  0.00    -0.287 A  
HETATM    9  C   UNL     1      -9.872  17.258  67.146  1.00  0.00    -0.269 A  
HETATM   10  N   UNL     1      -8.862  17.103  68.098  1.00  0.00    -0.230 NA 
HETATM   11  N   UNL     1      -9.216  15.186  67.057  1.00  0.00    -0.211 NA 
HETATM   12  C   UNL     1      -8.500  15.846  68.011  1.00  0.00    -0.162 A  
HETATM   13  H   UNL     1      -8.487  17.815  68.725  1.00  0.00     0.000 HD 
BRANCH   9  14
HETATM   14  C   UNL     1     -10.546  18.536  66.925  1.00  0.00    -0.365 C  
HETATM   15  N   UNL     1     -10.755  18.818  65.604  1.00  0.00    -0.309 N  
HETATM   16  H2  UNL     1     -10.469  18.197  64.847  1.00  0.00     0.000 HD 
HETATM   17  H1  UNL     1     -11.225  19.710  65.449  1.00  0.00     0.000 HD 
HETATM   18  O   UNL     1     -10.902  19.311  67.807  1.00  0.00    -0.420 OA 
ENDBRANCH   9  14
ENDBRANCH   6   8
ENDBRANCH   4   6
ENDBRANCH   2   4
TORSDOF 4
ENDMDL
MODEL      115
REMARK 921   NORMALIZED FREE ENERGY PREDICTED BY IDOCK:   -3.56 KCAL/MOL
REMARK 922        TOTAL FREE ENERGY PREDICTED BY IDOCK:   -4.83 KCAL/MOL
REMARK 923 INTER-LIGAND FREE ENERGY PREDICTED BY IDOCK:   -4.33 KCAL/MOL
REMARK 924 INTRA-LIGAND FREE ENERGY PREDICTED BY IDOCK:   -0.51 KCAL/MOL
REMARK 927      BINDING AFFINITY PREDICTED BY RF-SCORE:    0.00 PKD
ROOT
HETATM    1  C   UNL     1     -11.004  12.430  65.841  1.00  0.00    -0.288 C  
HETATM    2  N   UNL     1     -11.000  13.563  66.749  1.00  0.00    -0.289 NA 
HETATM    3  C   UNL     1     -10.703  14.889  66.221  1.00  0.00    -0.320 C  
ENDROOT
BRANCH   2   4
HETATM    4  N   UNL     1     -11.808  13.412  67.847  1.00  0.00    -0.357 NA 
HETATM    5  H   UNL     1     -12.827  13.407  67.794  1.00  0.00     0.000 HD 
BRANCH   4   6
HETATM    6  N   UNL     1     -11.182  13.281  68.918  1.00  0.00    -0.265 NA 
HETATM    7  H   UNL     1     -10.428  12.603  69.030  1.00  0.00     0.000 HD 
BRANCH   6   8
HETATM    8  C   UNL     1     -11.573  14.103  69.926  1.00  0.00    -0.264 A  
HETATM    9  C   UNL     1     -12.349  13.921  71.059  1.00  0.00    -0.376 A  
HETATM   10  N   UNL     1     -12.460  15.113  71.776  1.00  0.00    -0.321 NA 
HETATM   11  N   UNL     1     -11.234  15.435  69.965  1.00  0.00    -0.274 NA 
HETATM   12  C   UNL     1     -11.775  15.993  71.085  1.00  0.00    -0.439 A  
HETATM   13  H   UNL     1     -12.965  15.267  72.649  1.00  0.00     0.000 HD 
BRANCH   9  14
HETATM   14  C   UNL     1     -12.984  12.682  71.503  1.00  0.00    -0.282 C  
HETATM   15  N   UNL     1     -14.008  12.883  72.386  1.00  0.00    -0.458 N  
HETATM   16  H2  UNL     1     -14.299  13.807  72.704  1.00  0.00     0.000 HD 
HETATM   17  H1  UNL     1     -14.452  12.019  72.696  1.00  0.00     0.000 HD 
HETATM   18  O   UNL     1     -12.662  11.553  71.145  1.00  0.00    -0.393 OA 
ENDBRANCH   9  14
ENDBRANCH   6   8
ENDBRANCH   4   6
ENDBRANCH   2   4
TORSDOF 4
ENDMDL
MODEL      116
REMARK 921   NORMALIZED FREE ENERGY PREDICTED BY IDOCK:   -3.55 KCAL/MOL
REMARK 922        TOTAL FREE ENERGY PREDICTED BY IDOCK:   -4.82 KCAL/MOL
REMARK 923 INTER-LIGAND FREE ENERGY PREDICTED BY IDOCK:   -4.29 KCAL/MOL
REMARK 924 INTRA-LIGAND FREE ENERGY PREDICTED BY IDOCK:   -0.53 KCAL/MOL
REMARK 927      BINDING AFFINITY PREDICTED BY RF-SCORE:    0.00 PKD
ROOT
HETATM    1  C   UNL     1      -7.973  15.269  69.047  1.00  0.00    -0.195 C  
HETATM    2  N   UNL     1      -7.327  16.533  69.354  1.00  0.00    -0.196 NA 
HETATM    3  C   UNL     1      -5.996  16.520  69.949  1.00  0.00    -0.201 C  
ENDROOT
BRANCH   2   4
HETATM    4  N   UNL     1      -7.732  17.583  68.569  1.00  0.00    -0.263 NA 
HETATM    5  H   UNL     1      -8.184  17.459  67.662  1.00  0.00     0.000 HD 
BRANCH   4   6
HETATM    6  N   UNL     1      -7.496  18.703  69.065  1.00  0.00    -0.259 NA 
HETATM    7  H   UNL     1      -7.502  18.865  70.072  1.00  0.00     0.000 HD 
BRANCH   6   8
HETATM    8  C   UNL     1      -7.230  19.691  68.173  1.00  0.00    -0.302 A  
HETATM    9  C   UNL     1      -7.983  20.320  67.194  1.00  0.00    -0.339 A  
HETATM   10  N   UNL     1      -7.219  21.282  66.529  1.00  0.00    -0.652 NA 
HETATM   11  N   UNL     1      -5.992  20.280  68.071  1.00  0.00    -0.230 NA 
HETATM   12  C   UNL     1      -6.034  21.224  67.088  1.00  0.00    -0.345 A  
HETATM   13  H   UNL     1      -7.518  21.896  65.771  1.00  0.00     0.000 HD 
BRANCH   9  14
HETATM   14  C   UNL     1      -9.382  20.067  66.858  1.00  0.00    -0.393 C  
HETATM   15  N   UNL     1      -9.716  20.457  65.591  1.00  0.00    -0.533 N  
HETATM   16  H2  UNL     1      -9.052  20.882  64.944  1.00  0.00     0.000 HD 
HETATM   17  H1  UNL     1     -10.692  20.280  65.357  1.00  0.00     0.000 HD 
HETATM   18  O   UNL     1     -10.210  19.561  67.609  1.00  0.00    -0.380 OA 
ENDBRANCH   9  14
ENDBRANCH   6   8
ENDBRANCH   4   6
ENDBRANCH   2   4
TORSDOF 4
ENDMDL
MODEL      117
REMARK 921   NORMALIZED FREE ENERGY PREDICTED BY IDOCK:   -3.53 KCAL/MOL
REMARK 922        TOTAL FREE ENERGY PREDICTED BY IDOCK:   -4.79 KCAL/MOL
REMARK 923 INTER-LIGAND FREE ENERGY PREDICTED BY IDOCK:   -4.31 KCAL/MOL
REMARK 924 INTRA-LIGAND FREE ENERGY PREDICTED BY IDOCK:   -0.48 KCAL/MOL
REMARK 927      BINDING AFFINITY PREDICTED BY RF-SCORE:    0.00 PKD
ROOT
HETATM    1  C   UNL     1     -13.350  10.826  71.836  1.00  0.00    -0.340 C  
HETATM    2  N   UNL     1     -12.765  10.325  70.605  1.00  0.00    -0.322 NA 
HETATM    3  C   UNL     1     -11.997  11.238  69.766  1.00  0.00    -0.360 C  
ENDROOT
BRANCH   2   4
HETATM    4  N   UNL     1     -12.487   8.982  70.614  1.00  0.00    -0.482 NA 
HETATM    5  H   UNL     1     -13.106   8.287  71.035  1.00  0.00     0.000 HD 
BRANCH   4   6
HETATM    6  N   UNL     1     -11.409   8.687  70.060  1.00  0.00    -0.448 NA 
HETATM    7  H   UNL     1     -10.822   9.386  69.605  1.00  0.00     0.000 HD 
BRANCH   6   8
HETATM    8  C   UNL     1     -11.071   7.374  70.105  1.00  0.00    -0.246 A  
HETATM    9  C   UNL     1     -11.014   6.437  71.125  1.00  0.00    -0.275 A  
HETATM   10  N   UNL     1     -10.581   5.202  70.636  1.00  0.00    -0.199 NA 
HETATM   11  N   UNL     1     -10.646   6.682  68.995  1.00  0.00    -0.219 NA 
HETATM   12  C   UNL     1     -10.375   5.396  69.355  1.00  0.00    -0.269 A  
HETATM   13  H   UNL     1     -10.453   4.338  71.162  1.00  0.00     0.000 HD 
BRANCH   9  14
HETATM   14  C   UNL     1     -11.350   6.644  72.532  1.00  0.00    -0.253 C  
HETATM   15  N   UNL     1     -11.681   5.490  73.186  1.00  0.00    -0.527 N  
HETATM   16  H2  UNL     1     -11.692   4.575  72.736  1.00  0.00     0.000 HD 
HETATM   17  H1  UNL     1     -11.916   5.634  74.168  1.00  0.00     0.000 HD 
HETATM   18  O   UNL     1     -11.352   7.727  73.108  1.00  0.00    -0.374 OA 
ENDBRANCH   9  14
ENDBRANCH   6   8
ENDBRANCH   4   6
ENDBRANCH   2   4
TORSDOF 4
ENDMDL
MODEL      118
REMARK 921   NORMALIZED FREE ENERGY PREDICTED BY IDOCK:   -3.53 KCAL/MOL
REMARK 922        TOTAL FREE ENERGY PREDICTED BY IDOCK:   -4.79 KCAL/MOL
REMARK 923 INTER-LIGAND FREE ENERGY PREDICTED BY IDOCK:   -3.94 KCAL/MOL
REMARK 924 INTRA-LIGAND FREE ENERGY PREDICTED BY IDOCK:   -0.85 KCAL/MOL
REMARK 927      BINDING AFFINITY PREDICTED BY RF-SCORE:    0.00 PKD
ROOT
HETATM    1  C   UNL     1      -9.091   6.928  73.404  1.00  0.00    -0.136 C  
HETATM    2  N   UNL     1      -9.182   6.508  72.018  1.00  0.00    -0.147 NA 
HETATM    3  C   UNL     1      -9.465   5.109  71.721  1.00  0.00    -0.149 C  
ENDROOT
BRANCH   2   4
HETATM    4  N   UNL     1      -9.565   7.499  71.149  1.00  0.00    -0.159 NA 
HETATM    5  H   UNL     1      -9.566   7.381  70.135  1.00  0.00     0.000 HD 
BRANCH   4   6
HETATM    6  N   UNL     1      -9.910   8.557  71.712  1.00  0.00    -0.241 NA 
HETATM    7  H   UNL     1      -9.490   8.870  72.587  1.00  0.00     0.000 HD 
BRANCH   6   8
HETATM    8  C   UNL     1     -10.884   9.261  71.082  1.00  0.00    -0.337 A  
HETATM    9  C   UNL     1     -12.267   9.254  71.155  1.00  0.00    -0.301 A  
HETATM   10  N   UNL     1     -12.813  10.184  70.267  1.00  0.00    -0.572 NA 
HETATM   11  N   UNL     1     -10.607  10.203  70.118  1.00  0.00    -0.285 NA 
HETATM   12  C   UNL     1     -11.781  10.731  69.669  1.00  0.00    -0.323 A  
HETATM   13  H   UNL     1     -13.799  10.392  70.117  1.00  0.00     0.000 HD 
BRANCH   9  14
HETATM   14  C   UNL     1     -13.100   8.420  72.020  1.00  0.00    -0.352 C  
HETATM   15  N   UNL     1     -12.488   7.262  72.410  1.00  0.00    -0.505 N  
HETATM   16  H2  UNL     1     -11.543   7.005  72.126  1.00  0.00     0.000 HD 
HETATM   17  H1  UNL     1     -13.068   6.680  73.014  1.00  0.00     0.000 HD 
HETATM   18  O   UNL     1     -14.240   8.693  72.382  1.00  0.00    -0.432 OA 
ENDBRANCH   9  14
ENDBRANCH   6   8
ENDBRANCH   4   6
ENDBRANCH   2   4
TORSDOF 4
ENDMDL
MODEL      119
REMARK 921   NORMALIZED FREE ENERGY PREDICTED BY IDOCK:   -3.52 KCAL/MOL
REMARK 922        TOTAL FREE ENERGY PREDICTED BY IDOCK:   -4.79 KCAL/MOL
REMARK 923 INTER-LIGAND FREE ENERGY PREDICTED BY IDOCK:   -4.47 KCAL/MOL
REMARK 924 INTRA-LIGAND FREE ENERGY PREDICTED BY IDOCK:   -0.31 KCAL/MOL
REMARK 927      BINDING AFFINITY PREDICTED BY RF-SCORE:    0.00 PKD
ROOT
HETATM    1  C   UNL     1     -12.317  12.323  63.501  1.00  0.00    -0.565 C  
HETATM    2  N   UNL     1     -12.073  13.232  64.607  1.00  0.00    -0.388 NA 
HETATM    3  C   UNL     1     -12.146  14.668  64.370  1.00  0.00    -0.462 C  
ENDROOT
BRANCH   2   4
HETATM    4  N   UNL     1     -12.362  12.711  65.843  1.00  0.00    -0.595 NA 
HETATM    5  H   UNL     1     -13.094  12.018  65.999  1.00  0.00     0.000 HD 
BRANCH   4   6
HETATM    6  N   UNL     1     -11.647  13.164  66.760  1.00  0.00    -0.347 NA 
HETATM    7  H   UNL     1     -11.690  14.140  67.053  1.00  0.00     0.000 HD 
BRANCH   6   8
HETATM    8  C   UNL     1     -10.807  12.269  67.339  1.00  0.00    -0.239 A  
HETATM    9  C   UNL     1     -10.849  11.547  68.521  1.00  0.00    -0.215 A  
HETATM   10  N   UNL     1      -9.704  10.760  68.659  1.00  0.00    -0.178 NA 
HETATM   11  N   UNL     1      -9.603  11.914  66.776  1.00  0.00    -0.199 NA 
HETATM   12  C   UNL     1      -8.987  11.010  67.590  1.00  0.00    -0.142 A  
HETATM   13  H   UNL     1      -9.475  10.128  69.426  1.00  0.00     0.000 HD 
BRANCH   9  14
HETATM   14  C   UNL     1     -11.914  11.557  69.522  1.00  0.00    -0.335 C  
HETATM   15  N   UNL     1     -12.655  10.409  69.538  1.00  0.00    -0.457 N  
HETATM   16  H2  UNL     1     -12.482   9.623  68.912  1.00  0.00     0.000 HD 
HETATM   17  H1  UNL     1     -13.398  10.415  70.236  1.00  0.00     0.000 HD 
HETATM   18  O   UNL     1     -12.155  12.483  70.291  1.00  0.00    -0.349 OA 
ENDBRANCH   9  14
ENDBRANCH   6   8
ENDBRANCH   4   6
ENDBRANCH   2   4
TORSDOF 4
ENDMDL
MODEL      120
REMARK 921   NORMALIZED FREE ENERGY PREDICTED BY IDOCK:   -3.52 KCAL/MOL
REMARK 922        TOTAL FREE ENERGY PREDICTED BY IDOCK:   -4.78 KCAL/MOL
REMARK 923 INTER-LIGAND FREE ENERGY PREDICTED BY IDOCK:   -4.37 KCAL/MOL
REMARK 924 INTRA-LIGAND FREE ENERGY PREDICTED BY IDOCK:   -0.41 KCAL/MOL
REMARK 927      BINDING AFFINITY PREDICTED BY RF-SCORE:    0.00 PKD
ROOT
HETATM    1  C   UNL     1      -8.941  13.185  68.073  1.00  0.00    -0.195 C  
HETATM    2  N   UNL     1      -8.236  11.952  67.771  1.00  0.00    -0.139 NA 
HETATM    3  C   UNL     1      -8.154  10.917  68.794  1.00  0.00    -0.145 C  
ENDROOT
BRANCH   2   4
HETATM    4  N   UNL     1      -8.215  11.623  66.439  1.00  0.00    -0.342 NA 
HETATM    5  H   UNL     1      -7.509  11.012  66.027  1.00  0.00     0.000 HD 
BRANCH   4   6
HETATM    6  N   UNL     1      -9.139  12.139  65.778  1.00  0.00    -0.436 NA 
HETATM    7  H   UNL     1      -9.645  12.964  66.100  1.00  0.00     0.000 HD 
BRANCH   6   8
HETATM    8  C   UNL     1      -9.426  11.527  64.601  1.00  0.00    -0.100 A  
HETATM    9  C   UNL     1     -10.577  11.419  63.837  1.00  0.00    -0.392 A  
HETATM   10  N   UNL     1     -10.339  10.653  62.694  1.00  0.00    -0.721 NA 
HETATM   11  N   UNL     1      -8.494  10.793  63.904  1.00  0.00    -0.054 NA 
HETATM   12  C   UNL     1      -9.077  10.301  62.775  1.00  0.00    -0.284 A  
HETATM   13  H   UNL     1     -11.002  10.417  61.956  1.00  0.00     0.000 HD 
BRANCH   9  14
HETATM   14  C   UNL     1     -11.884  12.004  64.125  1.00  0.00    -0.373 C  
HETATM   15  N   UNL     1     -11.966  12.565  65.369  1.00  0.00    -0.427 N  
HETATM   16  H2  UNL     1     -11.191  12.574  66.030  1.00  0.00     0.000 HD 
HETATM   17  H1  UNL     1     -12.878  12.974  65.570  1.00  0.00     0.000 HD 
HETATM   18  O   UNL     1     -12.841  12.012  63.357  1.00  0.00    -0.760 OA 
ENDBRANCH   9  14
ENDBRANCH   6   8
ENDBRANCH   4   6
ENDBRANCH   2   4
TORSDOF 4
ENDMDL
MODEL      121
REMARK 921   NORMALIZED FREE ENERGY PREDICTED BY IDOCK:   -3.51 KCAL/MOL
REMARK 922        TOTAL FREE ENERGY PREDICTED BY IDOCK:   -4.77 KCAL/MOL
REMARK 923 INTER-LIGAND FREE ENERGY PREDICTED BY IDOCK:   -4.18 KCAL/MOL
REMARK 924 INTRA-LIGAND FREE ENERGY PREDICTED BY IDOCK:   -0.59 KCAL/MOL
REMARK 927      BINDING AFFINITY PREDICTED BY RF-SCORE:    0.00 PKD
ROOT
HETATM    1  C   UNL     1      -9.549   6.189  70.895  1.00  0.00    -0.173 C  
HETATM    2  N   UNL     1     -10.340   6.983  69.973  1.00  0.00    -0.198 NA 
HETATM    3  C   UNL     1     -11.145   6.303  68.965  1.00  0.00    -0.378 C  
ENDROOT
BRANCH   2   4
HETATM    4  N   UNL     1     -10.720   8.209  70.461  1.00  0.00    -0.222 NA 
HETATM    5  H   UNL     1     -10.348   8.604  71.325  1.00  0.00     0.000 HD 
BRANCH   4   6
HETATM    6  N   UNL     1     -11.562   8.794  69.751  1.00  0.00    -0.371 NA 
HETATM    7  H   UNL     1     -12.312   8.295  69.270  1.00  0.00     0.000 HD 
BRANCH   6   8
HETATM    8  C   UNL     1     -11.414  10.140  69.661  1.00  0.00    -0.198 A  
HETATM    9  C   UNL     1     -11.952  11.208  70.360  1.00  0.00    -0.378 A  
HETATM   10  N   UNL     1     -11.475  12.419  69.852  1.00  0.00    -0.513 NA 
HETATM   11  N   UNL     1     -10.616  10.733  68.709  1.00  0.00    -0.187 NA 
HETATM   12  C   UNL     1     -10.676  12.085  68.867  1.00  0.00    -0.185 A  
HETATM   13  H   UNL     1     -11.699  13.359  70.178  1.00  0.00     0.000 HD 
BRANCH   9  14
HETATM   14  C   UNL     1     -12.886  11.147  71.481  1.00  0.00    -0.437 C  
HETATM   15  N   UNL     1     -13.155   9.872  71.895  1.00  0.00    -0.435 N  
HETATM   16  H2  UNL     1     -12.744   9.046  71.463  1.00  0.00     0.000 HD 
HETATM   17  H1  UNL     1     -13.807   9.829  72.678  1.00  0.00     0.000 HD 
HETATM   18  O   UNL     1     -13.403  12.118  72.026  1.00  0.00    -0.503 OA 
ENDBRANCH   9  14
ENDBRANCH   6   8
ENDBRANCH   4   6
ENDBRANCH   2   4
TORSDOF 4
ENDMDL
MODEL      122
REMARK 921   NORMALIZED FREE ENERGY PREDICTED BY IDOCK:   -3.51 KCAL/MOL
REMARK 922        TOTAL FREE ENERGY PREDICTED BY IDOCK:   -4.77 KCAL/MOL
REMARK 923 INTER-LIGAND FREE ENERGY PREDICTED BY IDOCK:   -4.58 KCAL/MOL
REMARK 924 INTRA-LIGAND FREE ENERGY PREDICTED BY IDOCK:   -0.18 KCAL/MOL
REMARK 927      BINDING AFFINITY PREDICTED BY RF-SCORE:    0.00 PKD
ROOT
HETATM    1  C   UNL     1     -11.928  15.982  72.432  1.00  0.00    -0.544 C  
HETATM    2  N   UNL     1     -11.900  15.145  71.246  1.00  0.00    -0.321 NA 
HETATM    3  C   UNL     1     -13.133  14.501  70.807  1.00  0.00    -0.306 C  
ENDROOT
BRANCH   2   4
HETATM    4  N   UNL     1     -10.924  15.476  70.340  1.00  0.00    -0.319 NA 
HETATM    5  H   UNL     1     -10.232  14.809  69.998  1.00  0.00     0.000 HD 
BRANCH   4   6
HETATM    6  N   UNL     1     -10.960  16.668  69.975  1.00  0.00    -0.407 NA 
HETATM    7  H   UNL     1     -11.159  17.431  70.622  1.00  0.00     0.000 HD 
BRANCH   6   8
HETATM    8  C   UNL     1     -10.717  16.881  68.656  1.00  0.00    -0.345 A  
HETATM    9  C   UNL     1     -10.747  16.065  67.536  1.00  0.00    -0.314 A  
HETATM   10  N   UNL     1     -10.394  16.785  66.393  1.00  0.00    -0.315 NA 
HETATM   11  N   UNL     1     -10.320  18.103  68.166  1.00  0.00    -0.380 NA 
HETATM   12  C   UNL     1     -10.149  18.002  66.818  1.00  0.00    -0.356 A  
HETATM   13  H   UNL     1     -10.338  16.439  65.436  1.00  0.00     0.000 HD 
BRANCH   9  14
HETATM   14  C   UNL     1     -11.096  14.647  67.488  1.00  0.00    -0.313 C  
HETATM   15  N   UNL     1     -10.072  13.822  67.864  1.00  0.00    -0.240 N  
HETATM   16  H2  UNL     1      -9.155  14.164  68.149  1.00  0.00     0.000 HD 
HETATM   17  H1  UNL     1     -10.315  12.833  67.830  1.00  0.00     0.000 HD 
HETATM   18  O   UNL     1     -12.185  14.197  67.148  1.00  0.00    -0.421 OA 
ENDBRANCH   9  14
ENDBRANCH   6   8
ENDBRANCH   4   6
ENDBRANCH   2   4
TORSDOF 4
ENDMDL
MODEL      123
REMARK 921   NORMALIZED FREE ENERGY PREDICTED BY IDOCK:   -3.49 KCAL/MOL
REMARK 922        TOTAL FREE ENERGY PREDICTED BY IDOCK:   -4.74 KCAL/MOL
REMARK 923 INTER-LIGAND FREE ENERGY PREDICTED BY IDOCK:   -4.27 KCAL/MOL
REMARK 924 INTRA-LIGAND FREE ENERGY PREDICTED BY IDOCK:   -0.47 KCAL/MOL
REMARK 927      BINDING AFFINITY PREDICTED BY RF-SCORE:    0.00 PKD
ROOT
HETATM    1  C   UNL     1     -10.521  16.651  68.532  1.00  0.00    -0.319 C  
HETATM    2  N   UNL     1      -9.980  15.304  68.543  1.00  0.00    -0.217 NA 
HETATM    3  C   UNL     1      -8.694  15.064  69.186  1.00  0.00    -0.188 C  
ENDROOT
BRANCH   2   4
HETATM    4  N   UNL     1     -10.927  14.312  68.481  1.00  0.00    -0.243 NA 
HETATM    5  H   UNL     1     -11.738  14.353  67.862  1.00  0.00     0.000 HD 
BRANCH   4   6
HETATM    6  N   UNL     1     -10.705  13.356  69.250  1.00  0.00    -0.444 NA 
HETATM    7  H   UNL     1     -10.330  13.488  70.190  1.00  0.00     0.000 HD 
BRANCH   6   8
HETATM    8  C   UNL     1     -10.996  12.127  68.752  1.00  0.00    -0.232 A  
HETATM    9  C   UNL     1     -11.781  11.077  69.200  1.00  0.00    -0.333 A  
HETATM   10  N   UNL     1     -11.732  10.008  68.303  1.00  0.00    -0.569 NA 
HETATM   11  N   UNL     1     -10.457  11.661  67.575  1.00  0.00    -0.195 NA 
HETATM   12  C   UNL     1     -10.928  10.403  67.344  1.00  0.00    -0.270 A  
HETATM   13  H   UNL     1     -12.215   9.113  68.377  1.00  0.00     0.000 HD 
BRANCH   9  14
HETATM   14  C   UNL     1     -12.578  11.032  70.423  1.00  0.00    -0.267 C  
HETATM   15  N   UNL     1     -13.256   9.855  70.587  1.00  0.00    -0.611 N  
HETATM   16  H2  UNL     1     -13.209   9.086  69.920  1.00  0.00     0.000 HD 
HETATM   17  H1  UNL     1     -13.812   9.823  71.441  1.00  0.00     0.000 HD 
HETATM   18  O   UNL     1     -12.662  11.937  71.248  1.00  0.00    -0.382 OA 
ENDBRANCH   9  14
ENDBRANCH   6   8
ENDBRANCH   4   6
ENDBRANCH   2   4
TORSDOF 4
ENDMDL
MODEL      124
REMARK 921   NORMALIZED FREE ENERGY PREDICTED BY IDOCK:   -3.48 KCAL/MOL
REMARK 922        TOTAL FREE ENERGY PREDICTED BY IDOCK:   -4.73 KCAL/MOL
REMARK 923 INTER-LIGAND FREE ENERGY PREDICTED BY IDOCK:   -4.30 KCAL/MOL
REMARK 924 INTRA-LIGAND FREE ENERGY PREDICTED BY IDOCK:   -0.43 KCAL/MOL
REMARK 927      BINDING AFFINITY PREDICTED BY RF-SCORE:    0.00 PKD
ROOT
HETATM    1  C   UNL     1      -6.322  15.170  68.545  1.00  0.00    -0.092 C  
HETATM    2  N   UNL     1      -7.175  14.042  68.216  1.00  0.00    -0.101 NA 
HETATM    3  C   UNL     1      -6.610  12.925  67.466  1.00  0.00    -0.157 C  
ENDROOT
BRANCH   2   4
HETATM    4  N   UNL     1      -8.216  13.844  69.087  1.00  0.00    -0.332 NA 
HETATM    5  H   UNL     1      -8.355  12.973  69.601  1.00  0.00     0.000 HD 
BRANCH   4   6
HETATM    6  N   UNL     1      -8.978  14.826  69.192  1.00  0.00    -0.349 NA 
HETATM    7  H   UNL     1      -8.704  15.678  69.682  1.00  0.00     0.000 HD 
BRANCH   6   8
HETATM    8  C   UNL     1     -10.196  14.684  68.611  1.00  0.00    -0.244 A  
HETATM    9  C   UNL     1     -11.495  14.847  69.065  1.00  0.00    -0.301 A  
HETATM   10  N   UNL     1     -12.411  14.556  68.052  1.00  0.00    -0.594 NA 
HETATM   11  N   UNL     1     -10.349  14.271  67.308  1.00  0.00    -0.259 NA 
HETATM   12  C   UNL     1     -11.679  14.218  67.016  1.00  0.00    -0.403 A  
HETATM   13  H   UNL     1     -13.428  14.598  68.105  1.00  0.00     0.000 HD 
BRANCH   9  14
HETATM   14  C   UNL     1     -11.916  15.267  70.399  1.00  0.00    -0.335 C  
HETATM   15  N   UNL     1     -13.260  15.500  70.497  1.00  0.00    -0.765 N  
HETATM   16  H2  UNL     1     -13.904  15.392  69.714  1.00  0.00     0.000 HD 
HETATM   17  H1  UNL     1     -13.554  15.793  71.428  1.00  0.00     0.000 HD 
HETATM   18  O   UNL     1     -11.172  15.411  71.364  1.00  0.00    -0.367 OA 
ENDBRANCH   9  14
ENDBRANCH   6   8
ENDBRANCH   4   6
ENDBRANCH   2   4
TORSDOF 4
ENDMDL
MODEL      125
REMARK 921   NORMALIZED FREE ENERGY PREDICTED BY IDOCK:   -3.47 KCAL/MOL
REMARK 922        TOTAL FREE ENERGY PREDICTED BY IDOCK:   -4.72 KCAL/MOL
REMARK 923 INTER-LIGAND FREE ENERGY PREDICTED BY IDOCK:   -4.07 KCAL/MOL
REMARK 924 INTRA-LIGAND FREE ENERGY PREDICTED BY IDOCK:   -0.65 KCAL/MOL
REMARK 927      BINDING AFFINITY PREDICTED BY RF-SCORE:    0.00 PKD
ROOT
HETATM    1  C   UNL     1      -6.564  16.284  69.596  1.00  0.00    -0.175 C  
HETATM    2  N   UNL     1      -7.344  16.368  68.374  1.00  0.00    -0.161 NA 
HETATM    3  C   UNL     1      -7.357  15.229  67.464  1.00  0.00    -0.196 C  
ENDROOT
BRANCH   2   4
HETATM    4  N   UNL     1      -8.418  17.219  68.444  1.00  0.00    -0.247 NA 
HETATM    5  H   UNL     1      -9.387  16.899  68.411  1.00  0.00     0.000 HD 
BRANCH   4   6
HETATM    6  N   UNL     1      -8.102  18.421  68.552  1.00  0.00    -0.316 NA 
HETATM    7  H   UNL     1      -7.972  18.871  69.458  1.00  0.00     0.000 HD 
BRANCH   6   8
HETATM    8  C   UNL     1      -7.942  19.089  67.381  1.00  0.00    -0.250 A  
HETATM    9  C   UNL     1      -8.812  19.461  66.369  1.00  0.00    -0.359 A  
HETATM   10  N   UNL     1      -8.127  20.134  65.354  1.00  0.00    -0.430 NA 
HETATM   11  N   UNL     1      -6.716  19.535  66.947  1.00  0.00    -0.191 NA 
HETATM   12  C   UNL     1      -6.875  20.157  65.744  1.00  0.00    -0.274 A  
HETATM   13  H   UNL     1      -8.517  20.523  64.496  1.00  0.00     0.000 HD 
BRANCH   9  14
HETATM   14  C   UNL     1     -10.252  19.221  66.311  1.00  0.00    -0.464 C  
HETATM   15  N   UNL     1     -10.862  19.280  67.533  1.00  0.00    -0.461 N  
HETATM   16  H2  UNL     1     -10.361  19.473  68.399  1.00  0.00     0.000 HD 
HETATM   17  H1  UNL     1     -11.867  19.113  67.493  1.00  0.00     0.000 HD 
HETATM   18  O   UNL     1     -10.890  18.983  65.290  1.00  0.00    -0.540 OA 
ENDBRANCH   9  14
ENDBRANCH   6   8
ENDBRANCH   4   6
ENDBRANCH   2   4
TORSDOF 4
ENDMDL
MODEL      126
REMARK 921   NORMALIZED FREE ENERGY PREDICTED BY IDOCK:   -3.46 KCAL/MOL
REMARK 922        TOTAL FREE ENERGY PREDICTED BY IDOCK:   -4.71 KCAL/MOL
REMARK 923 INTER-LIGAND FREE ENERGY PREDICTED BY IDOCK:   -4.06 KCAL/MOL
REMARK 924 INTRA-LIGAND FREE ENERGY PREDICTED BY IDOCK:   -0.65 KCAL/MOL
REMARK 927      BINDING AFFINITY PREDICTED BY RF-SCORE:    0.00 PKD
ROOT
HETATM    1  C   UNL     1     -11.310   5.731  72.105  1.00  0.00    -0.258 C  
HETATM    2  N   UNL     1     -11.200   6.523  70.893  1.00  0.00    -0.293 NA 
HETATM    3  C   UNL     1     -11.029   5.839  69.616  1.00  0.00    -0.315 C  
ENDROOT
BRANCH   2   4
HETATM    4  N   UNL     1     -11.822   7.745  70.954  1.00  0.00    -0.385 NA 
HETATM    5  H   UNL     1     -12.752   7.916  70.572  1.00  0.00     0.000 HD 
BRANCH   4   6
HETATM    6  N   UNL     1     -11.145   8.626  71.521  1.00  0.00    -0.266 NA 
HETATM    7  H   UNL     1     -11.195   8.789  72.527  1.00  0.00     0.000 HD 
BRANCH   6   8
HETATM    8  C   UNL     1     -10.337   9.353  70.708  1.00  0.00    -0.298 A  
HETATM    9  C   UNL     1     -10.565  10.382  69.809  1.00  0.00    -0.258 A  
HETATM   10  N   UNL     1      -9.371  10.782  69.205  1.00  0.00    -0.388 NA 
HETATM   11  N   UNL     1      -8.983   9.128  70.620  1.00  0.00    -0.226 NA 
HETATM   12  C   UNL     1      -8.450  10.005  69.722  1.00  0.00    -0.172 A  
HETATM   13  H   UNL     1      -9.244  11.518  68.512  1.00  0.00     0.000 HD 
BRANCH   9  14
HETATM   14  C   UNL     1     -11.846  11.011  69.495  1.00  0.00    -0.333 C  
HETATM   15  N   UNL     1     -12.746  10.953  70.523  1.00  0.00    -0.308 N  
HETATM   16  H2  UNL     1     -12.543  10.514  71.421  1.00  0.00     0.000 HD 
HETATM   17  H1  UNL     1     -13.640  11.392  70.304  1.00  0.00     0.000 HD 
HETATM   18  O   UNL     1     -12.130  11.547  68.429  1.00  0.00    -0.556 OA 
ENDBRANCH   9  14
ENDBRANCH   6   8
ENDBRANCH   4   6
ENDBRANCH   2   4
TORSDOF 4
ENDMDL
MODEL      127
REMARK 921   NORMALIZED FREE ENERGY PREDICTED BY IDOCK:   -3.44 KCAL/MOL
REMARK 922        TOTAL FREE ENERGY PREDICTED BY IDOCK:   -4.68 KCAL/MOL
REMARK 923 INTER-LIGAND FREE ENERGY PREDICTED BY IDOCK:   -3.81 KCAL/MOL
REMARK 924 INTRA-LIGAND FREE ENERGY PREDICTED BY IDOCK:   -0.87 KCAL/MOL
REMARK 927      BINDING AFFINITY PREDICTED BY RF-SCORE:    0.00 PKD
ROOT
HETATM    1  C   UNL     1      -6.234  20.431  64.711  1.00  0.00    -0.290 C  
HETATM    2  N   UNL     1      -6.838  20.322  66.027  1.00  0.00    -0.244 NA 
HETATM    3  C   UNL     1      -6.199  20.990  67.155  1.00  0.00    -0.314 C  
ENDROOT
BRANCH   2   4
HETATM    4  N   UNL     1      -8.194  20.114  66.013  1.00  0.00    -0.540 NA 
HETATM    5  H   UNL     1      -8.874  20.866  66.133  1.00  0.00     0.000 HD 
BRANCH   4   6
HETATM    6  N   UNL     1      -8.519  18.923  65.841  1.00  0.00    -0.445 NA 
HETATM    7  H   UNL     1      -8.312  18.420  64.978  1.00  0.00     0.000 HD 
BRANCH   6   8
HETATM    8  C   UNL     1      -9.168  18.340  66.881  1.00  0.00    -0.282 A  
HETATM    9  C   UNL     1      -8.757  17.540  67.935  1.00  0.00    -0.247 A  
HETATM   10  N   UNL     1      -9.844  17.186  68.738  1.00  0.00    -0.282 NA 
HETATM   11  N   UNL     1     -10.529  18.446  67.055  1.00  0.00    -0.398 NA 
HETATM   12  C   UNL     1     -10.884  17.753  68.174  1.00  0.00    -0.183 A  
HETATM   13  H   UNL     1      -9.832  16.612  69.580  1.00  0.00     0.000 HD 
BRANCH   9  14
HETATM   14  C   UNL     1      -7.396  17.097  68.227  1.00  0.00    -0.214 C  
HETATM   15  N   UNL     1      -6.519  17.329  67.204  1.00  0.00    -0.153 N  
HETATM   16  H2  UNL     1      -6.788  17.767  66.325  1.00  0.00     0.000 HD 
HETATM   17  H1  UNL     1      -5.569  17.020  67.408  1.00  0.00     0.000 HD 
HETATM   18  O   UNL     1      -7.033  16.563  69.270  1.00  0.00    -0.215 OA 
ENDBRANCH   9  14
ENDBRANCH   6   8
ENDBRANCH   4   6
ENDBRANCH   2   4
TORSDOF 4
ENDMDL
MODEL      128
REMARK 921   NORMALIZED FREE ENERGY PREDICTED BY IDOCK:   -3.42 KCAL/MOL
REMARK 922        TOTAL FREE ENERGY PREDICTED BY IDOCK:   -4.66 KCAL/MOL
REMARK 923 INTER-LIGAND FREE ENERGY PREDICTED BY IDOCK:   -4.27 KCAL/MOL
REMARK 924 INTRA-LIGAND FREE ENERGY PREDICTED BY IDOCK:   -0.40 KCAL/MOL
REMARK 927      BINDING AFFINITY PREDICTED BY RF-SCORE:    0.00 PKD
ROOT
HETATM    1  C   UNL     1     -11.566  15.895  68.613  1.00  0.00    -0.380 C  
HETATM    2  N   UNL     1     -10.316  15.539  67.966  1.00  0.00    -0.243 NA 
HETATM    3  C   UNL     1      -9.375  14.678  68.672  1.00  0.00    -0.206 C  
ENDROOT
BRANCH   2   4
HETATM    4  N   UNL     1     -10.366  15.544  66.594  1.00  0.00    -0.279 NA 
HETATM    5  H   UNL     1     -10.382  14.692  66.034  1.00  0.00     0.000 HD 
BRANCH   4   6
HETATM    6  N   UNL     1     -10.389  16.688  66.096  1.00  0.00    -0.333 NA 
HETATM    7  H   UNL     1     -11.219  17.065  65.637  1.00  0.00     0.000 HD 
BRANCH   6   8
HETATM    8  C   UNL     1      -9.237  17.395  66.207  1.00  0.00    -0.208 A  
HETATM    9  C   UNL     1      -8.956  18.734  66.427  1.00  0.00    -0.292 A  
HETATM   10  N   UNL     1      -7.577  18.953  66.440  1.00  0.00    -0.253 NA 
HETATM   11  N   UNL     1      -7.997  16.814  66.069  1.00  0.00    -0.380 NA 
HETATM   12  C   UNL     1      -7.042  17.775  66.224  1.00  0.00    -0.294 A  
HETATM   13  H   UNL     1      -7.091  19.837  66.586  1.00  0.00     0.000 HD 
BRANCH   9  14
HETATM   14  C   UNL     1      -9.918  19.815  66.631  1.00  0.00    -0.441 C  
HETATM   15  N   UNL     1      -9.366  20.937  67.184  1.00  0.00    -0.660 N  
HETATM   16  H2  UNL     1      -8.380  21.012  67.430  1.00  0.00     0.000 HD 
HETATM   17  H1  UNL     1     -10.038  21.691  67.326  1.00  0.00     0.000 HD 
HETATM   18  O   UNL     1     -11.112  19.762  66.351  1.00  0.00    -0.297 OA 
ENDBRANCH   9  14
ENDBRANCH   6   8
ENDBRANCH   4   6
ENDBRANCH   2   4
TORSDOF 4
ENDMDL
MODEL      129
REMARK 921   NORMALIZED FREE ENERGY PREDICTED BY IDOCK:   -3.42 KCAL/MOL
REMARK 922        TOTAL FREE ENERGY PREDICTED BY IDOCK:   -4.66 KCAL/MOL
REMARK 923 INTER-LIGAND FREE ENERGY PREDICTED BY IDOCK:   -4.16 KCAL/MOL
REMARK 924 INTRA-LIGAND FREE ENERGY PREDICTED BY IDOCK:   -0.50 KCAL/MOL
REMARK 927      BINDING AFFINITY PREDICTED BY RF-SCORE:    0.00 PKD
ROOT
HETATM    1  C   UNL     1      -8.593  20.410  67.369  1.00  0.00    -0.319 C  
HETATM    2  N   UNL     1      -9.970  19.965  67.249  1.00  0.00    -0.392 NA 
HETATM    3  C   UNL     1     -10.484  19.607  65.933  1.00  0.00    -0.493 C  
ENDROOT
BRANCH   2   4
HETATM    4  N   UNL     1     -10.477  19.379  68.382  1.00  0.00    -0.461 NA 
HETATM    5  H   UNL     1     -11.423  19.554  68.723  1.00  0.00     0.000 HD 
BRANCH   4   6
HETATM    6  N   UNL     1      -9.676  18.614  68.954  1.00  0.00    -0.351 NA 
HETATM    7  H   UNL     1      -8.874  18.959  69.481  1.00  0.00     0.000 HD 
BRANCH   6   8
HETATM    8  C   UNL     1      -9.946  17.289  68.830  1.00  0.00    -0.325 A  
HETATM    9  C   UNL     1      -9.190  16.141  69.004  1.00  0.00    -0.252 A  
HETATM   10  N   UNL     1      -9.953  15.003  68.730  1.00  0.00    -0.221 NA 
HETATM   11  N   UNL     1     -11.175  16.820  68.427  1.00  0.00    -0.271 NA 
HETATM   12  C   UNL     1     -11.135  15.458  68.391  1.00  0.00    -0.301 A  
HETATM   13  H   UNL     1      -9.654  14.030  68.782  1.00  0.00     0.000 HD 
BRANCH   9  14
HETATM   14  C   UNL     1      -7.791  16.061  69.419  1.00  0.00    -0.167 C  
HETATM   15  N   UNL     1      -7.413  14.807  69.812  1.00  0.00    -0.378 N  
HETATM   16  H2  UNL     1      -8.045  14.007  69.816  1.00  0.00     0.000 HD 
HETATM   17  H1  UNL     1      -6.437  14.751  70.102  1.00  0.00     0.000 HD 
HETATM   18  O   UNL     1      -7.002  16.999  69.432  1.00  0.00    -0.226 OA 
ENDBRANCH   9  14
ENDBRANCH   6   8
ENDBRANCH   4   6
ENDBRANCH   2   4
TORSDOF 4
ENDMDL
MODEL      130
REMARK 921   NORMALIZED FREE ENERGY PREDICTED BY IDOCK:   -3.42 KCAL/MOL
REMARK 922        TOTAL FREE ENERGY PREDICTED BY IDOCK:   -4.65 KCAL/MOL
REMARK 923 INTER-LIGAND FREE ENERGY PREDICTED BY IDOCK:   -3.75 KCAL/MOL
REMARK 924 INTRA-LIGAND FREE ENERGY PREDICTED BY IDOCK:   -0.91 KCAL/MOL
REMARK 927      BINDING AFFINITY PREDICTED BY RF-SCORE:    0.00 PKD
ROOT
HETATM    1  C   UNL     1     -11.657  11.088  69.311  1.00  0.00    -0.314 C  
HETATM    2  N   UNL     1     -11.478  12.207  68.404  1.00  0.00    -0.279 NA 
HETATM    3  C   UNL     1     -11.404  11.949  66.971  1.00  0.00    -0.329 C  
ENDROOT
BRANCH   2   4
HETATM    4  N   UNL     1     -11.960  13.402  68.876  1.00  0.00    -0.338 NA 
HETATM    5  H   UNL     1     -12.847  13.805  68.571  1.00  0.00     0.000 HD 
BRANCH   4   6
HETATM    6  N   UNL     1     -11.214  13.951  69.711  1.00  0.00    -0.452 NA 
HETATM    7  H   UNL     1     -11.074  13.573  70.648  1.00  0.00     0.000 HD 
BRANCH   6   8
HETATM    8  C   UNL     1     -10.602  15.087  69.288  1.00  0.00    -0.247 A  
HETATM    9  C   UNL     1      -9.385  15.344  68.678  1.00  0.00    -0.202 A  
HETATM   10  N   UNL     1      -9.224  16.714  68.460  1.00  0.00    -0.226 NA 
HETATM   11  N   UNL     1     -11.164  16.332  69.450  1.00  0.00    -0.326 NA 
HETATM   12  C   UNL     1     -10.315  17.267  68.936  1.00  0.00    -0.352 A  
HETATM   13  H   UNL     1      -8.431  17.184  68.024  1.00  0.00     0.000 HD 
BRANCH   9  14
HETATM   14  C   UNL     1      -8.371  14.368  68.286  1.00  0.00    -0.158 C  
HETATM   15  N   UNL     1      -8.621  13.108  68.754  1.00  0.00    -0.373 N  
HETATM   16  H2  UNL     1      -9.435  12.873  69.321  1.00  0.00     0.000 HD 
HETATM   17  H1  UNL     1      -7.914  12.427  68.481  1.00  0.00     0.000 HD 
HETATM   18  O   UNL     1      -7.378  14.612  67.608  1.00  0.00    -0.153 OA 
ENDBRANCH   9  14
ENDBRANCH   6   8
ENDBRANCH   4   6
ENDBRANCH   2   4
TORSDOF 4
ENDMDL
MODEL      131
REMARK 921   NORMALIZED FREE ENERGY PREDICTED BY IDOCK:   -3.40 KCAL/MOL
REMARK 922        TOTAL FREE ENERGY PREDICTED BY IDOCK:   -4.64 KCAL/MOL
REMARK 923 INTER-LIGAND FREE ENERGY PREDICTED BY IDOCK:   -4.27 KCAL/MOL
REMARK 924 INTRA-LIGAND FREE ENERGY PREDICTED BY IDOCK:   -0.37 KCAL/MOL
REMARK 927      BINDING AFFINITY PREDICTED BY RF-SCORE:    0.00 PKD
ROOT
HETATM    1  C   UNL     1     -13.189  10.083  71.826  1.00  0.00    -0.437 C  
HETATM    2  N   UNL     1     -12.891  11.404  71.303  1.00  0.00    -0.407 NA 
HETATM    3  C   UNL     1     -13.345  12.575  72.044  1.00  0.00    -0.426 C  
ENDROOT
BRANCH   2   4
HETATM    4  N   UNL     1     -11.765  11.465  70.521  1.00  0.00    -0.470 NA 
HETATM    5  H   UNL     1     -11.228  10.640  70.252  1.00  0.00     0.000 HD 
BRANCH   4   6
HETATM    6  N   UNL     1     -11.458  12.622  70.170  1.00  0.00    -0.526 NA 
HETATM    7  H   UNL     1     -11.346  13.383  70.840  1.00  0.00     0.000 HD 
BRANCH   6   8
HETATM    8  C   UNL     1     -11.283  12.798  68.836  1.00  0.00    -0.283 A  
HETATM    9  C   UNL     1     -10.262  12.476  67.956  1.00  0.00    -0.225 A  
HETATM   10  N   UNL     1     -10.575  12.898  66.663  1.00  0.00    -0.260 NA 
HETATM   11  N   UNL     1     -12.210  13.440  68.048  1.00  0.00    -0.218 NA 
HETATM   12  C   UNL     1     -11.752  13.468  66.765  1.00  0.00    -0.391 A  
HETATM   13  H   UNL     1     -10.010  12.787  65.821  1.00  0.00     0.000 HD 
BRANCH   9  14
HETATM   14  C   UNL     1      -9.012  11.787  68.271  1.00  0.00    -0.180 C  
HETATM   15  N   UNL     1      -8.151  12.540  69.020  1.00  0.00    -0.323 N  
HETATM   16  H2  UNL     1      -8.360  13.489  69.329  1.00  0.00     0.000 HD 
HETATM   17  H1  UNL     1      -7.279  12.060  69.239  1.00  0.00     0.000 HD 
HETATM   18  O   UNL     1      -8.722  10.649  67.916  1.00  0.00    -0.125 OA 
ENDBRANCH   9  14
ENDBRANCH   6   8
ENDBRANCH   4   6
ENDBRANCH   2   4
TORSDOF 4
ENDMDL
MODEL      132
REMARK 921   NORMALIZED FREE ENERGY PREDICTED BY IDOCK:   -3.39 KCAL/MOL
REMARK 922        TOTAL FREE ENERGY PREDICTED BY IDOCK:   -4.62 KCAL/MOL
REMARK 923 INTER-LIGAND FREE ENERGY PREDICTED BY IDOCK:   -3.78 KCAL/MOL
REMARK 924 INTRA-LIGAND FREE ENERGY PREDICTED BY IDOCK:   -0.84 KCAL/MOL
REMARK 927      BINDING AFFINITY PREDICTED BY RF-SCORE:    0.00 PKD
ROOT
HETATM    1  C   UNL     1     -10.743   5.900  71.469  1.00  0.00    -0.256 C  
HETATM    2  N   UNL     1     -11.197   6.761  70.392  1.00  0.00    -0.304 NA 
HETATM    3  C   UNL     1     -11.238   6.231  69.034  1.00  0.00    -0.343 C  
ENDROOT
BRANCH   2   4
HETATM    4  N   UNL     1     -12.063   7.751  70.782  1.00  0.00    -0.485 NA 
HETATM    5  H   UNL     1     -13.070   7.705  70.624  1.00  0.00     0.000 HD 
BRANCH   4   6
HETATM    6  N   UNL     1     -11.506   8.712  71.349  1.00  0.00    -0.271 NA 
HETATM    7  H   UNL     1     -11.222   8.678  72.328  1.00  0.00     0.000 HD 
BRANCH   6   8
HETATM    8  C   UNL     1     -11.304   9.808  70.573  1.00  0.00    -0.314 A  
HETATM    9  C   UNL     1     -10.191  10.336  69.939  1.00  0.00    -0.202 A  
HETATM   10  N   UNL     1     -10.521  11.513  69.263  1.00  0.00    -0.421 NA 
HETATM   11  N   UNL     1     -12.308  10.701  70.281  1.00  0.00    -0.321 NA 
HETATM   12  C   UNL     1     -11.800  11.692  69.494  1.00  0.00    -0.348 A  
HETATM   13  H   UNL     1      -9.902  12.105  68.711  1.00  0.00     0.000 HD 
BRANCH   9  14
HETATM   14  C   UNL     1      -8.837   9.787  69.931  1.00  0.00    -0.225 C  
HETATM   15  N   UNL     1      -8.789   8.455  70.239  1.00  0.00    -0.138 N  
HETATM   16  H2  UNL     1      -9.617   7.900  70.452  1.00  0.00     0.000 HD 
HETATM   17  H1  UNL     1      -7.844   8.072  70.234  1.00  0.00     0.000 HD 
HETATM   18  O   UNL     1      -7.817  10.421  69.683  1.00  0.00    -0.156 OA 
ENDBRANCH   9  14
ENDBRANCH   6   8
ENDBRANCH   4   6
ENDBRANCH   2   4
TORSDOF 4
ENDMDL
MODEL      133
REMARK 921   NORMALIZED FREE ENERGY PREDICTED BY IDOCK:   -3.39 KCAL/MOL
REMARK 922        TOTAL FREE ENERGY PREDICTED BY IDOCK:   -4.62 KCAL/MOL
REMARK 923 INTER-LIGAND FREE ENERGY PREDICTED BY IDOCK:   -4.07 KCAL/MOL
REMARK 924 INTRA-LIGAND FREE ENERGY PREDICTED BY IDOCK:   -0.55 KCAL/MOL
REMARK 927      BINDING AFFINITY PREDICTED BY RF-SCORE:    0.00 PKD
ROOT
HETATM    1  C   UNL     1     -10.625  17.252  67.697  1.00  0.00    -0.350 C  
HETATM    2  N   UNL     1      -9.550  16.336  68.033  1.00  0.00    -0.223 NA 
HETATM    3  C   UNL     1      -8.248  16.880  68.402  1.00  0.00    -0.232 C  
ENDROOT
BRANCH   2   4
HETATM    4  N   UNL     1      -9.968  15.126  68.528  1.00  0.00    -0.217 NA 
HETATM    5  H   UNL     1     -10.618  15.039  69.310  1.00  0.00     0.000 HD 
BRANCH   4   6
HETATM    6  N   UNL     1      -9.481  14.144  67.934  1.00  0.00    -0.205 NA 
HETATM    7  H   UNL     1      -8.498  13.885  68.023  1.00  0.00     0.000 HD 
BRANCH   6   8
HETATM    8  C   UNL     1     -10.348  13.442  67.161  1.00  0.00    -0.246 A  
HETATM    9  C   UNL     1     -11.360  12.537  67.440  1.00  0.00    -0.313 A  
HETATM   10  N   UNL     1     -11.955  12.084  66.261  1.00  0.00    -0.574 NA 
HETATM   11  N   UNL     1     -10.334  13.510  65.787  1.00  0.00    -0.286 NA 
HETATM   12  C   UNL     1     -11.309  12.695  65.296  1.00  0.00    -0.315 A  
HETATM   13  H   UNL     1     -12.724  11.421  66.170  1.00  0.00     0.000 HD 
BRANCH   9  14
HETATM   14  C   UNL     1     -11.797  12.084  68.759  1.00  0.00    -0.302 C  
HETATM   15  N   UNL     1     -11.979  10.731  68.835  1.00  0.00    -0.497 N  
HETATM   16  H2  UNL     1     -11.825  10.101  68.049  1.00  0.00     0.000 HD 
HETATM   17  H1  UNL     1     -12.284  10.415  69.755  1.00  0.00     0.000 HD 
HETATM   18  O   UNL     1     -11.997  12.810  69.727  1.00  0.00    -0.314 OA 
ENDBRANCH   9  14
ENDBRANCH   6   8
ENDBRANCH   4   6
ENDBRANCH   2   4
TORSDOF 4
ENDMDL
MODEL      134
REMARK 921   NORMALIZED FREE ENERGY PREDICTED BY IDOCK:   -3.38 KCAL/MOL
REMARK 922        TOTAL FREE ENERGY PREDICTED BY IDOCK:   -4.61 KCAL/MOL
REMARK 923 INTER-LIGAND FREE ENERGY PREDICTED BY IDOCK:   -3.95 KCAL/MOL
REMARK 924 INTRA-LIGAND FREE ENERGY PREDICTED BY IDOCK:   -0.66 KCAL/MOL
REMARK 927      BINDING AFFINITY PREDICTED BY RF-SCORE:    0.00 PKD
ROOT
HETATM    1  C   UNL     1     -10.755   3.740  64.030  1.00  0.00    -0.242 C  
HETATM    2  N   UNL     1      -9.981   3.957  65.240  1.00  0.00    -0.178 NA 
HETATM    3  C   UNL     1      -8.905   3.029  65.566  1.00  0.00    -0.137 C  
ENDROOT
BRANCH   2   4
HETATM    4  N   UNL     1      -9.925   5.266  65.650  1.00  0.00    -0.377 NA 
HETATM    5  H   UNL     1      -9.088   5.843  65.561  1.00  0.00     0.000 HD 
BRANCH   4   6
HETATM    6  N   UNL     1     -10.992   5.684  66.143  1.00  0.00    -0.735 NA 
HETATM    7  H   UNL     1     -11.902   5.477  65.731  1.00  0.00     0.000 HD 
BRANCH   6   8
HETATM    8  C   UNL     1     -10.859   6.436  67.265  1.00  0.00    -0.385 A  
HETATM    9  C   UNL     1     -10.523   7.761  67.493  1.00  0.00    -0.268 A  
HETATM   10  N   UNL     1     -10.515   8.039  68.861  1.00  0.00    -0.277 NA 
HETATM   11  N   UNL     1     -11.035   5.917  68.527  1.00  0.00    -0.263 NA 
HETATM   12  C   UNL     1     -10.830   6.906  69.442  1.00  0.00    -0.249 A  
HETATM   13  H   UNL     1     -10.309   8.930  69.311  1.00  0.00     0.000 HD 
BRANCH   9  14
HETATM   14  C   UNL     1     -10.216   8.777  66.489  1.00  0.00    -0.244 C  
HETATM   15  N   UNL     1      -9.398   8.325  65.491  1.00  0.00    -0.420 N  
HETATM   16  H2  UNL     1      -9.037   7.373  65.452  1.00  0.00     0.000 HD 
HETATM   17  H1  UNL     1      -9.183   9.034  64.791  1.00  0.00     0.000 HD 
HETATM   18  O   UNL     1     -10.628   9.933  66.502  1.00  0.00    -0.176 OA 
ENDBRANCH   9  14
ENDBRANCH   6   8
ENDBRANCH   4   6
ENDBRANCH   2   4
TORSDOF 4
ENDMDL
MODEL      135
REMARK 921   NORMALIZED FREE ENERGY PREDICTED BY IDOCK:   -3.38 KCAL/MOL
REMARK 922        TOTAL FREE ENERGY PREDICTED BY IDOCK:   -4.60 KCAL/MOL
REMARK 923 INTER-LIGAND FREE ENERGY PREDICTED BY IDOCK:   -4.00 KCAL/MOL
REMARK 924 INTRA-LIGAND FREE ENERGY PREDICTED BY IDOCK:   -0.60 KCAL/MOL
REMARK 927      BINDING AFFINITY PREDICTED BY RF-SCORE:    0.00 PKD
ROOT
HETATM    1  C   UNL     1      -6.430  17.623  68.451  1.00  0.00    -0.193 C  
HETATM    2  N   UNL     1      -6.637  17.389  67.033  1.00  0.00    -0.162 NA 
HETATM    3  C   UNL     1      -5.552  17.680  66.103  1.00  0.00    -0.206 C  
ENDROOT
BRANCH   2   4
HETATM    4  N   UNL     1      -7.561  16.415  66.747  1.00  0.00    -0.235 NA 
HETATM    5  H   UNL     1      -7.502  15.466  67.118  1.00  0.00     0.000 HD 
BRANCH   4   6
HETATM    6  N   UNL     1      -8.478  16.796  65.993  1.00  0.00    -0.487 NA 
HETATM    7  H   UNL     1      -8.535  16.508  65.016  1.00  0.00     0.000 HD 
BRANCH   6   8
HETATM    8  C   UNL     1      -9.394  17.621  66.561  1.00  0.00    -0.272 A  
HETATM    9  C   UNL     1     -10.292  17.475  67.606  1.00  0.00    -0.360 A  
HETATM   10  N   UNL     1     -11.033  18.644  67.785  1.00  0.00    -0.248 NA 
HETATM   11  N   UNL     1      -9.623  18.897  66.102  1.00  0.00    -0.468 NA 
HETATM   12  C   UNL     1     -10.597  19.470  66.864  1.00  0.00    -0.490 A  
HETATM   13  H   UNL     1     -11.757  18.819  68.482  1.00  0.00     0.000 HD 
BRANCH   9  14
HETATM   14  C   UNL     1     -10.482  16.294  68.446  1.00  0.00    -0.282 C  
HETATM   15  N   UNL     1     -11.796  16.022  68.709  1.00  0.00    -0.406 N  
HETATM   16  H2  UNL     1     -12.567  16.587  68.354  1.00  0.00     0.000 HD 
HETATM   17  H1  UNL     1     -11.929  15.198  69.295  1.00  0.00     0.000 HD 
HETATM   18  O   UNL     1      -9.582  15.591  68.894  1.00  0.00    -0.195 OA 
ENDBRANCH   9  14
ENDBRANCH   6   8
ENDBRANCH   4   6
ENDBRANCH   2   4
TORSDOF 4
ENDMDL
MODEL      136
REMARK 921   NORMALIZED FREE ENERGY PREDICTED BY IDOCK:   -3.37 KCAL/MOL
REMARK 922        TOTAL FREE ENERGY PREDICTED BY IDOCK:   -4.60 KCAL/MOL
REMARK 923 INTER-LIGAND FREE ENERGY PREDICTED BY IDOCK:   -3.93 KCAL/MOL
REMARK 924 INTRA-LIGAND FREE ENERGY PREDICTED BY IDOCK:   -0.67 KCAL/MOL
REMARK 927      BINDING AFFINITY PREDICTED BY RF-SCORE:    0.00 PKD
ROOT
HETATM    1  C   UNL     1     -10.565   7.975  67.210  1.00  0.00    -0.290 C  
HETATM    2  N   UNL     1     -10.757   8.675  68.468  1.00  0.00    -0.107 NA 
HETATM    3  C   UNL     1      -9.914   8.326  69.606  1.00  0.00    -0.193 C  
ENDROOT
BRANCH   2   4
HETATM    4  N   UNL     1     -11.272   9.941  68.341  1.00  0.00    -0.505 NA 
HETATM    5  H   UNL     1     -12.143  10.141  67.850  1.00  0.00     0.000 HD 
BRANCH   4   6
HETATM    6  N   UNL     1     -10.575  10.823  68.881  1.00  0.00    -0.202 NA 
HETATM    7  H   UNL     1      -9.567  10.725  69.001  1.00  0.00     0.000 HD 
BRANCH   6   8
HETATM    8  C   UNL     1     -11.251  11.923  69.300  1.00  0.00    -0.242 A  
HETATM    9  C   UNL     1     -12.175  12.150  70.307  1.00  0.00    -0.264 A  
HETATM   10  N   UNL     1     -12.584  13.486  70.309  1.00  0.00    -0.210 NA 
HETATM   11  N   UNL     1     -11.126  13.146  68.682  1.00  0.00    -0.257 NA 
HETATM   12  C   UNL     1     -11.928  14.045  69.320  1.00  0.00    -0.353 A  
HETATM   13  H   UNL     1     -13.248  13.930  70.942  1.00  0.00     0.000 HD 
BRANCH   9  14
HETATM   14  C   UNL     1     -12.686  11.177  71.270  1.00  0.00    -0.426 C  
HETATM   15  N   UNL     1     -13.450  11.738  72.256  1.00  0.00    -0.547 N  
HETATM   16  H2  UNL     1     -13.643  12.737  72.313  1.00  0.00     0.000 HD 
HETATM   17  H1  UNL     1     -13.807  11.059  72.927  1.00  0.00     0.000 HD 
HETATM   18  O   UNL     1     -12.474   9.969  71.237  1.00  0.00    -0.331 OA 
ENDBRANCH   9  14
ENDBRANCH   6   8
ENDBRANCH   4   6
ENDBRANCH   2   4
TORSDOF 4
ENDMDL
MODEL      137
REMARK 921   NORMALIZED FREE ENERGY PREDICTED BY IDOCK:   -3.36 KCAL/MOL
REMARK 922        TOTAL FREE ENERGY PREDICTED BY IDOCK:   -4.59 KCAL/MOL
REMARK 923 INTER-LIGAND FREE ENERGY PREDICTED BY IDOCK:   -3.90 KCAL/MOL
REMARK 924 INTRA-LIGAND FREE ENERGY PREDICTED BY IDOCK:   -0.69 KCAL/MOL
REMARK 927      BINDING AFFINITY PREDICTED BY RF-SCORE:    0.00 PKD
ROOT
HETATM    1  C   UNL     1     -11.800   9.836  71.300  1.00  0.00    -0.399 C  
HETATM    2  N   UNL     1     -12.297  10.700  70.245  1.00  0.00    -0.321 NA 
HETATM    3  C   UNL     1     -12.503  12.115  70.530  1.00  0.00    -0.198 C  
ENDROOT
BRANCH   2   4
HETATM    4  N   UNL     1     -11.990  10.280  68.975  1.00  0.00    -0.609 NA 
HETATM    5  H   UNL     1     -12.688   9.921  68.322  1.00  0.00     0.000 HD 
BRANCH   4   6
HETATM    6  N   UNL     1     -10.779  10.376  68.692  1.00  0.00    -0.204 NA 
HETATM    7  H   UNL     1     -10.104  10.809  69.323  1.00  0.00     0.000 HD 
BRANCH   6   8
HETATM    8  C   UNL     1     -10.420   9.866  67.486  1.00  0.00    -0.255 A  
HETATM    9  C   UNL     1     -10.083   8.595  67.050  1.00  0.00    -0.272 A  
HETATM   10  N   UNL     1      -9.774   8.608  65.688  1.00  0.00    -0.438 NA 
HETATM   11  N   UNL     1     -10.291  10.649  66.362  1.00  0.00    -0.237 NA 
HETATM   12  C   UNL     1      -9.915   9.858  65.317  1.00  0.00    -0.249 A  
HETATM   13  H   UNL     1      -9.500   7.816  65.107  1.00  0.00     0.000 HD 
BRANCH   9  14
HETATM   14  C   UNL     1     -10.041   7.371  67.847  1.00  0.00    -0.178 C  
HETATM   15  N   UNL     1     -10.943   7.362  68.875  1.00  0.00    -0.421 N  
HETATM   16  H2  UNL     1     -11.581   8.133  69.066  1.00  0.00     0.000 HD 
HETATM   17  H1  UNL     1     -10.914   6.508  69.431  1.00  0.00     0.000 HD 
HETATM   18  O   UNL     1      -9.287   6.423  67.651  1.00  0.00    -0.119 OA 
ENDBRANCH   9  14
ENDBRANCH   6   8
ENDBRANCH   4   6
ENDBRANCH   2   4
TORSDOF 4
ENDMDL
MODEL      138
REMARK 921   NORMALIZED FREE ENERGY PREDICTED BY IDOCK:   -3.36 KCAL/MOL
REMARK 922        TOTAL FREE ENERGY PREDICTED BY IDOCK:   -4.58 KCAL/MOL
REMARK 923 INTER-LIGAND FREE ENERGY PREDICTED BY IDOCK:   -4.17 KCAL/MOL
REMARK 924 INTRA-LIGAND FREE ENERGY PREDICTED BY IDOCK:   -0.41 KCAL/MOL
REMARK 927      BINDING AFFINITY PREDICTED BY RF-SCORE:    0.00 PKD
ROOT
HETATM    1  C   UNL     1     -10.402  15.063  68.408  1.00  0.00    -0.231 C  
HETATM    2  N   UNL     1      -9.936  14.944  67.038  1.00  0.00    -0.237 NA 
HETATM    3  C   UNL     1      -8.656  15.540  66.674  1.00  0.00    -0.290 C  
ENDROOT
BRANCH   2   4
HETATM    4  N   UNL     1     -10.410  13.842  66.371  1.00  0.00    -0.284 NA 
HETATM    5  H   UNL     1     -11.402  13.606  66.319  1.00  0.00     0.000 HD 
BRANCH   4   6
HETATM    6  N   UNL     1      -9.518  13.156  65.835  1.00  0.00    -0.470 NA 
HETATM    7  H   UNL     1      -8.694  13.575  65.402  1.00  0.00     0.000 HD 
BRANCH   6   8
HETATM    8  C   UNL     1      -9.717  11.814  65.866  1.00  0.00    -0.237 A  
HETATM    9  C   UNL     1      -9.986  10.866  64.891  1.00  0.00    -0.303 A  
HETATM   10  N   UNL     1     -10.119   9.598  65.461  1.00  0.00    -0.332 NA 
HETATM   11  N   UNL     1      -9.709  11.093  67.037  1.00  0.00    -0.184 NA 
HETATM   12  C   UNL     1      -9.943   9.782  66.748  1.00  0.00    -0.218 A  
HETATM   13  H   UNL     1     -10.312   8.720  64.980  1.00  0.00     0.000 HD 
BRANCH   9  14
HETATM   14  C   UNL     1     -10.118  11.093  63.454  1.00  0.00    -0.390 C  
HETATM   15  N   UNL     1     -11.215  11.837  63.120  1.00  0.00    -0.725 N  
HETATM   16  H2  UNL     1     -11.876  12.198  63.807  1.00  0.00     0.000 HD 
HETATM   17  H1  UNL     1     -11.307  11.995  62.117  1.00  0.00     0.000 HD 
HETATM   18  O   UNL     1      -9.346  10.674  62.597  1.00  0.00    -0.268 OA 
ENDBRANCH   9  14
ENDBRANCH   6   8
ENDBRANCH   4   6
ENDBRANCH   2   4
TORSDOF 4
ENDMDL
MODEL      139
REMARK 921   NORMALIZED FREE ENERGY PREDICTED BY IDOCK:   -3.34 KCAL/MOL
REMARK 922        TOTAL FREE ENERGY PREDICTED BY IDOCK:   -4.56 KCAL/MOL
REMARK 923 INTER-LIGAND FREE ENERGY PREDICTED BY IDOCK:   -3.98 KCAL/MOL
REMARK 924 INTRA-LIGAND FREE ENERGY PREDICTED BY IDOCK:   -0.59 KCAL/MOL
REMARK 927      BINDING AFFINITY PREDICTED BY RF-SCORE:    0.00 PKD
ROOT
HETATM    1  C   UNL     1      -9.813  15.162  69.098  1.00  0.00    -0.237 C  
HETATM    2  N   UNL     1     -10.605  14.088  68.525  1.00  0.00    -0.249 NA 
HETATM    3  C   UNL     1     -10.672  13.957  67.075  1.00  0.00    -0.283 C  
ENDROOT
BRANCH   2   4
HETATM    4  N   UNL     1     -10.739  12.988  69.334  1.00  0.00    -0.431 NA 
HETATM    5  H   UNL     1      -9.945  12.518  69.772  1.00  0.00     0.000 HD 
BRANCH   4   6
HETATM    6  N   UNL     1     -11.919  12.615  69.486  1.00  0.00    -0.297 NA 
HETATM    7  H   UNL     1     -12.708  13.132  69.096  1.00  0.00     0.000 HD 
BRANCH   6   8
HETATM    8  C   UNL     1     -12.083  11.475  70.204  1.00  0.00    -0.351 A  
HETATM    9  C   UNL     1     -11.666  10.166  70.025  1.00  0.00    -0.223 A  
HETATM   10  N   UNL     1     -12.121   9.358  71.069  1.00  0.00    -0.318 NA 
HETATM   11  N   UNL     1     -12.815  11.435  71.369  1.00  0.00    -0.422 NA 
HETATM   12  C   UNL     1     -12.803  10.160  71.851  1.00  0.00    -0.427 A  
HETATM   13  H   UNL     1     -11.959   8.359  71.195  1.00  0.00     0.000 HD 
BRANCH   9  14
HETATM   14  C   UNL     1     -10.859   9.640  68.927  1.00  0.00    -0.174 C  
HETATM   15  N   UNL     1     -11.123  10.235  67.725  1.00  0.00    -0.384 N  
HETATM   16  H2  UNL     1     -11.816  10.974  67.607  1.00  0.00     0.000 HD 
HETATM   17  H1  UNL     1     -10.560   9.869  66.959  1.00  0.00     0.000 HD 
HETATM   18  O   UNL     1     -10.018   8.752  69.028  1.00  0.00    -0.181 OA 
ENDBRANCH   9  14
ENDBRANCH   6   8
ENDBRANCH   4   6
ENDBRANCH   2   4
TORSDOF 4
ENDMDL
MODEL      140
REMARK 921   NORMALIZED FREE ENERGY PREDICTED BY IDOCK:   -3.33 KCAL/MOL
REMARK 922        TOTAL FREE ENERGY PREDICTED BY IDOCK:   -4.55 KCAL/MOL
REMARK 923 INTER-LIGAND FREE ENERGY PREDICTED BY IDOCK:   -3.98 KCAL/MOL
REMARK 924 INTRA-LIGAND FREE ENERGY PREDICTED BY IDOCK:   -0.57 KCAL/MOL
REMARK 927      BINDING AFFINITY PREDICTED BY RF-SCORE:    0.00 PKD
ROOT
HETATM    1  C   UNL     1      -9.293  10.093  67.580  1.00  0.00    -0.148 C  
HETATM    2  N   UNL     1      -8.718  10.431  68.869  1.00  0.00    -0.148 NA 
HETATM    3  C   UNL     1      -7.602  11.369  68.921  1.00  0.00    -0.114 C  
ENDROOT
BRANCH   2   4
HETATM    4  N   UNL     1      -9.587  10.320  69.926  1.00  0.00    -0.405 NA 
HETATM    5  H   UNL     1      -9.291  10.385  70.900  1.00  0.00     0.000 HD 
BRANCH   4   6
HETATM    6  N   UNL     1     -10.771  10.131  69.584  1.00  0.00    -0.245 NA 
HETATM    7  H   UNL     1     -11.027   9.840  68.640  1.00  0.00     0.000 HD 
BRANCH   6   8
HETATM    8  C   UNL     1     -11.697  10.338  70.555  1.00  0.00    -0.331 A  
HETATM    9  C   UNL     1     -12.199   9.551  71.580  1.00  0.00    -0.386 A  
HETATM   10  N   UNL     1     -13.168  10.247  72.305  1.00  0.00    -0.570 NA 
HETATM   11  N   UNL     1     -12.398  11.517  70.667  1.00  0.00    -0.373 NA 
HETATM   12  C   UNL     1     -13.253  11.421  71.725  1.00  0.00    -0.367 A  
HETATM   13  H   UNL     1     -13.695   9.915  73.112  1.00  0.00     0.000 HD 
BRANCH   9  14
HETATM   14  C   UNL     1     -11.809   8.183  71.912  1.00  0.00    -0.317 C  
HETATM   15  N   UNL     1     -10.488   8.060  72.242  1.00  0.00    -0.255 N  
HETATM   16  H2  UNL     1      -9.839   8.846  72.255  1.00  0.00     0.000 HD 
HETATM   17  H1  UNL     1     -10.215   7.106  72.474  1.00  0.00     0.000 HD 
HETATM   18  O   UNL     1     -12.558   7.212  71.906  1.00  0.00    -0.323 OA 
ENDBRANCH   9  14
ENDBRANCH   6   8
ENDBRANCH   4   6
ENDBRANCH   2   4
TORSDOF 4
ENDMDL
MODEL      141
REMARK 921   NORMALIZED FREE ENERGY PREDICTED BY IDOCK:   -3.33 KCAL/MOL
REMARK 922        TOTAL FREE ENERGY PREDICTED BY IDOCK:   -4.54 KCAL/MOL
REMARK 923 INTER-LIGAND FREE ENERGY PREDICTED BY IDOCK:   -3.88 KCAL/MOL
REMARK 924 INTRA-LIGAND FREE ENERGY PREDICTED BY IDOCK:   -0.66 KCAL/MOL
REMARK 927      BINDING AFFINITY PREDICTED BY RF-SCORE:    0.00 PKD
ROOT
HETATM    1  C   UNL     1      -9.267   4.236  72.193  1.00  0.00    -0.123 C  
HETATM    2  N   UNL     1      -9.961   5.077  71.235  1.00  0.00    -0.188 NA 
HETATM    3  C   UNL     1      -9.926   4.715  69.823  1.00  0.00    -0.225 C  
ENDROOT
BRANCH   2   4
HETATM    4  N   UNL     1     -11.027   5.768  71.754  1.00  0.00    -0.264 NA 
HETATM    5  H   UNL     1     -11.210   5.841  72.755  1.00  0.00     0.000 HD 
BRANCH   4   6
HETATM    6  N   UNL     1     -11.751   6.300  70.888  1.00  0.00    -0.294 NA 
HETATM    7  H   UNL     1     -11.828   5.931  69.940  1.00  0.00     0.000 HD 
BRANCH   6   8
HETATM    8  C   UNL     1     -12.429   7.404  71.294  1.00  0.00    -0.346 A  
HETATM    9  C   UNL     1     -12.087   8.741  71.423  1.00  0.00    -0.307 A  
HETATM   10  N   UNL     1     -13.168   9.481  71.906  1.00  0.00    -0.408 NA 
HETATM   11  N   UNL     1     -13.733   7.351  71.729  1.00  0.00    -0.349 NA 
HETATM   12  C   UNL     1     -14.133   8.608  72.073  1.00  0.00    -0.453 A  
HETATM   13  H   UNL     1     -13.200  10.483  72.090  1.00  0.00     0.000 HD 
BRANCH   9  14
HETATM   14  C   UNL     1     -10.799   9.355  71.108  1.00  0.00    -0.357 C  
HETATM   15  N   UNL     1      -9.746   8.772  71.756  1.00  0.00    -0.292 N  
HETATM   16  H2  UNL     1      -9.850   7.985  72.396  1.00  0.00     0.000 HD 
HETATM   17  H1  UNL     1      -8.848   9.201  71.537  1.00  0.00     0.000 HD 
HETATM   18  O   UNL     1     -10.634  10.303  70.347  1.00  0.00    -0.278 OA 
ENDBRANCH   9  14
ENDBRANCH   6   8
ENDBRANCH   4   6
ENDBRANCH   2   4
TORSDOF 4
ENDMDL
MODEL      142
REMARK 921   NORMALIZED FREE ENERGY PREDICTED BY IDOCK:   -3.32 KCAL/MOL
REMARK 922        TOTAL FREE ENERGY PREDICTED BY IDOCK:   -4.54 KCAL/MOL
REMARK 923 INTER-LIGAND FREE ENERGY PREDICTED BY IDOCK:   -4.04 KCAL/MOL
REMARK 924 INTRA-LIGAND FREE ENERGY PREDICTED BY IDOCK:   -0.50 KCAL/MOL
REMARK 927      BINDING AFFINITY PREDICTED BY RF-SCORE:    0.00 PKD
ROOT
HETATM    1  C   UNL     1     -10.213  11.327  63.687  1.00  0.00    -0.392 C  
HETATM    2  N   UNL     1     -10.709  12.652  64.013  1.00  0.00    -0.398 NA 
HETATM    3  C   UNL     1     -12.141  12.841  64.211  1.00  0.00    -0.425 C  
ENDROOT
BRANCH   2   4
HETATM    4  N   UNL     1      -9.802  13.455  64.658  1.00  0.00    -0.611 NA 
HETATM    5  H   UNL     1      -9.251  14.169  64.181  1.00  0.00     0.000 HD 
BRANCH   4   6
HETATM    6  N   UNL     1      -9.712  13.230  65.882  1.00  0.00    -0.437 NA 
HETATM    7  H   UNL     1      -9.593  12.289  66.256  1.00  0.00     0.000 HD 
BRANCH   6   8
HETATM    8  C   UNL     1      -9.785  14.324  66.682  1.00  0.00    -0.287 A  
HETATM    9  C   UNL     1      -8.898  14.926  67.560  1.00  0.00    -0.188 A  
HETATM   10  N   UNL     1      -9.479  16.045  68.158  1.00  0.00    -0.206 NA 
HETATM   11  N   UNL     1     -10.921  15.095  66.777  1.00  0.00    -0.321 NA 
HETATM   12  C   UNL     1     -10.690  16.110  67.658  1.00  0.00    -0.318 A  
HETATM   13  H   UNL     1      -9.054  16.676  68.837  1.00  0.00     0.000 HD 
BRANCH   9  14
HETATM   14  C   UNL     1      -7.531  14.503  67.859  1.00  0.00    -0.150 C  
HETATM   15  N   UNL     1      -7.001  15.119  68.958  1.00  0.00    -0.121 N  
HETATM   16  H2  UNL     1      -7.509  15.806  69.514  1.00  0.00     0.000 HD 
HETATM   17  H1  UNL     1      -6.048  14.825  69.167  1.00  0.00     0.000 HD 
HETATM   18  O   UNL     1      -6.886  13.683  67.214  1.00  0.00    -0.181 OA 
ENDBRANCH   9  14
ENDBRANCH   6   8
ENDBRANCH   4   6
ENDBRANCH   2   4
TORSDOF 4
ENDMDL
MODEL      143
REMARK 921   NORMALIZED FREE ENERGY PREDICTED BY IDOCK:   -3.32 KCAL/MOL
REMARK 922        TOTAL FREE ENERGY PREDICTED BY IDOCK:   -4.53 KCAL/MOL
REMARK 923 INTER-LIGAND FREE ENERGY PREDICTED BY IDOCK:   -3.94 KCAL/MOL
REMARK 924 INTRA-LIGAND FREE ENERGY PREDICTED BY IDOCK:   -0.60 KCAL/MOL
REMARK 927      BINDING AFFINITY PREDICTED BY RF-SCORE:    0.00 PKD
ROOT
HETATM    1  C   UNL     1      -9.445  15.350  69.274  1.00  0.00    -0.261 C  
HETATM    2  N   UNL     1      -8.058  15.676  68.993  1.00  0.00    -0.204 NA 
HETATM    3  C   UNL     1      -7.186  14.642  68.450  1.00  0.00    -0.117 C  
ENDROOT
BRANCH   2   4
HETATM    4  N   UNL     1      -7.832  17.000  68.712  1.00  0.00    -0.253 NA 
HETATM    5  H   UNL     1      -7.763  17.719  69.434  1.00  0.00     0.000 HD 
BRANCH   4   6
HETATM    6  N   UNL     1      -7.720  17.244  67.494  1.00  0.00    -0.174 NA 
HETATM    7  H   UNL     1      -6.912  16.943  66.950  1.00  0.00     0.000 HD 
BRANCH   6   8
HETATM    8  C   UNL     1      -8.747  17.939  66.942  1.00  0.00    -0.246 A  
HETATM    9  C   UNL     1      -9.811  17.584  66.128  1.00  0.00    -0.242 A  
HETATM   10  N   UNL     1     -10.592  18.701  65.823  1.00  0.00    -0.580 NA 
HETATM   11  N   UNL     1      -8.893  19.297  67.107  1.00  0.00    -0.288 NA 
HETATM   12  C   UNL     1     -10.006  19.704  66.433  1.00  0.00    -0.455 A  
HETATM   13  H   UNL     1     -11.435  18.731  65.251  1.00  0.00     0.000 HD 
BRANCH   9  14
HETATM   14  C   UNL     1     -10.132  16.249  65.628  1.00  0.00    -0.312 C  
HETATM   15  N   UNL     1      -9.134  15.338  65.836  1.00  0.00    -0.452 N  
HETATM   16  H2  UNL     1      -8.253  15.567  66.294  1.00  0.00     0.000 HD 
HETATM   17  H1  UNL     1      -9.357  14.406  65.487  1.00  0.00     0.000 HD 
HETATM   18  O   UNL     1     -11.178  15.934  65.070  1.00  0.00    -0.355 OA 
ENDBRANCH   9  14
ENDBRANCH   6   8
ENDBRANCH   4   6
ENDBRANCH   2   4
TORSDOF 4
ENDMDL
MODEL      144
REMARK 921   NORMALIZED FREE ENERGY PREDICTED BY IDOCK:   -3.32 KCAL/MOL
REMARK 922        TOTAL FREE ENERGY PREDICTED BY IDOCK:   -4.53 KCAL/MOL
REMARK 923 INTER-LIGAND FREE ENERGY PREDICTED BY IDOCK:   -3.91 KCAL/MOL
REMARK 924 INTRA-LIGAND FREE ENERGY PREDICTED BY IDOCK:   -0.62 KCAL/MOL
REMARK 927      BINDING AFFINITY PREDICTED BY RF-SCORE:    0.00 PKD
ROOT
HETATM    1  C   UNL     1      -6.979  16.638  68.363  1.00  0.00    -0.160 C  
HETATM    2  N   UNL     1      -6.876  15.500  67.468  1.00  0.00    -0.182 NA 
HETATM    3  C   UNL     1      -6.310  14.254  67.972  1.00  0.00    -0.153 C  
ENDROOT
BRANCH   2   4
HETATM    4  N   UNL     1      -7.802  15.488  66.456  1.00  0.00    -0.262 NA 
HETATM    5  H   UNL     1      -7.548  15.492  65.467  1.00  0.00     0.000 HD 
BRANCH   4   6
HETATM    6  N   UNL     1      -8.984  15.471  66.855  1.00  0.00    -0.227 NA 
HETATM    7  H   UNL     1      -9.231  15.235  67.816  1.00  0.00     0.000 HD 
BRANCH   6   8
HETATM    8  C   UNL     1      -9.919  15.787  65.923  1.00  0.00    -0.352 A  
HETATM    9  C   UNL     1     -10.364  16.984  65.386  1.00  0.00    -0.063 A  
HETATM   10  N   UNL     1     -11.375  16.758  64.449  1.00  0.00    -1.214 NA 
HETATM   11  N   UNL     1     -10.695  14.835  65.304  1.00  0.00    -0.361 NA 
HETATM   12  C   UNL     1     -11.539  15.456  64.431  1.00  0.00    -0.264 A  
HETATM   13  H   UNL     1     -11.877  17.454  63.899  1.00  0.00     0.000 HD 
BRANCH   9  14
HETATM   14  C   UNL     1      -9.883  18.327  65.705  1.00  0.00     0.164 C  
HETATM   15  N   UNL     1     -10.856  19.284  65.629  1.00  0.00    -0.343 N  
HETATM   16  H2  UNL     1     -11.822  19.081  65.374  1.00  0.00     0.000 HD 
HETATM   17  H1  UNL     1     -10.521  20.221  65.851  1.00  0.00     0.000 HD 
HETATM   18  O   UNL     1      -8.730  18.611  66.013  1.00  0.00    -0.491 OA 
ENDBRANCH   9  14
ENDBRANCH   6   8
ENDBRANCH   4   6
ENDBRANCH   2   4
TORSDOF 4
ENDMDL
MODEL      145
REMARK 921   NORMALIZED FREE ENERGY PREDICTED BY IDOCK:   -3.31 KCAL/MOL
REMARK 922        TOTAL FREE ENERGY PREDICTED BY IDOCK:   -4.53 KCAL/MOL
REMARK 923 INTER-LIGAND FREE ENERGY PREDICTED BY IDOCK:   -3.93 KCAL/MOL
REMARK 924 INTRA-LIGAND FREE ENERGY PREDICTED BY IDOCK:   -0.60 KCAL/MOL
REMARK 927      BINDING AFFINITY PREDICTED BY RF-SCORE:    0.00 PKD
ROOT
HETATM    1  C   UNL     1     -12.577  12.696  64.641  1.00  0.00    -0.440 C  
HETATM    2  N   UNL     1     -12.166  13.928  65.291  1.00  0.00    -0.408 NA 
HETATM    3  C   UNL     1     -11.904  15.105  64.472  1.00  0.00    -0.330 C  
ENDROOT
BRANCH   2   4
HETATM    4  N   UNL     1     -12.602  14.059  66.586  1.00  0.00    -0.502 NA 
HETATM    5  H   UNL     1     -13.251  14.787  66.884  1.00  0.00     0.000 HD 
BRANCH   4   6
HETATM    6  N   UNL     1     -12.132  13.204  67.364  1.00  0.00    -0.316 NA 
HETATM    7  H   UNL     1     -12.694  12.440  67.738  1.00  0.00     0.000 HD 
BRANCH   6   8
HETATM    8  C   UNL     1     -10.821  13.362  67.678  1.00  0.00    -0.259 A  
HETATM    9  C   UNL     1     -10.085  14.410  68.208  1.00  0.00    -0.239 A  
HETATM   10  N   UNL     1      -8.739  14.057  68.325  1.00  0.00    -0.178 NA 
HETATM   11  N   UNL     1      -9.886  12.376  67.462  1.00  0.00    -0.192 NA 
HETATM   12  C   UNL     1      -8.667  12.829  67.869  1.00  0.00    -0.185 A  
HETATM   13  H   UNL     1      -7.978  14.630  68.688  1.00  0.00     0.000 HD 
BRANCH   9  14
HETATM   14  C   UNL     1     -10.585  15.722  68.612  1.00  0.00    -0.250 C  
HETATM   15  N   UNL     1      -9.595  16.642  68.815  1.00  0.00    -0.246 N  
HETATM   16  H2  UNL     1      -8.604  16.433  68.695  1.00  0.00     0.000 HD 
HETATM   17  H1  UNL     1      -9.943  17.557  69.097  1.00  0.00     0.000 HD 
HETATM   18  O   UNL     1     -11.767  16.012  68.769  1.00  0.00    -0.385 OA 
ENDBRANCH   9  14
ENDBRANCH   6   8
ENDBRANCH   4   6
ENDBRANCH   2   4
TORSDOF 4
ENDMDL
MODEL      146
REMARK 921   NORMALIZED FREE ENERGY PREDICTED BY IDOCK:   -3.31 KCAL/MOL
REMARK 922        TOTAL FREE ENERGY PREDICTED BY IDOCK:   -4.53 KCAL/MOL
REMARK 923 INTER-LIGAND FREE ENERGY PREDICTED BY IDOCK:   -3.83 KCAL/MOL
REMARK 924 INTRA-LIGAND FREE ENERGY PREDICTED BY IDOCK:   -0.70 KCAL/MOL
REMARK 927      BINDING AFFINITY PREDICTED BY RF-SCORE:    0.00 PKD
ROOT
HETATM    1  C   UNL     1     -10.546   8.072  67.308  1.00  0.00    -0.290 C  
HETATM    2  N   UNL     1     -10.699   8.808  68.550  1.00  0.00    -0.122 NA 
HETATM    3  C   UNL     1      -9.808   8.506  69.664  1.00  0.00    -0.183 C  
ENDROOT
BRANCH   2   4
HETATM    4  N   UNL     1     -11.236  10.063  68.404  1.00  0.00    -0.490 NA 
HETATM    5  H   UNL     1     -11.509  10.648  69.194  1.00  0.00     0.000 HD 
BRANCH   4   6
HETATM    6  N   UNL     1     -11.359  10.422  67.216  1.00  0.00    -0.385 NA 
HETATM    7  H   UNL     1     -11.512   9.756  66.458  1.00  0.00     0.000 HD 
BRANCH   6   8
HETATM    8  C   UNL     1     -11.275  11.759  67.000  1.00  0.00    -0.322 A  
HETATM    9  C   UNL     1     -10.235  12.673  67.064  1.00  0.00    -0.226 A  
HETATM   10  N   UNL     1     -10.688  13.957  66.757  1.00  0.00    -0.280 NA 
HETATM   11  N   UNL     1     -12.369  12.524  66.665  1.00  0.00    -0.383 NA 
HETATM   12  C   UNL     1     -11.972  13.820  66.522  1.00  0.00    -0.434 A  
HETATM   13  H   UNL     1     -10.140  14.816  66.722  1.00  0.00     0.000 HD 
BRANCH   9  14
HETATM   14  C   UNL     1      -8.838  12.397  67.394  1.00  0.00    -0.188 C  
HETATM   15  N   UNL     1      -7.974  13.354  66.939  1.00  0.00    -0.393 N  
HETATM   16  H2  UNL     1      -8.275  14.178  66.420  1.00  0.00     0.000 HD 
HETATM   17  H1  UNL     1      -6.999  13.162  67.169  1.00  0.00     0.000 HD 
HETATM   18  O   UNL     1      -8.437  11.417  68.013  1.00  0.00    -0.133 OA 
ENDBRANCH   9  14
ENDBRANCH   6   8
ENDBRANCH   4   6
ENDBRANCH   2   4
TORSDOF 4
ENDMDL
MODEL      147
REMARK 921   NORMALIZED FREE ENERGY PREDICTED BY IDOCK:   -3.31 KCAL/MOL
REMARK 922        TOTAL FREE ENERGY PREDICTED BY IDOCK:   -4.52 KCAL/MOL
REMARK 923 INTER-LIGAND FREE ENERGY PREDICTED BY IDOCK:   -4.06 KCAL/MOL
REMARK 924 INTRA-LIGAND FREE ENERGY PREDICTED BY IDOCK:   -0.46 KCAL/MOL
REMARK 927      BINDING AFFINITY PREDICTED BY RF-SCORE:    0.00 PKD
ROOT
HETATM    1  C   UNL     1      -6.896  18.029  68.617  1.00  0.00    -0.249 C  
HETATM    2  N   UNL     1      -8.203  17.538  68.221  1.00  0.00    -0.254 NA 
HETATM    3  C   UNL     1      -8.579  17.586  66.813  1.00  0.00    -0.253 C  
ENDROOT
BRANCH   2   4
HETATM    4  N   UNL     1      -8.724  16.578  69.052  1.00  0.00    -0.243 NA 
HETATM    5  H   UNL     1      -8.625  16.606  70.068  1.00  0.00     0.000 HD 
BRANCH   4   6
HETATM    6  N   UNL     1      -9.329  15.667  68.452  1.00  0.00    -0.192 NA 
HETATM    7  H   UNL     1      -8.928  15.185  67.646  1.00  0.00     0.000 HD 
BRANCH   6   8
HETATM    8  C   UNL     1     -10.557  15.361  68.942  1.00  0.00    -0.244 A  
HETATM    9  C   UNL     1     -11.673  14.741  68.403  1.00  0.00    -0.314 A  
HETATM   10  N   UNL     1     -12.705  14.683  69.341  1.00  0.00    -0.518 NA 
HETATM   11  N   UNL     1     -10.945  15.692  70.220  1.00  0.00    -0.322 NA 
HETATM   12  C   UNL     1     -12.224  15.263  70.416  1.00  0.00    -0.363 A  
HETATM   13  H   UNL     1     -13.633  14.278  69.218  1.00  0.00     0.000 HD 
BRANCH   9  14
HETATM   14  C   UNL     1     -11.814  14.198  67.054  1.00  0.00    -0.429 C  
HETATM   15  N   UNL     1     -11.399  15.058  66.076  1.00  0.00    -0.313 N  
HETATM   16  H2  UNL     1     -11.027  15.987  66.269  1.00  0.00     0.000 HD 
HETATM   17  H1  UNL     1     -11.497  14.678  65.134  1.00  0.00     0.000 HD 
HETATM   18  O   UNL     1     -12.258  13.087  66.781  1.00  0.00    -0.368 OA 
ENDBRANCH   9  14
ENDBRANCH   6   8
ENDBRANCH   4   6
ENDBRANCH   2   4
TORSDOF 4
ENDMDL
MODEL      148
REMARK 921   NORMALIZED FREE ENERGY PREDICTED BY IDOCK:   -3.29 KCAL/MOL
REMARK 922        TOTAL FREE ENERGY PREDICTED BY IDOCK:   -4.49 KCAL/MOL
REMARK 923 INTER-LIGAND FREE ENERGY PREDICTED BY IDOCK:   -3.88 KCAL/MOL
REMARK 924 INTRA-LIGAND FREE ENERGY PREDICTED BY IDOCK:   -0.61 KCAL/MOL
REMARK 927      BINDING AFFINITY PREDICTED BY RF-SCORE:    0.00 PKD
ROOT
HETATM    1  C   UNL     1      -6.316  19.043  69.064  1.00  0.00    -0.267 C  
HETATM    2  N   UNL     1      -6.539  19.704  67.791  1.00  0.00    -0.225 NA 
HETATM    3  C   UNL     1      -6.053  21.066  67.607  1.00  0.00    -0.340 C  
ENDROOT
BRANCH   2   4
HETATM    4  N   UNL     1      -6.652  18.851  66.721  1.00  0.00    -0.188 NA 
HETATM    5  H   UNL     1      -6.052  18.036  66.592  1.00  0.00     0.000 HD 
BRANCH   4   6
HETATM    6  N   UNL     1      -7.557  19.165  65.922  1.00  0.00    -0.419 NA 
HETATM    7  H   UNL     1      -7.360  19.470  64.968  1.00  0.00     0.000 HD 
BRANCH   6   8
HETATM    8  C   UNL     1      -8.821  19.072  66.407  1.00  0.00    -0.321 A  
HETATM    9  C   UNL     1      -9.544  18.048  66.997  1.00  0.00    -0.287 A  
HETATM   10  N   UNL     1     -10.837  18.474  67.309  1.00  0.00    -0.370 NA 
HETATM   11  N   UNL     1      -9.711  20.119  66.352  1.00  0.00    -0.422 NA 
HETATM   12  C   UNL     1     -10.891  19.722  66.907  1.00  0.00    -0.333 A  
HETATM   13  H   UNL     1     -11.578  17.933  67.752  1.00  0.00     0.000 HD 
BRANCH   9  14
HETATM   14  C   UNL     1      -9.079  16.694  67.287  1.00  0.00    -0.215 C  
HETATM   15  N   UNL     1      -8.262  16.181  66.317  1.00  0.00    -0.301 N  
HETATM   16  H2  UNL     1      -8.003  16.694  65.475  1.00  0.00     0.000 HD 
HETATM   17  H1  UNL     1      -7.937  15.236  66.519  1.00  0.00     0.000 HD 
HETATM   18  O   UNL     1      -9.369  16.043  68.286  1.00  0.00    -0.194 OA 
ENDBRANCH   9  14
ENDBRANCH   6   8
ENDBRANCH   4   6
ENDBRANCH   2   4
TORSDOF 4
ENDMDL
MODEL      149
REMARK 921   NORMALIZED FREE ENERGY PREDICTED BY IDOCK:   -3.28 KCAL/MOL
REMARK 922        TOTAL FREE ENERGY PREDICTED BY IDOCK:   -4.48 KCAL/MOL
REMARK 923 INTER-LIGAND FREE ENERGY PREDICTED BY IDOCK:   -3.90 KCAL/MOL
REMARK 924 INTRA-LIGAND FREE ENERGY PREDICTED BY IDOCK:   -0.58 KCAL/MOL
REMARK 927      BINDING AFFINITY PREDICTED BY RF-SCORE:    0.00 PKD
ROOT
HETATM    1  C   UNL     1      -7.422  14.726  68.045  1.00  0.00    -0.129 C  
HETATM    2  N   UNL     1      -8.659  14.528  68.779  1.00  0.00    -0.166 NA 
HETATM    3  C   UNL     1      -9.235  15.651  69.509  1.00  0.00    -0.259 C  
ENDROOT
BRANCH   2   4
HETATM    4  N   UNL     1      -9.461  13.532  68.281  1.00  0.00    -0.213 NA 
HETATM    5  H   UNL     1      -9.163  12.559  68.210  1.00  0.00     0.000 HD 
BRANCH   4   6
HETATM    6  N   UNL     1     -10.589  13.927  67.923  1.00  0.00    -0.242 NA 
HETATM    7  H   UNL     1     -11.380  13.973  68.566  1.00  0.00     0.000 HD 
BRANCH   6   8
HETATM    8  C   UNL     1     -10.692  14.290  66.619  1.00  0.00    -0.290 A  
HETATM    9  C   UNL     1     -10.551  13.604  65.423  1.00  0.00    -0.317 A  
HETATM   10  N   UNL     1     -10.750  14.461  64.338  1.00  0.00    -0.588 NA 
HETATM   11  N   UNL     1     -10.963  15.582  66.232  1.00  0.00    -0.287 NA 
HETATM   12  C   UNL     1     -10.996  15.635  64.870  1.00  0.00    -0.431 A  
HETATM   13  H   UNL     1     -10.713  14.225  63.347  1.00  0.00     0.000 HD 
BRANCH   9  14
HETATM   14  C   UNL     1     -10.244  12.186  65.251  1.00  0.00    -0.274 C  
HETATM   15  N   UNL     1      -9.046  11.819  65.798  1.00  0.00    -0.394 N  
HETATM   16  H2  UNL     1      -8.428  12.472  66.278  1.00  0.00     0.000 HD 
HETATM   17  H1  UNL     1      -8.832  10.830  65.678  1.00  0.00     0.000 HD 
HETATM   18  O   UNL     1     -10.961  11.371  64.678  1.00  0.00    -0.310 OA 
ENDBRANCH   9  14
ENDBRANCH   6   8
ENDBRANCH   4   6
ENDBRANCH   2   4
TORSDOF 4
ENDMDL
MODEL      150
REMARK 921   NORMALIZED FREE ENERGY PREDICTED BY IDOCK:   -3.27 KCAL/MOL
REMARK 922        TOTAL FREE ENERGY PREDICTED BY IDOCK:   -4.48 KCAL/MOL
REMARK 923 INTER-LIGAND FREE ENERGY PREDICTED BY IDOCK:   -4.07 KCAL/MOL
REMARK 924 INTRA-LIGAND FREE ENERGY PREDICTED BY IDOCK:   -0.41 KCAL/MOL
REMARK 927      BINDING AFFINITY PREDICTED BY RF-SCORE:    0.00 PKD
ROOT
HETATM    1  C   UNL     1      -7.031  19.696  65.494  1.00  0.00    -0.291 C  
HETATM    2  N   UNL     1      -8.192  19.010  66.033  1.00  0.00    -0.464 NA 
HETATM    3  C   UNL     1      -9.465  19.719  66.096  1.00  0.00    -0.383 C  
ENDROOT
BRANCH   2   4
HETATM    4  N   UNL     1      -8.158  17.645  65.898  1.00  0.00    -0.554 NA 
HETATM    5  H   UNL     1      -7.451  17.157  65.346  1.00  0.00     0.000 HD 
BRANCH   4   6
HETATM    6  N   UNL     1      -9.070  17.056  66.511  1.00  0.00    -0.251 NA 
HETATM    7  H   UNL     1     -10.038  17.061  66.186  1.00  0.00     0.000 HD 
BRANCH   6   8
HETATM    8  C   UNL     1      -8.689  16.406  67.640  1.00  0.00    -0.182 A  
HETATM    9  C   UNL     1      -9.316  15.496  68.476  1.00  0.00    -0.197 A  
HETATM   10  N   UNL     1      -8.475  15.137  69.532  1.00  0.00    -0.403 NA 
HETATM   11  N   UNL     1      -7.459  16.602  68.225  1.00  0.00    -0.175 NA 
HETATM   12  C   UNL     1      -7.373  15.822  69.339  1.00  0.00    -0.217 A  
HETATM   13  H   UNL     1      -8.675  14.484  70.289  1.00  0.00     0.000 HD 
BRANCH   9  14
HETATM   14  C   UNL     1     -10.661  14.945  68.328  1.00  0.00    -0.249 C  
HETATM   15  N   UNL     1     -11.014  14.095  69.339  1.00  0.00    -0.367 N  
HETATM   16  H2  UNL     1     -10.398  13.868  70.119  1.00  0.00     0.000 HD 
HETATM   17  H1  UNL     1     -11.952  13.710  69.236  1.00  0.00     0.000 HD 
HETATM   18  O   UNL     1     -11.430  15.191  67.404  1.00  0.00    -0.332 OA 
ENDBRANCH   9  14
ENDBRANCH   6   8
ENDBRANCH   4   6
ENDBRANCH   2   4
TORSDOF 4
ENDMDL
MODEL      151
REMARK 921   NORMALIZED FREE ENERGY PREDICTED BY IDOCK:   -3.26 KCAL/MOL
REMARK 922        TOTAL FREE ENERGY PREDICTED BY IDOCK:   -4.46 KCAL/MOL
REMARK 923 INTER-LIGAND FREE ENERGY PREDICTED BY IDOCK:   -4.08 KCAL/MOL
REMARK 924 INTRA-LIGAND FREE ENERGY PREDICTED BY IDOCK:   -0.38 KCAL/MOL
REMARK 927      BINDING AFFINITY PREDICTED BY RF-SCORE:    0.00 PKD
ROOT
HETATM    1  C   UNL     1     -11.609   8.164  72.566  1.00  0.00    -0.404 C  
HETATM    2  N   UNL     1     -12.225   8.674  71.354  1.00  0.00    -0.298 NA 
HETATM    3  C   UNL     1     -12.776  10.025  71.357  1.00  0.00    -0.415 C  
ENDROOT
BRANCH   2   4
HETATM    4  N   UNL     1     -11.747   8.117  70.195  1.00  0.00    -0.458 NA 
HETATM    5  H   UNL     1     -11.183   8.633  69.520  1.00  0.00     0.000 HD 
BRANCH   4   6
HETATM    6  N   UNL     1     -12.065   6.920  70.044  1.00  0.00    -0.637 NA 
HETATM    7  H   UNL     1     -12.929   6.534  70.424  1.00  0.00     0.000 HD 
BRANCH   6   8
HETATM    8  C   UNL     1     -11.182   6.167  69.341  1.00  0.00    -0.396 A  
HETATM    9  C   UNL     1     -10.249   5.206  69.698  1.00  0.00    -0.267 A  
HETATM   10  N   UNL     1      -9.570   4.736  68.572  1.00  0.00    -0.148 NA 
HETATM   11  N   UNL     1     -11.037   6.280  67.977  1.00  0.00    -0.329 NA 
HETATM   12  C   UNL     1     -10.076   5.406  67.563  1.00  0.00    -0.180 A  
HETATM   13  H   UNL     1      -8.839   4.026  68.540  1.00  0.00     0.000 HD 
BRANCH   9  14
HETATM   14  C   UNL     1      -9.971   4.705  71.042  1.00  0.00    -0.200 C  
HETATM   15  N   UNL     1      -9.714   3.363  71.079  1.00  0.00    -0.173 N  
HETATM   16  H2  UNL     1      -9.717   2.770  70.250  1.00  0.00     0.000 HD 
HETATM   17  H1  UNL     1      -9.520   3.013  72.016  1.00  0.00     0.000 HD 
HETATM   18  O   UNL     1      -9.960   5.385  72.063  1.00  0.00    -0.174 OA 
ENDBRANCH   9  14
ENDBRANCH   6   8
ENDBRANCH   4   6
ENDBRANCH   2   4
TORSDOF 4
ENDMDL
MODEL      152
REMARK 921   NORMALIZED FREE ENERGY PREDICTED BY IDOCK:   -3.25 KCAL/MOL
REMARK 922        TOTAL FREE ENERGY PREDICTED BY IDOCK:   -4.45 KCAL/MOL
REMARK 923 INTER-LIGAND FREE ENERGY PREDICTED BY IDOCK:   -4.03 KCAL/MOL
REMARK 924 INTRA-LIGAND FREE ENERGY PREDICTED BY IDOCK:   -0.43 KCAL/MOL
REMARK 927      BINDING AFFINITY PREDICTED BY RF-SCORE:    0.00 PKD
ROOT
HETATM    1  C   UNL     1      -8.174   9.861  68.455  1.00  0.00    -0.106 C  
HETATM    2  N   UNL     1      -8.275  11.307  68.358  1.00  0.00    -0.142 NA 
HETATM    3  C   UNL     1      -7.472  12.005  67.361  1.00  0.00    -0.152 C  
ENDROOT
BRANCH   2   4
HETATM    4  N   UNL     1      -9.477  11.821  68.774  1.00  0.00    -0.389 NA 
HETATM    5  H   UNL     1      -9.723  11.938  69.758  1.00  0.00     0.000 HD 
BRANCH   4   6
HETATM    6  N   UNL     1     -10.241  12.133  67.839  1.00  0.00    -0.193 NA 
HETATM    7  H   UNL     1     -10.293  11.595  66.975  1.00  0.00     0.000 HD 
BRANCH   6   8
HETATM    8  C   UNL     1     -10.999  13.239  68.051  1.00  0.00    -0.244 A  
HETATM    9  C   UNL     1     -11.893  13.948  67.265  1.00  0.00    -0.407 A  
HETATM   10  N   UNL     1     -12.405  15.042  67.966  1.00  0.00    -0.430 NA 
HETATM   11  N   UNL     1     -10.969  13.940  69.235  1.00  0.00    -0.221 NA 
HETATM   12  C   UNL     1     -11.825  14.996  69.142  1.00  0.00    -0.308 A  
HETATM   13  H   UNL     1     -13.083  15.728  67.636  1.00  0.00     0.000 HD 
BRANCH   9  14
HETATM   14  C   UNL     1     -12.293  13.646  65.893  1.00  0.00    -0.471 C  
HETATM   15  N   UNL     1     -12.076  12.343  65.539  1.00  0.00    -0.411 N  
HETATM   16  H2  UNL     1     -11.675  11.651  66.171  1.00  0.00     0.000 HD 
HETATM   17  H1  UNL     1     -12.355  12.132  64.581  1.00  0.00     0.000 HD 
HETATM   18  O   UNL     1     -12.776  14.450  65.102  1.00  0.00    -0.549 OA 
ENDBRANCH   9  14
ENDBRANCH   6   8
ENDBRANCH   4   6
ENDBRANCH   2   4
TORSDOF 4
ENDMDL
MODEL      153
REMARK 921   NORMALIZED FREE ENERGY PREDICTED BY IDOCK:   -3.25 KCAL/MOL
REMARK 922        TOTAL FREE ENERGY PREDICTED BY IDOCK:   -4.45 KCAL/MOL
REMARK 923 INTER-LIGAND FREE ENERGY PREDICTED BY IDOCK:   -4.10 KCAL/MOL
REMARK 924 INTRA-LIGAND FREE ENERGY PREDICTED BY IDOCK:   -0.35 KCAL/MOL
REMARK 927      BINDING AFFINITY PREDICTED BY RF-SCORE:    0.00 PKD
ROOT
HETATM    1  C   UNL     1     -10.550   7.699  66.846  1.00  0.00    -0.289 C  
HETATM    2  N   UNL     1     -10.804   6.380  67.396  1.00  0.00    -0.334 NA 
HETATM    3  C   UNL     1     -10.572   5.208  66.560  1.00  0.00    -0.260 C  
ENDROOT
BRANCH   2   4
HETATM    4  N   UNL     1     -10.680   6.300  68.761  1.00  0.00    -0.264 NA 
HETATM    5  H   UNL     1      -9.847   5.937  69.225  1.00  0.00     0.000 HD 
BRANCH   4   6
HETATM    6  N   UNL     1     -11.680   6.713  69.382  1.00  0.00    -0.648 NA 
HETATM    7  H   UNL     1     -12.615   6.711  68.973  1.00  0.00     0.000 HD 
BRANCH   6   8
HETATM    8  C   UNL     1     -11.440   7.167  70.638  1.00  0.00    -0.308 A  
HETATM    9  C   UNL     1     -10.860   8.320  71.142  1.00  0.00    -0.233 A  
HETATM   10  N   UNL     1     -10.840   8.293  72.538  1.00  0.00    -0.355 NA 
HETATM   11  N   UNL     1     -11.753   6.435  71.760  1.00  0.00    -0.317 NA 
HETATM   12  C   UNL     1     -11.388   7.146  72.864  1.00  0.00    -0.217 A  
HETATM   13  H   UNL     1     -10.479   9.009  73.167  1.00  0.00     0.000 HD 
BRANCH   9  14
HETATM   14  C   UNL     1     -10.329   9.447  70.377  1.00  0.00    -0.262 C  
HETATM   15  N   UNL     1     -11.055  10.595  70.527  1.00  0.00    -0.441 N  
HETATM   16  H2  UNL     1     -11.885  10.659  71.115  1.00  0.00     0.000 HD 
HETATM   17  H1  UNL     1     -10.685  11.381  69.994  1.00  0.00     0.000 HD 
HETATM   18  O   UNL     1      -9.336   9.409  69.657  1.00  0.00    -0.166 OA 
ENDBRANCH   9  14
ENDBRANCH   6   8
ENDBRANCH   4   6
ENDBRANCH   2   4
TORSDOF 4
ENDMDL
MODEL      154
REMARK 921   NORMALIZED FREE ENERGY PREDICTED BY IDOCK:   -3.25 KCAL/MOL
REMARK 922        TOTAL FREE ENERGY PREDICTED BY IDOCK:   -4.45 KCAL/MOL
REMARK 923 INTER-LIGAND FREE ENERGY PREDICTED BY IDOCK:   -3.94 KCAL/MOL
REMARK 924 INTRA-LIGAND FREE ENERGY PREDICTED BY IDOCK:   -0.51 KCAL/MOL
REMARK 927      BINDING AFFINITY PREDICTED BY RF-SCORE:    0.00 PKD
ROOT
HETATM    1  C   UNL     1     -12.402  10.760  70.699  1.00  0.00    -0.372 C  
HETATM    2  N   UNL     1     -12.245  11.770  69.669  1.00  0.00    -0.230 NA 
HETATM    3  C   UNL     1     -11.932  13.139  70.064  1.00  0.00    -0.321 C  
ENDROOT
BRANCH   2   4
HETATM    4  N   UNL     1     -11.837  11.283  68.453  1.00  0.00    -0.552 NA 
HETATM    5  H   UNL     1     -12.457  11.211  67.645  1.00  0.00     0.000 HD 
BRANCH   4   6
HETATM    6  N   UNL     1     -10.640  10.935  68.426  1.00  0.00    -0.182 NA 
HETATM    7  H   UNL     1      -9.947  11.318  69.070  1.00  0.00     0.000 HD 
BRANCH   6   8
HETATM    8  C   UNL     1     -10.321  10.014  67.482  1.00  0.00    -0.232 A  
HETATM    9  C   UNL     1     -10.020  10.096  66.132  1.00  0.00    -0.246 A  
HETATM   10  N   UNL     1      -9.774   8.827  65.604  1.00  0.00    -0.455 NA 
HETATM   11  N   UNL     1     -10.269   8.666  67.753  1.00  0.00    -0.212 NA 
HETATM   12  C   UNL     1      -9.932   8.001  66.611  1.00  0.00    -0.256 A  
HETATM   13  H   UNL     1      -9.525   8.592  64.643  1.00  0.00     0.000 HD 
BRANCH   9  14
HETATM   14  C   UNL     1      -9.947  11.307  65.317  1.00  0.00    -0.253 C  
HETATM   15  N   UNL     1      -9.481  12.395  66.001  1.00  0.00    -0.363 N  
HETATM   16  H2  UNL     1      -9.210  12.364  66.983  1.00  0.00     0.000 HD 
HETATM   17  H1  UNL     1      -9.430  13.239  65.432  1.00  0.00     0.000 HD 
HETATM   18  O   UNL     1     -10.265  11.385  64.134  1.00  0.00    -0.267 OA 
ENDBRANCH   9  14
ENDBRANCH   6   8
ENDBRANCH   4   6
ENDBRANCH   2   4
TORSDOF 4
ENDMDL
MODEL      155
REMARK 921   NORMALIZED FREE ENERGY PREDICTED BY IDOCK:   -3.25 KCAL/MOL
REMARK 922        TOTAL FREE ENERGY PREDICTED BY IDOCK:   -4.44 KCAL/MOL
REMARK 923 INTER-LIGAND FREE ENERGY PREDICTED BY IDOCK:   -4.00 KCAL/MOL
REMARK 924 INTRA-LIGAND FREE ENERGY PREDICTED BY IDOCK:   -0.45 KCAL/MOL
REMARK 927      BINDING AFFINITY PREDICTED BY RF-SCORE:    0.00 PKD
ROOT
HETATM    1  C   UNL     1      -7.577  17.342  68.621  1.00  0.00    -0.265 C  
HETATM    2  N   UNL     1      -8.222  16.861  67.413  1.00  0.00    -0.179 NA 
HETATM    3  C   UNL     1      -7.639  17.199  66.119  1.00  0.00    -0.269 C  
ENDROOT
BRANCH   2   4
HETATM    4  N   UNL     1      -8.942  15.704  67.576  1.00  0.00    -0.189 NA 
HETATM    5  H   UNL     1      -9.444  15.477  68.434  1.00  0.00     0.000 HD 
BRANCH   4   6
HETATM    6  N   UNL     1      -8.925  14.957  66.577  1.00  0.00    -0.371 NA 
HETATM    7  H   UNL     1      -8.403  15.188  65.731  1.00  0.00     0.000 HD 
BRANCH   6   8
HETATM    8  C   UNL     1      -9.647  13.814  66.693  1.00  0.00    -0.288 A  
HETATM    9  C   UNL     1     -10.492  13.127  65.835  1.00  0.00    -0.280 A  
HETATM   10  N   UNL     1     -11.006  11.988  66.458  1.00  0.00    -0.281 NA 
HETATM   11  N   UNL     1      -9.679  13.074  67.853  1.00  0.00    -0.212 NA 
HETATM   12  C   UNL     1     -10.491  11.996  67.664  1.00  0.00    -0.205 A  
HETATM   13  H   UNL     1     -11.645  11.300  66.061  1.00  0.00     0.000 HD 
BRANCH   9  14
HETATM   14  C   UNL     1     -10.833  13.486  64.460  1.00  0.00    -0.410 C  
HETATM   15  N   UNL     1     -11.051  14.824  64.286  1.00  0.00    -0.606 N  
HETATM   16  H2  UNL     1     -10.982  15.505  65.042  1.00  0.00     0.000 HD 
HETATM   17  H1  UNL     1     -11.289  15.074  63.327  1.00  0.00     0.000 HD 
HETATM   18  O   UNL     1     -10.928  12.697  63.526  1.00  0.00    -0.441 OA 
ENDBRANCH   9  14
ENDBRANCH   6   8
ENDBRANCH   4   6
ENDBRANCH   2   4
TORSDOF 4
ENDMDL
MODEL      156
REMARK 921   NORMALIZED FREE ENERGY PREDICTED BY IDOCK:   -3.24 KCAL/MOL
REMARK 922        TOTAL FREE ENERGY PREDICTED BY IDOCK:   -4.44 KCAL/MOL
REMARK 923 INTER-LIGAND FREE ENERGY PREDICTED BY IDOCK:   -3.87 KCAL/MOL
REMARK 924 INTRA-LIGAND FREE ENERGY PREDICTED BY IDOCK:   -0.57 KCAL/MOL
REMARK 927      BINDING AFFINITY PREDICTED BY RF-SCORE:    0.00 PKD
ROOT
HETATM    1  C   UNL     1      -8.066  11.181  68.771  1.00  0.00    -0.140 C  
HETATM    2  N   UNL     1      -9.481  11.094  68.456  1.00  0.00    -0.188 NA 
HETATM    3  C   UNL     1      -9.882  10.658  67.124  1.00  0.00    -0.175 C  
ENDROOT
BRANCH   2   4
HETATM    4  N   UNL     1     -10.290  10.865  69.540  1.00  0.00    -0.417 NA 
HETATM    5  H   UNL     1     -11.165  11.366  69.699  1.00  0.00     0.000 HD 
BRANCH   4   6
HETATM    6  N   UNL     1      -9.858   9.988  70.315  1.00  0.00    -0.395 NA 
HETATM    7  H   UNL     1      -8.915  10.020  70.703  1.00  0.00     0.000 HD 
BRANCH   6   8
HETATM    8  C   UNL     1     -10.728   8.988  70.606  1.00  0.00    -0.239 A  
HETATM    9  C   UNL     1     -11.085   7.815  69.960  1.00  0.00    -0.175 A  
HETATM   10  N   UNL     1     -12.058   7.128  70.688  1.00  0.00    -0.543 NA 
HETATM   11  N   UNL     1     -11.521   9.002  71.730  1.00  0.00    -0.352 NA 
HETATM   12  C   UNL     1     -12.287   7.875  71.742  1.00  0.00    -0.320 A  
HETATM   13  H   UNL     1     -12.496   6.238  70.452  1.00  0.00     0.000 HD 
BRANCH   9  14
HETATM   14  C   UNL     1     -10.553   7.307  68.697  1.00  0.00    -0.168 C  
HETATM   15  N   UNL     1     -11.415   6.472  68.042  1.00  0.00    -0.611 N  
HETATM   16  H2  UNL     1     -12.338   6.228  68.399  1.00  0.00     0.000 HD 
HETATM   17  H1  UNL     1     -11.044   6.117  67.161  1.00  0.00     0.000 HD 
HETATM   18  O   UNL     1      -9.449   7.575  68.235  1.00  0.00    -0.144 OA 
ENDBRANCH   9  14
ENDBRANCH   6   8
ENDBRANCH   4   6
ENDBRANCH   2   4
TORSDOF 4
ENDMDL
MODEL      157
REMARK 921   NORMALIZED FREE ENERGY PREDICTED BY IDOCK:   -3.23 KCAL/MOL
REMARK 922        TOTAL FREE ENERGY PREDICTED BY IDOCK:   -4.42 KCAL/MOL
REMARK 923 INTER-LIGAND FREE ENERGY PREDICTED BY IDOCK:   -3.95 KCAL/MOL
REMARK 924 INTRA-LIGAND FREE ENERGY PREDICTED BY IDOCK:   -0.47 KCAL/MOL
REMARK 927      BINDING AFFINITY PREDICTED BY RF-SCORE:    0.00 PKD
ROOT
HETATM    1  C   UNL     1      -7.442  11.196  67.439  1.00  0.00    -0.109 C  
HETATM    2  N   UNL     1      -7.514  12.392  68.260  1.00  0.00    -0.115 NA 
HETATM    3  C   UNL     1      -6.300  13.166  68.489  1.00  0.00    -0.082 C  
ENDROOT
BRANCH   2   4
HETATM    4  N   UNL     1      -8.744  13.001  68.269  1.00  0.00    -0.223 NA 
HETATM    5  H   UNL     1      -9.429  12.863  69.012  1.00  0.00     0.000 HD 
BRANCH   4   6
HETATM    6  N   UNL     1      -8.946  13.739  67.284  1.00  0.00    -0.214 NA 
HETATM    7  H   UNL     1      -8.271  14.441  66.981  1.00  0.00     0.000 HD 
BRANCH   6   8
HETATM    8  C   UNL     1     -10.128  13.546  66.644  1.00  0.00    -0.277 A  
HETATM    9  C   UNL     1     -10.865  14.307  65.752  1.00  0.00    -0.303 A  
HETATM   10  N   UNL     1     -12.042  13.645  65.395  1.00  0.00    -0.378 NA 
HETATM   11  N   UNL     1     -10.894  12.419  66.833  1.00  0.00    -0.244 NA 
HETATM   12  C   UNL     1     -12.016  12.517  66.065  1.00  0.00    -0.392 A  
HETATM   13  H   UNL     1     -12.765  13.968  64.753  1.00  0.00     0.000 HD 
BRANCH   9  14
HETATM   14  C   UNL     1     -10.516  15.620  65.214  1.00  0.00    -0.412 C  
HETATM   15  N   UNL     1     -11.232  15.958  64.099  1.00  0.00    -0.712 N  
HETATM   16  H2  UNL     1     -11.940  15.353  63.684  1.00  0.00     0.000 HD 
HETATM   17  H1  UNL     1     -10.989  16.874  63.724  1.00  0.00     0.000 HD 
HETATM   18  O   UNL     1      -9.670  16.375  65.682  1.00  0.00    -0.492 OA 
ENDBRANCH   9  14
ENDBRANCH   6   8
ENDBRANCH   4   6
ENDBRANCH   2   4
TORSDOF 4
ENDMDL
MODEL      158
REMARK 921   NORMALIZED FREE ENERGY PREDICTED BY IDOCK:   -3.20 KCAL/MOL
REMARK 922        TOTAL FREE ENERGY PREDICTED BY IDOCK:   -4.39 KCAL/MOL
REMARK 923 INTER-LIGAND FREE ENERGY PREDICTED BY IDOCK:   -3.77 KCAL/MOL
REMARK 924 INTRA-LIGAND FREE ENERGY PREDICTED BY IDOCK:   -0.62 KCAL/MOL
REMARK 927      BINDING AFFINITY PREDICTED BY RF-SCORE:    0.00 PKD
ROOT
HETATM    1  C   UNL     1      -9.646  15.962  65.885  1.00  0.00    -0.343 C  
HETATM    2  N   UNL     1     -10.963  15.369  65.745  1.00  0.00    -0.327 NA 
HETATM    3  C   UNL     1     -11.658  15.487  64.468  1.00  0.00    -0.283 C  
ENDROOT
BRANCH   2   4
HETATM    4  N   UNL     1     -11.195  14.298  66.571  1.00  0.00    -0.323 NA 
HETATM    5  H   UNL     1     -12.121  14.056  66.924  1.00  0.00     0.000 HD 
BRANCH   4   6
HETATM    6  N   UNL     1     -10.168  13.647  66.851  1.00  0.00    -0.257 NA 
HETATM    7  H   UNL     1      -9.271  14.097  67.035  1.00  0.00     0.000 HD 
BRANCH   6   8
HETATM    8  C   UNL     1     -10.325  12.300  66.892  1.00  0.00    -0.216 A  
HETATM    9  C   UNL     1     -10.861  11.430  67.828  1.00  0.00    -0.231 A  
HETATM   10  N   UNL     1     -10.767  10.109  67.384  1.00  0.00    -0.277 NA 
HETATM   11  N   UNL     1      -9.889  11.474  65.882  1.00  0.00    -0.223 NA 
HETATM   12  C   UNL     1     -10.181  10.184  66.212  1.00  0.00    -0.219 A  
HETATM   13  H   UNL     1     -11.085   9.269  67.865  1.00  0.00     0.000 HD 
BRANCH   9  14
HETATM   14  C   UNL     1     -11.460  11.779  69.114  1.00  0.00    -0.297 C  
HETATM   15  N   UNL     1     -11.259  13.083  69.471  1.00  0.00    -0.457 N  
HETATM   16  H2  UNL     1     -10.741  13.747  68.896  1.00  0.00     0.000 HD 
HETATM   17  H1  UNL     1     -11.677  13.326  70.369  1.00  0.00     0.000 HD 
HETATM   18  O   UNL     1     -12.087  11.009  69.835  1.00  0.00    -0.315 OA 
ENDBRANCH   9  14
ENDBRANCH   6   8
ENDBRANCH   4   6
ENDBRANCH   2   4
TORSDOF 4
ENDMDL
MODEL      159
REMARK 921   NORMALIZED FREE ENERGY PREDICTED BY IDOCK:   -3.20 KCAL/MOL
REMARK 922        TOTAL FREE ENERGY PREDICTED BY IDOCK:   -4.39 KCAL/MOL
REMARK 923 INTER-LIGAND FREE ENERGY PREDICTED BY IDOCK:   -3.96 KCAL/MOL
REMARK 924 INTRA-LIGAND FREE ENERGY PREDICTED BY IDOCK:   -0.43 KCAL/MOL
REMARK 927      BINDING AFFINITY PREDICTED BY RF-SCORE:    0.00 PKD
ROOT
HETATM    1  C   UNL     1     -11.126  11.124  69.088  1.00  0.00    -0.248 C  
HETATM    2  N   UNL     1     -11.071  10.268  67.917  1.00  0.00    -0.297 NA 
HETATM    3  C   UNL     1     -10.580  10.821  66.661  1.00  0.00    -0.232 C  
ENDROOT
BRANCH   2   4
HETATM    4  N   UNL     1     -10.928   8.932  68.197  1.00  0.00    -0.473 NA 
HETATM    5  H   UNL     1     -10.626   8.247  67.503  1.00  0.00     0.000 HD 
BRANCH   4   6
HETATM    6  N   UNL     1     -11.201   8.633  69.376  1.00  0.00    -0.428 NA 
HETATM    7  H   UNL     1     -11.648   9.290  70.016  1.00  0.00     0.000 HD 
BRANCH   6   8
HETATM    8  C   UNL     1     -10.862   7.373  69.751  1.00  0.00    -0.234 A  
HETATM    9  C   UNL     1     -10.941   6.680  70.948  1.00  0.00    -0.268 A  
HETATM   10  N   UNL     1     -10.435   5.386  70.802  1.00  0.00    -0.255 NA 
HETATM   11  N   UNL     1     -10.282   6.476  68.885  1.00  0.00    -0.170 NA 
HETATM   12  C   UNL     1     -10.054   5.308  69.550  1.00  0.00    -0.252 A  
HETATM   13  H   UNL     1     -10.375   4.660  71.516  1.00  0.00     0.000 HD 
BRANCH   9  14
HETATM   14  C   UNL     1     -11.471   7.171  72.218  1.00  0.00    -0.271 C  
HETATM   15  N   UNL     1     -11.617   6.192  73.161  1.00  0.00    -0.446 N  
HETATM   16  H2  UNL     1     -11.379   5.214  72.994  1.00  0.00     0.000 HD 
HETATM   17  H1  UNL     1     -11.988   6.534  74.047  1.00  0.00     0.000 HD 
HETATM   18  O   UNL     1     -11.771   8.336  72.457  1.00  0.00    -0.386 OA 
ENDBRANCH   9  14
ENDBRANCH   6   8
ENDBRANCH   4   6
ENDBRANCH   2   4
TORSDOF 4
ENDMDL
MODEL      160
REMARK 921   NORMALIZED FREE ENERGY PREDICTED BY IDOCK:   -3.20 KCAL/MOL
REMARK 922        TOTAL FREE ENERGY PREDICTED BY IDOCK:   -4.38 KCAL/MOL
REMARK 923 INTER-LIGAND FREE ENERGY PREDICTED BY IDOCK:   -3.85 KCAL/MOL
REMARK 924 INTRA-LIGAND FREE ENERGY PREDICTED BY IDOCK:   -0.53 KCAL/MOL
REMARK 927      BINDING AFFINITY PREDICTED BY RF-SCORE:    0.00 PKD
ROOT
HETATM    1  C   UNL     1      -7.734  10.225  64.957  1.00  0.00    -0.129 C  
HETATM    2  N   UNL     1      -9.042   9.646  65.206  1.00  0.00    -0.202 NA 
HETATM    3  C   UNL     1      -9.127   8.371  65.909  1.00  0.00    -0.171 C  
ENDROOT
BRANCH   2   4
HETATM    4  N   UNL     1     -10.061  10.561  65.290  1.00  0.00    -0.297 NA 
HETATM    5  H   UNL     1     -11.031  10.300  65.469  1.00  0.00     0.000 HD 
BRANCH   4   6
HETATM    6  N   UNL     1      -9.692  11.741  65.127  1.00  0.00    -0.324 NA 
HETATM    7  H   UNL     1      -8.726  11.985  64.909  1.00  0.00     0.000 HD 
BRANCH   6   8
HETATM    8  C   UNL     1     -10.664  12.679  65.259  1.00  0.00    -0.289 A  
HETATM    9  C   UNL     1     -11.419  13.127  66.332  1.00  0.00    -0.334 A  
HETATM   10  N   UNL     1     -12.312  14.120  65.926  1.00  0.00    -0.465 NA 
HETATM   11  N   UNL     1     -11.135  13.411  64.194  1.00  0.00    -0.367 NA 
HETATM   12  C   UNL     1     -12.105  14.259  64.638  1.00  0.00    -0.463 A  
HETATM   13  H   UNL     1     -12.981  14.627  66.505  1.00  0.00     0.000 HD 
BRANCH   9  14
HETATM   14  C   UNL     1     -11.337  12.672  67.718  1.00  0.00    -0.297 C  
HETATM   15  N   UNL     1     -11.717  11.369  67.885  1.00  0.00    -0.267 N  
HETATM   16  H2  UNL     1     -12.026  10.774  67.118  1.00  0.00     0.000 HD 
HETATM   17  H1  UNL     1     -11.660  11.051  68.852  1.00  0.00     0.000 HD 
HETATM   18  O   UNL     1     -10.972  13.357  68.668  1.00  0.00    -0.244 OA 
ENDBRANCH   9  14
ENDBRANCH   6   8
ENDBRANCH   4   6
ENDBRANCH   2   4
TORSDOF 4
ENDMDL
MODEL      161
REMARK 921   NORMALIZED FREE ENERGY PREDICTED BY IDOCK:   -3.19 KCAL/MOL
REMARK 922        TOTAL FREE ENERGY PREDICTED BY IDOCK:   -4.38 KCAL/MOL
REMARK 923 INTER-LIGAND FREE ENERGY PREDICTED BY IDOCK:   -3.71 KCAL/MOL
REMARK 924 INTRA-LIGAND FREE ENERGY PREDICTED BY IDOCK:   -0.67 KCAL/MOL
REMARK 927      BINDING AFFINITY PREDICTED BY RF-SCORE:    0.00 PKD
ROOT
HETATM    1  C   UNL     1      -9.949   4.621  69.210  1.00  0.00    -0.161 C  
HETATM    2  N   UNL     1     -10.470   5.711  68.404  1.00  0.00    -0.203 NA 
HETATM    3  C   UNL     1     -10.703   5.489  66.982  1.00  0.00    -0.204 C  
ENDROOT
BRANCH   2   4
HETATM    4  N   UNL     1     -11.219   6.625  69.101  1.00  0.00    -0.517 NA 
HETATM    5  H   UNL     1     -12.226   6.734  68.974  1.00  0.00     0.000 HD 
BRANCH   4   6
HETATM    6  N   UNL     1     -10.556   7.310  69.906  1.00  0.00    -0.226 NA 
HETATM    7  H   UNL     1      -9.582   7.101  70.127  1.00  0.00     0.000 HD 
BRANCH   6   8
HETATM    8  C   UNL     1     -11.219   8.353  70.467  1.00  0.00    -0.238 A  
HETATM    9  C   UNL     1     -11.406   9.676  70.097  1.00  0.00    -0.227 A  
HETATM   10  N   UNL     1     -12.173  10.349  71.050  1.00  0.00    -0.358 NA 
HETATM   11  N   UNL     1     -11.874   8.249  71.672  1.00  0.00    -0.284 NA 
HETATM   12  C   UNL     1     -12.433   9.455  71.974  1.00  0.00    -0.365 A  
HETATM   13  H   UNL     1     -12.467  11.325  71.031  1.00  0.00     0.000 HD 
BRANCH   9  14
HETATM   14  C   UNL     1     -10.905  10.334  68.893  1.00  0.00    -0.228 C  
HETATM   15  N   UNL     1     -11.054   9.581  67.761  1.00  0.00    -0.494 N  
HETATM   16  H2  UNL     1     -11.473   8.652  67.758  1.00  0.00     0.000 HD 
HETATM   17  H1  UNL     1     -10.704  10.040  66.921  1.00  0.00     0.000 HD 
HETATM   18  O   UNL     1     -10.392  11.448  68.856  1.00  0.00    -0.206 OA 
ENDBRANCH   9  14
ENDBRANCH   6   8
ENDBRANCH   4   6
ENDBRANCH   2   4
TORSDOF 4
ENDMDL
MODEL      162
REMARK 921   NORMALIZED FREE ENERGY PREDICTED BY IDOCK:   -3.18 KCAL/MOL
REMARK 922        TOTAL FREE ENERGY PREDICTED BY IDOCK:   -4.37 KCAL/MOL
REMARK 923 INTER-LIGAND FREE ENERGY PREDICTED BY IDOCK:   -3.92 KCAL/MOL
REMARK 924 INTRA-LIGAND FREE ENERGY PREDICTED BY IDOCK:   -0.45 KCAL/MOL
REMARK 927      BINDING AFFINITY PREDICTED BY RF-SCORE:    0.00 PKD
ROOT
HETATM    1  C   UNL     1      -9.879   4.757  68.900  1.00  0.00    -0.160 C  
HETATM    2  N   UNL     1     -10.165   6.144  68.581  1.00  0.00    -0.164 NA 
HETATM    3  C   UNL     1      -9.273   6.859  67.676  1.00  0.00    -0.119 C  
ENDROOT
BRANCH   2   4
HETATM    4  N   UNL     1     -11.491   6.485  68.671  1.00  0.00    -0.562 NA 
HETATM    5  H   UNL     1     -12.062   6.723  67.859  1.00  0.00     0.000 HD 
BRANCH   4   6
HETATM    6  N   UNL     1     -11.935   6.477  69.837  1.00  0.00    -0.568 NA 
HETATM    7  H   UNL     1     -12.635   5.804  70.149  1.00  0.00     0.000 HD 
BRANCH   6   8
HETATM    8  C   UNL     1     -11.422   7.425  70.662  1.00  0.00    -0.282 A  
HETATM    9  C   UNL     1     -10.979   7.409  71.974  1.00  0.00    -0.236 A  
HETATM   10  N   UNL     1     -10.551   8.680  72.365  1.00  0.00    -0.304 NA 
HETATM   11  N   UNL     1     -11.270   8.737  70.275  1.00  0.00    -0.233 NA 
HETATM   12  C   UNL     1     -10.742   9.443  71.314  1.00  0.00    -0.350 A  
HETATM   13  H   UNL     1     -10.173   8.956  73.271  1.00  0.00     0.000 HD 
BRANCH   9  14
HETATM   14  C   UNL     1     -10.932   6.260  72.875  1.00  0.00    -0.254 C  
HETATM   15  N   UNL     1     -10.638   6.595  74.168  1.00  0.00    -0.452 N  
HETATM   16  H2  UNL     1     -10.469   7.553  74.473  1.00  0.00     0.000 HD 
HETATM   17  H1  UNL     1     -10.606   5.793  74.797  1.00  0.00     0.000 HD 
HETATM   18  O   UNL     1     -11.128   5.094  72.547  1.00  0.00    -0.236 OA 
ENDBRANCH   9  14
ENDBRANCH   6   8
ENDBRANCH   4   6
ENDBRANCH   2   4
TORSDOF 4
ENDMDL
MODEL      163
REMARK 921   NORMALIZED FREE ENERGY PREDICTED BY IDOCK:   -3.16 KCAL/MOL
REMARK 922        TOTAL FREE ENERGY PREDICTED BY IDOCK:   -4.34 KCAL/MOL
REMARK 923 INTER-LIGAND FREE ENERGY PREDICTED BY IDOCK:   -3.97 KCAL/MOL
REMARK 924 INTRA-LIGAND FREE ENERGY PREDICTED BY IDOCK:   -0.36 KCAL/MOL
REMARK 927      BINDING AFFINITY PREDICTED BY RF-SCORE:    0.00 PKD
ROOT
HETATM    1  C   UNL     1     -10.701  11.768  66.668  1.00  0.00    -0.263 C  
HETATM    2  N   UNL     1     -11.380  11.996  67.931  1.00  0.00    -0.282 NA 
HETATM    3  C   UNL     1     -11.820  13.347  68.262  1.00  0.00    -0.358 C  
ENDROOT
BRANCH   2   4
HETATM    4  N   UNL     1     -12.047  10.903  68.422  1.00  0.00    -0.818 NA 
HETATM    5  H   UNL     1     -12.926  10.971  68.938  1.00  0.00     0.000 HD 
BRANCH   4   6
HETATM    6  N   UNL     1     -11.482   9.818  68.181  1.00  0.00    -0.512 NA 
HETATM    7  H   UNL     1     -11.466   9.407  67.247  1.00  0.00     0.000 HD 
BRANCH   6   8
HETATM    8  C   UNL     1     -10.888   9.220  69.245  1.00  0.00    -0.152 A  
HETATM    9  C   UNL     1     -10.222   8.018  69.416  1.00  0.00    -0.210 A  
HETATM   10  N   UNL     1      -9.807   7.868  70.741  1.00  0.00    -0.180 NA 
HETATM   11  N   UNL     1     -10.883   9.784  70.500  1.00  0.00    -0.300 NA 
HETATM   12  C   UNL     1     -10.223   8.950  71.354  1.00  0.00    -0.305 A  
HETATM   13  H   UNL     1      -9.293   7.085  71.145  1.00  0.00     0.000 HD 
BRANCH   9  14
HETATM   14  C   UNL     1      -9.951   7.007  68.395  1.00  0.00    -0.154 C  
HETATM   15  N   UNL     1     -10.564   7.264  67.201  1.00  0.00    -0.321 N  
HETATM   16  H2  UNL     1     -11.152   8.081  67.038  1.00  0.00     0.000 HD 
HETATM   17  H1  UNL     1     -10.375   6.560  66.488  1.00  0.00     0.000 HD 
HETATM   18  O   UNL     1      -9.252   6.012  68.552  1.00  0.00    -0.116 OA 
ENDBRANCH   9  14
ENDBRANCH   6   8
ENDBRANCH   4   6
ENDBRANCH   2   4
TORSDOF 4
ENDMDL
MODEL      164
REMARK 921   NORMALIZED FREE ENERGY PREDICTED BY IDOCK:   -3.16 KCAL/MOL
REMARK 922        TOTAL FREE ENERGY PREDICTED BY IDOCK:   -4.33 KCAL/MOL
REMARK 923 INTER-LIGAND FREE ENERGY PREDICTED BY IDOCK:   -4.12 KCAL/MOL
REMARK 924 INTRA-LIGAND FREE ENERGY PREDICTED BY IDOCK:   -0.21 KCAL/MOL
REMARK 927      BINDING AFFINITY PREDICTED BY RF-SCORE:    0.00 PKD
ROOT
HETATM    1  C   UNL     1      -8.360  19.541  66.433  1.00  0.00    -0.347 C  
HETATM    2  N   UNL     1      -9.552  18.753  66.180  1.00  0.00    -0.477 NA 
HETATM    3  C   UNL     1     -10.784  19.436  65.801  1.00  0.00    -0.365 C  
ENDROOT
BRANCH   2   4
HETATM    4  N   UNL     1      -9.306  17.470  65.757  1.00  0.00    -0.497 NA 
HETATM    5  H   UNL     1      -8.387  17.153  65.445  1.00  0.00     0.000 HD 
BRANCH   4   6
HETATM    6  N   UNL     1     -10.308  16.728  65.790  1.00  0.00    -0.505 NA 
HETATM    7  H   UNL     1     -11.044  16.776  65.085  1.00  0.00     0.000 HD 
BRANCH   6   8
HETATM    8  C   UNL     1     -10.351  15.854  66.827  1.00  0.00    -0.298 A  
HETATM    9  C   UNL     1      -9.461  15.526  67.837  1.00  0.00    -0.201 A  
HETATM   10  N   UNL     1      -9.995  14.531  68.659  1.00  0.00    -0.233 NA 
HETATM   11  N   UNL     1     -11.425  15.022  67.047  1.00  0.00    -0.323 NA 
HETATM   12  C   UNL     1     -11.173  14.262  68.149  1.00  0.00    -0.275 A  
HETATM   13  H   UNL     1      -9.562  14.106  69.478  1.00  0.00     0.000 HD 
BRANCH   9  14
HETATM   14  C   UNL     1      -8.140  16.104  68.070  1.00  0.00    -0.146 C  
HETATM   15  N   UNL     1      -7.222  15.761  67.117  1.00  0.00    -0.213 N  
HETATM   16  H2  UNL     1      -7.438  15.161  66.322  1.00  0.00     0.000 HD 
HETATM   17  H1  UNL     1      -6.299  16.165  67.279  1.00  0.00     0.000 HD 
HETATM   18  O   UNL     1      -7.840  16.828  69.014  1.00  0.00    -0.240 OA 
ENDBRANCH   9  14
ENDBRANCH   6   8
ENDBRANCH   4   6
ENDBRANCH   2   4
TORSDOF 4
ENDMDL
MODEL      165
REMARK 921   NORMALIZED FREE ENERGY PREDICTED BY IDOCK:   -3.12 KCAL/MOL
REMARK 922        TOTAL FREE ENERGY PREDICTED BY IDOCK:   -4.29 KCAL/MOL
REMARK 923 INTER-LIGAND FREE ENERGY PREDICTED BY IDOCK:   -3.52 KCAL/MOL
REMARK 924 INTRA-LIGAND FREE ENERGY PREDICTED BY IDOCK:   -0.77 KCAL/MOL
REMARK 927      BINDING AFFINITY PREDICTED BY RF-SCORE:    0.00 PKD
ROOT
HETATM    1  C   UNL     1      -5.761  18.616  65.726  1.00  0.00    -0.181 C  
HETATM    2  N   UNL     1      -5.845  17.775  66.906  1.00  0.00    -0.139 NA 
HETATM    3  C   UNL     1      -5.391  18.305  68.186  1.00  0.00    -0.165 C  
ENDROOT
BRANCH   2   4
HETATM    4  N   UNL     1      -6.832  16.822  66.854  1.00  0.00    -0.201 NA 
HETATM    5  H   UNL     1      -6.763  15.922  67.330  1.00  0.00     0.000 HD 
BRANCH   4   6
HETATM    6  N   UNL     1      -7.820  17.158  66.172  1.00  0.00    -0.427 NA 
HETATM    7  H   UNL     1      -7.727  17.590  65.252  1.00  0.00     0.000 HD 
BRANCH   6   8
HETATM    8  C   UNL     1      -9.030  16.911  66.736  1.00  0.00    -0.240 A  
HETATM    9  C   UNL     1      -9.835  17.617  67.615  1.00  0.00    -0.294 A  
HETATM   10  N   UNL     1     -10.999  16.900  67.901  1.00  0.00    -0.309 NA 
HETATM   11  N   UNL     1      -9.724  15.744  66.513  1.00  0.00    -0.249 NA 
HETATM   12  C   UNL     1     -10.890  15.785  67.217  1.00  0.00    -0.298 A  
HETATM   13  H   UNL     1     -11.767  17.181  68.510  1.00  0.00     0.000 HD 
BRANCH   9  14
HETATM   14  C   UNL     1      -9.568  18.932  68.193  1.00  0.00    -0.338 C  
HETATM   15  N   UNL     1      -8.711  19.690  67.445  1.00  0.00    -0.300 N  
HETATM   16  H2  UNL     1      -8.298  19.369  66.570  1.00  0.00     0.000 HD 
HETATM   17  H1  UNL     1      -8.524  20.608  67.848  1.00  0.00     0.000 HD 
HETATM   18  O   UNL     1     -10.043  19.354  69.243  1.00  0.00    -0.378 OA 
ENDBRANCH   9  14
ENDBRANCH   6   8
ENDBRANCH   4   6
ENDBRANCH   2   4
TORSDOF 4
ENDMDL
MODEL      166
REMARK 921   NORMALIZED FREE ENERGY PREDICTED BY IDOCK:   -3.11 KCAL/MOL
REMARK 922        TOTAL FREE ENERGY PREDICTED BY IDOCK:   -4.28 KCAL/MOL
REMARK 923 INTER-LIGAND FREE ENERGY PREDICTED BY IDOCK:   -3.86 KCAL/MOL
REMARK 924 INTRA-LIGAND FREE ENERGY PREDICTED BY IDOCK:   -0.43 KCAL/MOL
REMARK 927      BINDING AFFINITY PREDICTED BY RF-SCORE:    0.00 PKD
ROOT
HETATM    1  C   UNL     1     -10.313   7.829  67.919  1.00  0.00    -0.217 C  
HETATM    2  N   UNL     1     -10.364   8.834  68.966  1.00  0.00    -0.211 NA 
HETATM    3  C   UNL     1      -9.168   9.087  69.760  1.00  0.00    -0.167 C  
ENDROOT
BRANCH   2   4
HETATM    4  N   UNL     1     -11.286   9.827  68.754  1.00  0.00    -0.482 NA 
HETATM    5  H   UNL     1     -12.294   9.669  68.786  1.00  0.00     0.000 HD 
BRANCH   4   6
HETATM    6  N   UNL     1     -10.779  10.943  68.519  1.00  0.00    -0.189 NA 
HETATM    7  H   UNL     1      -9.919  11.048  67.980  1.00  0.00     0.000 HD 
BRANCH   6   8
HETATM    8  C   UNL     1     -11.450  12.007  69.029  1.00  0.00    -0.300 A  
HETATM    9  C   UNL     1     -11.737  13.274  68.548  1.00  0.00    -0.352 A  
HETATM   10  N   UNL     1     -12.460  14.007  69.492  1.00  0.00    -0.437 NA 
HETATM   11  N   UNL     1     -11.999  11.998  70.291  1.00  0.00    -0.345 NA 
HETATM   12  C   UNL     1     -12.595  13.202  70.519  1.00  0.00    -0.165 A  
HETATM   13  H   UNL     1     -12.807  14.961  69.402  1.00  0.00     0.000 HD 
BRANCH   9  14
HETATM   14  C   UNL     1     -11.372  13.826  67.246  1.00  0.00    -0.321 C  
HETATM   15  N   UNL     1     -12.320  14.662  66.724  1.00  0.00    -0.405 N  
HETATM   16  H2  UNL     1     -13.196  14.878  67.199  1.00  0.00     0.000 HD 
HETATM   17  H1  UNL     1     -12.065  15.047  65.816  1.00  0.00     0.000 HD 
HETATM   18  O   UNL     1     -10.330  13.588  66.643  1.00  0.00    -0.264 OA 
ENDBRANCH   9  14
ENDBRANCH   6   8
ENDBRANCH   4   6
ENDBRANCH   2   4
TORSDOF 4
ENDMDL
MODEL      167
REMARK 921   NORMALIZED FREE ENERGY PREDICTED BY IDOCK:   -3.11 KCAL/MOL
REMARK 922        TOTAL FREE ENERGY PREDICTED BY IDOCK:   -4.28 KCAL/MOL
REMARK 923 INTER-LIGAND FREE ENERGY PREDICTED BY IDOCK:   -3.63 KCAL/MOL
REMARK 924 INTRA-LIGAND FREE ENERGY PREDICTED BY IDOCK:   -0.65 KCAL/MOL
REMARK 927      BINDING AFFINITY PREDICTED BY RF-SCORE:    0.00 PKD
ROOT
HETATM    1  C   UNL     1      -6.664   7.779  70.449  1.00  0.00    -0.038 C  
HETATM    2  N   UNL     1      -7.933   7.885  69.752  1.00  0.00    -0.111 NA 
HETATM    3  C   UNL     1      -8.484   6.702  69.103  1.00  0.00    -0.124 C  
ENDROOT
BRANCH   2   4
HETATM    4  N   UNL     1      -8.761   8.871  70.228  1.00  0.00    -0.154 NA 
HETATM    5  H   UNL     1      -9.341   9.453  69.622  1.00  0.00     0.000 HD 
BRANCH   4   6
HETATM    6  N   UNL     1      -8.739   8.990  71.469  1.00  0.00    -0.346 NA 
HETATM    7  H   UNL     1      -8.014   9.521  71.954  1.00  0.00     0.000 HD 
BRANCH   6   8
HETATM    8  C   UNL     1      -9.745   8.366  72.132  1.00  0.00    -0.300 A  
HETATM    9  C   UNL     1     -11.103   8.614  72.260  1.00  0.00    -0.325 A  
HETATM   10  N   UNL     1     -11.703   7.659  73.083  1.00  0.00    -0.636 NA 
HETATM   11  N   UNL     1      -9.536   7.252  72.912  1.00  0.00    -0.153 NA 
HETATM   12  C   UNL     1     -10.727   6.862  73.449  1.00  0.00    -0.324 A  
HETATM   13  H   UNL     1     -12.686   7.595  73.344  1.00  0.00     0.000 HD 
BRANCH   9  14
HETATM   14  C   UNL     1     -11.862   9.698  71.642  1.00  0.00    -0.384 C  
HETATM   15  N   UNL     1     -13.004  10.018  72.323  1.00  0.00    -0.443 N  
HETATM   16  H2  UNL     1     -13.296   9.546  73.177  1.00  0.00     0.000 HD 
HETATM   17  H1  UNL     1     -13.534  10.775  71.892  1.00  0.00     0.000 HD 
HETATM   18  O   UNL     1     -11.546  10.289  70.614  1.00  0.00    -0.297 OA 
ENDBRANCH   9  14
ENDBRANCH   6   8
ENDBRANCH   4   6
ENDBRANCH   2   4
TORSDOF 4
ENDMDL
MODEL      168
REMARK 921   NORMALIZED FREE ENERGY PREDICTED BY IDOCK:   -3.08 KCAL/MOL
REMARK 922        TOTAL FREE ENERGY PREDICTED BY IDOCK:   -4.24 KCAL/MOL
REMARK 923 INTER-LIGAND FREE ENERGY PREDICTED BY IDOCK:   -3.59 KCAL/MOL
REMARK 924 INTRA-LIGAND FREE ENERGY PREDICTED BY IDOCK:   -0.65 KCAL/MOL
REMARK 927      BINDING AFFINITY PREDICTED BY RF-SCORE:    0.00 PKD
ROOT
HETATM    1  C   UNL     1     -10.331   9.137  71.709  1.00  0.00    -0.260 C  
HETATM    2  N   UNL     1     -11.448   9.471  70.845  1.00  0.00    -0.307 NA 
HETATM    3  C   UNL     1     -12.077  10.780  70.978  1.00  0.00    -0.346 C  
ENDROOT
BRANCH   2   4
HETATM    4  N   UNL     1     -11.451   8.813  69.640  1.00  0.00    -0.407 NA 
HETATM    5  H   UNL     1     -12.201   8.907  68.955  1.00  0.00     0.000 HD 
BRANCH   4   6
HETATM    6  N   UNL     1     -10.451   8.088  69.461  1.00  0.00    -0.225 NA 
HETATM    7  H   UNL     1      -9.676   8.055  70.124  1.00  0.00     0.000 HD 
BRANCH   6   8
HETATM    8  C   UNL     1     -10.465   7.349  68.323  1.00  0.00    -0.189 A  
HETATM    9  C   UNL     1     -10.263   7.650  66.986  1.00  0.00    -0.300 A  
HETATM   10  N   UNL     1     -10.405   6.507  66.196  1.00  0.00    -0.370 NA 
HETATM   11  N   UNL     1     -10.749   6.003  68.321  1.00  0.00    -0.267 NA 
HETATM   12  C   UNL     1     -10.693   5.544  67.038  1.00  0.00    -0.204 A  
HETATM   13  H   UNL     1     -10.305   6.437  65.184  1.00  0.00     0.000 HD 
BRANCH   9  14
HETATM   14  C   UNL     1      -9.939   8.956  66.416  1.00  0.00    -0.284 C  
HETATM   15  N   UNL     1     -10.646   9.984  66.977  1.00  0.00    -0.232 N  
HETATM   16  H2  UNL     1     -11.331   9.851  67.719  1.00  0.00     0.000 HD 
HETATM   17  H1  UNL     1     -10.420  10.895  66.579  1.00  0.00     0.000 HD 
HETATM   18  O   UNL     1      -9.124   9.156  65.521  1.00  0.00    -0.198 OA 
ENDBRANCH   9  14
ENDBRANCH   6   8
ENDBRANCH   4   6
ENDBRANCH   2   4
TORSDOF 4
ENDMDL
MODEL      169
REMARK 921   NORMALIZED FREE ENERGY PREDICTED BY IDOCK:   -3.08 KCAL/MOL
REMARK 922        TOTAL FREE ENERGY PREDICTED BY IDOCK:   -4.24 KCAL/MOL
REMARK 923 INTER-LIGAND FREE ENERGY PREDICTED BY IDOCK:   -3.79 KCAL/MOL
REMARK 924 INTRA-LIGAND FREE ENERGY PREDICTED BY IDOCK:   -0.45 KCAL/MOL
REMARK 927      BINDING AFFINITY PREDICTED BY RF-SCORE:    0.00 PKD
ROOT
HETATM    1  C   UNL     1     -11.492   7.704  70.637  1.00  0.00    -0.258 C  
HETATM    2  N   UNL     1     -10.753   8.682  69.859  1.00  0.00    -0.229 NA 
HETATM    3  C   UNL     1      -9.491   9.191  70.382  1.00  0.00    -0.227 C  
ENDROOT
BRANCH   2   4
HETATM    4  N   UNL     1     -10.975   8.617  68.507  1.00  0.00    -0.441 NA 
HETATM    5  H   UNL     1     -10.862   7.760  67.964  1.00  0.00     0.000 HD 
BRANCH   4   6
HETATM    6  N   UNL     1     -11.328   9.702  68.002  1.00  0.00    -0.485 NA 
HETATM    7  H   UNL     1     -12.128  10.231  68.351  1.00  0.00     0.000 HD 
BRANCH   6   8
HETATM    8  C   UNL     1     -10.576  10.130  66.957  1.00  0.00    -0.225 A  
HETATM    9  C   UNL     1     -10.423  11.357  66.330  1.00  0.00    -0.254 A  
HETATM   10  N   UNL     1      -9.517  11.259  65.272  1.00  0.00    -0.223 NA 
HETATM   11  N   UNL     1      -9.756   9.287  66.242  1.00  0.00    -0.250 NA 
HETATM   12  C   UNL     1      -9.142  10.002  65.258  1.00  0.00    -0.200 A  
HETATM   13  H   UNL     1      -9.213  12.004  64.646  1.00  0.00     0.000 HD 
BRANCH   9  14
HETATM   14  C   UNL     1     -11.081  12.613  66.680  1.00  0.00    -0.274 C  
HETATM   15  N   UNL     1     -10.463  13.714  66.155  1.00  0.00    -0.292 N  
HETATM   16  H2  UNL     1      -9.626  13.663  65.575  1.00  0.00     0.000 HD 
HETATM   17  H1  UNL     1     -10.922  14.591  66.399  1.00  0.00     0.000 HD 
HETATM   18  O   UNL     1     -12.086  12.717  67.376  1.00  0.00    -0.432 OA 
ENDBRANCH   9  14
ENDBRANCH   6   8
ENDBRANCH   4   6
ENDBRANCH   2   4
TORSDOF 4
ENDMDL
MODEL      170
REMARK 921   NORMALIZED FREE ENERGY PREDICTED BY IDOCK:   -3.08 KCAL/MOL
REMARK 922        TOTAL FREE ENERGY PREDICTED BY IDOCK:   -4.23 KCAL/MOL
REMARK 923 INTER-LIGAND FREE ENERGY PREDICTED BY IDOCK:   -3.92 KCAL/MOL
REMARK 924 INTRA-LIGAND FREE ENERGY PREDICTED BY IDOCK:   -0.32 KCAL/MOL
REMARK 927      BINDING AFFINITY PREDICTED BY RF-SCORE:    0.00 PKD
ROOT
HETATM    1  C   UNL     1      -9.053   7.212  66.803  1.00  0.00    -0.147 C  
HETATM    2  N   UNL     1     -10.400   6.674  66.867  1.00  0.00    -0.242 NA 
HETATM    3  C   UNL     1     -10.597   5.241  66.683  1.00  0.00    -0.270 C  
ENDROOT
BRANCH   2   4
HETATM    4  N   UNL     1     -11.267   7.406  67.637  1.00  0.00    -0.490 NA 
HETATM    5  H   UNL     1     -11.849   8.157  67.262  1.00  0.00     0.000 HD 
BRANCH   4   6
HETATM    6  N   UNL     1     -11.281   7.070  68.838  1.00  0.00    -0.492 NA 
HETATM    7  H   UNL     1     -11.332   6.094  69.131  1.00  0.00     0.000 HD 
BRANCH   6   8
HETATM    8  C   UNL     1     -11.223   8.092  69.730  1.00  0.00     0.032 A  
HETATM    9  C   UNL     1     -11.607   8.226  71.054  1.00  0.00    -0.275 A  
HETATM   10  N   UNL     1     -11.336   9.516  71.517  1.00  0.00    -0.390 NA 
HETATM   11  N   UNL     1     -10.731   9.334  69.399  1.00  0.00    -0.224 NA 
HETATM   12  C   UNL     1     -10.810  10.143  70.493  1.00  0.00    -0.273 A  
HETATM   13  H   UNL     1     -11.509   9.888  72.451  1.00  0.00     0.000 HD 
BRANCH   9  14
HETATM   14  C   UNL     1     -12.209   7.203  71.905  1.00  0.00    -0.323 C  
HETATM   15  N   UNL     1     -13.524   7.442  72.195  1.00  0.00    -0.526 N  
HETATM   16  H2  UNL     1     -14.033   8.255  71.850  1.00  0.00     0.000 HD 
HETATM   17  H1  UNL     1     -13.944   6.728  72.788  1.00  0.00     0.000 HD 
HETATM   18  O   UNL     1     -11.629   6.213  72.341  1.00  0.00    -0.295 OA 
ENDBRANCH   9  14
ENDBRANCH   6   8
ENDBRANCH   4   6
ENDBRANCH   2   4
TORSDOF 4
ENDMDL
MODEL      171
REMARK 921   NORMALIZED FREE ENERGY PREDICTED BY IDOCK:   -3.06 KCAL/MOL
REMARK 922        TOTAL FREE ENERGY PREDICTED BY IDOCK:   -4.21 KCAL/MOL
REMARK 923 INTER-LIGAND FREE ENERGY PREDICTED BY IDOCK:   -3.73 KCAL/MOL
REMARK 924 INTRA-LIGAND FREE ENERGY PREDICTED BY IDOCK:   -0.49 KCAL/MOL
REMARK 927      BINDING AFFINITY PREDICTED BY RF-SCORE:    0.00 PKD
ROOT
HETATM    1  C   UNL     1      -5.825  16.982  69.613  1.00  0.00    -0.217 C  
HETATM    2  N   UNL     1      -6.583  17.184  68.391  1.00  0.00    -0.159 NA 
HETATM    3  C   UNL     1      -6.168  16.489  67.179  1.00  0.00    -0.177 C  
ENDROOT
BRANCH   2   4
HETATM    4  N   UNL     1      -7.899  17.521  68.589  1.00  0.00    -0.272 NA 
HETATM    5  H   UNL     1      -8.224  18.048  69.400  1.00  0.00     0.000 HD 
BRANCH   4   6
HETATM    6  N   UNL     1      -8.661  17.122  67.686  1.00  0.00    -0.211 NA 
HETATM    7  H   UNL     1      -8.421  17.197  66.697  1.00  0.00     0.000 HD 
BRANCH   6   8
HETATM    8  C   UNL     1      -9.833  16.584  68.108  1.00  0.00    -0.244 A  
HETATM    9  C   UNL     1     -10.715  15.666  67.559  1.00  0.00    -0.303 A  
HETATM   10  N   UNL     1     -11.802  15.458  68.410  1.00  0.00    -0.503 NA 
HETATM   11  N   UNL     1     -10.422  16.938  69.300  1.00  0.00    -0.331 NA 
HETATM   12  C   UNL     1     -11.583  16.238  69.442  1.00  0.00    -0.178 A  
HETATM   13  H   UNL     1     -12.595  14.834  68.262  1.00  0.00     0.000 HD 
BRANCH   9  14
HETATM   14  C   UNL     1     -10.582  14.973  66.279  1.00  0.00    -0.307 C  
HETATM   15  N   UNL     1      -9.289  14.671  65.957  1.00  0.00    -0.487 N  
HETATM   16  H2  UNL     1      -8.494  14.906  66.551  1.00  0.00     0.000 HD 
HETATM   17  H1  UNL     1      -9.196  14.188  65.064  1.00  0.00     0.000 HD 
HETATM   18  O   UNL     1     -11.512  14.675  65.536  1.00  0.00    -0.336 OA 
ENDBRANCH   9  14
ENDBRANCH   6   8
ENDBRANCH   4   6
ENDBRANCH   2   4
TORSDOF 4
ENDMDL
MODEL      172
REMARK 921   NORMALIZED FREE ENERGY PREDICTED BY IDOCK:   -3.05 KCAL/MOL
REMARK 922        TOTAL FREE ENERGY PREDICTED BY IDOCK:   -4.20 KCAL/MOL
REMARK 923 INTER-LIGAND FREE ENERGY PREDICTED BY IDOCK:   -3.42 KCAL/MOL
REMARK 924 INTRA-LIGAND FREE ENERGY PREDICTED BY IDOCK:   -0.78 KCAL/MOL
REMARK 927      BINDING AFFINITY PREDICTED BY RF-SCORE:    0.00 PKD
ROOT
HETATM    1  C   UNL     1      -8.730   7.942  72.953  1.00  0.00    -0.186 C  
HETATM    2  N   UNL     1     -10.060   8.001  72.374  1.00  0.00    -0.240 NA 
HETATM    3  C   UNL     1     -11.195   7.536  73.162  1.00  0.00    -0.267 C  
ENDROOT
BRANCH   2   4
HETATM    4  N   UNL     1     -10.222   8.978  71.423  1.00  0.00    -0.304 NA 
HETATM    5  H   UNL     1     -10.957   9.684  71.469  1.00  0.00     0.000 HD 
BRANCH   4   6
HETATM    6  N   UNL     1      -9.387   8.922  70.498  1.00  0.00    -0.185 NA 
HETATM    7  H   UNL     1      -8.385   8.847  70.672  1.00  0.00     0.000 HD 
BRANCH   6   8
HETATM    8  C   UNL     1      -9.904   8.969  69.244  1.00  0.00    -0.179 A  
HETATM    9  C   UNL     1     -10.604   8.061  68.465  1.00  0.00    -0.103 A  
HETATM   10  N   UNL     1     -10.898   8.609  67.215  1.00  0.00    -0.434 NA 
HETATM   11  N   UNL     1      -9.767  10.069  68.429  1.00  0.00    -0.144 NA 
HETATM   12  C   UNL     1     -10.380   9.814  67.239  1.00  0.00    -0.248 A  
HETATM   13  H   UNL     1     -11.407   8.168  66.449  1.00  0.00     0.000 HD 
BRANCH   9  14
HETATM   14  C   UNL     1     -11.013   6.710  68.841  1.00  0.00    -0.267 C  
HETATM   15  N   UNL     1     -11.837   6.675  69.931  1.00  0.00    -0.653 N  
HETATM   16  H2  UNL     1     -12.137   7.510  70.432  1.00  0.00     0.000 HD 
HETATM   17  H1  UNL     1     -12.123   5.732  70.193  1.00  0.00     0.000 HD 
HETATM   18  O   UNL     1     -10.672   5.681  68.265  1.00  0.00    -0.214 OA 
ENDBRANCH   9  14
ENDBRANCH   6   8
ENDBRANCH   4   6
ENDBRANCH   2   4
TORSDOF 4
ENDMDL
MODEL      173
REMARK 921   NORMALIZED FREE ENERGY PREDICTED BY IDOCK:   -3.04 KCAL/MOL
REMARK 922        TOTAL FREE ENERGY PREDICTED BY IDOCK:   -4.19 KCAL/MOL
REMARK 923 INTER-LIGAND FREE ENERGY PREDICTED BY IDOCK:   -3.42 KCAL/MOL
REMARK 924 INTRA-LIGAND FREE ENERGY PREDICTED BY IDOCK:   -0.77 KCAL/MOL
REMARK 927      BINDING AFFINITY PREDICTED BY RF-SCORE:    0.00 PKD
ROOT
HETATM    1  C   UNL     1      -9.131   7.342  66.774  1.00  0.00    -0.148 C  
HETATM    2  N   UNL     1     -10.416   6.738  67.076  1.00  0.00    -0.268 NA 
HETATM    3  C   UNL     1     -10.610   5.318  66.807  1.00  0.00    -0.242 C  
ENDROOT
BRANCH   2   4
HETATM    4  N   UNL     1     -11.114   7.361  68.080  1.00  0.00    -0.463 NA 
HETATM    5  H   UNL     1     -11.384   8.345  68.044  1.00  0.00     0.000 HD 
BRANCH   4   6
HETATM    6  N   UNL     1     -11.386   6.615  69.042  1.00  0.00    -0.576 NA 
HETATM    7  H   UNL     1     -11.700   5.653  68.913  1.00  0.00     0.000 HD 
BRANCH   6   8
HETATM    8  C   UNL     1     -11.237   7.170  70.271  1.00  0.00    -0.276 A  
HETATM    9  C   UNL     1     -10.137   7.451  71.065  1.00  0.00    -0.190 A  
HETATM   10  N   UNL     1     -10.535   8.023  72.275  1.00  0.00    -0.255 NA 
HETATM   11  N   UNL     1     -12.309   7.569  71.036  1.00  0.00    -0.275 NA 
HETATM   12  C   UNL     1     -11.844   8.077  72.213  1.00  0.00    -0.369 A  
HETATM   13  H   UNL     1      -9.937   8.333  73.040  1.00  0.00     0.000 HD 
BRANCH   9  14
HETATM   14  C   UNL     1      -8.732   7.212  70.740  1.00  0.00    -0.147 C  
HETATM   15  N   UNL     1      -8.548   6.211  69.828  1.00  0.00    -0.131 N  
HETATM   16  H2  UNL     1      -9.316   5.683  69.414  1.00  0.00     0.000 HD 
HETATM   17  H1  UNL     1      -7.568   6.045  69.601  1.00  0.00     0.000 HD 
HETATM   18  O   UNL     1      -7.781   7.824  71.217  1.00  0.00    -0.081 OA 
ENDBRANCH   9  14
ENDBRANCH   6   8
ENDBRANCH   4   6
ENDBRANCH   2   4
TORSDOF 4
ENDMDL
MODEL      174
REMARK 921   NORMALIZED FREE ENERGY PREDICTED BY IDOCK:   -3.03 KCAL/MOL
REMARK 922        TOTAL FREE ENERGY PREDICTED BY IDOCK:   -4.18 KCAL/MOL
REMARK 923 INTER-LIGAND FREE ENERGY PREDICTED BY IDOCK:   -3.55 KCAL/MOL
REMARK 924 INTRA-LIGAND FREE ENERGY PREDICTED BY IDOCK:   -0.63 KCAL/MOL
REMARK 927      BINDING AFFINITY PREDICTED BY RF-SCORE:    0.00 PKD
ROOT
HETATM    1  C   UNL     1      -6.843   6.043  73.008  1.00  0.00    -0.079 C  
HETATM    2  N   UNL     1      -7.799   5.032  72.593  1.00  0.00    -0.096 NA 
HETATM    3  C   UNL     1      -8.221   4.022  73.557  1.00  0.00    -0.089 C  
ENDROOT
BRANCH   2   4
HETATM    4  N   UNL     1      -8.636   5.424  71.579  1.00  0.00    -0.129 NA 
HETATM    5  H   UNL     1      -8.360   6.086  70.853  1.00  0.00     0.000 HD 
BRANCH   4   6
HETATM    6  N   UNL     1      -9.766   4.897  71.627  1.00  0.00    -0.165 NA 
HETATM    7  H   UNL     1      -9.899   3.913  71.862  1.00  0.00     0.000 HD 
BRANCH   6   8
HETATM    8  C   UNL     1     -10.806   5.722  71.345  1.00  0.00    -0.251 A  
HETATM    9  C   UNL     1     -11.293   6.278  70.173  1.00  0.00    -0.406 A  
HETATM   10  N   UNL     1     -12.403   7.084  70.434  1.00  0.00    -0.618 NA 
HETATM   11  N   UNL     1     -11.635   6.225  72.321  1.00  0.00    -0.306 NA 
HETATM   12  C   UNL     1     -12.573   7.021  71.734  1.00  0.00    -0.350 A  
HETATM   13  H   UNL     1     -12.960   7.609  69.761  1.00  0.00     0.000 HD 
BRANCH   9  14
HETATM   14  C   UNL     1     -10.770   6.085  68.822  1.00  0.00    -0.308 C  
HETATM   15  N   UNL     1     -11.526   6.689  67.856  1.00  0.00    -0.626 N  
HETATM   16  H2  UNL     1     -12.371   7.222  68.059  1.00  0.00     0.000 HD 
HETATM   17  H1  UNL     1     -11.162   6.554  66.913  1.00  0.00     0.000 HD 
HETATM   18  O   UNL     1      -9.760   5.449  68.538  1.00  0.00    -0.123 OA 
ENDBRANCH   9  14
ENDBRANCH   6   8
ENDBRANCH   4   6
ENDBRANCH   2   4
TORSDOF 4
ENDMDL
MODEL      175
REMARK 921   NORMALIZED FREE ENERGY PREDICTED BY IDOCK:   -3.02 KCAL/MOL
REMARK 922        TOTAL FREE ENERGY PREDICTED BY IDOCK:   -4.17 KCAL/MOL
REMARK 923 INTER-LIGAND FREE ENERGY PREDICTED BY IDOCK:   -3.42 KCAL/MOL
REMARK 924 INTRA-LIGAND FREE ENERGY PREDICTED BY IDOCK:   -0.75 KCAL/MOL
REMARK 927      BINDING AFFINITY PREDICTED BY RF-SCORE:    0.00 PKD
ROOT
HETATM    1  C   UNL     1      -8.816  10.503  67.310  1.00  0.00    -0.136 C  
HETATM    2  N   UNL     1     -10.203  10.730  67.675  1.00  0.00    -0.182 NA 
HETATM    3  C   UNL     1     -10.692  10.211  68.947  1.00  0.00    -0.223 C  
ENDROOT
BRANCH   2   4
HETATM    4  N   UNL     1     -10.760  11.854  67.117  1.00  0.00    -0.230 NA 
HETATM    5  H   UNL     1     -11.551  12.348  67.530  1.00  0.00     0.000 HD 
BRANCH   4   6
HETATM    6  N   UNL     1     -10.209  12.215  66.058  1.00  0.00    -0.231 NA 
HETATM    7  H   UNL     1      -9.767  11.553  65.420  1.00  0.00     0.000 HD 
BRANCH   6   8
HETATM    8  C   UNL     1     -10.239  13.549  65.811  1.00  0.00    -0.297 A  
HETATM    9  C   UNL     1      -9.592  14.638  66.374  1.00  0.00    -0.301 A  
HETATM   10  N   UNL     1      -9.992  15.823  65.752  1.00  0.00    -0.338 NA 
HETATM   11  N   UNL     1     -11.051  14.105  64.850  1.00  0.00    -0.365 NA 
HETATM   12  C   UNL     1     -10.865  15.455  64.845  1.00  0.00    -0.425 A  
HETATM   13  H   UNL     1      -9.674  16.770  65.959  1.00  0.00     0.000 HD 
BRANCH   9  14
HETATM   14  C   UNL     1      -8.615  14.619  67.460  1.00  0.00    -0.187 C  
HETATM   15  N   UNL     1      -9.061  13.975  68.580  1.00  0.00    -0.320 N  
HETATM   16  H2  UNL     1      -9.985  13.550  68.650  1.00  0.00     0.000 HD 
HETATM   17  H1  UNL     1      -8.379  13.961  69.338  1.00  0.00     0.000 HD 
HETATM   18  O   UNL     1      -7.496  15.120  67.414  1.00  0.00    -0.182 OA 
ENDBRANCH   9  14
ENDBRANCH   6   8
ENDBRANCH   4   6
ENDBRANCH   2   4
TORSDOF 4
ENDMDL
MODEL      176
REMARK 921   NORMALIZED FREE ENERGY PREDICTED BY IDOCK:   -3.02 KCAL/MOL
REMARK 922        TOTAL FREE ENERGY PREDICTED BY IDOCK:   -4.17 KCAL/MOL
REMARK 923 INTER-LIGAND FREE ENERGY PREDICTED BY IDOCK:   -3.72 KCAL/MOL
REMARK 924 INTRA-LIGAND FREE ENERGY PREDICTED BY IDOCK:   -0.44 KCAL/MOL
REMARK 927      BINDING AFFINITY PREDICTED BY RF-SCORE:    0.00 PKD
ROOT
HETATM    1  C   UNL     1     -10.739  12.131  64.156  1.00  0.00    -0.360 C  
HETATM    2  N   UNL     1     -10.931  13.558  64.348  1.00  0.00    -0.390 NA 
HETATM    3  C   UNL     1     -12.276  14.110  64.239  1.00  0.00    -0.420 C  
ENDROOT
BRANCH   2   4
HETATM    4  N   UNL     1      -9.993  14.153  65.153  1.00  0.00    -0.577 NA 
HETATM    5  H   UNL     1      -9.868  15.165  65.210  1.00  0.00     0.000 HD 
BRANCH   4   6
HETATM    6  N   UNL     1      -9.307  13.344  65.810  1.00  0.00    -0.473 NA 
HETATM    7  H   UNL     1      -9.057  12.423  65.450  1.00  0.00     0.000 HD 
BRANCH   6   8
HETATM    8  C   UNL     1      -8.917  13.773  67.037  1.00  0.00    -0.238 A  
HETATM    9  C   UNL     1      -8.274  13.162  68.102  1.00  0.00    -0.160 A  
HETATM   10  N   UNL     1      -8.116  14.059  69.161  1.00  0.00    -0.340 NA 
HETATM   11  N   UNL     1      -9.158  15.052  67.484  1.00  0.00    -0.181 NA 
HETATM   12  C   UNL     1      -8.658  15.178  68.746  1.00  0.00    -0.182 A  
HETATM   13  H   UNL     1      -7.674  13.881  70.063  1.00  0.00     0.000 HD 
BRANCH   9  14
HETATM   14  C   UNL     1      -7.799  11.783  68.171  1.00  0.00    -0.135 C  
HETATM   15  N   UNL     1      -7.104  11.392  67.060  1.00  0.00    -0.130 N  
HETATM   16  H2  UNL     1      -6.935  12.003  66.262  1.00  0.00     0.000 HD 
HETATM   17  H1  UNL     1      -6.772  10.429  67.107  1.00  0.00     0.000 HD 
HETATM   18  O   UNL     1      -7.984  11.015  69.110  1.00  0.00    -0.138 OA 
ENDBRANCH   9  14
ENDBRANCH   6   8
ENDBRANCH   4   6
ENDBRANCH   2   4
TORSDOF 4
ENDMDL
MODEL      177
REMARK 921   NORMALIZED FREE ENERGY PREDICTED BY IDOCK:   -3.00 KCAL/MOL
REMARK 922        TOTAL FREE ENERGY PREDICTED BY IDOCK:   -4.14 KCAL/MOL
REMARK 923 INTER-LIGAND FREE ENERGY PREDICTED BY IDOCK:   -3.66 KCAL/MOL
REMARK 924 INTRA-LIGAND FREE ENERGY PREDICTED BY IDOCK:   -0.48 KCAL/MOL
REMARK 927      BINDING AFFINITY PREDICTED BY RF-SCORE:    0.00 PKD
ROOT
HETATM    1  C   UNL     1      -7.986  12.420  66.963  1.00  0.00    -0.106 C  
HETATM    2  N   UNL     1      -8.760  11.486  67.761  1.00  0.00    -0.138 NA 
HETATM    3  C   UNL     1      -8.141  10.874  68.930  1.00  0.00    -0.144 C  
ENDROOT
BRANCH   2   4
HETATM    4  N   UNL     1     -10.117  11.686  67.712  1.00  0.00    -0.184 NA 
HETATM    5  H   UNL     1     -10.764  11.018  67.291  1.00  0.00     0.000 HD 
BRANCH   4   6
HETATM    6  N   UNL     1     -10.486  12.760  68.229  1.00  0.00    -0.235 NA 
HETATM    7  H   UNL     1     -10.169  13.667  67.886  1.00  0.00     0.000 HD 
BRANCH   6   8
HETATM    8  C   UNL     1     -11.337  12.638  69.278  1.00  0.00    -0.245 A  
HETATM    9  C   UNL     1     -12.032  13.552  70.054  1.00  0.00    -0.340 A  
HETATM   10  N   UNL     1     -12.776  12.897  71.038  1.00  0.00    -0.305 NA 
HETATM   11  N   UNL     1     -11.664  11.420  69.827  1.00  0.00    -0.315 NA 
HETATM   12  C   UNL     1     -12.527  11.621  70.863  1.00  0.00    -0.341 A  
HETATM   13  H   UNL     1     -13.382  13.320  71.741  1.00  0.00     0.000 HD 
BRANCH   9  14
HETATM   14  C   UNL     1     -12.035  15.006  69.913  1.00  0.00    -0.334 C  
HETATM   15  N   UNL     1     -13.043  15.617  70.607  1.00  0.00    -0.699 N  
HETATM   16  H2  UNL     1     -13.724  15.107  71.168  1.00  0.00     0.000 HD 
HETATM   17  H1  UNL     1     -13.045  16.632  70.508  1.00  0.00     0.000 HD 
HETATM   18  O   UNL     1     -11.235  15.655  69.246  1.00  0.00    -0.274 OA 
ENDBRANCH   9  14
ENDBRANCH   6   8
ENDBRANCH   4   6
ENDBRANCH   2   4
TORSDOF 4
ENDMDL
MODEL      178
REMARK 921   NORMALIZED FREE ENERGY PREDICTED BY IDOCK:   -2.99 KCAL/MOL
REMARK 922        TOTAL FREE ENERGY PREDICTED BY IDOCK:   -4.13 KCAL/MOL
REMARK 923 INTER-LIGAND FREE ENERGY PREDICTED BY IDOCK:   -3.48 KCAL/MOL
REMARK 924 INTRA-LIGAND FREE ENERGY PREDICTED BY IDOCK:   -0.65 KCAL/MOL
REMARK 927      BINDING AFFINITY PREDICTED BY RF-SCORE:    0.00 PKD
ROOT
HETATM    1  C   UNL     1      -9.885   4.667  68.049  1.00  0.00    -0.113 C  
HETATM    2  N   UNL     1     -10.505   5.958  68.287  1.00  0.00    -0.215 NA 
HETATM    3  C   UNL     1     -10.746   6.845  67.155  1.00  0.00    -0.366 C  
ENDROOT
BRANCH   2   4
HETATM    4  N   UNL     1     -11.311   6.005  69.396  1.00  0.00    -0.348 NA 
HETATM    5  H   UNL     1     -12.330   5.983  69.346  1.00  0.00     0.000 HD 
BRANCH   4   6
HETATM    6  N   UNL     1     -10.684   6.076  70.472  1.00  0.00    -0.263 NA 
HETATM    7  H   UNL     1     -10.474   5.253  71.036  1.00  0.00     0.000 HD 
BRANCH   6   8
HETATM    8  C   UNL     1     -10.299   7.325  70.840  1.00  0.00    -0.201 A  
HETATM    9  C   UNL     1     -10.979   8.426  71.335  1.00  0.00    -0.253 A  
HETATM   10  N   UNL     1     -10.103   9.493  71.542  1.00  0.00    -0.146 NA 
HETATM   11  N   UNL     1      -8.997   7.757  70.736  1.00  0.00    -0.147 NA 
HETATM   12  C   UNL     1      -8.926   9.047  71.172  1.00  0.00    -0.235 A  
HETATM   13  H   UNL     1     -10.329  10.420  71.904  1.00  0.00     0.000 HD 
BRANCH   9  14
HETATM   14  C   UNL     1     -12.407   8.522  71.627  1.00  0.00    -0.326 C  
HETATM   15  N   UNL     1     -12.969   7.329  71.987  1.00  0.00    -0.517 N  
HETATM   16  H2  UNL     1     -12.443   6.458  72.045  1.00  0.00     0.000 HD 
HETATM   17  H1  UNL     1     -13.966   7.395  72.191  1.00  0.00     0.000 HD 
HETATM   18  O   UNL     1     -13.075   9.549  71.565  1.00  0.00    -0.348 OA 
ENDBRANCH   9  14
ENDBRANCH   6   8
ENDBRANCH   4   6
ENDBRANCH   2   4
TORSDOF 4
ENDMDL
MODEL      179
REMARK 921   NORMALIZED FREE ENERGY PREDICTED BY IDOCK:   -2.99 KCAL/MOL
REMARK 922        TOTAL FREE ENERGY PREDICTED BY IDOCK:   -4.12 KCAL/MOL
REMARK 923 INTER-LIGAND FREE ENERGY PREDICTED BY IDOCK:   -3.51 KCAL/MOL
REMARK 924 INTRA-LIGAND FREE ENERGY PREDICTED BY IDOCK:   -0.61 KCAL/MOL
REMARK 927      BINDING AFFINITY PREDICTED BY RF-SCORE:    0.00 PKD
ROOT
HETATM    1  C   UNL     1      -9.992  16.109  66.113  1.00  0.00    -0.335 C  
HETATM    2  N   UNL     1     -10.741  15.266  65.199  1.00  0.00    -0.407 NA 
HETATM    3  C   UNL     1     -11.613  15.894  64.213  1.00  0.00    -0.178 C  
ENDROOT
BRANCH   2   4
HETATM    4  N   UNL     1     -10.160  14.049  64.945  1.00  0.00    -0.595 NA 
HETATM    5  H   UNL     1      -9.533  13.884  64.157  1.00  0.00     0.000 HD 
BRANCH   4   6
HETATM    6  N   UNL     1     -10.470  13.163  65.766  1.00  0.00    -0.278 NA 
HETATM    7  H   UNL     1     -11.414  13.076  66.144  1.00  0.00     0.000 HD 
BRANCH   6   8
HETATM    8  C   UNL     1      -9.466  12.321  66.121  1.00  0.00    -0.217 A  
HETATM    9  C   UNL     1      -8.894  11.211  65.522  1.00  0.00    -0.136 A  
HETATM   10  N   UNL     1      -7.880  10.685  66.325  1.00  0.00    -0.145 NA 
HETATM   11  N   UNL     1      -8.789  12.442  67.312  1.00  0.00    -0.184 NA 
HETATM   12  C   UNL     1      -7.851  11.456  67.386  1.00  0.00    -0.135 A  
HETATM   13  H   UNL     1      -7.290   9.877  66.129  1.00  0.00     0.000 HD 
BRANCH   9  14
HETATM   14  C   UNL     1      -9.248  10.625  64.231  1.00  0.00    -0.233 C  
HETATM   15  N   UNL     1     -10.545  10.859  63.866  1.00  0.00    -0.510 N  
HETATM   16  H2  UNL     1     -11.200  11.391  64.439  1.00  0.00     0.000 HD 
HETATM   17  H1  UNL     1     -10.792  10.451  62.965  1.00  0.00     0.000 HD 
HETATM   18  O   UNL     1      -8.491   9.978  63.515  1.00  0.00    -0.158 OA 
ENDBRANCH   9  14
ENDBRANCH   6   8
ENDBRANCH   4   6
ENDBRANCH   2   4
TORSDOF 4
ENDMDL
MODEL      180
REMARK 921   NORMALIZED FREE ENERGY PREDICTED BY IDOCK:   -2.96 KCAL/MOL
REMARK 922        TOTAL FREE ENERGY PREDICTED BY IDOCK:   -4.09 KCAL/MOL
REMARK 923 INTER-LIGAND FREE ENERGY PREDICTED BY IDOCK:   -3.65 KCAL/MOL
REMARK 924 INTRA-LIGAND FREE ENERGY PREDICTED BY IDOCK:   -0.45 KCAL/MOL
REMARK 927      BINDING AFFINITY PREDICTED BY RF-SCORE:    0.00 PKD
ROOT
HETATM    1  C   UNL     1     -11.240  16.171  69.745  1.00  0.00    -0.343 C  
HETATM    2  N   UNL     1     -11.346  14.964  70.544  1.00  0.00    -0.254 NA 
HETATM    3  C   UNL     1     -12.201  14.972  71.725  1.00  0.00    -0.350 C  
ENDROOT
BRANCH   2   4
HETATM    4  N   UNL     1     -11.124  13.802  69.848  1.00  0.00    -0.469 NA 
HETATM    5  H   UNL     1     -11.586  12.920  70.074  1.00  0.00     0.000 HD 
BRANCH   4   6
HETATM    6  N   UNL     1     -10.305  13.923  68.916  1.00  0.00    -0.363 NA 
HETATM    7  H   UNL     1      -9.605  14.665  68.897  1.00  0.00     0.000 HD 
BRANCH   6   8
HETATM    8  C   UNL     1     -10.408  12.999  67.926  1.00  0.00    -0.231 A  
HETATM    9  C   UNL     1      -9.483  12.359  67.118  1.00  0.00    -0.198 A  
HETATM   10  N   UNL     1     -10.122  11.490  66.231  1.00  0.00    -0.219 NA 
HETATM   11  N   UNL     1     -11.620  12.512  67.495  1.00  0.00    -0.341 NA 
HETATM   12  C   UNL     1     -11.401  11.612  66.494  1.00  0.00    -0.263 A  
HETATM   13  H   UNL     1      -9.688  10.890  65.530  1.00  0.00     0.000 HD 
BRANCH   9  14
HETATM   14  C   UNL     1      -8.031  12.519  67.142  1.00  0.00    -0.140 C  
HETATM   15  N   UNL     1      -7.630  13.818  67.288  1.00  0.00    -0.343 N  
HETATM   16  H2  UNL     1      -8.281  14.598  67.371  1.00  0.00     0.000 HD 
HETATM   17  H1  UNL     1      -6.617  13.930  67.305  1.00  0.00     0.000 HD 
HETATM   18  O   UNL     1      -7.216  11.607  67.042  1.00  0.00    -0.135 OA 
ENDBRANCH   9  14
ENDBRANCH   6   8
ENDBRANCH   4   6
ENDBRANCH   2   4
TORSDOF 4
ENDMDL
MODEL      181
REMARK 921   NORMALIZED FREE ENERGY PREDICTED BY IDOCK:   -2.96 KCAL/MOL
REMARK 922        TOTAL FREE ENERGY PREDICTED BY IDOCK:   -4.09 KCAL/MOL
REMARK 923 INTER-LIGAND FREE ENERGY PREDICTED BY IDOCK:   -3.80 KCAL/MOL
REMARK 924 INTRA-LIGAND FREE ENERGY PREDICTED BY IDOCK:   -0.29 KCAL/MOL
REMARK 927      BINDING AFFINITY PREDICTED BY RF-SCORE:    0.00 PKD
ROOT
HETATM    1  C   UNL     1     -10.948  16.712  69.887  1.00  0.00    -0.187 C  
HETATM    2  N   UNL     1     -11.453  16.091  68.676  1.00  0.00    -0.387 NA 
HETATM    3  C   UNL     1     -10.723  16.281  67.428  1.00  0.00    -0.287 C  
ENDROOT
BRANCH   2   4
HETATM    4  N   UNL     1     -12.194  14.956  68.887  1.00  0.00    -0.578 NA 
HETATM    5  H   UNL     1     -12.998  14.924  69.515  1.00  0.00     0.000 HD 
BRANCH   4   6
HETATM    6  N   UNL     1     -11.795  13.967  68.240  1.00  0.00    -0.360 NA 
HETATM    7  H   UNL     1     -11.498  14.037  67.266  1.00  0.00     0.000 HD 
BRANCH   6   8
HETATM    8  C   UNL     1     -11.785  12.792  68.919  1.00  0.00    -0.326 A  
HETATM    9  C   UNL     1     -11.339  11.516  68.613  1.00  0.00    -0.269 A  
HETATM   10  N   UNL     1     -11.579  10.643  69.675  1.00  0.00    -0.275 NA 
HETATM   11  N   UNL     1     -12.316  12.664  70.182  1.00  0.00    -0.208 NA 
HETATM   12  C   UNL     1     -12.164  11.374  70.594  1.00  0.00    -0.389 A  
HETATM   13  H   UNL     1     -11.350   9.650  69.725  1.00  0.00     0.000 HD 
BRANCH   9  14
HETATM   14  C   UNL     1     -10.695  11.081  67.375  1.00  0.00    -0.257 C  
HETATM   15  N   UNL     1      -9.392  10.705  67.545  1.00  0.00    -0.146 N  
HETATM   16  H2  UNL     1      -8.916  10.726  68.447  1.00  0.00     0.000 HD 
HETATM   17  H1  UNL     1      -8.942  10.401  66.682  1.00  0.00     0.000 HD 
HETATM   18  O   UNL     1     -11.231  11.044  66.273  1.00  0.00    -0.130 OA 
ENDBRANCH   9  14
ENDBRANCH   6   8
ENDBRANCH   4   6
ENDBRANCH   2   4
TORSDOF 4
ENDMDL
MODEL      182
REMARK 921   NORMALIZED FREE ENERGY PREDICTED BY IDOCK:   -2.94 KCAL/MOL
REMARK 922        TOTAL FREE ENERGY PREDICTED BY IDOCK:   -4.07 KCAL/MOL
REMARK 923 INTER-LIGAND FREE ENERGY PREDICTED BY IDOCK:   -3.49 KCAL/MOL
REMARK 924 INTRA-LIGAND FREE ENERGY PREDICTED BY IDOCK:   -0.58 KCAL/MOL
REMARK 927      BINDING AFFINITY PREDICTED BY RF-SCORE:    0.00 PKD
ROOT
HETATM    1  C   UNL     1      -6.154  15.597  68.979  1.00  0.00    -0.107 C  
HETATM    2  N   UNL     1      -7.086  14.551  68.597  1.00  0.00    -0.106 NA 
HETATM    3  C   UNL     1      -6.666  13.555  67.618  1.00  0.00    -0.167 C  
ENDROOT
BRANCH   2   4
HETATM    4  N   UNL     1      -8.015  14.239  69.558  1.00  0.00    -0.346 NA 
HETATM    5  H   UNL     1      -7.937  13.422  70.163  1.00  0.00     0.000 HD 
BRANCH   4   6
HETATM    6  N   UNL     1      -8.962  15.048  69.623  1.00  0.00    -0.453 NA 
HETATM    7  H   UNL     1      -8.997  15.792  70.320  1.00  0.00     0.000 HD 
BRANCH   6   8
HETATM    8  C   UNL     1      -9.944  14.870  68.702  1.00  0.00    -0.224 A  
HETATM    9  C   UNL     1     -10.432  15.649  67.665  1.00  0.00    -0.283 A  
HETATM   10  N   UNL     1     -11.482  14.998  67.013  1.00  0.00    -0.323 NA 
HETATM   11  N   UNL     1     -10.733  13.744  68.673  1.00  0.00    -0.253 NA 
HETATM   12  C   UNL     1     -11.626  13.860  67.649  1.00  0.00    -0.348 A  
HETATM   13  H   UNL     1     -12.020  15.335  66.215  1.00  0.00     0.000 HD 
BRANCH   9  14
HETATM   14  C   UNL     1      -9.958  16.968  67.255  1.00  0.00    -0.275 C  
HETATM   15  N   UNL     1     -10.318  17.302  65.979  1.00  0.00    -0.346 N  
HETATM   16  H2  UNL     1     -10.864  16.690  65.373  1.00  0.00     0.000 HD 
HETATM   17  H1  UNL     1      -9.988  18.223  65.692  1.00  0.00     0.000 HD 
HETATM   18  O   UNL     1      -9.298  17.732  67.952  1.00  0.00    -0.256 OA 
ENDBRANCH   9  14
ENDBRANCH   6   8
ENDBRANCH   4   6
ENDBRANCH   2   4
TORSDOF 4
ENDMDL
MODEL      183
REMARK 921   NORMALIZED FREE ENERGY PREDICTED BY IDOCK:   -2.94 KCAL/MOL
REMARK 922        TOTAL FREE ENERGY PREDICTED BY IDOCK:   -4.07 KCAL/MOL
REMARK 923 INTER-LIGAND FREE ENERGY PREDICTED BY IDOCK:   -3.31 KCAL/MOL
REMARK 924 INTRA-LIGAND FREE ENERGY PREDICTED BY IDOCK:   -0.76 KCAL/MOL
REMARK 927      BINDING AFFINITY PREDICTED BY RF-SCORE:    0.00 PKD
ROOT
HETATM    1  C   UNL     1      -8.844   8.164  73.069  1.00  0.00    -0.248 C  
HETATM    2  N   UNL     1     -10.070   7.746  72.413  1.00  0.00    -0.208 NA 
HETATM    3  C   UNL     1     -11.323   7.807  73.155  1.00  0.00    -0.138 C  
ENDROOT
BRANCH   2   4
HETATM    4  N   UNL     1     -10.057   7.881  71.047  1.00  0.00    -0.192 NA 
HETATM    5  H   UNL     1     -10.382   7.151  70.412  1.00  0.00     0.000 HD 
BRANCH   4   6
HETATM    6  N   UNL     1      -9.614   8.978  70.654  1.00  0.00    -0.216 NA 
HETATM    7  H   UNL     1      -8.638   9.249  70.781  1.00  0.00     0.000 HD 
BRANCH   6   8
HETATM    8  C   UNL     1     -10.518   9.788  70.046  1.00  0.00    -0.270 A  
HETATM    9  C   UNL     1     -10.984   9.891  68.745  1.00  0.00    -0.179 A  
HETATM   10  N   UNL     1     -11.921  10.921  68.639  1.00  0.00    -0.727 NA 
HETATM   11  N   UNL     1     -11.181  10.789  70.718  1.00  0.00    -0.029 NA 
HETATM   12  C   UNL     1     -12.010  11.429  69.845  1.00  0.00    -0.359 A  
HETATM   13  H   UNL     1     -12.428  11.214  67.803  1.00  0.00     0.000 HD 
BRANCH   9  14
HETATM   14  C   UNL     1     -10.595   9.069  67.602  1.00  0.00    -0.231 C  
HETATM   15  N   UNL     1     -10.417   7.750  67.917  1.00  0.00    -0.301 N  
HETATM   16  H2  UNL     1     -10.543   7.378  68.858  1.00  0.00     0.000 HD 
HETATM   17  H1  UNL     1     -10.147   7.176  67.120  1.00  0.00     0.000 HD 
HETATM   18  O   UNL     1     -10.432   9.479  66.457  1.00  0.00    -0.211 OA 
ENDBRANCH   9  14
ENDBRANCH   6   8
ENDBRANCH   4   6
ENDBRANCH   2   4
TORSDOF 4
ENDMDL
MODEL      184
REMARK 921   NORMALIZED FREE ENERGY PREDICTED BY IDOCK:   -2.92 KCAL/MOL
REMARK 922        TOTAL FREE ENERGY PREDICTED BY IDOCK:   -4.04 KCAL/MOL
REMARK 923 INTER-LIGAND FREE ENERGY PREDICTED BY IDOCK:   -3.61 KCAL/MOL
REMARK 924 INTRA-LIGAND FREE ENERGY PREDICTED BY IDOCK:   -0.43 KCAL/MOL
REMARK 927      BINDING AFFINITY PREDICTED BY RF-SCORE:    0.00 PKD
ROOT
HETATM    1  C   UNL     1     -10.128   4.165  65.260  1.00  0.00    -0.202 C  
HETATM    2  N   UNL     1      -9.297   5.069  66.034  1.00  0.00    -0.151 NA 
HETATM    3  C   UNL     1      -7.935   4.666  66.367  1.00  0.00    -0.103 C  
ENDROOT
BRANCH   2   4
HETATM    4  N   UNL     1      -9.619   6.395  65.897  1.00  0.00    -0.389 NA 
HETATM    5  H   UNL     1      -9.115   7.031  65.278  1.00  0.00     0.000 HD 
BRANCH   4   6
HETATM    6  N   UNL     1     -10.586   6.753  66.598  1.00  0.00    -0.505 NA 
HETATM    7  H   UNL     1     -11.416   6.172  66.720  1.00  0.00     0.000 HD 
BRANCH   6   8
HETATM    8  C   UNL     1     -10.460   7.969  67.189  1.00  0.00    -0.338 A  
HETATM    9  C   UNL     1     -10.524   8.403  68.503  1.00  0.00    -0.164 A  
HETATM   10  N   UNL     1     -10.336   9.785  68.575  1.00  0.00    -0.194 NA 
HETATM   11  N   UNL     1     -10.248   9.121  66.468  1.00  0.00    -0.274 NA 
HETATM   12  C   UNL     1     -10.172  10.173  67.332  1.00  0.00    -0.218 A  
HETATM   13  H   UNL     1     -10.328  10.367  69.412  1.00  0.00     0.000 HD 
BRANCH   9  14
HETATM   14  C   UNL     1     -10.747   7.584  69.692  1.00  0.00    -0.230 C  
HETATM   15  N   UNL     1     -11.576   6.519  69.470  1.00  0.00    -0.642 N  
HETATM   16  H2  UNL     1     -11.997   6.317  68.564  1.00  0.00     0.000 HD 
HETATM   17  H1  UNL     1     -11.732   5.947  70.300  1.00  0.00     0.000 HD 
HETATM   18  O   UNL     1     -10.262   7.795  70.799  1.00  0.00    -0.196 OA 
ENDBRANCH   9  14
ENDBRANCH   6   8
ENDBRANCH   4   6
ENDBRANCH   2   4
TORSDOF 4
ENDMDL
MODEL      185
REMARK 921   NORMALIZED FREE ENERGY PREDICTED BY IDOCK:   -2.91 KCAL/MOL
REMARK 922        TOTAL FREE ENERGY PREDICTED BY IDOCK:   -4.03 KCAL/MOL
REMARK 923 INTER-LIGAND FREE ENERGY PREDICTED BY IDOCK:   -3.45 KCAL/MOL
REMARK 924 INTRA-LIGAND FREE ENERGY PREDICTED BY IDOCK:   -0.58 KCAL/MOL
REMARK 927      BINDING AFFINITY PREDICTED BY RF-SCORE:    0.00 PKD
ROOT
HETATM    1  C   UNL     1     -11.604  15.098  71.635  1.00  0.00    -0.400 C  
HETATM    2  N   UNL     1     -11.678  14.838  70.208  1.00  0.00    -0.282 NA 
HETATM    3  C   UNL     1     -11.966  15.944  69.303  1.00  0.00    -0.242 C  
ENDROOT
BRANCH   2   4
HETATM    4  N   UNL     1     -10.931  13.766  69.787  1.00  0.00    -0.458 NA 
HETATM    5  H   UNL     1     -10.363  13.200  70.419  1.00  0.00     0.000 HD 
BRANCH   4   6
HETATM    6  N   UNL     1     -11.010  13.548  68.562  1.00  0.00    -0.258 NA 
HETATM    7  H   UNL     1     -11.764  13.927  67.988  1.00  0.00     0.000 HD 
BRANCH   6   8
HETATM    8  C   UNL     1     -10.026  12.771  68.043  1.00  0.00    -0.225 A  
HETATM    9  C   UNL     1      -9.898  11.408  67.829  1.00  0.00    -0.175 A  
HETATM   10  N   UNL     1      -8.653  11.112  67.270  1.00  0.00    -0.137 NA 
HETATM   11  N   UNL     1      -8.824  13.289  67.618  1.00  0.00    -0.188 NA 
HETATM   12  C   UNL     1      -8.044  12.269  67.159  1.00  0.00    -0.173 A  
HETATM   13  H   UNL     1      -8.295  10.195  67.005  1.00  0.00     0.000 HD 
BRANCH   9  14
HETATM   14  C   UNL     1     -10.889  10.374  68.119  1.00  0.00    -0.264 C  
HETATM   15  N   UNL     1     -12.050  10.867  68.645  1.00  0.00    -0.422 N  
HETATM   16  H2  UNL     1     -12.209  11.858  68.819  1.00  0.00     0.000 HD 
HETATM   17  H1  UNL     1     -12.742  10.145  68.847  1.00  0.00     0.000 HD 
HETATM   18  O   UNL     1     -10.734   9.172  67.927  1.00  0.00    -0.230 OA 
ENDBRANCH   9  14
ENDBRANCH   6   8
ENDBRANCH   4   6
ENDBRANCH   2   4
TORSDOF 4
ENDMDL
MODEL      186
REMARK 921   NORMALIZED FREE ENERGY PREDICTED BY IDOCK:   -2.91 KCAL/MOL
REMARK 922        TOTAL FREE ENERGY PREDICTED BY IDOCK:   -4.03 KCAL/MOL
REMARK 923 INTER-LIGAND FREE ENERGY PREDICTED BY IDOCK:   -3.22 KCAL/MOL
REMARK 924 INTRA-LIGAND FREE ENERGY PREDICTED BY IDOCK:   -0.81 KCAL/MOL
REMARK 927      BINDING AFFINITY PREDICTED BY RF-SCORE:    0.00 PKD
ROOT
HETATM    1  C   UNL     1      -9.498   3.798  63.799  1.00  0.00    -0.146 C  
HETATM    2  N   UNL     1      -8.566   4.510  64.654  1.00  0.00    -0.133 NA 
HETATM    3  C   UNL     1      -7.392   3.808  65.158  1.00  0.00    -0.068 C  
ENDROOT
BRANCH   2   4
HETATM    4  N   UNL     1      -8.539   5.868  64.456  1.00  0.00    -0.344 NA 
HETATM    5  H   UNL     1      -8.859   6.312  63.595  1.00  0.00     0.000 HD 
BRANCH   4   6
HETATM    6  N   UNL     1      -8.085   6.509  65.426  1.00  0.00    -0.124 NA 
HETATM    7  H   UNL     1      -7.183   6.290  65.850  1.00  0.00     0.000 HD 
BRANCH   6   8
HETATM    8  C   UNL     1      -8.873   7.517  65.878  1.00  0.00    -0.126 A  
HETATM    9  C   UNL     1     -10.048   7.554  66.613  1.00  0.00    -0.193 A  
HETATM   10  N   UNL     1     -10.468   8.872  66.804  1.00  0.00    -0.240 NA 
HETATM   11  N   UNL     1      -8.604   8.840  65.614  1.00  0.00    -0.162 NA 
HETATM   12  C   UNL     1      -9.572   9.608  66.190  1.00  0.00    -0.233 A  
HETATM   13  H   UNL     1     -11.293   9.192  67.310  1.00  0.00     0.000 HD 
BRANCH   9  14
HETATM   14  C   UNL     1     -10.789   6.414  67.147  1.00  0.00    -0.393 C  
HETATM   15  N   UNL     1     -11.272   5.577  66.180  1.00  0.00    -0.761 N  
HETATM   16  H2  UNL     1     -11.128   5.734  65.183  1.00  0.00     0.000 HD 
HETATM   17  H1  UNL     1     -11.789   4.782  66.552  1.00  0.00     0.000 HD 
HETATM   18  O   UNL     1     -10.986   6.193  68.338  1.00  0.00    -0.297 OA 
ENDBRANCH   9  14
ENDBRANCH   6   8
ENDBRANCH   4   6
ENDBRANCH   2   4
TORSDOF 4
ENDMDL
MODEL      187
REMARK 921   NORMALIZED FREE ENERGY PREDICTED BY IDOCK:   -2.90 KCAL/MOL
REMARK 922        TOTAL FREE ENERGY PREDICTED BY IDOCK:   -4.02 KCAL/MOL
REMARK 923 INTER-LIGAND FREE ENERGY PREDICTED BY IDOCK:   -3.56 KCAL/MOL
REMARK 924 INTRA-LIGAND FREE ENERGY PREDICTED BY IDOCK:   -0.46 KCAL/MOL
REMARK 927      BINDING AFFINITY PREDICTED BY RF-SCORE:    0.00 PKD
ROOT
HETATM    1  C   UNL     1      -8.846  16.119  66.146  1.00  0.00    -0.332 C  
HETATM    2  N   UNL     1      -9.103  15.860  67.552  1.00  0.00    -0.198 NA 
HETATM    3  C   UNL     1      -9.122  16.980  68.484  1.00  0.00    -0.259 C  
ENDROOT
BRANCH   2   4
HETATM    4  N   UNL     1      -9.851  14.735  67.794  1.00  0.00    -0.214 NA 
HETATM    5  H   UNL     1     -10.638  14.718  68.443  1.00  0.00     0.000 HD 
BRANCH   4   6
HETATM    6  N   UNL     1      -9.480  13.736  67.146  1.00  0.00    -0.235 NA 
HETATM    7  H   UNL     1      -9.355  13.757  66.134  1.00  0.00     0.000 HD 
BRANCH   6   8
HETATM    8  C   UNL     1      -9.255  12.617  67.880  1.00  0.00    -0.201 A  
HETATM    9  C   UNL     1     -10.076  11.610  68.363  1.00  0.00    -0.206 A  
HETATM   10  N   UNL     1      -9.335  10.676  69.089  1.00  0.00    -0.303 NA 
HETATM   11  N   UNL     1      -8.006  12.279  68.348  1.00  0.00    -0.156 NA 
HETATM   12  C   UNL     1      -8.100  11.116  69.052  1.00  0.00    -0.076 A  
HETATM   13  H   UNL     1      -9.680   9.834  69.550  1.00  0.00     0.000 HD 
BRANCH   9  14
HETATM   14  C   UNL     1     -11.519  11.481  68.169  1.00  0.00    -0.315 C  
HETATM   15  N   UNL     1     -12.157  10.889  69.224  1.00  0.00    -0.479 N  
HETATM   16  H2  UNL     1     -11.674  10.570  70.063  1.00  0.00     0.000 HD 
HETATM   17  H1  UNL     1     -13.164  10.799  69.089  1.00  0.00     0.000 HD 
HETATM   18  O   UNL     1     -12.136  11.850  67.175  1.00  0.00    -0.590 OA 
ENDBRANCH   9  14
ENDBRANCH   6   8
ENDBRANCH   4   6
ENDBRANCH   2   4
TORSDOF 4
ENDMDL
MODEL      188
REMARK 921   NORMALIZED FREE ENERGY PREDICTED BY IDOCK:   -2.90 KCAL/MOL
REMARK 922        TOTAL FREE ENERGY PREDICTED BY IDOCK:   -4.01 KCAL/MOL
REMARK 923 INTER-LIGAND FREE ENERGY PREDICTED BY IDOCK:   -3.56 KCAL/MOL
REMARK 924 INTRA-LIGAND FREE ENERGY PREDICTED BY IDOCK:   -0.45 KCAL/MOL
REMARK 927      BINDING AFFINITY PREDICTED BY RF-SCORE:    0.00 PKD
ROOT
HETATM    1  C   UNL     1     -10.629  13.012  64.867  1.00  0.00    -0.337 C  
HETATM    2  N   UNL     1     -11.522  13.758  65.736  1.00  0.00    -0.312 NA 
HETATM    3  C   UNL     1     -12.895  13.990  65.306  1.00  0.00    -0.384 C  
ENDROOT
BRANCH   2   4
HETATM    4  N   UNL     1     -11.210  13.682  67.071  1.00  0.00    -0.304 NA 
HETATM    5  H   UNL     1     -11.526  14.367  67.757  1.00  0.00     0.000 HD 
BRANCH   4   6
HETATM    6  N   UNL     1     -10.504  12.696  67.366  1.00  0.00    -0.223 NA 
HETATM    7  H   UNL     1      -9.728  12.387  66.782  1.00  0.00     0.000 HD 
BRANCH   6   8
HETATM    8  C   UNL     1     -10.841  12.064  68.520  1.00  0.00    -0.233 A  
HETATM    9  C   UNL     1     -10.334  10.959  69.185  1.00  0.00    -0.208 A  
HETATM   10  N   UNL     1     -11.064  10.709  70.349  1.00  0.00    -0.440 NA 
HETATM   11  N   UNL     1     -11.902  12.464  69.298  1.00  0.00    -0.313 NA 
HETATM   12  C   UNL     1     -11.992  11.636  70.377  1.00  0.00    -0.358 A  
HETATM   13  H   UNL     1     -10.909   9.966  71.030  1.00  0.00     0.000 HD 
BRANCH   9  14
HETATM   14  C   UNL     1      -9.198  10.133  68.784  1.00  0.00    -0.164 C  
HETATM   15  N   UNL     1      -8.698   9.367  69.800  1.00  0.00    -0.164 N  
HETATM   16  H2  UNL     1      -9.081   9.373  70.745  1.00  0.00     0.000 HD 
HETATM   17  H1  UNL     1      -7.905   8.790  69.520  1.00  0.00     0.000 HD 
HETATM   18  O   UNL     1      -8.708  10.100  67.660  1.00  0.00    -0.122 OA 
ENDBRANCH   9  14
ENDBRANCH   6   8
ENDBRANCH   4   6
ENDBRANCH   2   4
TORSDOF 4
ENDMDL
MODEL      189
REMARK 921   NORMALIZED FREE ENERGY PREDICTED BY IDOCK:   -2.89 KCAL/MOL
REMARK 922        TOTAL FREE ENERGY PREDICTED BY IDOCK:   -4.01 KCAL/MOL
REMARK 923 INTER-LIGAND FREE ENERGY PREDICTED BY IDOCK:   -3.54 KCAL/MOL
REMARK 924 INTRA-LIGAND FREE ENERGY PREDICTED BY IDOCK:   -0.47 KCAL/MOL
REMARK 927      BINDING AFFINITY PREDICTED BY RF-SCORE:    0.00 PKD
ROOT
HETATM    1  C   UNL     1      -9.665   8.548  66.553  1.00  0.00    -0.260 C  
HETATM    2  N   UNL     1      -9.361   9.791  65.866  1.00  0.00    -0.187 NA 
HETATM    3  C   UNL     1      -9.597   9.880  64.430  1.00  0.00    -0.189 C  
ENDROOT
BRANCH   2   4
HETATM    4  N   UNL     1      -9.434  10.909  66.659  1.00  0.00    -0.176 NA 
HETATM    5  H   UNL     1      -9.434  10.871  67.678  1.00  0.00     0.000 HD 
BRANCH   4   6
HETATM    6  N   UNL     1      -9.501  11.976  66.017  1.00  0.00    -0.264 NA 
HETATM    7  H   UNL     1      -8.854  12.200  65.261  1.00  0.00     0.000 HD 
BRANCH   6   8
HETATM    8  C   UNL     1     -10.495  12.821  66.393  1.00  0.00    -0.250 A  
HETATM    9  C   UNL     1     -10.576  14.197  66.536  1.00  0.00    -0.282 A  
HETATM   10  N   UNL     1     -11.848  14.573  66.973  1.00  0.00    -0.401 NA 
HETATM   11  N   UNL     1     -11.740  12.374  66.771  1.00  0.00    -0.484 NA 
HETATM   12  C   UNL     1     -12.512  13.449  67.098  1.00  0.00     0.032 A  
HETATM   13  H   UNL     1     -12.186  15.517  67.155  1.00  0.00     0.000 HD 
BRANCH   9  14
HETATM   14  C   UNL     1      -9.520  15.173  66.278  1.00  0.00    -0.309 C  
HETATM   15  N   UNL     1      -8.318  14.834  66.836  1.00  0.00    -0.342 N  
HETATM   16  H2  UNL     1      -8.174  13.984  67.379  1.00  0.00     0.000 HD 
HETATM   17  H1  UNL     1      -7.581  15.515  66.656  1.00  0.00     0.000 HD 
HETATM   18  O   UNL     1      -9.654  16.208  65.632  1.00  0.00    -0.424 OA 
ENDBRANCH   9  14
ENDBRANCH   6   8
ENDBRANCH   4   6
ENDBRANCH   2   4
TORSDOF 4
ENDMDL
MODEL      190
REMARK 921   NORMALIZED FREE ENERGY PREDICTED BY IDOCK:   -2.88 KCAL/MOL
REMARK 922        TOTAL FREE ENERGY PREDICTED BY IDOCK:   -4.00 KCAL/MOL
REMARK 923 INTER-LIGAND FREE ENERGY PREDICTED BY IDOCK:   -3.63 KCAL/MOL
REMARK 924 INTRA-LIGAND FREE ENERGY PREDICTED BY IDOCK:   -0.36 KCAL/MOL
REMARK 927      BINDING AFFINITY PREDICTED BY RF-SCORE:    0.00 PKD
ROOT
HETATM    1  C   UNL     1     -13.221  10.813  71.755  1.00  0.00    -0.418 C  
HETATM    2  N   UNL     1     -12.545   9.965  70.790  1.00  0.00    -0.274 NA 
HETATM    3  C   UNL     1     -11.671  10.582  69.799  1.00  0.00    -0.281 C  
ENDROOT
BRANCH   2   4
HETATM    4  N   UNL     1     -12.317   8.683  71.222  1.00  0.00    -0.360 NA 
HETATM    5  H   UNL     1     -12.788   7.869  70.826  1.00  0.00     0.000 HD 
BRANCH   4   6
HETATM    6  N   UNL     1     -11.480   8.604  72.144  1.00  0.00    -0.367 NA 
HETATM    7  H   UNL     1     -11.696   8.883  73.101  1.00  0.00     0.000 HD 
BRANCH   6   8
HETATM    8  C   UNL     1     -10.263   8.123  71.786  1.00  0.00    -0.212 A  
HETATM    9  C   UNL     1      -9.850   7.025  71.047  1.00  0.00    -0.180 A  
HETATM   10  N   UNL     1      -8.456   6.971  70.984  1.00  0.00    -0.132 NA 
HETATM   11  N   UNL     1      -9.087   8.718  72.183  1.00  0.00    -0.383 NA 
HETATM   12  C   UNL     1      -8.041   8.005  71.676  1.00  0.00    -0.114 A  
HETATM   13  H   UNL     1      -7.884   6.277  70.504  1.00  0.00     0.000 HD 
BRANCH   9  14
HETATM   14  C   UNL     1     -10.699   6.032  70.395  1.00  0.00    -0.292 C  
HETATM   15  N   UNL     1     -10.225   4.754  70.506  1.00  0.00    -0.218 N  
HETATM   16  H2  UNL     1      -9.362   4.519  70.996  1.00  0.00     0.000 HD 
HETATM   17  H1  UNL     1     -10.817   4.061  70.051  1.00  0.00     0.000 HD 
HETATM   18  O   UNL     1     -11.741   6.275  69.794  1.00  0.00    -0.403 OA 
ENDBRANCH   9  14
ENDBRANCH   6   8
ENDBRANCH   4   6
ENDBRANCH   2   4
TORSDOF 4
ENDMDL
MODEL      191
REMARK 921   NORMALIZED FREE ENERGY PREDICTED BY IDOCK:   -2.87 KCAL/MOL
REMARK 922        TOTAL FREE ENERGY PREDICTED BY IDOCK:   -3.98 KCAL/MOL
REMARK 923 INTER-LIGAND FREE ENERGY PREDICTED BY IDOCK:   -3.58 KCAL/MOL
REMARK 924 INTRA-LIGAND FREE ENERGY PREDICTED BY IDOCK:   -0.40 KCAL/MOL
REMARK 927      BINDING AFFINITY PREDICTED BY RF-SCORE:    0.00 PKD
ROOT
HETATM    1  C   UNL     1     -12.144   8.008  72.230  1.00  0.00    -0.341 C  
HETATM    2  N   UNL     1     -12.433   9.142  71.370  1.00  0.00    -0.318 NA 
HETATM    3  C   UNL     1     -13.173  10.273  71.918  1.00  0.00    -0.445 C  
ENDROOT
BRANCH   2   4
HETATM    4  N   UNL     1     -11.535   9.323  70.348  1.00  0.00    -0.367 NA 
HETATM    5  H   UNL     1     -11.052  10.207  70.180  1.00  0.00     0.000 HD 
BRANCH   4   6
HETATM    6  N   UNL     1     -11.363   8.308  69.644  1.00  0.00    -0.437 NA 
HETATM    7  H   UNL     1     -11.965   7.487  69.715  1.00  0.00     0.000 HD 
BRANCH   6   8
HETATM    8  C   UNL     1     -10.321   8.371  68.777  1.00  0.00    -0.206 A  
HETATM    9  C   UNL     1      -9.876   9.335  67.886  1.00  0.00    -0.167 A  
HETATM   10  N   UNL     1      -8.741   8.890  67.206  1.00  0.00    -0.121 NA 
HETATM   11  N   UNL     1      -9.440   7.328  68.604  1.00  0.00    -0.138 NA 
HETATM   12  C   UNL     1      -8.515   7.684  67.669  1.00  0.00    -0.117 A  
HETATM   13  H   UNL     1      -8.204   9.394  66.500  1.00  0.00     0.000 HD 
BRANCH   9  14
HETATM   14  C   UNL     1     -10.461  10.653  67.649  1.00  0.00    -0.227 C  
HETATM   15  N   UNL     1      -9.540  11.603  67.308  1.00  0.00    -0.173 N  
HETATM   16  H2  UNL     1      -8.542  11.410  67.227  1.00  0.00     0.000 HD 
HETATM   17  H1  UNL     1      -9.948  12.522  67.143  1.00  0.00     0.000 HD 
HETATM   18  O   UNL     1     -11.655  10.924  67.739  1.00  0.00    -0.523 OA 
ENDBRANCH   9  14
ENDBRANCH   6   8
ENDBRANCH   4   6
ENDBRANCH   2   4
TORSDOF 4
ENDMDL
MODEL      192
REMARK 921   NORMALIZED FREE ENERGY PREDICTED BY IDOCK:   -2.87 KCAL/MOL
REMARK 922        TOTAL FREE ENERGY PREDICTED BY IDOCK:   -3.97 KCAL/MOL
REMARK 923 INTER-LIGAND FREE ENERGY PREDICTED BY IDOCK:   -3.53 KCAL/MOL
REMARK 924 INTRA-LIGAND FREE ENERGY PREDICTED BY IDOCK:   -0.44 KCAL/MOL
REMARK 927      BINDING AFFINITY PREDICTED BY RF-SCORE:    0.00 PKD
ROOT
HETATM    1  C   UNL     1      -8.328   8.119  72.288  1.00  0.00    -0.158 C  
HETATM    2  N   UNL     1      -9.515   8.633  71.629  1.00  0.00    -0.244 NA 
HETATM    3  C   UNL     1     -10.806   8.495  72.292  1.00  0.00    -0.348 C  
ENDROOT
BRANCH   2   4
HETATM    4  N   UNL     1      -9.280   9.672  70.764  1.00  0.00    -0.316 NA 
HETATM    5  H   UNL     1      -8.348   9.919  70.430  1.00  0.00     0.000 HD 
BRANCH   4   6
HETATM    6  N   UNL     1     -10.310  10.288  70.425  1.00  0.00    -0.422 NA 
HETATM    7  H   UNL     1     -11.002  10.607  71.104  1.00  0.00     0.000 HD 
BRANCH   6   8
HETATM    8  C   UNL     1     -10.448  10.504  69.093  1.00  0.00    -0.228 A  
HETATM    9  C   UNL     1     -10.964  11.549  68.343  1.00  0.00    -0.221 A  
HETATM   10  N   UNL     1     -10.881  11.265  66.979  1.00  0.00    -0.267 NA 
HETATM   11  N   UNL     1     -10.069   9.575  68.151  1.00  0.00    -0.173 NA 
HETATM   12  C   UNL     1     -10.337  10.073  66.910  1.00  0.00    -0.234 A  
HETATM   13  H   UNL     1     -11.180  11.855  66.203  1.00  0.00     0.000 HD 
BRANCH   9  14
HETATM   14  C   UNL     1     -11.524  12.802  68.846  1.00  0.00    -0.305 C  
HETATM   15  N   UNL     1     -11.432  13.834  67.955  1.00  0.00    -0.295 N  
HETATM   16  H2  UNL     1     -11.014  13.739  67.030  1.00  0.00     0.000 HD 
HETATM   17  H1  UNL     1     -11.823  14.708  68.305  1.00  0.00     0.000 HD 
HETATM   18  O   UNL     1     -12.033  12.956  69.952  1.00  0.00    -0.324 OA 
ENDBRANCH   9  14
ENDBRANCH   6   8
ENDBRANCH   4   6
ENDBRANCH   2   4
TORSDOF 4
ENDMDL
MODEL      193
REMARK 921   NORMALIZED FREE ENERGY PREDICTED BY IDOCK:   -2.86 KCAL/MOL
REMARK 922        TOTAL FREE ENERGY PREDICTED BY IDOCK:   -3.97 KCAL/MOL
REMARK 923 INTER-LIGAND FREE ENERGY PREDICTED BY IDOCK:   -3.39 KCAL/MOL
REMARK 924 INTRA-LIGAND FREE ENERGY PREDICTED BY IDOCK:   -0.58 KCAL/MOL
REMARK 927      BINDING AFFINITY PREDICTED BY RF-SCORE:    0.00 PKD
ROOT
HETATM    1  C   UNL     1     -11.712   8.191  72.354  1.00  0.00    -0.399 C  
HETATM    2  N   UNL     1     -12.341   9.036  71.355  1.00  0.00    -0.308 NA 
HETATM    3  C   UNL     1     -13.157  10.162  71.795  1.00  0.00    -0.463 C  
ENDROOT
BRANCH   2   4
HETATM    4  N   UNL     1     -11.685   9.076  70.151  1.00  0.00    -0.463 NA 
HETATM    5  H   UNL     1     -11.457   9.946  69.668  1.00  0.00     0.000 HD 
BRANCH   4   6
HETATM    6  N   UNL     1     -11.393   7.950  69.699  1.00  0.00    -0.444 NA 
HETATM    7  H   UNL     1     -11.857   7.099  70.016  1.00  0.00     0.000 HD 
BRANCH   6   8
HETATM    8  C   UNL     1     -10.415   7.936  68.759  1.00  0.00    -0.176 A  
HETATM    9  C   UNL     1      -9.061   8.231  68.784  1.00  0.00    -0.144 A  
HETATM   10  N   UNL     1      -8.497   8.066  67.517  1.00  0.00    -0.126 NA 
HETATM   11  N   UNL     1     -10.658   7.606  67.445  1.00  0.00    -0.289 NA 
HETATM   12  C   UNL     1      -9.490   7.689  66.748  1.00  0.00    -0.191 A  
HETATM   13  H   UNL     1      -7.524   8.208  67.249  1.00  0.00     0.000 HD 
BRANCH   9  14
HETATM   14  C   UNL     1      -8.273   8.655  69.939  1.00  0.00    -0.121 C  
HETATM   15  N   UNL     1      -7.082   7.994  70.056  1.00  0.00    -0.049 N  
HETATM   16  H2  UNL     1      -6.774   7.276  69.401  1.00  0.00     0.000 HD 
HETATM   17  H1  UNL     1      -6.532   8.289  70.862  1.00  0.00     0.000 HD 
HETATM   18  O   UNL     1      -8.609   9.512  70.750  1.00  0.00    -0.220 OA 
ENDBRANCH   9  14
ENDBRANCH   6   8
ENDBRANCH   4   6
ENDBRANCH   2   4
TORSDOF 4
ENDMDL
MODEL      194
REMARK 921   NORMALIZED FREE ENERGY PREDICTED BY IDOCK:   -2.84 KCAL/MOL
REMARK 922        TOTAL FREE ENERGY PREDICTED BY IDOCK:   -3.94 KCAL/MOL
REMARK 923 INTER-LIGAND FREE ENERGY PREDICTED BY IDOCK:   -3.25 KCAL/MOL
REMARK 924 INTRA-LIGAND FREE ENERGY PREDICTED BY IDOCK:   -0.69 KCAL/MOL
REMARK 927      BINDING AFFINITY PREDICTED BY RF-SCORE:    0.00 PKD
ROOT
HETATM    1  C   UNL     1      -6.651  16.787  69.288  1.00  0.00    -0.223 C  
HETATM    2  N   UNL     1      -7.369  16.747  68.027  1.00  0.00    -0.158 NA 
HETATM    3  C   UNL     1      -6.613  16.801  66.781  1.00  0.00    -0.212 C  
ENDROOT
BRANCH   2   4
HETATM    4  N   UNL     1      -8.580  16.103  68.084  1.00  0.00    -0.174 NA 
HETATM    5  H   UNL     1      -9.181  16.117  68.908  1.00  0.00     0.000 HD 
BRANCH   4   6
HETATM    6  N   UNL     1      -8.878  15.499  67.034  1.00  0.00    -0.213 NA 
HETATM    7  H   UNL     1      -8.322  15.579  66.182  1.00  0.00     0.000 HD 
BRANCH   6   8
HETATM    8  C   UNL     1      -9.992  14.727  67.102  1.00  0.00    -0.236 A  
HETATM    9  C   UNL     1     -10.241  13.449  67.576  1.00  0.00    -0.226 A  
HETATM   10  N   UNL     1     -11.584  13.110  67.397  1.00  0.00    -0.334 NA 
HETATM   11  N   UNL     1     -11.210  15.144  66.617  1.00  0.00    -0.311 NA 
HETATM   12  C   UNL     1     -12.126  14.156  66.822  1.00  0.00    -0.442 A  
HETATM   13  H   UNL     1     -12.043  12.238  67.658  1.00  0.00     0.000 HD 
BRANCH   9  14
HETATM   14  C   UNL     1      -9.281  12.535  68.193  1.00  0.00    -0.209 C  
HETATM   15  N   UNL     1      -8.279  13.174  68.867  1.00  0.00    -0.344 N  
HETATM   16  H2  UNL     1      -8.208  14.189  68.934  1.00  0.00     0.000 HD 
HETATM   17  H1  UNL     1      -7.609  12.537  69.297  1.00  0.00     0.000 HD 
HETATM   18  O   UNL     1      -9.331  11.311  68.133  1.00  0.00    -0.167 OA 
ENDBRANCH   9  14
ENDBRANCH   6   8
ENDBRANCH   4   6
ENDBRANCH   2   4
TORSDOF 4
ENDMDL
MODEL      195
REMARK 921   NORMALIZED FREE ENERGY PREDICTED BY IDOCK:   -2.80 KCAL/MOL
REMARK 922        TOTAL FREE ENERGY PREDICTED BY IDOCK:   -3.89 KCAL/MOL
REMARK 923 INTER-LIGAND FREE ENERGY PREDICTED BY IDOCK:   -3.36 KCAL/MOL
REMARK 924 INTRA-LIGAND FREE ENERGY PREDICTED BY IDOCK:   -0.54 KCAL/MOL
REMARK 927      BINDING AFFINITY PREDICTED BY RF-SCORE:    0.00 PKD
ROOT
HETATM    1  C   UNL     1      -7.324  10.462  64.714  1.00  0.00    -0.038 C  
HETATM    2  N   UNL     1      -8.733  10.262  65.002  1.00  0.00    -0.172 NA 
HETATM    3  C   UNL     1      -9.192   8.934  65.391  1.00  0.00    -0.136 C  
ENDROOT
BRANCH   2   4
HETATM    4  N   UNL     1      -9.387  11.385  65.443  1.00  0.00    -0.276 NA 
HETATM    5  H   UNL     1     -10.011  11.934  64.851  1.00  0.00     0.000 HD 
BRANCH   4   6
HETATM    6  N   UNL     1      -9.149  11.672  66.633  1.00  0.00    -0.189 NA 
HETATM    7  H   UNL     1      -8.229  11.983  66.945  1.00  0.00     0.000 HD 
BRANCH   6   8
HETATM    8  C   UNL     1     -10.198  11.542  67.485  1.00  0.00    -0.184 A  
HETATM    9  C   UNL     1     -11.395  12.223  67.635  1.00  0.00    -0.311 A  
HETATM   10  N   UNL     1     -12.134  11.691  68.694  1.00  0.00    -0.469 NA 
HETATM   11  N   UNL     1     -10.222  10.600  68.487  1.00  0.00    -0.167 NA 
HETATM   12  C   UNL     1     -11.394  10.720  69.174  1.00  0.00    -0.282 A  
HETATM   13  H   UNL     1     -13.050  11.993  69.024  1.00  0.00     0.000 HD 
BRANCH   9  14
HETATM   14  C   UNL     1     -11.880  13.342  66.831  1.00  0.00    -0.403 C  
HETATM   15  N   UNL     1     -12.569  14.274  67.556  1.00  0.00    -0.409 N  
HETATM   16  H2  UNL     1     -12.729  14.195  68.560  1.00  0.00     0.000 HD 
HETATM   17  H1  UNL     1     -12.908  15.055  66.995  1.00  0.00     0.000 HD 
HETATM   18  O   UNL     1     -11.710  13.472  65.623  1.00  0.00    -0.319 OA 
ENDBRANCH   9  14
ENDBRANCH   6   8
ENDBRANCH   4   6
ENDBRANCH   2   4
TORSDOF 4
ENDMDL
MODEL      196
REMARK 921   NORMALIZED FREE ENERGY PREDICTED BY IDOCK:   -2.79 KCAL/MOL
REMARK 922        TOTAL FREE ENERGY PREDICTED BY IDOCK:   -3.88 KCAL/MOL
REMARK 923 INTER-LIGAND FREE ENERGY PREDICTED BY IDOCK:   -4.27 KCAL/MOL
REMARK 924 INTRA-LIGAND FREE ENERGY PREDICTED BY IDOCK:    0.38 KCAL/MOL
REMARK 927      BINDING AFFINITY PREDICTED BY RF-SCORE:    0.00 PKD
ROOT
HETATM    1  C   UNL     1      -8.441  13.877  68.390  1.00  0.00    -0.159 C  
HETATM    2  N   UNL     1      -9.675  14.219  67.706  1.00  0.00    -0.218 NA 
HETATM    3  C   UNL     1      -9.814  13.889  66.293  1.00  0.00    -0.306 C  
ENDROOT
BRANCH   2   4
HETATM    4  N   UNL     1     -10.777  14.281  68.521  1.00  0.00    -0.248 NA 
HETATM    5  H   UNL     1     -11.325  15.132  68.654  1.00  0.00     0.000 HD 
BRANCH   4   6
HETATM    6  N   UNL     1     -11.048  13.202  69.084  1.00  0.00    -0.375 NA 
HETATM    7  H   UNL     1     -10.736  12.302  68.718  1.00  0.00     0.000 HD 
BRANCH   6   8
HETATM    8  C   UNL     1     -11.787  13.306  70.218  1.00  0.00    -0.234 A  
HETATM    9  C   UNL     1     -12.108  14.363  71.055  1.00  0.00    -0.349 A  
HETATM   10  N   UNL     1     -12.904  13.926  72.116  1.00  0.00    -0.319 NA 
HETATM   11  N   UNL     1     -12.392  12.220  70.808  1.00  0.00    -0.356 NA 
HETATM   12  C   UNL     1     -13.050  12.637  71.926  1.00  0.00    -0.366 A  
HETATM   13  H   UNL     1     -13.289  14.489  72.875  1.00  0.00     0.000 HD 
BRANCH   9  14
HETATM   14  C   UNL     1     -11.709  15.760  70.903  1.00  0.00    -0.406 C  
HETATM   15  N   UNL     1     -12.045  16.540  71.974  1.00  0.00    -0.596 N  
HETATM   16  H2  UNL     1     -12.527  16.182  72.798  1.00  0.00     0.000 HD 
HETATM   17  H1  UNL     1     -11.767  17.515  71.868  1.00  0.00     0.000 HD 
HETATM   18  O   UNL     1     -11.130  16.229  69.928  1.00  0.00    -0.336 OA 
ENDBRANCH   9  14
ENDBRANCH   6   8
ENDBRANCH   4   6
ENDBRANCH   2   4
TORSDOF 4
ENDMDL
MODEL      197
REMARK 921   NORMALIZED FREE ENERGY PREDICTED BY IDOCK:   -2.78 KCAL/MOL
REMARK 922        TOTAL FREE ENERGY PREDICTED BY IDOCK:   -3.87 KCAL/MOL
REMARK 923 INTER-LIGAND FREE ENERGY PREDICTED BY IDOCK:   -3.39 KCAL/MOL
REMARK 924 INTRA-LIGAND FREE ENERGY PREDICTED BY IDOCK:   -0.48 KCAL/MOL
REMARK 927      BINDING AFFINITY PREDICTED BY RF-SCORE:    0.00 PKD
ROOT
HETATM    1  C   UNL     1      -7.125  15.279  68.258  1.00  0.00    -0.115 C  
HETATM    2  N   UNL     1      -6.994  13.903  67.813  1.00  0.00    -0.158 NA 
HETATM    3  C   UNL     1      -6.582  12.886  68.774  1.00  0.00    -0.090 C  
ENDROOT
BRANCH   2   4
HETATM    4  N   UNL     1      -7.788  13.574  66.743  1.00  0.00    -0.285 NA 
HETATM    5  H   UNL     1      -7.481  13.659  65.774  1.00  0.00     0.000 HD 
BRANCH   4   6
HETATM    6  N   UNL     1      -8.920  13.162  67.066  1.00  0.00    -0.226 NA 
HETATM    7  H   UNL     1      -9.488  13.626  67.775  1.00  0.00     0.000 HD 
BRANCH   6   8
HETATM    8  C   UNL     1      -9.345  12.053  66.409  1.00  0.00    -0.228 A  
HETATM    9  C   UNL     1     -10.360  11.814  65.496  1.00  0.00    -0.262 A  
HETATM   10  N   UNL     1     -10.385  10.468  65.128  1.00  0.00    -0.284 NA 
HETATM   11  N   UNL     1      -8.771  10.817  66.597  1.00  0.00    -0.143 NA 
HETATM   12  C   UNL     1      -9.414   9.909  65.811  1.00  0.00    -0.222 A  
HETATM   13  H   UNL     1     -11.021  10.016  64.471  1.00  0.00     0.000 HD 
BRANCH   9  14
HETATM   14  C   UNL     1     -11.301  12.789  64.950  1.00  0.00    -0.306 C  
HETATM   15  N   UNL     1     -10.694  13.820  64.288  1.00  0.00    -0.586 N  
HETATM   16  H2  UNL     1      -9.682  13.900  64.186  1.00  0.00     0.000 HD 
HETATM   17  H1  UNL     1     -11.350  14.500  63.907  1.00  0.00     0.000 HD 
HETATM   18  O   UNL     1     -12.523  12.730  65.054  1.00  0.00    -0.483 OA 
ENDBRANCH   9  14
ENDBRANCH   6   8
ENDBRANCH   4   6
ENDBRANCH   2   4
TORSDOF 4
ENDMDL
MODEL      198
REMARK 921   NORMALIZED FREE ENERGY PREDICTED BY IDOCK:   -2.78 KCAL/MOL
REMARK 922        TOTAL FREE ENERGY PREDICTED BY IDOCK:   -3.87 KCAL/MOL
REMARK 923 INTER-LIGAND FREE ENERGY PREDICTED BY IDOCK:   -3.44 KCAL/MOL
REMARK 924 INTRA-LIGAND FREE ENERGY PREDICTED BY IDOCK:   -0.43 KCAL/MOL
REMARK 927      BINDING AFFINITY PREDICTED BY RF-SCORE:    0.00 PKD
ROOT
HETATM    1  C   UNL     1     -10.100  11.464  65.201  1.00  0.00    -0.271 C  
HETATM    2  N   UNL     1      -9.409  12.037  66.341  1.00  0.00    -0.225 NA 
HETATM    3  C   UNL     1      -8.451  11.216  67.073  1.00  0.00    -0.146 C  
ENDROOT
BRANCH   2   4
HETATM    4  N   UNL     1      -9.266  13.401  66.291  1.00  0.00    -0.468 NA 
HETATM    5  H   UNL     1      -8.619  13.871  65.657  1.00  0.00     0.000 HD 
BRANCH   4   6
HETATM    6  N   UNL     1     -10.000  14.014  67.092  1.00  0.00    -0.248 NA 
HETATM    7  H   UNL     1     -10.994  13.804  67.191  1.00  0.00     0.000 HD 
BRANCH   6   8
HETATM    8  C   UNL     1      -9.387  14.979  67.823  1.00  0.00    -0.186 A  
HETATM    9  C   UNL     1      -9.776  15.744  68.912  1.00  0.00    -0.225 A  
HETATM   10  N   UNL     1      -8.757  16.623  69.285  1.00  0.00    -0.116 NA 
HETATM   11  N   UNL     1      -8.119  15.429  67.536  1.00  0.00    -0.154 NA 
HETATM   12  C   UNL     1      -7.783  16.398  68.435  1.00  0.00    -0.177 A  
HETATM   13  H   UNL     1      -8.768  17.294  70.052  1.00  0.00     0.000 HD 
BRANCH   9  14
HETATM   14  C   UNL     1     -11.052  15.684  69.620  1.00  0.00    -0.299 C  
HETATM   15  N   UNL     1     -12.040  15.061  68.908  1.00  0.00    -0.556 N  
HETATM   16  H2  UNL     1     -11.898  14.676  67.975  1.00  0.00     0.000 HD 
HETATM   17  H1  UNL     1     -12.931  15.020  69.402  1.00  0.00     0.000 HD 
HETATM   18  O   UNL     1     -11.262  16.138  70.740  1.00  0.00    -0.369 OA 
ENDBRANCH   9  14
ENDBRANCH   6   8
ENDBRANCH   4   6
ENDBRANCH   2   4
TORSDOF 4
ENDMDL
MODEL      199
REMARK 921   NORMALIZED FREE ENERGY PREDICTED BY IDOCK:   -2.77 KCAL/MOL
REMARK 922        TOTAL FREE ENERGY PREDICTED BY IDOCK:   -3.85 KCAL/MOL
REMARK 923 INTER-LIGAND FREE ENERGY PREDICTED BY IDOCK:   -3.39 KCAL/MOL
REMARK 924 INTRA-LIGAND FREE ENERGY PREDICTED BY IDOCK:   -0.46 KCAL/MOL
REMARK 927      BINDING AFFINITY PREDICTED BY RF-SCORE:    0.00 PKD
ROOT
HETATM    1  C   UNL     1      -9.745  10.510  63.887  1.00  0.00    -0.325 C  
HETATM    2  N   UNL     1      -9.494  10.263  65.295  1.00  0.00    -0.218 NA 
HETATM    3  C   UNL     1      -8.116  10.216  65.769  1.00  0.00    -0.142 C  
ENDROOT
BRANCH   2   4
HETATM    4  N   UNL     1     -10.508  10.661  66.130  1.00  0.00    -0.225 NA 
HETATM    5  H   UNL     1     -11.043  11.518  65.989  1.00  0.00     0.000 HD 
BRANCH   4   6
HETATM    6  N   UNL     1     -10.716   9.877  67.078  1.00  0.00    -0.206 NA 
HETATM    7  H   UNL     1     -10.616   8.866  66.981  1.00  0.00     0.000 HD 
BRANCH   6   8
HETATM    8  C   UNL     1     -11.083  10.460  68.247  1.00  0.00    -0.281 A  
HETATM    9  C   UNL     1     -10.876  10.141  69.580  1.00  0.00    -0.255 A  
HETATM   10  N   UNL     1     -11.488  11.081  70.412  1.00  0.00    -0.439 NA 
HETATM   11  N   UNL     1     -11.849  11.602  68.294  1.00  0.00    -0.516 NA 
HETATM   12  C   UNL     1     -12.057  11.938  69.598  1.00  0.00    -0.239 A  
HETATM   13  H   UNL     1     -11.492  11.096  71.431  1.00  0.00     0.000 HD 
BRANCH   9  14
HETATM   14  C   UNL     1     -10.128   9.002  70.107  1.00  0.00    -0.193 C  
HETATM   15  N   UNL     1      -9.084   8.622  69.311  1.00  0.00    -0.148 N  
HETATM   16  H2  UNL     1      -8.851   9.088  68.434  1.00  0.00     0.000 HD 
HETATM   17  H1  UNL     1      -8.561   7.828  69.679  1.00  0.00     0.000 HD 
HETATM   18  O   UNL     1     -10.378   8.415  71.155  1.00  0.00    -0.200 OA 
ENDBRANCH   9  14
ENDBRANCH   6   8
ENDBRANCH   4   6
ENDBRANCH   2   4
TORSDOF 4
ENDMDL
MODEL      200
REMARK 921   NORMALIZED FREE ENERGY PREDICTED BY IDOCK:   -2.76 KCAL/MOL
REMARK 922        TOTAL FREE ENERGY PREDICTED BY IDOCK:   -3.84 KCAL/MOL
REMARK 923 INTER-LIGAND FREE ENERGY PREDICTED BY IDOCK:   -3.40 KCAL/MOL
REMARK 924 INTRA-LIGAND FREE ENERGY PREDICTED BY IDOCK:   -0.44 KCAL/MOL
REMARK 927      BINDING AFFINITY PREDICTED BY RF-SCORE:    0.00 PKD
ROOT
HETATM    1  C   UNL     1      -9.990  16.168  66.277  1.00  0.00    -0.317 C  
HETATM    2  N   UNL     1     -10.873  15.186  65.675  1.00  0.00    -0.343 NA 
HETATM    3  C   UNL     1     -11.595  15.537  64.458  1.00  0.00    -0.283 C  
ENDROOT
BRANCH   2   4
HETATM    4  N   UNL     1     -10.533  13.882  65.936  1.00  0.00    -0.297 NA 
HETATM    5  H   UNL     1     -10.063  13.282  65.256  1.00  0.00     0.000 HD 
BRANCH   4   6
HETATM    6  N   UNL     1     -10.850  13.498  67.079  1.00  0.00    -0.280 NA 
HETATM    7  H   UNL     1     -11.767  13.688  67.483  1.00  0.00     0.000 HD 
BRANCH   6   8
HETATM    8  C   UNL     1      -9.892  12.809  67.749  1.00  0.00    -0.220 A  
HETATM    9  C   UNL     1      -9.855  11.557  68.343  1.00  0.00    -0.204 A  
HETATM   10  N   UNL     1      -8.606  11.325  68.924  1.00  0.00    -0.333 NA 
HETATM   11  N   UNL     1      -8.645  13.333  68.000  1.00  0.00    -0.169 NA 
HETATM   12  C   UNL     1      -7.913  12.414  68.692  1.00  0.00    -0.041 A  
HETATM   13  H   UNL     1      -8.300  10.489  69.421  1.00  0.00     0.000 HD 
BRANCH   9  14
HETATM   14  C   UNL     1     -10.931  10.570  68.386  1.00  0.00    -0.261 C  
HETATM   15  N   UNL     1     -12.098  11.061  68.902  1.00  0.00    -0.432 N  
HETATM   16  H2  UNL     1     -12.206  12.022  69.224  1.00  0.00     0.000 HD 
HETATM   17  H1  UNL     1     -12.849  10.372  68.932  1.00  0.00     0.000 HD 
HETATM   18  O   UNL     1     -10.839   9.405  68.010  1.00  0.00    -0.220 OA 
ENDBRANCH   9  14
ENDBRANCH   6   8
ENDBRANCH   4   6
ENDBRANCH   2   4
TORSDOF 4
ENDMDL
MODEL      201
REMARK 921   NORMALIZED FREE ENERGY PREDICTED BY IDOCK:   -2.75 KCAL/MOL
REMARK 922        TOTAL FREE ENERGY PREDICTED BY IDOCK:   -3.84 KCAL/MOL
REMARK 923 INTER-LIGAND FREE ENERGY PREDICTED BY IDOCK:   -3.36 KCAL/MOL
REMARK 924 INTRA-LIGAND FREE ENERGY PREDICTED BY IDOCK:   -0.47 KCAL/MOL
REMARK 927      BINDING AFFINITY PREDICTED BY RF-SCORE:    0.00 PKD
ROOT
HETATM    1  C   UNL     1      -7.081  15.389  68.212  1.00  0.00    -0.114 C  
HETATM    2  N   UNL     1      -7.357  14.285  67.311  1.00  0.00    -0.118 NA 
HETATM    3  C   UNL     1      -7.151  12.920  67.782  1.00  0.00    -0.137 C  
ENDROOT
BRANCH   2   4
HETATM    4  N   UNL     1      -8.298  14.558  66.350  1.00  0.00    -0.284 NA 
HETATM    5  H   UNL     1      -8.082  15.052  65.483  1.00  0.00     0.000 HD 
BRANCH   4   6
HETATM    6  N   UNL     1      -9.441  14.148  66.633  1.00  0.00    -0.280 NA 
HETATM    7  H   UNL     1      -9.862  14.297  67.551  1.00  0.00     0.000 HD 
BRANCH   6   8
HETATM    8  C   UNL     1     -10.088  13.489  65.638  1.00  0.00    -0.278 A  
HETATM    9  C   UNL     1     -11.409  13.446  65.223  1.00  0.00    -0.296 A  
HETATM   10  N   UNL     1     -11.555  12.583  64.135  1.00  0.00    -0.358 NA 
HETATM   11  N   UNL     1      -9.444  12.620  64.789  1.00  0.00     0.247 NA 
HETATM   12  C   UNL     1     -10.352  12.113  63.908  1.00  0.00    -0.415 A  
HETATM   13  H   UNL     1     -12.412  12.366  63.627  1.00  0.00     0.000 HD 
BRANCH   9  14
HETATM   14  C   UNL     1     -12.537  14.179  65.794  1.00  0.00    -0.447 C  
HETATM   15  N   UNL     1     -12.408  14.416  67.134  1.00  0.00    -0.576 N  
HETATM   16  H2  UNL     1     -11.603  14.111  67.681  1.00  0.00     0.000 HD 
HETATM   17  H1  UNL     1     -13.194  14.927  67.533  1.00  0.00     0.000 HD 
HETATM   18  O   UNL     1     -13.522  14.560  65.171  1.00  0.00    -0.308 OA 
ENDBRANCH   9  14
ENDBRANCH   6   8
ENDBRANCH   4   6
ENDBRANCH   2   4
TORSDOF 4
ENDMDL
MODEL      202
REMARK 921   NORMALIZED FREE ENERGY PREDICTED BY IDOCK:   -2.73 KCAL/MOL
REMARK 922        TOTAL FREE ENERGY PREDICTED BY IDOCK:   -3.81 KCAL/MOL
REMARK 923 INTER-LIGAND FREE ENERGY PREDICTED BY IDOCK:   -3.35 KCAL/MOL
REMARK 924 INTRA-LIGAND FREE ENERGY PREDICTED BY IDOCK:   -0.47 KCAL/MOL
REMARK 927      BINDING AFFINITY PREDICTED BY RF-SCORE:    0.00 PKD
ROOT
HETATM    1  C   UNL     1     -11.254  12.498  65.971  1.00  0.00    -0.315 C  
HETATM    2  N   UNL     1     -11.800  13.141  67.153  1.00  0.00    -0.372 NA 
HETATM    3  C   UNL     1     -12.259  14.521  67.057  1.00  0.00    -0.164 C  
ENDROOT
BRANCH   2   4
HETATM    4  N   UNL     1     -12.362  12.278  68.060  1.00  0.00    -0.112 NA 
HETATM    5  H   UNL     1     -13.272  11.837  67.921  1.00  0.00     0.000 HD 
BRANCH   4   6
HETATM    6  N   UNL     1     -11.658  12.081  69.071  1.00  0.00    -0.288 NA 
HETATM    7  H   UNL     1     -10.638  12.093  69.035  1.00  0.00     0.000 HD 
BRANCH   6   8
HETATM    8  C   UNL     1     -12.341  11.850  70.221  1.00  0.00    -0.207 A  
HETATM    9  C   UNL     1     -12.637  10.704  70.941  1.00  0.00    -0.407 A  
HETATM   10  N   UNL     1     -13.396  11.016  72.071  1.00  0.00    -0.531 NA 
HETATM   11  N   UNL     1     -12.953  12.857  70.931  1.00  0.00    -0.100 NA 
HETATM   12  C   UNL     1     -13.559  12.317  72.026  1.00  0.00    -0.208 A  
HETATM   13  H   UNL     1     -13.748  10.371  72.779  1.00  0.00     0.000 HD 
BRANCH   9  14
HETATM   14  C   UNL     1     -12.238   9.335  70.623  1.00  0.00    -0.048 C  
HETATM   15  N   UNL     1     -12.943   8.390  71.315  1.00  0.00    -0.489 N  
HETATM   16  H2  UNL     1     -13.675   8.618  71.987  1.00  0.00     0.000 HD 
HETATM   17  H1  UNL     1     -12.665   7.434  71.093  1.00  0.00     0.000 HD 
HETATM   18  O   UNL     1     -11.362   9.020  69.824  1.00  0.00    -0.105 OA 
ENDBRANCH   9  14
ENDBRANCH   6   8
ENDBRANCH   4   6
ENDBRANCH   2   4
TORSDOF 4
ENDMDL
MODEL      203
REMARK 921   NORMALIZED FREE ENERGY PREDICTED BY IDOCK:   -2.73 KCAL/MOL
REMARK 922        TOTAL FREE ENERGY PREDICTED BY IDOCK:   -3.81 KCAL/MOL
REMARK 923 INTER-LIGAND FREE ENERGY PREDICTED BY IDOCK:   -3.14 KCAL/MOL
REMARK 924 INTRA-LIGAND FREE ENERGY PREDICTED BY IDOCK:   -0.66 KCAL/MOL
REMARK 927      BINDING AFFINITY PREDICTED BY RF-SCORE:    0.00 PKD
ROOT
HETATM    1  C   UNL     1      -6.279  12.805  69.231  1.00  0.00    -0.105 C  
HETATM    2  N   UNL     1      -6.998  14.022  68.901  1.00  0.00    -0.106 NA 
HETATM    3  C   UNL     1      -6.437  15.306  69.307  1.00  0.00    -0.131 C  
ENDROOT
BRANCH   2   4
HETATM    4  N   UNL     1      -7.793  13.927  67.787  1.00  0.00    -0.152 NA 
HETATM    5  H   UNL     1      -7.646  13.231  67.055  1.00  0.00     0.000 HD 
BRANCH   4   6
HETATM    6  N   UNL     1      -8.711  14.771  67.750  1.00  0.00    -0.166 NA 
HETATM    7  H   UNL     1      -8.532  15.765  67.610  1.00  0.00     0.000 HD 
BRANCH   6   8
HETATM    8  C   UNL     1      -9.964  14.275  67.911  1.00  0.00    -0.230 A  
HETATM    9  C   UNL     1     -10.805  13.525  67.104  1.00  0.00    -0.284 A  
HETATM   10  N   UNL     1     -12.020  13.285  67.748  1.00  0.00    -0.341 NA 
HETATM   11  N   UNL     1     -10.706  14.497  69.048  1.00  0.00    -0.247 NA 
HETATM   12  C   UNL     1     -11.915  13.883  68.910  1.00  0.00    -0.358 A  
HETATM   13  H   UNL     1     -12.817  12.757  67.391  1.00  0.00     0.000 HD 
BRANCH   9  14
HETATM   14  C   UNL     1     -10.520  13.021  65.762  1.00  0.00    -0.280 C  
HETATM   15  N   UNL     1      -9.320  12.372  65.670  1.00  0.00    -0.441 N  
HETATM   16  H2  UNL     1      -8.686  12.252  66.459  1.00  0.00     0.000 HD 
HETATM   17  H1  UNL     1      -9.121  12.020  64.734  1.00  0.00     0.000 HD 
HETATM   18  O   UNL     1     -11.254  13.146  64.788  1.00  0.00    -0.303 OA 
ENDBRANCH   9  14
ENDBRANCH   6   8
ENDBRANCH   4   6
ENDBRANCH   2   4
TORSDOF 4
ENDMDL
MODEL      204
REMARK 921   NORMALIZED FREE ENERGY PREDICTED BY IDOCK:   -2.72 KCAL/MOL
REMARK 922        TOTAL FREE ENERGY PREDICTED BY IDOCK:   -3.79 KCAL/MOL
REMARK 923 INTER-LIGAND FREE ENERGY PREDICTED BY IDOCK:   -3.42 KCAL/MOL
REMARK 924 INTRA-LIGAND FREE ENERGY PREDICTED BY IDOCK:   -0.37 KCAL/MOL
REMARK 927      BINDING AFFINITY PREDICTED BY RF-SCORE:    0.00 PKD
ROOT
HETATM    1  C   UNL     1     -13.046  10.460  71.805  1.00  0.00    -0.462 C  
HETATM    2  N   UNL     1     -12.254  10.099  70.642  1.00  0.00    -0.299 NA 
HETATM    3  C   UNL     1     -12.130  11.054  69.548  1.00  0.00    -0.329 C  
ENDROOT
BRANCH   2   4
HETATM    4  N   UNL     1     -11.257   9.190  70.895  1.00  0.00    -0.274 NA 
HETATM    5  H   UNL     1     -10.691   9.206  71.745  1.00  0.00     0.000 HD 
BRANCH   4   6
HETATM    6  N   UNL     1     -11.106   8.345  69.991  1.00  0.00    -0.394 NA 
HETATM    7  H   UNL     1     -11.819   7.650  69.770  1.00  0.00     0.000 HD 
BRANCH   6   8
HETATM    8  C   UNL     1      -9.927   8.411  69.322  1.00  0.00    -0.195 A  
HETATM    9  C   UNL     1      -9.489   7.908  68.108  1.00  0.00    -0.147 A  
HETATM   10  N   UNL     1      -8.155   8.257  67.883  1.00  0.00    -0.125 NA 
HETATM   11  N   UNL     1      -8.823   9.054  69.833  1.00  0.00    -0.148 NA 
HETATM   12  C   UNL     1      -7.798   8.944  68.941  1.00  0.00    -0.096 A  
HETATM   13  H   UNL     1      -7.583   8.026  67.071  1.00  0.00     0.000 HD 
BRANCH   9  14
HETATM   14  C   UNL     1     -10.262   7.124  67.148  1.00  0.00    -0.257 C  
HETATM   15  N   UNL     1      -9.595   6.884  65.979  1.00  0.00    -0.399 N  
HETATM   16  H2  UNL     1      -8.650   7.220  65.795  1.00  0.00     0.000 HD 
HETATM   17  H1  UNL     1     -10.134   6.336  65.309  1.00  0.00     0.000 HD 
HETATM   18  O   UNL     1     -11.400   6.704  67.330  1.00  0.00    -0.299 OA 
ENDBRANCH   9  14
ENDBRANCH   6   8
ENDBRANCH   4   6
ENDBRANCH   2   4
TORSDOF 4
ENDMDL
MODEL      205
REMARK 921   NORMALIZED FREE ENERGY PREDICTED BY IDOCK:   -2.72 KCAL/MOL
REMARK 922        TOTAL FREE ENERGY PREDICTED BY IDOCK:   -3.79 KCAL/MOL
REMARK 923 INTER-LIGAND FREE ENERGY PREDICTED BY IDOCK:   -3.31 KCAL/MOL
REMARK 924 INTRA-LIGAND FREE ENERGY PREDICTED BY IDOCK:   -0.48 KCAL/MOL
REMARK 927      BINDING AFFINITY PREDICTED BY RF-SCORE:    0.00 PKD
ROOT
HETATM    1  C   UNL     1      -9.673   4.865  68.078  1.00  0.00    -0.151 C  
HETATM    2  N   UNL     1      -9.225   6.082  68.731  1.00  0.00    -0.123 NA 
HETATM    3  C   UNL     1      -7.924   6.636  68.375  1.00  0.00    -0.111 C  
ENDROOT
BRANCH   2   4
HETATM    4  N   UNL     1     -10.238   6.899  69.165  1.00  0.00    -0.180 NA 
HETATM    5  H   UNL     1     -11.219   6.617  69.168  1.00  0.00     0.000 HD 
BRANCH   4   6
HETATM    6  N   UNL     1      -9.850   8.017  69.557  1.00  0.00    -0.178 NA 
HETATM    7  H   UNL     1      -9.106   8.126  70.246  1.00  0.00     0.000 HD 
BRANCH   6   8
HETATM    8  C   UNL     1     -10.485   9.081  69.003  1.00  0.00    -0.218 A  
HETATM    9  C   UNL     1     -11.379  10.020  69.492  1.00  0.00    -0.169 A  
HETATM   10  N   UNL     1     -11.751  10.917  68.488  1.00  0.00    -0.560 NA 
HETATM   11  N   UNL     1     -10.341   9.419  67.677  1.00  0.00    -0.231 NA 
HETATM   12  C   UNL     1     -11.103  10.520  67.419  1.00  0.00    -0.252 A  
HETATM   13  H   UNL     1     -12.388  11.708  68.569  1.00  0.00     0.000 HD 
BRANCH   9  14
HETATM   14  C   UNL     1     -11.894  10.120  70.856  1.00  0.00    -0.374 C  
HETATM   15  N   UNL     1     -12.601  11.267  71.087  1.00  0.00    -0.403 N  
HETATM   16  H2  UNL     1     -12.752  11.983  70.378  1.00  0.00     0.000 HD 
HETATM   17  H1  UNL     1     -12.961  11.337  72.039  1.00  0.00     0.000 HD 
HETATM   18  O   UNL     1     -11.731   9.282  71.737  1.00  0.00    -0.359 OA 
ENDBRANCH   9  14
ENDBRANCH   6   8
ENDBRANCH   4   6
ENDBRANCH   2   4
TORSDOF 4
ENDMDL
MODEL      206
REMARK 921   NORMALIZED FREE ENERGY PREDICTED BY IDOCK:   -2.70 KCAL/MOL
REMARK 922        TOTAL FREE ENERGY PREDICTED BY IDOCK:   -3.78 KCAL/MOL
REMARK 923 INTER-LIGAND FREE ENERGY PREDICTED BY IDOCK:   -3.39 KCAL/MOL
REMARK 924 INTRA-LIGAND FREE ENERGY PREDICTED BY IDOCK:   -0.39 KCAL/MOL
REMARK 927      BINDING AFFINITY PREDICTED BY RF-SCORE:    0.00 PKD
ROOT
HETATM    1  C   UNL     1      -6.338  12.229  68.178  1.00  0.00    -0.062 C  
HETATM    2  N   UNL     1      -6.732  13.591  67.865  1.00  0.00    -0.133 NA 
HETATM    3  C   UNL     1      -5.732  14.650  67.937  1.00  0.00    -0.118 C  
ENDROOT
BRANCH   2   4
HETATM    4  N   UNL     1      -7.794  13.690  67.002  1.00  0.00    -0.373 NA 
HETATM    5  H   UNL     1      -7.947  14.497  66.396  1.00  0.00     0.000 HD 
BRANCH   4   6
HETATM    6  N   UNL     1      -8.556  12.703  67.026  1.00  0.00    -0.245 NA 
HETATM    7  H   UNL     1      -8.208  11.744  66.992  1.00  0.00     0.000 HD 
BRANCH   6   8
HETATM    8  C   UNL     1      -9.880  12.990  67.101  1.00  0.00    -0.230 A  
HETATM    9  C   UNL     1     -11.010  12.227  67.349  1.00  0.00    -0.253 A  
HETATM   10  N   UNL     1     -12.159  13.019  67.300  1.00  0.00    -0.324 NA 
HETATM   11  N   UNL     1     -10.375  14.255  66.884  1.00  0.00    -0.267 NA 
HETATM   12  C   UNL     1     -11.731  14.227  67.021  1.00  0.00    -0.403 A  
HETATM   13  H   UNL     1     -13.123  12.722  67.449  1.00  0.00     0.000 HD 
BRANCH   9  14
HETATM   14  C   UNL     1     -11.062  10.795  67.633  1.00  0.00    -0.319 C  
HETATM   15  N   UNL     1     -11.979  10.464  68.592  1.00  0.00    -0.444 N  
HETATM   16  H2  UNL     1     -12.569  11.150  69.062  1.00  0.00     0.000 HD 
HETATM   17  H1  UNL     1     -12.015   9.465  68.791  1.00  0.00     0.000 HD 
HETATM   18  O   UNL     1     -10.368   9.940  67.092  1.00  0.00    -0.216 OA 
ENDBRANCH   9  14
ENDBRANCH   6   8
ENDBRANCH   4   6
ENDBRANCH   2   4
TORSDOF 4
ENDMDL
MODEL      207
REMARK 921   NORMALIZED FREE ENERGY PREDICTED BY IDOCK:   -2.70 KCAL/MOL
REMARK 922        TOTAL FREE ENERGY PREDICTED BY IDOCK:   -3.77 KCAL/MOL
REMARK 923 INTER-LIGAND FREE ENERGY PREDICTED BY IDOCK:   -3.14 KCAL/MOL
REMARK 924 INTRA-LIGAND FREE ENERGY PREDICTED BY IDOCK:   -0.63 KCAL/MOL
REMARK 927      BINDING AFFINITY PREDICTED BY RF-SCORE:    0.00 PKD
ROOT
HETATM    1  C   UNL     1     -11.807  12.521  68.464  1.00  0.00    -0.295 C  
HETATM    2  N   UNL     1     -11.288  12.965  67.183  1.00  0.00    -0.289 NA 
HETATM    3  C   UNL     1     -12.207  13.104  66.059  1.00  0.00    -0.414 C  
ENDROOT
BRANCH   2   4
HETATM    4  N   UNL     1     -10.161  13.743  67.266  1.00  0.00    -0.251 NA 
HETATM    5  H   UNL     1      -9.633  14.049  66.448  1.00  0.00     0.000 HD 
BRANCH   4   6
HETATM    6  N   UNL     1      -9.842  14.043  68.434  1.00  0.00    -0.229 NA 
HETATM    7  H   UNL     1     -10.324  13.659  69.247  1.00  0.00     0.000 HD 
BRANCH   6   8
HETATM    8  C   UNL     1      -8.809  14.916  68.549  1.00  0.00    -0.174 A  
HETATM    9  C   UNL     1      -8.677  16.276  68.317  1.00  0.00    -0.190 A  
HETATM   10  N   UNL     1      -7.372  16.696  68.582  1.00  0.00    -0.191 NA 
HETATM   11  N   UNL     1      -7.550  14.522  68.942  1.00  0.00    -0.134 NA 
HETATM   12  C   UNL     1      -6.733  15.613  68.956  1.00  0.00    -0.131 A  
HETATM   13  H   UNL     1      -6.998  17.641  68.502  1.00  0.00     0.000 HD 
BRANCH   9  14
HETATM   14  C   UNL     1      -9.717  17.197  67.865  1.00  0.00    -0.270 C  
HETATM   15  N   UNL     1     -10.706  16.589  67.143  1.00  0.00    -0.270 N  
HETATM   16  H2  UNL     1     -10.716  15.590  66.940  1.00  0.00     0.000 HD 
HETATM   17  H1  UNL     1     -11.431  17.232  66.827  1.00  0.00     0.000 HD 
HETATM   18  O   UNL     1      -9.739  18.404  68.087  1.00  0.00    -0.301 OA 
ENDBRANCH   9  14
ENDBRANCH   6   8
ENDBRANCH   4   6
ENDBRANCH   2   4
TORSDOF 4
ENDMDL
MODEL      208
REMARK 921   NORMALIZED FREE ENERGY PREDICTED BY IDOCK:   -2.69 KCAL/MOL
REMARK 922        TOTAL FREE ENERGY PREDICTED BY IDOCK:   -3.76 KCAL/MOL
REMARK 923 INTER-LIGAND FREE ENERGY PREDICTED BY IDOCK:   -3.49 KCAL/MOL
REMARK 924 INTRA-LIGAND FREE ENERGY PREDICTED BY IDOCK:   -0.27 KCAL/MOL
REMARK 927      BINDING AFFINITY PREDICTED BY RF-SCORE:    0.00 PKD
ROOT
HETATM    1  C   UNL     1     -13.220  11.144  71.772  1.00  0.00    -0.381 C  
HETATM    2  N   UNL     1     -12.898  10.131  70.782  1.00  0.00    -0.333 NA 
HETATM    3  C   UNL     1     -12.145  10.519  69.595  1.00  0.00    -0.170 C  
ENDROOT
BRANCH   2   4
HETATM    4  N   UNL     1     -12.808   8.857  71.283  1.00  0.00    -0.469 NA 
HETATM    5  H   UNL     1     -13.612   8.234  71.370  1.00  0.00     0.000 HD 
BRANCH   4   6
HETATM    6  N   UNL     1     -11.653   8.530  71.622  1.00  0.00    -0.279 NA 
HETATM    7  H   UNL     1     -11.071   9.122  72.214  1.00  0.00     0.000 HD 
BRANCH   6   8
HETATM    8  C   UNL     1     -11.224   7.332  71.149  1.00  0.00    -0.259 A  
HETATM    9  C   UNL     1     -10.626   6.933  69.964  1.00  0.00    -0.226 A  
HETATM   10  N   UNL     1     -10.393   5.556  69.970  1.00  0.00    -0.264 NA 
HETATM   11  N   UNL     1     -11.364   6.164  71.861  1.00  0.00    -0.286 NA 
HETATM   12  C   UNL     1     -10.849   5.137  71.127  1.00  0.00     0.010 A  
HETATM   13  H   UNL     1      -9.962   4.997  69.235  1.00  0.00     0.000 HD 
BRANCH   9  14
HETATM   14  C   UNL     1     -10.259   7.780  68.832  1.00  0.00    -0.211 C  
HETATM   15  N   UNL     1     -11.082   7.630  67.751  1.00  0.00    -0.479 N  
HETATM   16  H2  UNL     1     -11.875   6.990  67.737  1.00  0.00     0.000 HD 
HETATM   17  H1  UNL     1     -10.826   8.222  66.962  1.00  0.00     0.000 HD 
HETATM   18  O   UNL     1      -9.312   8.561  68.810  1.00  0.00    -0.143 OA 
ENDBRANCH   9  14
ENDBRANCH   6   8
ENDBRANCH   4   6
ENDBRANCH   2   4
TORSDOF 4
ENDMDL
MODEL      209
REMARK 921   NORMALIZED FREE ENERGY PREDICTED BY IDOCK:   -2.68 KCAL/MOL
REMARK 922        TOTAL FREE ENERGY PREDICTED BY IDOCK:   -3.74 KCAL/MOL
REMARK 923 INTER-LIGAND FREE ENERGY PREDICTED BY IDOCK:   -3.36 KCAL/MOL
REMARK 924 INTRA-LIGAND FREE ENERGY PREDICTED BY IDOCK:   -0.39 KCAL/MOL
REMARK 927      BINDING AFFINITY PREDICTED BY RF-SCORE:    0.00 PKD
ROOT
HETATM    1  C   UNL     1     -10.927   6.187  68.095  1.00  0.00    -0.307 C  
HETATM    2  N   UNL     1     -10.066   5.990  66.943  1.00  0.00    -0.167 NA 
HETATM    3  C   UNL     1     -10.040   4.683  66.296  1.00  0.00    -0.265 C  
ENDROOT
BRANCH   2   4
HETATM    4  N   UNL     1      -9.809   7.131  66.225  1.00  0.00    -0.431 NA 
HETATM    5  H   UNL     1      -9.080   7.189  65.513  1.00  0.00     0.000 HD 
BRANCH   4   6
HETATM    6  N   UNL     1     -10.549   8.090  66.522  1.00  0.00    -0.348 NA 
HETATM    7  H   UNL     1     -11.551   7.978  66.677  1.00  0.00     0.000 HD 
BRANCH   6   8
HETATM    8  C   UNL     1      -9.929   9.293  66.626  1.00  0.00    -0.264 A  
HETATM    9  C   UNL     1      -9.692  10.157  67.684  1.00  0.00    -0.161 A  
HETATM   10  N   UNL     1      -9.010  11.294  67.247  1.00  0.00    -0.148 NA 
HETATM   11  N   UNL     1      -9.392   9.944  65.540  1.00  0.00    -0.203 NA 
HETATM   12  C   UNL     1      -8.850  11.123  65.957  1.00  0.00    -0.189 A  
HETATM   13  H   UNL     1      -8.703  12.087  67.810  1.00  0.00     0.000 HD 
BRANCH   9  14
HETATM   14  C   UNL     1     -10.069   9.962  69.082  1.00  0.00    -0.200 C  
HETATM   15  N   UNL     1     -11.421   9.944  69.283  1.00  0.00    -0.452 N  
HETATM   16  H2  UNL     1     -12.100  10.055  68.530  1.00  0.00     0.000 HD 
HETATM   17  H1  UNL     1     -11.684   9.808  70.258  1.00  0.00     0.000 HD 
HETATM   18  O   UNL     1      -9.283   9.827  70.015  1.00  0.00    -0.222 OA 
ENDBRANCH   9  14
ENDBRANCH   6   8
ENDBRANCH   4   6
ENDBRANCH   2   4
TORSDOF 4
ENDMDL
MODEL      210
REMARK 921   NORMALIZED FREE ENERGY PREDICTED BY IDOCK:   -2.67 KCAL/MOL
REMARK 922        TOTAL FREE ENERGY PREDICTED BY IDOCK:   -3.73 KCAL/MOL
REMARK 923 INTER-LIGAND FREE ENERGY PREDICTED BY IDOCK:   -3.03 KCAL/MOL
REMARK 924 INTRA-LIGAND FREE ENERGY PREDICTED BY IDOCK:   -0.70 KCAL/MOL
REMARK 927      BINDING AFFINITY PREDICTED BY RF-SCORE:    0.00 PKD
ROOT
HETATM    1  C   UNL     1      -8.744   6.680  66.172  1.00  0.00    -0.148 C  
HETATM    2  N   UNL     1      -9.845   7.231  66.942  1.00  0.00    -0.198 NA 
HETATM    3  C   UNL     1     -10.805   6.320  67.553  1.00  0.00    -0.349 C  
ENDROOT
BRANCH   2   4
HETATM    4  N   UNL     1      -9.587   8.456  67.505  1.00  0.00    -0.149 NA 
HETATM    5  H   UNL     1      -9.941   8.734  68.420  1.00  0.00     0.000 HD 
BRANCH   4   6
HETATM    6  N   UNL     1      -8.880   9.198  66.793  1.00  0.00    -0.126 NA 
HETATM    7  H   UNL     1      -7.882   9.033  66.657  1.00  0.00     0.000 HD 
BRANCH   6   8
HETATM    8  C   UNL     1      -9.529  10.238  66.212  1.00  0.00    -0.177 A  
HETATM    9  C   UNL     1      -9.895  11.501  66.651  1.00  0.00    -0.202 A  
HETATM   10  N   UNL     1     -10.572  12.195  65.646  1.00  0.00    -0.253 NA 
HETATM   11  N   UNL     1     -10.016  10.180  64.927  1.00  0.00    -0.329 NA 
HETATM   12  C   UNL     1     -10.619  11.366  64.631  1.00  0.00    -0.318 A  
HETATM   13  H   UNL     1     -10.948  13.142  65.692  1.00  0.00     0.000 HD 
BRANCH   9  14
HETATM   14  C   UNL     1      -9.634  12.087  67.964  1.00  0.00    -0.199 C  
HETATM   15  N   UNL     1      -9.746  11.190  68.991  1.00  0.00    -0.371 N  
HETATM   16  H2  UNL     1      -9.987  10.210  68.853  1.00  0.00     0.000 HD 
HETATM   17  H1  UNL     1      -9.564  11.599  69.907  1.00  0.00     0.000 HD 
HETATM   18  O   UNL     1      -9.345  13.261  68.171  1.00  0.00    -0.211 OA 
ENDBRANCH   9  14
ENDBRANCH   6   8
ENDBRANCH   4   6
ENDBRANCH   2   4
TORSDOF 4
ENDMDL
MODEL      211
REMARK 921   NORMALIZED FREE ENERGY PREDICTED BY IDOCK:   -2.66 KCAL/MOL
REMARK 922        TOTAL FREE ENERGY PREDICTED BY IDOCK:   -3.72 KCAL/MOL
REMARK 923 INTER-LIGAND FREE ENERGY PREDICTED BY IDOCK:   -3.18 KCAL/MOL
REMARK 924 INTRA-LIGAND FREE ENERGY PREDICTED BY IDOCK:   -0.55 KCAL/MOL
REMARK 927      BINDING AFFINITY PREDICTED BY RF-SCORE:    0.00 PKD
ROOT
HETATM    1  C   UNL     1      -7.272  16.523  68.750  1.00  0.00    -0.197 C  
HETATM    2  N   UNL     1      -7.124  15.145  68.317  1.00  0.00    -0.106 NA 
HETATM    3  C   UNL     1      -5.948  14.394  68.741  1.00  0.00    -0.084 C  
ENDROOT
BRANCH   2   4
HETATM    4  N   UNL     1      -8.308  14.503  68.055  1.00  0.00    -0.144 NA 
HETATM    5  H   UNL     1      -8.884  14.706  67.238  1.00  0.00     0.000 HD 
BRANCH   4   6
HETATM    6  N   UNL     1      -8.615  13.647  68.909  1.00  0.00    -0.365 NA 
HETATM    7  H   UNL     1      -8.025  13.446  69.716  1.00  0.00     0.000 HD 
BRANCH   6   8
HETATM    8  C   UNL     1      -9.789  13.001  68.690  1.00  0.00    -0.068 A  
HETATM    9  C   UNL     1     -11.118  13.384  68.773  1.00  0.00    -0.262 A  
HETATM   10  N   UNL     1     -11.959  12.316  68.452  1.00  0.00    -0.336 NA 
HETATM   11  N   UNL     1      -9.846  11.675  68.331  1.00  0.00    -0.199 NA 
HETATM   12  C   UNL     1     -11.154  11.313  68.192  1.00  0.00    -0.259 A  
HETATM   13  H   UNL     1     -12.978  12.315  68.426  1.00  0.00     0.000 HD 
BRANCH   9  14
HETATM   14  C   UNL     1     -11.636  14.702  69.133  1.00  0.00    -0.301 C  
HETATM   15  N   UNL     1     -12.717  14.652  69.968  1.00  0.00    -0.559 N  
HETATM   16  H2  UNL     1     -13.122  13.780  70.307  1.00  0.00     0.000 HD 
HETATM   17  H1  UNL     1     -13.078  15.571  70.219  1.00  0.00     0.000 HD 
HETATM   18  O   UNL     1     -11.178  15.772  68.745  1.00  0.00    -0.297 OA 
ENDBRANCH   9  14
ENDBRANCH   6   8
ENDBRANCH   4   6
ENDBRANCH   2   4
TORSDOF 4
ENDMDL
MODEL      212
REMARK 921   NORMALIZED FREE ENERGY PREDICTED BY IDOCK:   -2.66 KCAL/MOL
REMARK 922        TOTAL FREE ENERGY PREDICTED BY IDOCK:   -3.72 KCAL/MOL
REMARK 923 INTER-LIGAND FREE ENERGY PREDICTED BY IDOCK:   -3.12 KCAL/MOL
REMARK 924 INTRA-LIGAND FREE ENERGY PREDICTED BY IDOCK:   -0.59 KCAL/MOL
REMARK 927      BINDING AFFINITY PREDICTED BY RF-SCORE:    0.00 PKD
ROOT
HETATM    1  C   UNL     1      -9.462   8.716  66.896  1.00  0.00    -0.180 C  
HETATM    2  N   UNL     1      -8.637   8.306  68.018  1.00  0.00    -0.131 NA 
HETATM    3  C   UNL     1      -7.189   8.439  67.916  1.00  0.00    -0.091 C  
ENDROOT
BRANCH   2   4
HETATM    4  N   UNL     1      -9.262   8.379  69.238  1.00  0.00    -0.154 NA 
HETATM    5  H   UNL     1      -8.790   8.688  70.089  1.00  0.00     0.000 HD 
BRANCH   4   6
HETATM    6  N   UNL     1     -10.460   8.033  69.211  1.00  0.00    -0.221 NA 
HETATM    7  H   UNL     1     -10.906   7.677  68.365  1.00  0.00     0.000 HD 
BRANCH   6   8
HETATM    8  C   UNL     1     -11.130   8.162  70.384  1.00  0.00    -0.239 A  
HETATM    9  C   UNL     1     -11.351   7.312  71.456  1.00  0.00    -0.251 A  
HETATM   10  N   UNL     1     -12.135   7.939  72.428  1.00  0.00    -0.489 NA 
HETATM   11  N   UNL     1     -11.813   9.308  70.722  1.00  0.00    -0.270 NA 
HETATM   12  C   UNL     1     -12.385   9.133  71.947  1.00  0.00    -0.385 A  
HETATM   13  H   UNL     1     -12.444   7.551  73.318  1.00  0.00     0.000 HD 
BRANCH   9  14
HETATM   14  C   UNL     1     -10.859   5.946  71.613  1.00  0.00    -0.263 C  
HETATM   15  N   UNL     1     -10.072   5.529  70.576  1.00  0.00    -0.210 N  
HETATM   16  H2  UNL     1      -9.851   6.115  69.772  1.00  0.00     0.000 HD 
HETATM   17  H1  UNL     1      -9.729   4.576  70.685  1.00  0.00     0.000 HD 
HETATM   18  O   UNL     1     -11.105   5.210  72.563  1.00  0.00    -0.236 OA 
ENDBRANCH   9  14
ENDBRANCH   6   8
ENDBRANCH   4   6
ENDBRANCH   2   4
TORSDOF 4
ENDMDL
MODEL      213
REMARK 921   NORMALIZED FREE ENERGY PREDICTED BY IDOCK:   -2.65 KCAL/MOL
REMARK 922        TOTAL FREE ENERGY PREDICTED BY IDOCK:   -3.71 KCAL/MOL
REMARK 923 INTER-LIGAND FREE ENERGY PREDICTED BY IDOCK:   -3.40 KCAL/MOL
REMARK 924 INTRA-LIGAND FREE ENERGY PREDICTED BY IDOCK:   -0.31 KCAL/MOL
REMARK 927      BINDING AFFINITY PREDICTED BY RF-SCORE:    0.00 PKD
ROOT
HETATM    1  C   UNL     1      -9.305   7.162  66.398  1.00  0.00    -0.143 C  
HETATM    2  N   UNL     1      -9.706   7.298  67.786  1.00  0.00    -0.137 NA 
HETATM    3  C   UNL     1      -8.676   7.403  68.813  1.00  0.00    -0.128 C  
ENDROOT
BRANCH   2   4
HETATM    4  N   UNL     1     -10.936   7.880  67.967  1.00  0.00    -0.460 NA 
HETATM    5  H   UNL     1     -11.710   7.413  68.440  1.00  0.00     0.000 HD 
BRANCH   4   6
HETATM    6  N   UNL     1     -11.019   9.034  67.500  1.00  0.00    -0.447 NA 
HETATM    7  H   UNL     1     -10.948   9.224  66.500  1.00  0.00     0.000 HD 
BRANCH   6   8
HETATM    8  C   UNL     1     -11.212  10.019  68.413  1.00  0.00    -0.127 A  
HETATM    9  C   UNL     1     -11.085  11.398  68.370  1.00  0.00    -0.242 A  
HETATM   10  N   UNL     1     -11.396  11.960  69.610  1.00  0.00    -0.444 NA 
HETATM   11  N   UNL     1     -11.589   9.760  69.711  1.00  0.00    -0.101 NA 
HETATM   12  C   UNL     1     -11.694  10.942  70.382  1.00  0.00    -0.350 A  
HETATM   13  H   UNL     1     -11.392  12.949  69.861  1.00  0.00     0.000 HD 
BRANCH   9  14
HETATM   14  C   UNL     1     -10.692  12.212  67.222  1.00  0.00    -0.229 C  
HETATM   15  N   UNL     1     -11.752  12.780  66.571  1.00  0.00    -0.382 N  
HETATM   16  H2  UNL     1     -12.721  12.649  66.859  1.00  0.00     0.000 HD 
HETATM   17  H1  UNL     1     -11.478  13.348  65.770  1.00  0.00     0.000 HD 
HETATM   18  O   UNL     1      -9.539  12.392  66.843  1.00  0.00    -0.207 OA 
ENDBRANCH   9  14
ENDBRANCH   6   8
ENDBRANCH   4   6
ENDBRANCH   2   4
TORSDOF 4
ENDMDL
MODEL      214
REMARK 921   NORMALIZED FREE ENERGY PREDICTED BY IDOCK:   -2.65 KCAL/MOL
REMARK 922        TOTAL FREE ENERGY PREDICTED BY IDOCK:   -3.71 KCAL/MOL
REMARK 923 INTER-LIGAND FREE ENERGY PREDICTED BY IDOCK:   -3.32 KCAL/MOL
REMARK 924 INTRA-LIGAND FREE ENERGY PREDICTED BY IDOCK:   -0.39 KCAL/MOL
REMARK 927      BINDING AFFINITY PREDICTED BY RF-SCORE:    0.00 PKD
ROOT
HETATM    1  C   UNL     1      -9.413   3.477  70.117  1.00  0.00    -0.182 C  
HETATM    2  N   UNL     1      -9.319   4.921  70.234  1.00  0.00    -0.143 NA 
HETATM    3  C   UNL     1      -8.330   5.632  69.433  1.00  0.00    -0.107 C  
ENDROOT
BRANCH   2   4
HETATM    4  N   UNL     1     -10.486   5.536  70.613  1.00  0.00    -0.266 NA 
HETATM    5  H   UNL     1     -11.393   5.315  70.200  1.00  0.00     0.000 HD 
BRANCH   4   6
HETATM    6  N   UNL     1     -10.336   6.391  71.509  1.00  0.00    -0.204 NA 
HETATM    7  H   UNL     1      -9.723   6.239  72.311  1.00  0.00     0.000 HD 
BRANCH   6   8
HETATM    8  C   UNL     1     -11.044   7.537  71.345  1.00  0.00    -0.238 A  
HETATM    9  C   UNL     1     -11.089   8.496  70.345  1.00  0.00    -0.231 A  
HETATM   10  N   UNL     1     -11.994   9.508  70.675  1.00  0.00    -0.407 NA 
HETATM   11  N   UNL     1     -11.927   8.002  72.292  1.00  0.00    -0.348 NA 
HETATM   12  C   UNL     1     -12.473   9.169  71.848  1.00  0.00    -0.387 A  
HETATM   13  H   UNL     1     -12.230  10.332  70.122  1.00  0.00     0.000 HD 
BRANCH   9  14
HETATM   14  C   UNL     1     -10.330   8.505  69.097  1.00  0.00    -0.217 C  
HETATM   15  N   UNL     1     -10.795   7.613  68.172  1.00  0.00    -0.439 N  
HETATM   16  H2  UNL     1     -11.594   7.001  68.337  1.00  0.00     0.000 HD 
HETATM   17  H1  UNL     1     -10.266   7.619  67.301  1.00  0.00     0.000 HD 
HETATM   18  O   UNL     1      -9.363   9.223  68.861  1.00  0.00    -0.147 OA 
ENDBRANCH   9  14
ENDBRANCH   6   8
ENDBRANCH   4   6
ENDBRANCH   2   4
TORSDOF 4
ENDMDL
MODEL      215
REMARK 921   NORMALIZED FREE ENERGY PREDICTED BY IDOCK:   -2.65 KCAL/MOL
REMARK 922        TOTAL FREE ENERGY PREDICTED BY IDOCK:   -3.70 KCAL/MOL
REMARK 923 INTER-LIGAND FREE ENERGY PREDICTED BY IDOCK:   -3.47 KCAL/MOL
REMARK 924 INTRA-LIGAND FREE ENERGY PREDICTED BY IDOCK:   -0.23 KCAL/MOL
REMARK 927      BINDING AFFINITY PREDICTED BY RF-SCORE:    0.00 PKD
ROOT
HETATM    1  C   UNL     1     -12.409   8.673  72.173  1.00  0.00    -0.386 C  
HETATM    2  N   UNL     1     -12.217   9.707  71.171  1.00  0.00    -0.330 NA 
HETATM    3  C   UNL     1     -12.719  11.050  71.437  1.00  0.00    -0.429 C  
ENDROOT
BRANCH   2   4
HETATM    4  N   UNL     1     -11.127   9.515  70.360  1.00  0.00    -0.259 NA 
HETATM    5  H   UNL     1     -10.266  10.057  70.445  1.00  0.00     0.000 HD 
BRANCH   4   6
HETATM    6  N   UNL     1     -11.286   8.618  69.508  1.00  0.00    -0.438 NA 
HETATM    7  H   UNL     1     -11.860   8.752  68.675  1.00  0.00     0.000 HD 
BRANCH   6   8
HETATM    8  C   UNL     1     -10.642   7.451  69.764  1.00  0.00    -0.236 A  
HETATM    9  C   UNL     1      -9.311   7.116  69.951  1.00  0.00    -0.150 A  
HETATM   10  N   UNL     1      -9.175   5.744  70.177  1.00  0.00    -0.149 NA 
HETATM   11  N   UNL     1     -11.305   6.249  69.863  1.00  0.00    -0.427 NA 
HETATM   12  C   UNL     1     -10.395   5.266  70.117  1.00  0.00    -0.284 A  
HETATM   13  H   UNL     1      -8.314   5.227  70.350  1.00  0.00     0.000 HD 
BRANCH   9  14
HETATM   14  C   UNL     1      -8.164   8.020  69.934  1.00  0.00    -0.119 C  
HETATM   15  N   UNL     1      -8.315   9.105  70.752  1.00  0.00    -0.197 N  
HETATM   16  H2  UNL     1      -9.147   9.267  71.319  1.00  0.00     0.000 HD 
HETATM   17  H1  UNL     1      -7.515   9.736  70.741  1.00  0.00     0.000 HD 
HETATM   18  O   UNL     1      -7.147   7.862  69.266  1.00  0.00    -0.067 OA 
ENDBRANCH   9  14
ENDBRANCH   6   8
ENDBRANCH   4   6
ENDBRANCH   2   4
TORSDOF 4
ENDMDL
MODEL      216
REMARK 921   NORMALIZED FREE ENERGY PREDICTED BY IDOCK:   -2.64 KCAL/MOL
REMARK 922        TOTAL FREE ENERGY PREDICTED BY IDOCK:   -3.70 KCAL/MOL
REMARK 923 INTER-LIGAND FREE ENERGY PREDICTED BY IDOCK:   -3.25 KCAL/MOL
REMARK 924 INTRA-LIGAND FREE ENERGY PREDICTED BY IDOCK:   -0.45 KCAL/MOL
REMARK 927      BINDING AFFINITY PREDICTED BY RF-SCORE:    0.00 PKD
ROOT
HETATM    1  C   UNL     1      -9.905   5.611  66.088  1.00  0.00    -0.079 C  
HETATM    2  N   UNL     1     -10.511   5.427  67.394  1.00  0.00    -0.210 NA 
HETATM    3  C   UNL     1      -9.826   4.600  68.381  1.00  0.00    -0.102 C  
ENDROOT
BRANCH   2   4
HETATM    4  N   UNL     1     -11.328   6.456  67.790  1.00  0.00    -0.655 NA 
HETATM    5  H   UNL     1     -12.322   6.334  67.990  1.00  0.00     0.000 HD 
BRANCH   4   6
HETATM    6  N   UNL     1     -10.745   7.555  67.884  1.00  0.00    -0.425 NA 
HETATM    7  H   UNL     1     -10.214   7.958  67.111  1.00  0.00     0.000 HD 
BRANCH   6   8
HETATM    8  C   UNL     1     -10.863   8.177  69.084  1.00  0.00    -0.016 A  
HETATM    9  C   UNL     1     -10.967   9.505  69.465  1.00  0.00    -0.195 A  
HETATM   10  N   UNL     1     -11.053   9.614  70.854  1.00  0.00    -0.324 NA 
HETATM   11  N   UNL     1     -10.870   7.489  70.276  1.00  0.00    -0.243 NA 
HETATM   12  C   UNL     1     -10.994   8.381  71.298  1.00  0.00    -0.252 A  
HETATM   13  H   UNL     1     -11.143  10.468  71.405  1.00  0.00     0.000 HD 
BRANCH   9  14
HETATM   14  C   UNL     1     -10.995  10.674  68.588  1.00  0.00    -0.246 C  
HETATM   15  N   UNL     1     -10.804  10.368  67.269  1.00  0.00    -0.279 N  
HETATM   16  H2  UNL     1     -10.658   9.417  66.931  1.00  0.00     0.000 HD 
HETATM   17  H1  UNL     1     -10.824  11.183  66.657  1.00  0.00     0.000 HD 
HETATM   18  O   UNL     1     -11.166  11.832  68.956  1.00  0.00    -0.230 OA 
ENDBRANCH   9  14
ENDBRANCH   6   8
ENDBRANCH   4   6
ENDBRANCH   2   4
TORSDOF 4
ENDMDL
MODEL      217
REMARK 921   NORMALIZED FREE ENERGY PREDICTED BY IDOCK:   -2.63 KCAL/MOL
REMARK 922        TOTAL FREE ENERGY PREDICTED BY IDOCK:   -3.68 KCAL/MOL
REMARK 923 INTER-LIGAND FREE ENERGY PREDICTED BY IDOCK:   -3.00 KCAL/MOL
REMARK 924 INTRA-LIGAND FREE ENERGY PREDICTED BY IDOCK:   -0.68 KCAL/MOL
REMARK 927      BINDING AFFINITY PREDICTED BY RF-SCORE:    0.00 PKD
ROOT
HETATM    1  C   UNL     1      -7.929   3.300  68.916  1.00  0.00    -0.056 C  
HETATM    2  N   UNL     1      -9.328   3.102  69.253  1.00  0.00    -0.157 NA 
HETATM    3  C   UNL     1      -9.731   1.853  69.888  1.00  0.00     0.108 C  
ENDROOT
BRANCH   2   4
HETATM    4  N   UNL     1     -10.026   4.261  69.483  1.00  0.00    -0.152 NA 
HETATM    5  H   UNL     1     -10.892   4.496  68.997  1.00  0.00     0.000 HD 
BRANCH   4   6
HETATM    6  N   UNL     1      -9.504   5.001  70.341  1.00  0.00    -0.157 NA 
HETATM    7  H   UNL     1      -8.617   5.480  70.181  1.00  0.00     0.000 HD 
BRANCH   6   8
HETATM    8  C   UNL     1     -10.196   5.124  71.502  1.00  0.00    -0.207 A  
HETATM    9  C   UNL     1     -11.330   5.833  71.866  1.00  0.00    -0.204 A  
HETATM   10  N   UNL     1     -11.627   5.626  73.215  1.00  0.00    -0.476 NA 
HETATM   11  N   UNL     1      -9.806   4.500  72.664  1.00  0.00    -0.147 NA 
HETATM   12  C   UNL     1     -10.690   4.819  73.652  1.00  0.00    -0.285 A  
HETATM   13  H   UNL     1     -12.406   6.017  73.745  1.00  0.00     0.000 HD 
BRANCH   9  14
HETATM   14  C   UNL     1     -12.148   6.689  71.010  1.00  0.00    -0.327 C  
HETATM   15  N   UNL     1     -11.558   6.980  69.811  1.00  0.00    -0.564 N  
HETATM   16  H2  UNL     1     -10.638   6.634  69.542  1.00  0.00     0.000 HD 
HETATM   17  H1  UNL     1     -12.129   7.577  69.213  1.00  0.00     0.000 HD 
HETATM   18  O   UNL     1     -13.256   7.127  71.299  1.00  0.00    -0.377 OA 
ENDBRANCH   9  14
ENDBRANCH   6   8
ENDBRANCH   4   6
ENDBRANCH   2   4
TORSDOF 4
ENDMDL
MODEL      218
REMARK 921   NORMALIZED FREE ENERGY PREDICTED BY IDOCK:   -2.62 KCAL/MOL
REMARK 922        TOTAL FREE ENERGY PREDICTED BY IDOCK:   -3.67 KCAL/MOL
REMARK 923 INTER-LIGAND FREE ENERGY PREDICTED BY IDOCK:   -3.22 KCAL/MOL
REMARK 924 INTRA-LIGAND FREE ENERGY PREDICTED BY IDOCK:   -0.45 KCAL/MOL
REMARK 927      BINDING AFFINITY PREDICTED BY RF-SCORE:    0.00 PKD
ROOT
HETATM    1  C   UNL     1      -7.213  10.176  69.789  1.00  0.00    -0.141 C  
HETATM    2  N   UNL     1      -8.100   9.307  69.037  1.00  0.00    -0.104 NA 
HETATM    3  C   UNL     1      -7.689   8.853  67.714  1.00  0.00    -0.101 C  
ENDROOT
BRANCH   2   4
HETATM    4  N   UNL     1      -8.936   8.542  69.811  1.00  0.00    -0.144 NA 
HETATM    5  H   UNL     1      -8.992   7.526  69.734  1.00  0.00     0.000 HD 
BRANCH   4   6
HETATM    6  N   UNL     1      -9.621   9.203  70.616  1.00  0.00    -0.234 NA 
HETATM    7  H   UNL     1      -9.503  10.210  70.735  1.00  0.00     0.000 HD 
BRANCH   6   8
HETATM    8  C   UNL     1     -10.534   8.492  71.325  1.00  0.00    -0.225 A  
HETATM    9  C   UNL     1     -10.487   7.811  72.531  1.00  0.00    -0.284 A  
HETATM   10  N   UNL     1     -11.721   7.223  72.813  1.00  0.00    -0.547 NA 
HETATM   11  N   UNL     1     -11.819   8.287  70.878  1.00  0.00    -0.259 NA 
HETATM   12  C   UNL     1     -12.490   7.536  71.797  1.00  0.00    -0.330 A  
HETATM   13  H   UNL     1     -11.971   6.669  73.632  1.00  0.00     0.000 HD 
BRANCH   9  14
HETATM   14  C   UNL     1      -9.342   7.690  73.430  1.00  0.00    -0.268 C  
HETATM   15  N   UNL     1      -9.407   6.597  74.249  1.00  0.00    -0.203 N  
HETATM   16  H2  UNL     1     -10.179   5.931  74.233  1.00  0.00     0.000 HD 
HETATM   17  H1  UNL     1      -8.608   6.513  74.877  1.00  0.00     0.000 HD 
HETATM   18  O   UNL     1      -8.396   8.470  73.482  1.00  0.00    -0.381 OA 
ENDBRANCH   9  14
ENDBRANCH   6   8
ENDBRANCH   4   6
ENDBRANCH   2   4
TORSDOF 4
ENDMDL
MODEL      219
REMARK 921   NORMALIZED FREE ENERGY PREDICTED BY IDOCK:   -2.61 KCAL/MOL
REMARK 922        TOTAL FREE ENERGY PREDICTED BY IDOCK:   -3.66 KCAL/MOL
REMARK 923 INTER-LIGAND FREE ENERGY PREDICTED BY IDOCK:   -3.03 KCAL/MOL
REMARK 924 INTRA-LIGAND FREE ENERGY PREDICTED BY IDOCK:   -0.63 KCAL/MOL
REMARK 927      BINDING AFFINITY PREDICTED BY RF-SCORE:    0.00 PKD
ROOT
HETATM    1  C   UNL     1      -8.135   6.610  66.310  1.00  0.00    -0.115 C  
HETATM    2  N   UNL     1      -8.039   7.881  67.005  1.00  0.00    -0.115 NA 
HETATM    3  C   UNL     1      -6.806   8.653  66.900  1.00  0.00    -0.070 C  
ENDROOT
BRANCH   2   4
HETATM    4  N   UNL     1      -9.242   8.510  67.207  1.00  0.00    -0.138 NA 
HETATM    5  H   UNL     1      -9.555   8.834  68.122  1.00  0.00     0.000 HD 
BRANCH   4   6
HETATM    6  N   UNL     1      -9.918   8.647  66.168  1.00  0.00    -0.453 NA 
HETATM    7  H   UNL     1     -10.468   7.886  65.770  1.00  0.00     0.000 HD 
BRANCH   6   8
HETATM    8  C   UNL     1      -9.873   9.880  65.602  1.00  0.00    -0.298 A  
HETATM    9  C   UNL     1      -9.180  10.411  64.526  1.00  0.00    -0.246 A  
HETATM   10  N   UNL     1      -9.482  11.765  64.365  1.00  0.00    -0.437 NA 
HETATM   11  N   UNL     1     -10.585  10.947  66.098  1.00  0.00    -0.237 NA 
HETATM   12  C   UNL     1     -10.330  12.042  65.327  1.00  0.00    -0.275 A  
HETATM   13  H   UNL     1      -9.122  12.400  63.653  1.00  0.00     0.000 HD 
BRANCH   9  14
HETATM   14  C   UNL     1      -8.254   9.709  63.640  1.00  0.00    -0.162 C  
HETATM   15  N   UNL     1      -7.261  10.509  63.147  1.00  0.00    -0.322 N  
HETATM   16  H2  UNL     1      -7.176  11.499  63.375  1.00  0.00     0.000 HD 
HETATM   17  H1  UNL     1      -6.615  10.019  62.529  1.00  0.00     0.000 HD 
HETATM   18  O   UNL     1      -8.325   8.521  63.340  1.00  0.00    -0.163 OA 
ENDBRANCH   9  14
ENDBRANCH   6   8
ENDBRANCH   4   6
ENDBRANCH   2   4
TORSDOF 4
ENDMDL
MODEL      220
REMARK 921   NORMALIZED FREE ENERGY PREDICTED BY IDOCK:   -2.60 KCAL/MOL
REMARK 922        TOTAL FREE ENERGY PREDICTED BY IDOCK:   -3.65 KCAL/MOL
REMARK 923 INTER-LIGAND FREE ENERGY PREDICTED BY IDOCK:   -3.30 KCAL/MOL
REMARK 924 INTRA-LIGAND FREE ENERGY PREDICTED BY IDOCK:   -0.35 KCAL/MOL
REMARK 927      BINDING AFFINITY PREDICTED BY RF-SCORE:    0.00 PKD
ROOT
HETATM    1  C   UNL     1      -6.176  14.917  68.521  1.00  0.00    -0.091 C  
HETATM    2  N   UNL     1      -7.142  13.904  68.135  1.00  0.00    -0.102 NA 
HETATM    3  C   UNL     1      -6.857  12.506  68.434  1.00  0.00    -0.085 C  
ENDROOT
BRANCH   2   4
HETATM    4  N   UNL     1      -8.436  14.354  68.060  1.00  0.00    -0.155 NA 
HETATM    5  H   UNL     1      -8.977  14.356  67.194  1.00  0.00     0.000 HD 
BRANCH   4   6
HETATM    6  N   UNL     1      -8.891  14.761  69.147  1.00  0.00    -0.349 NA 
HETATM    7  H   UNL     1      -8.777  14.239  70.016  1.00  0.00     0.000 HD 
BRANCH   6   8
HETATM    8  C   UNL     1      -9.550  15.947  69.096  1.00  0.00    -0.253 A  
HETATM    9  C   UNL     1     -10.782  16.375  69.564  1.00  0.00    -0.325 A  
HETATM   10  N   UNL     1     -10.997  17.714  69.231  1.00  0.00    -0.074 NA 
HETATM   11  N   UNL     1      -9.035  17.051  68.458  1.00  0.00    -0.256 NA 
HETATM   12  C   UNL     1      -9.923  18.079  68.571  1.00  0.00    -0.390 A  
HETATM   13  H   UNL     1     -11.812  18.285  69.453  1.00  0.00     0.000 HD 
BRANCH   9  14
HETATM   14  C   UNL     1     -11.762  15.591  70.312  1.00  0.00    -0.346 C  
HETATM   15  N   UNL     1     -12.271  16.250  71.397  1.00  0.00    -0.573 N  
HETATM   16  H2  UNL     1     -11.993  17.195  71.658  1.00  0.00     0.000 HD 
HETATM   17  H1  UNL     1     -12.954  15.703  71.919  1.00  0.00     0.000 HD 
HETATM   18  O   UNL     1     -12.120  14.452  70.032  1.00  0.00    -0.303 OA 
ENDBRANCH   9  14
ENDBRANCH   6   8
ENDBRANCH   4   6
ENDBRANCH   2   4
TORSDOF 4
ENDMDL
MODEL      221
REMARK 921   NORMALIZED FREE ENERGY PREDICTED BY IDOCK:   -2.60 KCAL/MOL
REMARK 922        TOTAL FREE ENERGY PREDICTED BY IDOCK:   -3.64 KCAL/MOL
REMARK 923 INTER-LIGAND FREE ENERGY PREDICTED BY IDOCK:   -3.09 KCAL/MOL
REMARK 924 INTRA-LIGAND FREE ENERGY PREDICTED BY IDOCK:   -0.55 KCAL/MOL
REMARK 927      BINDING AFFINITY PREDICTED BY RF-SCORE:    0.00 PKD
ROOT
HETATM    1  C   UNL     1      -7.591  10.277  64.992  1.00  0.00    -0.124 C  
HETATM    2  N   UNL     1      -8.897   9.985  65.554  1.00  0.00    -0.156 NA 
HETATM    3  C   UNL     1      -9.128   8.681  66.164  1.00  0.00    -0.201 C  
ENDROOT
BRANCH   2   4
HETATM    4  N   UNL     1      -9.590  11.090  65.982  1.00  0.00    -0.206 NA 
HETATM    5  H   UNL     1     -10.529  11.039  66.378  1.00  0.00     0.000 HD 
BRANCH   4   6
HETATM    6  N   UNL     1      -8.966  12.160  65.842  1.00  0.00    -0.425 NA 
HETATM    7  H   UNL     1      -8.671  12.505  64.928  1.00  0.00     0.000 HD 
BRANCH   6   8
HETATM    8  C   UNL     1      -8.705  12.837  66.990  1.00  0.00    -0.197 A  
HETATM    9  C   UNL     1      -9.487  13.582  67.858  1.00  0.00    -0.215 A  
HETATM   10  N   UNL     1      -8.715  14.089  68.905  1.00  0.00    -0.367 NA 
HETATM   11  N   UNL     1      -7.441  12.920  67.527  1.00  0.00    -0.149 NA 
HETATM   12  C   UNL     1      -7.496  13.666  68.667  1.00  0.00    -0.113 A  
HETATM   13  H   UNL     1      -9.030  14.664  69.685  1.00  0.00     0.000 HD 
BRANCH   9  14
HETATM   14  C   UNL     1     -10.922  13.836  67.753  1.00  0.00    -0.256 C  
HETATM   15  N   UNL     1     -11.663  12.701  67.575  1.00  0.00    -0.363 N  
HETATM   16  H2  UNL     1     -11.254  11.769  67.521  1.00  0.00     0.000 HD 
HETATM   17  H1  UNL     1     -12.665  12.878  67.503  1.00  0.00     0.000 HD 
HETATM   18  O   UNL     1     -11.452  14.941  67.812  1.00  0.00    -0.318 OA 
ENDBRANCH   9  14
ENDBRANCH   6   8
ENDBRANCH   4   6
ENDBRANCH   2   4
TORSDOF 4
ENDMDL
MODEL      222
REMARK 921   NORMALIZED FREE ENERGY PREDICTED BY IDOCK:   -2.58 KCAL/MOL
REMARK 922        TOTAL FREE ENERGY PREDICTED BY IDOCK:   -3.63 KCAL/MOL
REMARK 923 INTER-LIGAND FREE ENERGY PREDICTED BY IDOCK:   -3.13 KCAL/MOL
REMARK 924 INTRA-LIGAND FREE ENERGY PREDICTED BY IDOCK:   -0.49 KCAL/MOL
REMARK 927      BINDING AFFINITY PREDICTED BY RF-SCORE:    0.00 PKD
ROOT
HETATM    1  C   UNL     1     -10.646  16.011  65.692  1.00  0.00    -0.377 C  
HETATM    2  N   UNL     1     -11.304  14.722  65.576  1.00  0.00    -0.340 NA 
HETATM    3  C   UNL     1     -12.223  14.497  64.467  1.00  0.00    -0.465 C  
ENDROOT
BRANCH   2   4
HETATM    4  N   UNL     1     -10.609  13.678  66.132  1.00  0.00    -0.287 NA 
HETATM    5  H   UNL     1     -10.088  12.997  65.578  1.00  0.00     0.000 HD 
BRANCH   4   6
HETATM    6  N   UNL     1     -10.672  13.638  67.377  1.00  0.00    -0.265 NA 
HETATM    7  H   UNL     1     -11.358  14.177  67.906  1.00  0.00     0.000 HD 
BRANCH   6   8
HETATM    8  C   UNL     1      -9.765  12.829  67.981  1.00  0.00    -0.220 A  
HETATM    9  C   UNL     1      -8.525  13.049  68.560  1.00  0.00    -0.048 A  
HETATM   10  N   UNL     1      -7.984  11.853  69.035  1.00  0.00    -0.351 NA 
HETATM   11  N   UNL     1      -9.951  11.471  68.101  1.00  0.00    -0.186 NA 
HETATM   12  C   UNL     1      -8.873  10.934  68.741  1.00  0.00    -0.161 A  
HETATM   13  H   UNL     1      -7.091  11.721  69.509  1.00  0.00     0.000 HD 
BRANCH   9  14
HETATM   14  C   UNL     1      -7.829  14.327  68.693  1.00  0.00    -0.140 C  
HETATM   15  N   UNL     1      -8.659  15.368  69.002  1.00  0.00    -0.210 N  
HETATM   16  H2  UNL     1      -9.666  15.263  69.126  1.00  0.00     0.000 HD 
HETATM   17  H1  UNL     1      -8.174  16.260  69.094  1.00  0.00     0.000 HD 
HETATM   18  O   UNL     1      -6.622  14.494  68.548  1.00  0.00    -0.083 OA 
ENDBRANCH   9  14
ENDBRANCH   6   8
ENDBRANCH   4   6
ENDBRANCH   2   4
TORSDOF 4
ENDMDL
MODEL      223
REMARK 921   NORMALIZED FREE ENERGY PREDICTED BY IDOCK:   -2.58 KCAL/MOL
REMARK 922        TOTAL FREE ENERGY PREDICTED BY IDOCK:   -3.62 KCAL/MOL
REMARK 923 INTER-LIGAND FREE ENERGY PREDICTED BY IDOCK:   -3.20 KCAL/MOL
REMARK 924 INTRA-LIGAND FREE ENERGY PREDICTED BY IDOCK:   -0.42 KCAL/MOL
REMARK 927      BINDING AFFINITY PREDICTED BY RF-SCORE:    0.00 PKD
ROOT
HETATM    1  C   UNL     1      -9.498   3.026  70.181  1.00  0.00    -0.136 C  
HETATM    2  N   UNL     1      -9.396   4.287  69.469  1.00  0.00    -0.145 NA 
HETATM    3  C   UNL     1      -8.580   4.353  68.262  1.00  0.00    -0.094 C  
ENDROOT
BRANCH   2   4
HETATM    4  N   UNL     1     -10.476   5.118  69.628  1.00  0.00    -0.257 NA 
HETATM    5  H   UNL     1     -11.440   4.810  69.498  1.00  0.00     0.000 HD 
BRANCH   4   6
HETATM    6  N   UNL     1     -10.171   6.285  69.948  1.00  0.00    -0.176 NA 
HETATM    7  H   UNL     1      -9.343   6.752  69.578  1.00  0.00     0.000 HD 
BRANCH   6   8
HETATM    8  C   UNL     1     -11.015   6.889  70.822  1.00  0.00    -0.259 A  
HETATM    9  C   UNL     1     -10.832   7.799  71.852  1.00  0.00    -0.235 A  
HETATM   10  N   UNL     1     -12.050   8.098  72.466  1.00  0.00    -0.533 NA 
HETATM   11  N   UNL     1     -12.366   6.633  70.841  1.00  0.00    -0.301 NA 
HETATM   12  C   UNL     1     -12.941   7.379  71.827  1.00  0.00    -0.325 A  
HETATM   13  H   UNL     1     -12.211   8.738  73.243  1.00  0.00     0.000 HD 
BRANCH   9  14
HETATM   14  C   UNL     1      -9.573   8.402  72.281  1.00  0.00    -0.304 C  
HETATM   15  N   UNL     1      -8.855   8.951  71.255  1.00  0.00    -0.224 N  
HETATM   16  H2  UNL     1      -9.169   8.940  70.285  1.00  0.00     0.000 HD 
HETATM   17  H1  UNL     1      -7.977   9.372  71.554  1.00  0.00     0.000 HD 
HETATM   18  O   UNL     1      -9.160   8.434  73.436  1.00  0.00    -0.216 OA 
ENDBRANCH   9  14
ENDBRANCH   6   8
ENDBRANCH   4   6
ENDBRANCH   2   4
TORSDOF 4
ENDMDL
MODEL      224
REMARK 921   NORMALIZED FREE ENERGY PREDICTED BY IDOCK:   -2.57 KCAL/MOL
REMARK 922        TOTAL FREE ENERGY PREDICTED BY IDOCK:   -3.61 KCAL/MOL
REMARK 923 INTER-LIGAND FREE ENERGY PREDICTED BY IDOCK:   -3.01 KCAL/MOL
REMARK 924 INTRA-LIGAND FREE ENERGY PREDICTED BY IDOCK:   -0.61 KCAL/MOL
REMARK 927      BINDING AFFINITY PREDICTED BY RF-SCORE:    0.00 PKD
ROOT
HETATM    1  C   UNL     1     -10.804   8.825  67.836  1.00  0.00    -0.011 C  
HETATM    2  N   UNL     1     -10.440   9.545  69.044  1.00  0.00    -0.208 NA 
HETATM    3  C   UNL     1      -9.368   9.021  69.881  1.00  0.00    -0.173 C  
ENDROOT
BRANCH   2   4
HETATM    4  N   UNL     1     -10.702  10.891  69.003  1.00  0.00    -0.211 NA 
HETATM    5  H   UNL     1     -11.607  11.275  68.731  1.00  0.00     0.000 HD 
BRANCH   4   6
HETATM    6  N   UNL     1      -9.730  11.603  69.328  1.00  0.00    -0.366 NA 
HETATM    7  H   UNL     1      -9.120  11.367  70.111  1.00  0.00     0.000 HD 
BRANCH   6   8
HETATM    8  C   UNL     1      -9.540  12.711  68.569  1.00  0.00    -0.109 A  
HETATM    9  C   UNL     1     -10.200  13.925  68.470  1.00  0.00    -0.240 A  
HETATM   10  N   UNL     1      -9.599  14.736  67.505  1.00  0.00    -0.207 NA 
HETATM   11  N   UNL     1      -8.539  12.800  67.629  1.00  0.00    -0.169 NA 
HETATM   12  C   UNL     1      -8.607  14.022  67.029  1.00  0.00    -0.174 A  
HETATM   13  H   UNL     1      -9.873  15.679  67.229  1.00  0.00     0.000 HD 
BRANCH   9  14
HETATM   14  C   UNL     1     -11.362  14.362  69.241  1.00  0.00    -0.284 C  
HETATM   15  N   UNL     1     -11.691  13.510  70.258  1.00  0.00    -0.517 N  
HETATM   16  H2  UNL     1     -11.175  12.654  70.459  1.00  0.00     0.000 HD 
HETATM   17  H1  UNL     1     -12.501  13.815  70.796  1.00  0.00     0.000 HD 
HETATM   18  O   UNL     1     -12.010  15.383  69.029  1.00  0.00    -0.337 OA 
ENDBRANCH   9  14
ENDBRANCH   6   8
ENDBRANCH   4   6
ENDBRANCH   2   4
TORSDOF 4
ENDMDL
MODEL      225
REMARK 921   NORMALIZED FREE ENERGY PREDICTED BY IDOCK:   -2.57 KCAL/MOL
REMARK 922        TOTAL FREE ENERGY PREDICTED BY IDOCK:   -3.61 KCAL/MOL
REMARK 923 INTER-LIGAND FREE ENERGY PREDICTED BY IDOCK:   -2.95 KCAL/MOL
REMARK 924 INTRA-LIGAND FREE ENERGY PREDICTED BY IDOCK:   -0.66 KCAL/MOL
REMARK 927      BINDING AFFINITY PREDICTED BY RF-SCORE:    0.00 PKD
ROOT
HETATM    1  C   UNL     1     -12.275  10.393  71.110  1.00  0.00    -0.394 C  
HETATM    2  N   UNL     1     -11.020   9.776  70.717  1.00  0.00    -0.315 NA 
HETATM    3  C   UNL     1     -10.295  10.319  69.575  1.00  0.00    -0.242 C  
ENDROOT
BRANCH   2   4
HETATM    4  N   UNL     1     -10.351   9.151  71.738  1.00  0.00    -0.331 NA 
HETATM    5  H   UNL     1     -10.671   9.166  72.707  1.00  0.00     0.000 HD 
BRANCH   4   6
HETATM    6  N   UNL     1      -9.314   8.561  71.373  1.00  0.00    -0.189 NA 
HETATM    7  H   UNL     1      -8.438   9.055  71.200  1.00  0.00     0.000 HD 
BRANCH   6   8
HETATM    8  C   UNL     1      -9.430   7.217  71.222  1.00  0.00    -0.155 A  
HETATM    9  C   UNL     1      -9.539   6.162  72.113  1.00  0.00    -0.150 A  
HETATM   10  N   UNL     1      -9.620   4.947  71.430  1.00  0.00    -0.158 NA 
HETATM   11  N   UNL     1      -9.430   6.611  69.987  1.00  0.00    -0.157 NA 
HETATM   12  C   UNL     1      -9.553   5.264  70.159  1.00  0.00    -0.178 A  
HETATM   13  H   UNL     1      -9.712   4.014  71.833  1.00  0.00     0.000 HD 
BRANCH   9  14
HETATM   14  C   UNL     1      -9.575   6.240  73.572  1.00  0.00    -0.149 C  
HETATM   15  N   UNL     1     -10.377   7.243  74.042  1.00  0.00    -0.406 N  
HETATM   16  H2  UNL     1     -10.899   7.873  73.434  1.00  0.00     0.000 HD 
HETATM   17  H1  UNL     1     -10.403   7.298  75.060  1.00  0.00     0.000 HD 
HETATM   18  O   UNL     1      -8.961   5.503  74.336  1.00  0.00    -0.120 OA 
ENDBRANCH   9  14
ENDBRANCH   6   8
ENDBRANCH   4   6
ENDBRANCH   2   4
TORSDOF 4
ENDMDL
MODEL      226
REMARK 921   NORMALIZED FREE ENERGY PREDICTED BY IDOCK:   -2.56 KCAL/MOL
REMARK 922        TOTAL FREE ENERGY PREDICTED BY IDOCK:   -3.59 KCAL/MOL
REMARK 923 INTER-LIGAND FREE ENERGY PREDICTED BY IDOCK:   -3.12 KCAL/MOL
REMARK 924 INTRA-LIGAND FREE ENERGY PREDICTED BY IDOCK:   -0.48 KCAL/MOL
REMARK 927      BINDING AFFINITY PREDICTED BY RF-SCORE:    0.00 PKD
ROOT
HETATM    1  C   UNL     1      -7.566  11.776  67.004  1.00  0.00    -0.147 C  
HETATM    2  N   UNL     1      -7.634  10.845  68.116  1.00  0.00    -0.090 NA 
HETATM    3  C   UNL     1      -6.751  11.046  69.259  1.00  0.00    -0.099 C  
ENDROOT
BRANCH   2   4
HETATM    4  N   UNL     1      -8.854  10.236  68.273  1.00  0.00    -0.123 NA 
HETATM    5  H   UNL     1      -8.968   9.322  68.711  1.00  0.00     0.000 HD 
BRANCH   4   6
HETATM    6  N   UNL     1      -9.810  10.904  67.831  1.00  0.00    -0.169 NA 
HETATM    7  H   UNL     1      -9.955  11.054  66.832  1.00  0.00     0.000 HD 
BRANCH   6   8
HETATM    8  C   UNL     1     -10.645  11.418  68.769  1.00  0.00    -0.204 A  
HETATM    9  C   UNL     1     -11.283  10.881  69.876  1.00  0.00    -0.282 A  
HETATM   10  N   UNL     1     -12.058  11.851  70.516  1.00  0.00    -0.430 NA 
HETATM   11  N   UNL     1     -11.068  12.727  68.745  1.00  0.00    -0.249 NA 
HETATM   12  C   UNL     1     -11.898  12.941  69.805  1.00  0.00    -0.310 A  
HETATM   13  H   UNL     1     -12.627  11.735  71.354  1.00  0.00     0.000 HD 
BRANCH   9  14
HETATM   14  C   UNL     1     -11.194   9.507  70.364  1.00  0.00    -0.270 C  
HETATM   15  N   UNL     1     -11.273   8.572  69.370  1.00  0.00    -0.431 N  
HETATM   16  H2  UNL     1     -11.383   8.810  68.385  1.00  0.00     0.000 HD 
HETATM   17  H1  UNL     1     -11.211   7.613  69.710  1.00  0.00     0.000 HD 
HETATM   18  O   UNL     1     -11.065   9.180  71.540  1.00  0.00    -0.313 OA 
ENDBRANCH   9  14
ENDBRANCH   6   8
ENDBRANCH   4   6
ENDBRANCH   2   4
TORSDOF 4
ENDMDL
MODEL      227
REMARK 921   NORMALIZED FREE ENERGY PREDICTED BY IDOCK:   -2.55 KCAL/MOL
REMARK 922        TOTAL FREE ENERGY PREDICTED BY IDOCK:   -3.59 KCAL/MOL
REMARK 923 INTER-LIGAND FREE ENERGY PREDICTED BY IDOCK:   -3.11 KCAL/MOL
REMARK 924 INTRA-LIGAND FREE ENERGY PREDICTED BY IDOCK:   -0.48 KCAL/MOL
REMARK 927      BINDING AFFINITY PREDICTED BY RF-SCORE:    0.00 PKD
ROOT
HETATM    1  C   UNL     1      -9.763  11.107  67.826  1.00  0.00    -0.171 C  
HETATM    2  N   UNL     1     -10.445  11.132  69.108  1.00  0.00    -0.207 NA 
HETATM    3  C   UNL     1     -11.807  11.651  69.173  1.00  0.00    -0.326 C  
ENDROOT
BRANCH   2   4
HETATM    4  N   UNL     1     -10.016  10.180  69.998  1.00  0.00    -0.396 NA 
HETATM    5  H   UNL     1      -9.328  10.369  70.727  1.00  0.00     0.000 HD 
BRANCH   4   6
HETATM    6  N   UNL     1     -10.545   9.063  69.833  1.00  0.00    -0.223 NA 
HETATM    7  H   UNL     1     -10.942   8.774  68.939  1.00  0.00     0.000 HD 
BRANCH   6   8
HETATM    8  C   UNL     1     -10.557   8.257  70.926  1.00  0.00    -0.207 A  
HETATM    9  C   UNL     1     -10.075   6.982  71.176  1.00  0.00    -0.187 A  
HETATM   10  N   UNL     1     -10.364   6.596  72.487  1.00  0.00    -0.191 NA 
HETATM   11  N   UNL     1     -11.157   8.624  72.108  1.00  0.00    -0.362 NA 
HETATM   12  C   UNL     1     -11.011   7.611  73.008  1.00  0.00    -0.400 A  
HETATM   13  H   UNL     1     -10.123   5.715  72.941  1.00  0.00     0.000 HD 
BRANCH   9  14
HETATM   14  C   UNL     1      -9.355   6.113  70.248  1.00  0.00    -0.160 C  
HETATM   15  N   UNL     1      -8.478   6.787  69.444  1.00  0.00    -0.131 N  
HETATM   16  H2  UNL     1      -8.341   7.796  69.487  1.00  0.00     0.000 HD 
HETATM   17  H1  UNL     1      -7.975   6.181  68.796  1.00  0.00     0.000 HD 
HETATM   18  O   UNL     1      -9.493   4.897  70.164  1.00  0.00    -0.144 OA 
ENDBRANCH   9  14
ENDBRANCH   6   8
ENDBRANCH   4   6
ENDBRANCH   2   4
TORSDOF 4
ENDMDL
MODEL      228
REMARK 921   NORMALIZED FREE ENERGY PREDICTED BY IDOCK:   -2.55 KCAL/MOL
REMARK 922        TOTAL FREE ENERGY PREDICTED BY IDOCK:   -3.59 KCAL/MOL
REMARK 923 INTER-LIGAND FREE ENERGY PREDICTED BY IDOCK:   -3.25 KCAL/MOL
REMARK 924 INTRA-LIGAND FREE ENERGY PREDICTED BY IDOCK:   -0.33 KCAL/MOL
REMARK 927      BINDING AFFINITY PREDICTED BY RF-SCORE:    0.00 PKD
ROOT
HETATM    1  C   UNL     1     -10.506  12.734  64.532  1.00  0.00    -0.368 C  
HETATM    2  N   UNL     1     -10.623  13.996  65.240  1.00  0.00    -0.341 NA 
HETATM    3  C   UNL     1     -11.422  15.064  64.652  1.00  0.00    -0.381 C  
ENDROOT
BRANCH   2   4
HETATM    4  N   UNL     1     -10.480  13.898  66.601  1.00  0.00    -0.270 NA 
HETATM    5  H   UNL     1     -11.068  14.408  67.262  1.00  0.00     0.000 HD 
BRANCH   4   6
HETATM    6  N   UNL     1      -9.565  13.129  66.957  1.00  0.00    -0.234 NA 
HETATM    7  H   UNL     1      -9.520  12.156  66.652  1.00  0.00     0.000 HD 
BRANCH   6   8
HETATM    8  C   UNL     1      -8.632  13.674  67.779  1.00  0.00    -0.182 A  
HETATM    9  C   UNL     1      -8.685  14.626  68.784  1.00  0.00    -0.166 A  
HETATM   10  N   UNL     1      -7.415  14.845  69.322  1.00  0.00    -0.168 NA 
HETATM   11  N   UNL     1      -7.300  13.338  67.709  1.00  0.00    -0.130 NA 
HETATM   12  C   UNL     1      -6.617  14.051  68.649  1.00  0.00    -0.093 A  
HETATM   13  H   UNL     1      -7.163  15.485  70.074  1.00  0.00     0.000 HD 
BRANCH   9  14
HETATM   14  C   UNL     1      -9.869  15.333  69.267  1.00  0.00    -0.255 C  
HETATM   15  N   UNL     1     -10.872  14.498  69.673  1.00  0.00    -0.401 N  
HETATM   16  H2  UNL     1     -10.801  13.481  69.642  1.00  0.00     0.000 HD 
HETATM   17  H1  UNL     1     -11.698  14.991  70.010  1.00  0.00     0.000 HD 
HETATM   18  O   UNL     1      -9.994  16.552  69.318  1.00  0.00    -0.263 OA 
ENDBRANCH   9  14
ENDBRANCH   6   8
ENDBRANCH   4   6
ENDBRANCH   2   4
TORSDOF 4
ENDMDL
MODEL      229
REMARK 921   NORMALIZED FREE ENERGY PREDICTED BY IDOCK:   -2.54 KCAL/MOL
REMARK 922        TOTAL FREE ENERGY PREDICTED BY IDOCK:   -3.58 KCAL/MOL
REMARK 923 INTER-LIGAND FREE ENERGY PREDICTED BY IDOCK:   -4.25 KCAL/MOL
REMARK 924 INTRA-LIGAND FREE ENERGY PREDICTED BY IDOCK:    0.68 KCAL/MOL
REMARK 927      BINDING AFFINITY PREDICTED BY RF-SCORE:    0.00 PKD
ROOT
HETATM    1  C   UNL     1     -11.850  12.155  65.468  1.00  0.00    -0.286 C  
HETATM    2  N   UNL     1     -12.189  13.566  65.426  1.00  0.00    -0.418 NA 
HETATM    3  C   UNL     1     -12.431  14.196  64.133  1.00  0.00    -0.227 C  
ENDROOT
BRANCH   2   4
HETATM    4  N   UNL     1     -12.804  14.036  66.559  1.00  0.00    -0.363 NA 
HETATM    5  H   UNL     1     -13.815  14.003  66.700  1.00  0.00     0.000 HD 
BRANCH   4   6
HETATM    6  N   UNL     1     -12.015  14.507  67.402  1.00  0.00    -0.526 NA 
HETATM    7  H   UNL     1     -12.255  14.584  68.390  1.00  0.00     0.000 HD 
BRANCH   6   8
HETATM    8  C   UNL     1     -10.815  14.911  66.914  1.00  0.00    -0.319 A  
HETATM    9  C   UNL     1      -9.561  14.322  66.854  1.00  0.00    -0.262 A  
HETATM   10  N   UNL     1      -8.642  15.183  66.251  1.00  0.00    -0.439 NA 
HETATM   11  N   UNL     1     -10.626  16.152  66.350  1.00  0.00    -0.297 NA 
HETATM   12  C   UNL     1      -9.324  16.266  65.963  1.00  0.00    -0.326 A  
HETATM   13  H   UNL     1      -7.653  15.007  66.073  1.00  0.00     0.000 HD 
BRANCH   9  14
HETATM   14  C   UNL     1      -9.189  12.992  67.330  1.00  0.00    -0.213 C  
HETATM   15  N   UNL     1      -7.947  12.596  66.917  1.00  0.00    -0.387 N  
HETATM   16  H2  UNL     1      -7.341  13.172  66.335  1.00  0.00     0.000 HD 
HETATM   17  H1  UNL     1      -7.687  11.668  67.249  1.00  0.00     0.000 HD 
HETATM   18  O   UNL     1      -9.890  12.268  68.029  1.00  0.00    -0.192 OA 
ENDBRANCH   9  14
ENDBRANCH   6   8
ENDBRANCH   4   6
ENDBRANCH   2   4
TORSDOF 4
ENDMDL
MODEL      230
REMARK 921   NORMALIZED FREE ENERGY PREDICTED BY IDOCK:   -2.53 KCAL/MOL
REMARK 922        TOTAL FREE ENERGY PREDICTED BY IDOCK:   -3.57 KCAL/MOL
REMARK 923 INTER-LIGAND FREE ENERGY PREDICTED BY IDOCK:   -3.19 KCAL/MOL
REMARK 924 INTRA-LIGAND FREE ENERGY PREDICTED BY IDOCK:   -0.38 KCAL/MOL
REMARK 927      BINDING AFFINITY PREDICTED BY RF-SCORE:    0.00 PKD
ROOT
HETATM    1  C   UNL     1      -5.241  18.754  69.636  1.00  0.00    -0.193 C  
HETATM    2  N   UNL     1      -6.650  19.060  69.468  1.00  0.00    -0.278 NA 
HETATM    3  C   UNL     1      -7.242  20.126  70.267  1.00  0.00     0.444 C  
ENDROOT
BRANCH   2   4
HETATM    4  N   UNL     1      -7.153  18.754  68.228  1.00  0.00    -0.249 NA 
HETATM    5  H   UNL     1      -6.601  18.301  67.499  1.00  0.00     0.000 HD 
BRANCH   4   6
HETATM    6  N   UNL     1      -8.347  19.081  68.074  1.00  0.00    -0.291 NA 
HETATM    7  H   UNL     1      -8.636  20.054  67.966  1.00  0.00     0.000 HD 
BRANCH   6   8
HETATM    8  C   UNL     1      -9.235  18.055  68.062  1.00  0.00    -0.272 A  
HETATM    9  C   UNL     1     -10.282  17.709  67.222  1.00  0.00    -0.343 A  
HETATM   10  N   UNL     1     -10.905  16.542  67.668  1.00  0.00    -0.306 NA 
HETATM   11  N   UNL     1      -9.252  17.082  69.033  1.00  0.00    -0.207 NA 
HETATM   12  C   UNL     1     -10.254  16.200  68.754  1.00  0.00    -0.238 A  
HETATM   13  H   UNL     1     -11.695  16.059  67.241  1.00  0.00     0.000 HD 
BRANCH   9  14
HETATM   14  C   UNL     1     -10.720  18.417  66.021  1.00  0.00    -0.185 C  
HETATM   15  N   UNL     1     -10.506  19.766  66.078  1.00  0.00    -0.515 N  
HETATM   16  H2  UNL     1     -10.083  20.232  66.880  1.00  0.00     0.000 HD 
HETATM   17  H1  UNL     1     -10.812  20.261  65.240  1.00  0.00     0.000 HD 
HETATM   18  O   UNL     1     -11.235  17.893  65.039  1.00  0.00    -0.556 OA 
ENDBRANCH   9  14
ENDBRANCH   6   8
ENDBRANCH   4   6
ENDBRANCH   2   4
TORSDOF 4
ENDMDL
MODEL      231
REMARK 921   NORMALIZED FREE ENERGY PREDICTED BY IDOCK:   -2.52 KCAL/MOL
REMARK 922        TOTAL FREE ENERGY PREDICTED BY IDOCK:   -3.55 KCAL/MOL
REMARK 923 INTER-LIGAND FREE ENERGY PREDICTED BY IDOCK:   -3.19 KCAL/MOL
REMARK 924 INTRA-LIGAND FREE ENERGY PREDICTED BY IDOCK:   -0.36 KCAL/MOL
REMARK 927      BINDING AFFINITY PREDICTED BY RF-SCORE:    0.00 PKD
ROOT
HETATM    1  C   UNL     1      -5.594  15.358  68.672  1.00  0.00    -0.093 C  
HETATM    2  N   UNL     1      -6.191  14.090  68.291  1.00  0.00    -0.103 NA 
HETATM    3  C   UNL     1      -6.526  13.126  69.332  1.00  0.00    -0.095 C  
ENDROOT
BRANCH   2   4
HETATM    4  N   UNL     1      -6.900  14.128  67.117  1.00  0.00    -0.388 NA 
HETATM    5  H   UNL     1      -6.460  14.075  66.197  1.00  0.00     0.000 HD 
BRANCH   4   6
HETATM    6  N   UNL     1      -8.133  14.232  67.277  1.00  0.00    -0.254 NA 
HETATM    7  H   UNL     1      -8.740  13.418  67.378  1.00  0.00     0.000 HD 
BRANCH   6   8
HETATM    8  C   UNL     1      -8.611  15.502  67.307  1.00  0.00    -0.193 A  
HETATM    9  C   UNL     1      -9.540  16.153  68.103  1.00  0.00    -0.217 A  
HETATM   10  N   UNL     1      -9.683  17.484  67.703  1.00  0.00    -0.269 NA 
HETATM   11  N   UNL     1      -8.211  16.463  66.408  1.00  0.00    -0.311 NA 
HETATM   12  C   UNL     1      -8.867  17.625  66.686  1.00  0.00    -0.263 A  
HETATM   13  H   UNL     1     -10.292  18.192  68.113  1.00  0.00     0.000 HD 
BRANCH   9  14
HETATM   14  C   UNL     1     -10.293  15.589  69.220  1.00  0.00    -0.252 C  
HETATM   15  N   UNL     1     -10.312  14.222  69.228  1.00  0.00    -0.419 N  
HETATM   16  H2  UNL     1      -9.846  13.653  68.522  1.00  0.00     0.000 HD 
HETATM   17  H1  UNL     1     -10.838  13.829  70.008  1.00  0.00     0.000 HD 
HETATM   18  O   UNL     1     -10.869  16.240  70.087  1.00  0.00    -0.334 OA 
ENDBRANCH   9  14
ENDBRANCH   6   8
ENDBRANCH   4   6
ENDBRANCH   2   4
TORSDOF 4
ENDMDL
MODEL      232
REMARK 921   NORMALIZED FREE ENERGY PREDICTED BY IDOCK:   -2.51 KCAL/MOL
REMARK 922        TOTAL FREE ENERGY PREDICTED BY IDOCK:   -3.54 KCAL/MOL
REMARK 923 INTER-LIGAND FREE ENERGY PREDICTED BY IDOCK:   -2.60 KCAL/MOL
REMARK 924 INTRA-LIGAND FREE ENERGY PREDICTED BY IDOCK:   -0.94 KCAL/MOL
REMARK 927      BINDING AFFINITY PREDICTED BY RF-SCORE:    0.00 PKD
ROOT
HETATM    1  C   UNL     1      -8.406   4.791  63.978  1.00  0.00    -0.124 C  
HETATM    2  N   UNL     1      -9.144   3.602  64.362  1.00  0.00    -0.123 NA 
HETATM    3  C   UNL     1      -9.801   2.813  63.326  1.00  0.00    -0.106 C  
ENDROOT
BRANCH   2   4
HETATM    4  N   UNL     1      -8.704   3.009  65.519  1.00  0.00    -0.118 NA 
HETATM    5  H   UNL     1      -7.740   2.704  65.657  1.00  0.00     0.000 HD 
BRANCH   4   6
HETATM    6  N   UNL     1      -9.591   2.878  66.386  1.00  0.00    -0.399 NA 
HETATM    7  H   UNL     1     -10.325   2.174  66.313  1.00  0.00     0.000 HD 
BRANCH   6   8
HETATM    8  C   UNL     1      -9.512   3.738  67.434  1.00  0.00    -0.196 A  
HETATM    9  C   UNL     1     -10.074   4.977  67.696  1.00  0.00    -0.140 A  
HETATM   10  N   UNL     1      -9.655   5.454  68.940  1.00  0.00    -0.132 NA 
HETATM   11  N   UNL     1      -8.730   3.487  68.537  1.00  0.00    -0.093 NA 
HETATM   12  C   UNL     1      -8.852   4.528  69.408  1.00  0.00    -0.089 A  
HETATM   13  H   UNL     1      -9.915   6.333  69.386  1.00  0.00     0.000 HD 
BRANCH   9  14
HETATM   14  C   UNL     1     -10.989   5.729  66.840  1.00  0.00    -0.153 C  
HETATM   15  N   UNL     1     -11.484   4.996  65.798  1.00  0.00    -0.621 N  
HETATM   16  H2  UNL     1     -11.239   4.020  65.634  1.00  0.00     0.000 HD 
HETATM   17  H1  UNL     1     -12.122   5.521  65.201  1.00  0.00     0.000 HD 
HETATM   18  O   UNL     1     -11.306   6.903  67.002  1.00  0.00    -0.304 OA 
ENDBRANCH   9  14
ENDBRANCH   6   8
ENDBRANCH   4   6
ENDBRANCH   2   4
TORSDOF 4
ENDMDL
MODEL      233
REMARK 921   NORMALIZED FREE ENERGY PREDICTED BY IDOCK:   -2.48 KCAL/MOL
REMARK 922        TOTAL FREE ENERGY PREDICTED BY IDOCK:   -3.50 KCAL/MOL
REMARK 923 INTER-LIGAND FREE ENERGY PREDICTED BY IDOCK:   -2.57 KCAL/MOL
REMARK 924 INTRA-LIGAND FREE ENERGY PREDICTED BY IDOCK:   -0.93 KCAL/MOL
REMARK 927      BINDING AFFINITY PREDICTED BY RF-SCORE:    0.00 PKD
ROOT
HETATM    1  C   UNL     1      -7.914   3.850  74.033  1.00  0.00    -0.083 C  
HETATM    2  N   UNL     1      -8.626   4.176  72.810  1.00  0.00    -0.100 NA 
HETATM    3  C   UNL     1      -8.524   3.272  71.671  1.00  0.00    -0.065 C  
ENDROOT
BRANCH   2   4
HETATM    4  N   UNL     1      -9.747   4.945  72.994  1.00  0.00    -0.142 NA 
HETATM    5  H   UNL     1      -9.866   5.577  73.787  1.00  0.00     0.000 HD 
BRANCH   4   6
HETATM    6  N   UNL     1     -10.608   4.801  72.103  1.00  0.00    -0.174 NA 
HETATM    7  H   UNL     1     -10.868   3.885  71.739  1.00  0.00     0.000 HD 
BRANCH   6   8
HETATM    8  C   UNL     1     -11.175   5.948  71.650  1.00  0.00    -0.237 A  
HETATM    9  C   UNL     1     -10.761   6.935  70.769  1.00  0.00    -0.233 A  
HETATM   10  N   UNL     1     -11.732   7.932  70.655  1.00  0.00    -0.439 NA 
HETATM   11  N   UNL     1     -12.408   6.382  72.080  1.00  0.00    -0.303 NA 
HETATM   12  C   UNL     1     -12.702   7.558  71.456  1.00  0.00    -0.359 A  
HETATM   13  H   UNL     1     -11.695   8.770  70.075  1.00  0.00     0.000 HD 
BRANCH   9  14
HETATM   14  C   UNL     1      -9.504   6.982  70.026  1.00  0.00    -0.161 C  
HETATM   15  N   UNL     1      -8.410   6.683  70.790  1.00  0.00    -0.128 N  
HETATM   16  H2  UNL     1      -8.467   6.450  71.781  1.00  0.00     0.000 HD 
HETATM   17  H1  UNL     1      -7.533   6.717  70.272  1.00  0.00     0.000 HD 
HETATM   18  O   UNL     1      -9.395   7.261  68.836  1.00  0.00    -0.145 OA 
ENDBRANCH   9  14
ENDBRANCH   6   8
ENDBRANCH   4   6
ENDBRANCH   2   4
TORSDOF 4
ENDMDL
MODEL      234
REMARK 921   NORMALIZED FREE ENERGY PREDICTED BY IDOCK:   -2.47 KCAL/MOL
REMARK 922        TOTAL FREE ENERGY PREDICTED BY IDOCK:   -3.48 KCAL/MOL
REMARK 923 INTER-LIGAND FREE ENERGY PREDICTED BY IDOCK:   -3.46 KCAL/MOL
REMARK 924 INTRA-LIGAND FREE ENERGY PREDICTED BY IDOCK:   -0.02 KCAL/MOL
REMARK 927      BINDING AFFINITY PREDICTED BY RF-SCORE:    0.00 PKD
ROOT
HETATM    1  C   UNL     1     -10.679   6.519  68.150  1.00  0.00    -0.282 C  
HETATM    2  N   UNL     1      -9.845   6.276  66.987  1.00  0.00    -0.141 NA 
HETATM    3  C   UNL     1      -9.814   4.937  66.409  1.00  0.00    -0.209 C  
ENDROOT
BRANCH   2   4
HETATM    4  N   UNL     1      -9.624   7.381  66.205  1.00  0.00    -0.411 NA 
HETATM    5  H   UNL     1      -8.968   7.390  65.424  1.00  0.00     0.000 HD 
BRANCH   4   6
HETATM    6  N   UNL     1     -10.301   8.375  66.537  1.00  0.00    -0.399 NA 
HETATM    7  H   UNL     1     -11.178   8.291  67.050  1.00  0.00     0.000 HD 
BRANCH   6   8
HETATM    8  C   UNL     1      -9.790   9.577  66.168  1.00  0.00    -0.272 A  
HETATM    9  C   UNL     1      -9.163  10.036  65.020  1.00  0.00    -0.225 A  
HETATM   10  N   UNL     1      -8.811  11.381  65.156  1.00  0.00    -0.394 NA 
HETATM   11  N   UNL     1      -9.791  10.669  67.005  1.00  0.00    -0.180 NA 
HETATM   12  C   UNL     1      -9.208  11.718  66.359  1.00  0.00    -0.217 A  
HETATM   13  H   UNL     1      -8.345  11.972  64.468  1.00  0.00     0.000 HD 
BRANCH   9  14
HETATM   14  C   UNL     1      -8.885   9.276  63.803  1.00  0.00    -0.118 C  
HETATM   15  N   UNL     1      -8.260   8.083  64.039  1.00  0.00    -0.335 N  
HETATM   16  H2  UNL     1      -8.013   7.756  64.972  1.00  0.00     0.000 HD 
HETATM   17  H1  UNL     1      -8.066   7.553  63.190  1.00  0.00     0.000 HD 
HETATM   18  O   UNL     1      -9.165   9.636  62.664  1.00  0.00    -0.278 OA 
ENDBRANCH   9  14
ENDBRANCH   6   8
ENDBRANCH   4   6
ENDBRANCH   2   4
TORSDOF 4
ENDMDL
MODEL      235
REMARK 921   NORMALIZED FREE ENERGY PREDICTED BY IDOCK:   -2.46 KCAL/MOL
REMARK 922        TOTAL FREE ENERGY PREDICTED BY IDOCK:   -3.48 KCAL/MOL
REMARK 923 INTER-LIGAND FREE ENERGY PREDICTED BY IDOCK:   -3.21 KCAL/MOL
REMARK 924 INTRA-LIGAND FREE ENERGY PREDICTED BY IDOCK:   -0.27 KCAL/MOL
REMARK 927      BINDING AFFINITY PREDICTED BY RF-SCORE:    0.00 PKD
ROOT
HETATM    1  C   UNL     1     -11.411  12.214  65.089  1.00  0.00    -0.323 C  
HETATM    2  N   UNL     1     -10.084  11.636  65.197  1.00  0.00    -0.252 NA 
HETATM    3  C   UNL     1      -9.539  10.901  64.062  1.00  0.00    -0.278 C  
ENDROOT
BRANCH   2   4
HETATM    4  N   UNL     1      -9.252  12.286  66.074  1.00  0.00    -0.411 NA 
HETATM    5  H   UNL     1      -9.527  13.124  66.587  1.00  0.00     0.000 HD 
BRANCH   4   6
HETATM    6  N   UNL     1      -8.127  11.758  66.185  1.00  0.00    -0.377 NA 
HETATM    7  H   UNL     1      -7.615  11.392  65.383  1.00  0.00     0.000 HD 
BRANCH   6   8
HETATM    8  C   UNL     1      -7.632  11.703  67.448  1.00  0.00    -0.139 A  
HETATM    9  C   UNL     1      -8.160  11.295  68.663  1.00  0.00    -0.145 A  
HETATM   10  N   UNL     1      -7.222  11.456  69.685  1.00  0.00    -0.354 NA 
HETATM   11  N   UNL     1      -6.363  12.130  67.763  1.00  0.00    -0.079 NA 
HETATM   12  C   UNL     1      -6.160  11.957  69.100  1.00  0.00    -0.078 A  
HETATM   13  H   UNL     1      -7.338  11.233  70.674  1.00  0.00     0.000 HD 
BRANCH   9  14
HETATM   14  C   UNL     1      -9.496  10.758  68.908  1.00  0.00    -0.181 C  
HETATM   15  N   UNL     1     -10.404  11.709  69.282  1.00  0.00    -0.431 N  
HETATM   16  H2  UNL     1     -10.170  12.697  69.381  1.00  0.00     0.000 HD 
HETATM   17  H1  UNL     1     -11.336  11.335  69.453  1.00  0.00     0.000 HD 
HETATM   18  O   UNL     1      -9.815   9.578  68.803  1.00  0.00    -0.161 OA 
ENDBRANCH   9  14
ENDBRANCH   6   8
ENDBRANCH   4   6
ENDBRANCH   2   4
TORSDOF 4
ENDMDL
MODEL      236
REMARK 921   NORMALIZED FREE ENERGY PREDICTED BY IDOCK:   -2.46 KCAL/MOL
REMARK 922        TOTAL FREE ENERGY PREDICTED BY IDOCK:   -3.47 KCAL/MOL
REMARK 923 INTER-LIGAND FREE ENERGY PREDICTED BY IDOCK:   -3.08 KCAL/MOL
REMARK 924 INTRA-LIGAND FREE ENERGY PREDICTED BY IDOCK:   -0.39 KCAL/MOL
REMARK 927      BINDING AFFINITY PREDICTED BY RF-SCORE:    0.00 PKD
ROOT
HETATM    1  C   UNL     1     -10.830  12.466  68.188  1.00  0.00    -0.221 C  
HETATM    2  N   UNL     1     -10.796  12.932  66.814  1.00  0.00    -0.264 NA 
HETATM    3  C   UNL     1     -11.639  12.273  65.823  1.00  0.00    -0.388 C  
ENDROOT
BRANCH   2   4
HETATM    4  N   UNL     1     -10.452  14.253  66.671  1.00  0.00    -0.275 NA 
HETATM    5  H   UNL     1     -11.122  15.017  66.762  1.00  0.00     0.000 HD 
BRANCH   4   6
HETATM    6  N   UNL     1      -9.244  14.433  66.420  1.00  0.00    -0.432 NA 
HETATM    7  H   UNL     1      -8.604  13.661  66.233  1.00  0.00     0.000 HD 
BRANCH   6   8
HETATM    8  C   UNL     1      -8.837  15.728  66.412  1.00  0.00    -0.336 A  
HETATM    9  C   UNL     1      -7.832  16.418  67.071  1.00  0.00    -0.212 A  
HETATM   10  N   UNL     1      -7.845  17.768  66.715  1.00  0.00    -0.220 NA 
HETATM   11  N   UNL     1      -9.468  16.696  65.664  1.00  0.00    -0.497 NA 
HETATM   12  C   UNL     1      -8.840  17.888  65.868  1.00  0.00     0.182 A  
HETATM   13  H   UNL     1      -7.217  18.501  67.042  1.00  0.00     0.000 HD 
BRANCH   9  14
HETATM   14  C   UNL     1      -6.859  15.869  68.013  1.00  0.00    -0.125 C  
HETATM   15  N   UNL     1      -6.441  16.774  68.950  1.00  0.00    -0.167 N  
HETATM   16  H2  UNL     1      -6.775  17.736  68.986  1.00  0.00     0.000 HD 
HETATM   17  H1  UNL     1      -5.762  16.391  69.607  1.00  0.00     0.000 HD 
HETATM   18  O   UNL     1      -6.431  14.720  68.000  1.00  0.00    -0.123 OA 
ENDBRANCH   9  14
ENDBRANCH   6   8
ENDBRANCH   4   6
ENDBRANCH   2   4
TORSDOF 4
ENDMDL
MODEL      237
REMARK 921   NORMALIZED FREE ENERGY PREDICTED BY IDOCK:   -2.46 KCAL/MOL
REMARK 922        TOTAL FREE ENERGY PREDICTED BY IDOCK:   -3.47 KCAL/MOL
REMARK 923 INTER-LIGAND FREE ENERGY PREDICTED BY IDOCK:   -3.09 KCAL/MOL
REMARK 924 INTRA-LIGAND FREE ENERGY PREDICTED BY IDOCK:   -0.38 KCAL/MOL
REMARK 927      BINDING AFFINITY PREDICTED BY RF-SCORE:    0.00 PKD
ROOT
HETATM    1  C   UNL     1     -10.657   6.850  68.277  1.00  0.00    -0.215 C  
HETATM    2  N   UNL     1      -9.311   6.901  68.819  1.00  0.00    -0.131 NA 
HETATM    3  C   UNL     1      -8.446   5.736  68.671  1.00  0.00    -0.107 C  
ENDROOT
BRANCH   2   4
HETATM    4  N   UNL     1      -8.777   8.163  68.896  1.00  0.00    -0.137 NA 
HETATM    5  H   UNL     1      -7.960   8.456  68.359  1.00  0.00     0.000 HD 
BRANCH   4   6
HETATM    6  N   UNL     1      -9.383   8.918  69.682  1.00  0.00    -0.160 NA 
HETATM    7  H   UNL     1      -9.958   9.696  69.357  1.00  0.00     0.000 HD 
BRANCH   6   8
HETATM    8  C   UNL     1      -9.226   8.634  71.000  1.00  0.00    -0.203 A  
HETATM    9  C   UNL     1     -10.094   8.601  72.080  1.00  0.00    -0.331 A  
HETATM   10  N   UNL     1      -9.413   8.256  73.249  1.00  0.00    -0.212 NA 
HETATM   11  N   UNL     1      -8.004   8.319  71.547  1.00  0.00    -0.112 NA 
HETATM   12  C   UNL     1      -8.164   8.094  72.882  1.00  0.00    -0.175 A  
HETATM   13  H   UNL     1      -9.802   8.153  74.185  1.00  0.00     0.000 HD 
BRANCH   9  14
HETATM   14  C   UNL     1     -11.530   8.873  72.065  1.00  0.00    -0.361 C  
HETATM   15  N   UNL     1     -12.251   8.023  72.857  1.00  0.00    -0.598 N  
HETATM   16  H2  UNL     1     -11.828   7.273  73.403  1.00  0.00     0.000 HD 
HETATM   17  H1  UNL     1     -13.253   8.212  72.847  1.00  0.00     0.000 HD 
HETATM   18  O   UNL     1     -12.076   9.762  71.419  1.00  0.00    -0.345 OA 
ENDBRANCH   9  14
ENDBRANCH   6   8
ENDBRANCH   4   6
ENDBRANCH   2   4
TORSDOF 4
ENDMDL
MODEL      238
REMARK 921   NORMALIZED FREE ENERGY PREDICTED BY IDOCK:   -2.45 KCAL/MOL
REMARK 922        TOTAL FREE ENERGY PREDICTED BY IDOCK:   -3.46 KCAL/MOL
REMARK 923 INTER-LIGAND FREE ENERGY PREDICTED BY IDOCK:   -3.23 KCAL/MOL
REMARK 924 INTRA-LIGAND FREE ENERGY PREDICTED BY IDOCK:   -0.23 KCAL/MOL
REMARK 927      BINDING AFFINITY PREDICTED BY RF-SCORE:    0.00 PKD
ROOT
HETATM    1  C   UNL     1      -7.926   9.412  70.239  1.00  0.00    -0.161 C  
HETATM    2  N   UNL     1      -7.287   8.110  70.314  1.00  0.00    -0.059 NA 
HETATM    3  C   UNL     1      -6.705   7.681  71.580  1.00  0.00    -0.045 C  
ENDROOT
BRANCH   2   4
HETATM    4  N   UNL     1      -7.768   7.189  69.417  1.00  0.00    -0.105 NA 
HETATM    5  H   UNL     1      -7.624   7.264  68.410  1.00  0.00     0.000 HD 
BRANCH   4   6
HETATM    6  N   UNL     1      -8.398   6.253  69.948  1.00  0.00    -0.127 NA 
HETATM    7  H   UNL     1      -7.944   5.388  70.243  1.00  0.00     0.000 HD 
BRANCH   6   8
HETATM    8  C   UNL     1      -9.730   6.461  70.105  1.00  0.00    -0.166 A  
HETATM    9  C   UNL     1     -10.804   6.473  69.229  1.00  0.00    -0.307 A  
HETATM   10  N   UNL     1     -11.990   6.758  69.909  1.00  0.00    -0.659 NA 
HETATM   11  N   UNL     1     -10.291   6.764  71.324  1.00  0.00    -0.203 NA 
HETATM   12  C   UNL     1     -11.636   6.923  71.161  1.00  0.00    -0.319 A  
HETATM   13  H   UNL     1     -12.929   6.825  69.517  1.00  0.00     0.000 HD 
BRANCH   9  14
HETATM   14  C   UNL     1     -10.771   6.225  67.790  1.00  0.00    -0.306 C  
HETATM   15  N   UNL     1     -11.078   7.327  67.041  1.00  0.00    -0.576 N  
HETATM   16  H2  UNL     1     -11.307   8.233  67.448  1.00  0.00     0.000 HD 
HETATM   17  H1  UNL     1     -11.055   7.154  66.037  1.00  0.00     0.000 HD 
HETATM   18  O   UNL     1     -10.503   5.150  67.263  1.00  0.00    -0.196 OA 
ENDBRANCH   9  14
ENDBRANCH   6   8
ENDBRANCH   4   6
ENDBRANCH   2   4
TORSDOF 4
ENDMDL
MODEL      239
REMARK 921   NORMALIZED FREE ENERGY PREDICTED BY IDOCK:   -2.44 KCAL/MOL
REMARK 922        TOTAL FREE ENERGY PREDICTED BY IDOCK:   -3.45 KCAL/MOL
REMARK 923 INTER-LIGAND FREE ENERGY PREDICTED BY IDOCK:   -2.58 KCAL/MOL
REMARK 924 INTRA-LIGAND FREE ENERGY PREDICTED BY IDOCK:   -0.87 KCAL/MOL
REMARK 927      BINDING AFFINITY PREDICTED BY RF-SCORE:    0.00 PKD
ROOT
HETATM    1  C   UNL     1      -6.023   3.578  66.945  1.00  0.00    -0.024 C  
HETATM    2  N   UNL     1      -7.293   2.919  67.194  1.00  0.00    -0.061 NA 
HETATM    3  C   UNL     1      -7.387   1.476  67.012  1.00  0.00    -0.054 C  
ENDROOT
BRANCH   2   4
HETATM    4  N   UNL     1      -8.099   3.565  68.098  1.00  0.00    -0.078 NA 
HETATM    5  H   UNL     1      -7.735   4.151  68.850  1.00  0.00     0.000 HD 
BRANCH   4   6
HETATM    6  N   UNL     1      -9.317   3.369  67.915  1.00  0.00    -0.190 NA 
HETATM    7  H   UNL     1      -9.760   2.471  68.111  1.00  0.00     0.000 HD 
BRANCH   6   8
HETATM    8  C   UNL     1     -10.013   4.432  67.437  1.00  0.00    -0.094 A  
HETATM    9  C   UNL     1     -10.479   4.779  66.179  1.00  0.00    -0.290 A  
HETATM   10  N   UNL     1     -11.139   6.010  66.222  1.00  0.00    -0.672 NA 
HETATM   11  N   UNL     1     -10.388   5.488  68.235  1.00  0.00    -0.184 NA 
HETATM   12  C   UNL     1     -11.062   6.396  67.473  1.00  0.00    -0.306 A  
HETATM   13  H   UNL     1     -11.583   6.501  65.447  1.00  0.00     0.000 HD 
BRANCH   9  14
HETATM   14  C   UNL     1     -10.341   4.011  64.944  1.00  0.00    -0.183 C  
HETATM   15  N   UNL     1      -9.069   3.563  64.723  1.00  0.00    -0.128 N  
HETATM   16  H2  UNL     1      -8.293   3.747  65.358  1.00  0.00     0.000 HD 
HETATM   17  H1  UNL     1      -8.972   3.026  63.861  1.00  0.00     0.000 HD 
HETATM   18  O   UNL     1     -11.249   3.770  64.155  1.00  0.00    -0.317 OA 
ENDBRANCH   9  14
ENDBRANCH   6   8
ENDBRANCH   4   6
ENDBRANCH   2   4
TORSDOF 4
ENDMDL
MODEL      240
REMARK 921   NORMALIZED FREE ENERGY PREDICTED BY IDOCK:   -2.43 KCAL/MOL
REMARK 922        TOTAL FREE ENERGY PREDICTED BY IDOCK:   -3.43 KCAL/MOL
REMARK 923 INTER-LIGAND FREE ENERGY PREDICTED BY IDOCK:   -2.94 KCAL/MOL
REMARK 924 INTRA-LIGAND FREE ENERGY PREDICTED BY IDOCK:   -0.50 KCAL/MOL
REMARK 927      BINDING AFFINITY PREDICTED BY RF-SCORE:    0.00 PKD
ROOT
HETATM    1  C   UNL     1      -9.235   9.891  67.249  1.00  0.00    -0.138 C  
HETATM    2  N   UNL     1      -9.568  10.171  68.634  1.00  0.00    -0.157 NA 
HETATM    3  C   UNL     1      -9.572   9.073  69.594  1.00  0.00    -0.171 C  
ENDROOT
BRANCH   2   4
HETATM    4  N   UNL     1      -9.290  11.452  69.037  1.00  0.00    -0.407 NA 
HETATM    5  H   UNL     1      -8.955  11.682  69.973  1.00  0.00     0.000 HD 
BRANCH   4   6
HETATM    6  N   UNL     1      -9.483  12.311  68.153  1.00  0.00    -0.209 NA 
HETATM    7  H   UNL     1      -9.013  12.278  67.249  1.00  0.00     0.000 HD 
BRANCH   6   8
HETATM    8  C   UNL     1     -10.363  13.292  68.477  1.00  0.00    -0.239 A  
HETATM    9  C   UNL     1     -10.270  14.673  68.546  1.00  0.00    -0.240 A  
HETATM   10  N   UNL     1     -11.485  15.229  68.953  1.00  0.00    -0.312 NA 
HETATM   11  N   UNL     1     -11.655  13.026  68.870  1.00  0.00    -0.290 NA 
HETATM   12  C   UNL     1     -12.286  14.205  69.134  1.00  0.00    -0.255 A  
HETATM   13  H   UNL     1     -11.702  16.216  69.083  1.00  0.00     0.000 HD 
BRANCH   9  14
HETATM   14  C   UNL     1      -9.100  15.494  68.243  1.00  0.00    -0.186 C  
HETATM   15  N   UNL     1      -7.924  14.938  68.662  1.00  0.00    -0.136 N  
HETATM   16  H2  UNL     1      -7.868  14.039  69.139  1.00  0.00     0.000 HD 
HETATM   17  H1  UNL     1      -7.107  15.511  68.450  1.00  0.00     0.000 HD 
HETATM   18  O   UNL     1      -9.126  16.581  67.673  1.00  0.00    -0.198 OA 
ENDBRANCH   9  14
ENDBRANCH   6   8
ENDBRANCH   4   6
ENDBRANCH   2   4
TORSDOF 4
ENDMDL
MODEL      241
REMARK 921   NORMALIZED FREE ENERGY PREDICTED BY IDOCK:   -2.39 KCAL/MOL
REMARK 922        TOTAL FREE ENERGY PREDICTED BY IDOCK:   -3.38 KCAL/MOL
REMARK 923 INTER-LIGAND FREE ENERGY PREDICTED BY IDOCK:   -2.98 KCAL/MOL
REMARK 924 INTRA-LIGAND FREE ENERGY PREDICTED BY IDOCK:   -0.41 KCAL/MOL
REMARK 927      BINDING AFFINITY PREDICTED BY RF-SCORE:    0.00 PKD
ROOT
HETATM    1  C   UNL     1     -10.937  11.785  67.327  1.00  0.00    -0.267 C  
HETATM    2  N   UNL     1     -10.565  12.562  66.159  1.00  0.00    -0.249 NA 
HETATM    3  C   UNL     1     -11.224  12.288  64.888  1.00  0.00    -0.319 C  
ENDROOT
BRANCH   2   4
HETATM    4  N   UNL     1     -10.086  13.817  66.442  1.00  0.00    -0.287 NA 
HETATM    5  H   UNL     1     -10.689  14.634  66.542  1.00  0.00     0.000 HD 
BRANCH   4   6
HETATM    6  N   UNL     1      -8.846  13.866  66.566  1.00  0.00    -0.458 NA 
HETATM    7  H   UNL     1      -8.215  13.377  65.931  1.00  0.00     0.000 HD 
BRANCH   6   8
HETATM    8  C   UNL     1      -8.393  14.615  67.604  1.00  0.00    -0.177 A  
HETATM    9  C   UNL     1      -7.522  14.366  68.652  1.00  0.00    -0.126 A  
HETATM   10  N   UNL     1      -7.403  15.491  69.471  1.00  0.00    -0.211 NA 
HETATM   11  N   UNL     1      -8.811  15.908  67.819  1.00  0.00    -0.174 NA 
HETATM   12  C   UNL     1      -8.191  16.391  68.933  1.00  0.00    -0.235 A  
HETATM   13  H   UNL     1      -6.828  15.591  70.307  1.00  0.00     0.000 HD 
BRANCH   9  14
HETATM   14  C   UNL     1      -6.793  13.128  68.917  1.00  0.00    -0.103 C  
HETATM   15  N   UNL     1      -6.571  12.903  70.247  1.00  0.00    -0.310 N  
HETATM   16  H2  UNL     1      -6.883  13.537  70.982  1.00  0.00     0.000 HD 
HETATM   17  H1  UNL     1      -6.062  12.039  70.433  1.00  0.00     0.000 HD 
HETATM   18  O   UNL     1      -6.399  12.341  68.062  1.00  0.00    -0.060 OA 
ENDBRANCH   9  14
ENDBRANCH   6   8
ENDBRANCH   4   6
ENDBRANCH   2   4
TORSDOF 4
ENDMDL
MODEL      242
REMARK 921   NORMALIZED FREE ENERGY PREDICTED BY IDOCK:   -2.39 KCAL/MOL
REMARK 922        TOTAL FREE ENERGY PREDICTED BY IDOCK:   -3.38 KCAL/MOL
REMARK 923 INTER-LIGAND FREE ENERGY PREDICTED BY IDOCK:   -2.91 KCAL/MOL
REMARK 924 INTRA-LIGAND FREE ENERGY PREDICTED BY IDOCK:   -0.47 KCAL/MOL
REMARK 927      BINDING AFFINITY PREDICTED BY RF-SCORE:    0.00 PKD
ROOT
HETATM    1  C   UNL     1      -8.049   8.426  65.462  1.00  0.00    -0.129 C  
HETATM    2  N   UNL     1      -8.809   9.307  66.329  1.00  0.00    -0.140 NA 
HETATM    3  C   UNL     1      -9.942  10.039  65.774  1.00  0.00    -0.276 C  
ENDROOT
BRANCH   2   4
HETATM    4  N   UNL     1      -8.785   8.958  67.656  1.00  0.00    -0.124 NA 
HETATM    5  H   UNL     1      -7.931   8.690  68.146  1.00  0.00     0.000 HD 
BRANCH   4   6
HETATM    6  N   UNL     1      -9.903   8.998  68.207  1.00  0.00    -0.160 NA 
HETATM    7  H   UNL     1     -10.532   9.795  68.108  1.00  0.00     0.000 HD 
BRANCH   6   8
HETATM    8  C   UNL     1     -10.226   7.908  68.949  1.00  0.00    -0.205 A  
HETATM    9  C   UNL     1     -10.297   7.668  70.312  1.00  0.00    -0.214 A  
HETATM   10  N   UNL     1     -10.674   6.346  70.560  1.00  0.00    -0.240 NA 
HETATM   11  N   UNL     1     -10.550   6.698  68.381  1.00  0.00    -0.219 NA 
HETATM   12  C   UNL     1     -10.817   5.803  69.374  1.00  0.00    -0.323 A  
HETATM   13  H   UNL     1     -10.809   5.900  71.467  1.00  0.00     0.000 HD 
BRANCH   9  14
HETATM   14  C   UNL     1     -10.035   8.619  71.389  1.00  0.00    -0.254 C  
HETATM   15  N   UNL     1     -10.900   8.501  72.441  1.00  0.00    -0.345 N  
HETATM   16  H2  UNL     1     -11.655   7.816  72.470  1.00  0.00     0.000 HD 
HETATM   17  H1  UNL     1     -10.717   9.165  73.193  1.00  0.00     0.000 HD 
HETATM   18  O   UNL     1      -9.140   9.459  71.390  1.00  0.00    -0.285 OA 
ENDBRANCH   9  14
ENDBRANCH   6   8
ENDBRANCH   4   6
ENDBRANCH   2   4
TORSDOF 4
ENDMDL
MODEL      243
REMARK 921   NORMALIZED FREE ENERGY PREDICTED BY IDOCK:   -2.37 KCAL/MOL
REMARK 922        TOTAL FREE ENERGY PREDICTED BY IDOCK:   -3.37 KCAL/MOL
REMARK 923 INTER-LIGAND FREE ENERGY PREDICTED BY IDOCK:   -3.13 KCAL/MOL
REMARK 924 INTRA-LIGAND FREE ENERGY PREDICTED BY IDOCK:   -0.24 KCAL/MOL
REMARK 927      BINDING AFFINITY PREDICTED BY RF-SCORE:    0.00 PKD
ROOT
HETATM    1  C   UNL     1      -9.239   4.391  68.686  1.00  0.00    -0.135 C  
HETATM    2  N   UNL     1      -9.179   5.233  69.867  1.00  0.00    -0.132 NA 
HETATM    3  C   UNL     1      -8.201   6.313  69.914  1.00  0.00    -0.121 C  
ENDROOT
BRANCH   2   4
HETATM    4  N   UNL     1     -10.362   5.330  70.556  1.00  0.00    -0.268 NA 
HETATM    5  H   UNL     1     -11.214   5.716  70.149  1.00  0.00     0.000 HD 
BRANCH   4   6
HETATM    6  N   UNL     1     -10.299   4.901  71.726  1.00  0.00    -0.198 NA 
HETATM    7  H   UNL     1     -10.357   3.907  71.946  1.00  0.00     0.000 HD 
BRANCH   6   8
HETATM    8  C   UNL     1     -10.147   5.848  72.686  1.00  0.00    -0.179 A  
HETATM    9  C   UNL     1     -10.689   7.110  72.877  1.00  0.00    -0.302 A  
HETATM   10  N   UNL     1     -10.184   7.692  74.041  1.00  0.00    -0.274 NA 
HETATM   11  N   UNL     1      -9.290   5.690  73.751  1.00  0.00    -0.136 NA 
HETATM   12  C   UNL     1      -9.351   6.805  74.533  1.00  0.00    -0.218 A  
HETATM   13  H   UNL     1     -10.412   8.608  74.425  1.00  0.00     0.000 HD 
BRANCH   9  14
HETATM   14  C   UNL     1     -11.660   7.790  72.023  1.00  0.00    -0.300 C  
HETATM   15  N   UNL     1     -12.806   8.144  72.679  1.00  0.00    -0.586 N  
HETATM   16  H2  UNL     1     -12.967   7.951  73.667  1.00  0.00     0.000 HD 
HETATM   17  H1  UNL     1     -13.484   8.618  72.083  1.00  0.00     0.000 HD 
HETATM   18  O   UNL     1     -11.505   8.037  70.831  1.00  0.00    -0.276 OA 
ENDBRANCH   9  14
ENDBRANCH   6   8
ENDBRANCH   4   6
ENDBRANCH   2   4
TORSDOF 4
ENDMDL
MODEL      244
REMARK 921   NORMALIZED FREE ENERGY PREDICTED BY IDOCK:   -2.34 KCAL/MOL
REMARK 922        TOTAL FREE ENERGY PREDICTED BY IDOCK:   -3.33 KCAL/MOL
REMARK 923 INTER-LIGAND FREE ENERGY PREDICTED BY IDOCK:   -2.40 KCAL/MOL
REMARK 924 INTRA-LIGAND FREE ENERGY PREDICTED BY IDOCK:   -0.93 KCAL/MOL
REMARK 927      BINDING AFFINITY PREDICTED BY RF-SCORE:    0.00 PKD
ROOT
HETATM    1  C   UNL     1      -9.133   5.460  65.986  1.00  0.00    -0.154 C  
HETATM    2  N   UNL     1      -9.328   6.782  66.554  1.00  0.00    -0.165 NA 
HETATM    3  C   UNL     1     -10.661   7.167  67.005  1.00  0.00    -0.343 C  
ENDROOT
BRANCH   2   4
HETATM    4  N   UNL     1      -8.209   7.320  67.139  1.00  0.00    -0.117 NA 
HETATM    5  H   UNL     1      -8.076   7.366  68.149  1.00  0.00     0.000 HD 
BRANCH   4   6
HETATM    6  N   UNL     1      -7.370   7.746  66.321  1.00  0.00    -0.077 NA 
HETATM    7  H   UNL     1      -6.883   7.132  65.668  1.00  0.00     0.000 HD 
BRANCH   6   8
HETATM    8  C   UNL     1      -7.148   9.085  66.358  1.00  0.00    -0.080 A  
HETATM    9  C   UNL     1      -7.748  10.170  65.739  1.00  0.00    -0.136 A  
HETATM   10  N   UNL     1      -7.120  11.359  66.113  1.00  0.00    -0.368 NA 
HETATM   11  N   UNL     1      -6.133   9.645  67.099  1.00  0.00    -0.062 NA 
HETATM   12  C   UNL     1      -6.160  10.997  66.930  1.00  0.00    -0.089 A  
HETATM   13  H   UNL     1      -7.356  12.305  65.815  1.00  0.00     0.000 HD 
BRANCH   9  14
HETATM   14  C   UNL     1      -8.883  10.143  64.820  1.00  0.00    -0.195 C  
HETATM   15  N   UNL     1      -9.074   8.926  64.227  1.00  0.00    -0.380 N  
HETATM   16  H2  UNL     1      -8.481   8.116  64.409  1.00  0.00     0.000 HD 
HETATM   17  H1  UNL     1      -9.866   8.907  63.585  1.00  0.00     0.000 HD 
HETATM   18  O   UNL     1      -9.617  11.095  64.573  1.00  0.00    -0.235 OA 
ENDBRANCH   9  14
ENDBRANCH   6   8
ENDBRANCH   4   6
ENDBRANCH   2   4
TORSDOF 4
ENDMDL
MODEL      245
REMARK 921   NORMALIZED FREE ENERGY PREDICTED BY IDOCK:   -2.29 KCAL/MOL
REMARK 922        TOTAL FREE ENERGY PREDICTED BY IDOCK:   -3.27 KCAL/MOL
REMARK 923 INTER-LIGAND FREE ENERGY PREDICTED BY IDOCK:   -2.65 KCAL/MOL
REMARK 924 INTRA-LIGAND FREE ENERGY PREDICTED BY IDOCK:   -0.62 KCAL/MOL
REMARK 927      BINDING AFFINITY PREDICTED BY RF-SCORE:    0.00 PKD
ROOT
HETATM    1  C   UNL     1     -12.660  10.733  70.637  1.00  0.00    -0.357 C  
HETATM    2  N   UNL     1     -12.116  12.023  70.253  1.00  0.00    -0.340 NA 
HETATM    3  C   UNL     1     -12.449  13.196  71.052  1.00  0.00    -0.318 C  
ENDROOT
BRANCH   2   4
HETATM    4  N   UNL     1     -10.927  11.957  69.569  1.00  0.00    -0.457 NA 
HETATM    5  H   UNL     1     -10.017  12.008  70.028  1.00  0.00     0.000 HD 
BRANCH   4   6
HETATM    6  N   UNL     1     -11.063  11.829  68.336  1.00  0.00    -0.218 NA 
HETATM    7  H   UNL     1     -11.979  11.800  67.888  1.00  0.00     0.000 HD 
BRANCH   6   8
HETATM    8  C   UNL     1      -9.908  11.731  67.630  1.00  0.00    -0.185 A  
HETATM    9  C   UNL     1      -9.037  10.686  67.366  1.00  0.00    -0.139 A  
HETATM   10  N   UNL     1      -7.966  11.124  66.583  1.00  0.00    -0.155 NA 
HETATM   11  N   UNL     1      -9.330  12.812  67.006  1.00  0.00    -0.222 NA 
HETATM   12  C   UNL     1      -8.184  12.403  66.390  1.00  0.00     0.288 A  
HETATM   13  H   UNL     1      -7.183  10.569  66.237  1.00  0.00     0.000 HD 
BRANCH   9  14
HETATM   14  C   UNL     1      -9.164   9.299  67.807  1.00  0.00    -0.129 C  
HETATM   15  N   UNL     1     -10.443   8.951  68.142  1.00  0.00    -0.300 N  
HETATM   16  H2  UNL     1     -11.230   9.597  68.090  1.00  0.00     0.000 HD 
HETATM   17  H1  UNL     1     -10.532   7.983  68.450  1.00  0.00     0.000 HD 
HETATM   18  O   UNL     1      -8.242   8.494  67.886  1.00  0.00    -0.117 OA 
ENDBRANCH   9  14
ENDBRANCH   6   8
ENDBRANCH   4   6
ENDBRANCH   2   4
TORSDOF 4
ENDMDL
MODEL      246
REMARK 921   NORMALIZED FREE ENERGY PREDICTED BY IDOCK:   -2.28 KCAL/MOL
REMARK 922        TOTAL FREE ENERGY PREDICTED BY IDOCK:   -3.25 KCAL/MOL
REMARK 923 INTER-LIGAND FREE ENERGY PREDICTED BY IDOCK:   -2.83 KCAL/MOL
REMARK 924 INTRA-LIGAND FREE ENERGY PREDICTED BY IDOCK:   -0.43 KCAL/MOL
REMARK 927      BINDING AFFINITY PREDICTED BY RF-SCORE:    0.00 PKD
ROOT
HETATM    1  C   UNL     1      -8.358   8.759  70.142  1.00  0.00    -0.131 C  
HETATM    2  N   UNL     1      -8.297   8.007  71.382  1.00  0.00    -0.106 NA 
HETATM    3  C   UNL     1      -8.537   8.702  72.641  1.00  0.00    -0.003 C  
ENDROOT
BRANCH   2   4
HETATM    4  N   UNL     1      -8.590   6.673  71.252  1.00  0.00    -0.126 NA 
HETATM    5  H   UNL     1      -8.055   5.937  71.715  1.00  0.00     0.000 HD 
BRANCH   4   6
HETATM    6  N   UNL     1      -9.569   6.443  70.516  1.00  0.00    -0.165 NA 
HETATM    7  H   UNL     1      -9.469   6.254  69.518  1.00  0.00     0.000 HD 
BRANCH   6   8
HETATM    8  C   UNL     1     -10.779   6.460  71.132  1.00  0.00    -0.244 A  
HETATM    9  C   UNL     1     -11.280   5.845  72.268  1.00  0.00    -0.291 A  
HETATM   10  N   UNL     1     -12.619   6.189  72.464  1.00  0.00    -0.514 NA 
HETATM   11  N   UNL     1     -11.850   7.167  70.637  1.00  0.00    -0.314 NA 
HETATM   12  C   UNL     1     -12.917   6.985  71.465  1.00  0.00    -0.359 A  
HETATM   13  H   UNL     1     -13.232   5.887  73.221  1.00  0.00     0.000 HD 
BRANCH   9  14
HETATM   14  C   UNL     1     -10.561   4.957  73.179  1.00  0.00    -0.220 C  
HETATM   15  N   UNL     1     -11.291   3.867  73.563  1.00  0.00    -0.226 N  
HETATM   16  H2  UNL     1     -12.244   3.691  73.245  1.00  0.00     0.000 HD 
HETATM   17  H1  UNL     1     -10.790   3.247  74.199  1.00  0.00     0.000 HD 
HETATM   18  O   UNL     1      -9.418   5.135  73.587  1.00  0.00    -0.132 OA 
ENDBRANCH   9  14
ENDBRANCH   6   8
ENDBRANCH   4   6
ENDBRANCH   2   4
TORSDOF 4
ENDMDL
MODEL      247
REMARK 921   NORMALIZED FREE ENERGY PREDICTED BY IDOCK:   -2.28 KCAL/MOL
REMARK 922        TOTAL FREE ENERGY PREDICTED BY IDOCK:   -3.25 KCAL/MOL
REMARK 923 INTER-LIGAND FREE ENERGY PREDICTED BY IDOCK:   -2.83 KCAL/MOL
REMARK 924 INTRA-LIGAND FREE ENERGY PREDICTED BY IDOCK:   -0.42 KCAL/MOL
REMARK 927      BINDING AFFINITY PREDICTED BY RF-SCORE:    0.00 PKD
ROOT
HETATM    1  C   UNL     1      -7.372  10.315  70.020  1.00  0.00    -0.149 C  
HETATM    2  N   UNL     1      -7.554   8.885  69.848  1.00  0.00    -0.060 NA 
HETATM    3  C   UNL     1      -7.531   8.024  71.025  1.00  0.00    -0.071 C  
ENDROOT
BRANCH   2   4
HETATM    4  N   UNL     1      -8.282   8.534  68.739  1.00  0.00    -0.120 NA 
HETATM    5  H   UNL     1      -7.860   8.363  67.826  1.00  0.00     0.000 HD 
BRANCH   4   6
HETATM    6  N   UNL     1      -9.508   8.444  68.950  1.00  0.00    -0.147 NA 
HETATM    7  H   UNL     1      -9.935   7.600  69.333  1.00  0.00     0.000 HD 
BRANCH   6   8
HETATM    8  C   UNL     1     -10.236   9.545  68.636  1.00  0.00    -0.195 A  
HETATM    9  C   UNL     1     -10.508  10.202  67.446  1.00  0.00    -0.256 A  
HETATM   10  N   UNL     1     -11.316  11.318  67.673  1.00  0.00    -0.382 NA 
HETATM   11  N   UNL     1     -10.882  10.300  69.587  1.00  0.00    -0.252 NA 
HETATM   12  C   UNL     1     -11.517  11.336  68.969  1.00  0.00    -0.302 A  
HETATM   13  H   UNL     1     -11.672  11.976  66.981  1.00  0.00     0.000 HD 
BRANCH   9  14
HETATM   14  C   UNL     1     -10.051   9.829  66.109  1.00  0.00    -0.245 C  
HETATM   15  N   UNL     1      -9.955   8.478  65.925  1.00  0.00    -0.432 N  
HETATM   16  H2  UNL     1     -10.180   7.797  66.650  1.00  0.00     0.000 HD 
HETATM   17  H1  UNL     1      -9.636   8.218  64.992  1.00  0.00     0.000 HD 
HETATM   18  O   UNL     1      -9.769  10.617  65.212  1.00  0.00    -0.220 OA 
ENDBRANCH   9  14
ENDBRANCH   6   8
ENDBRANCH   4   6
ENDBRANCH   2   4
TORSDOF 4
ENDMDL
MODEL      248
REMARK 921   NORMALIZED FREE ENERGY PREDICTED BY IDOCK:   -2.27 KCAL/MOL
REMARK 922        TOTAL FREE ENERGY PREDICTED BY IDOCK:   -3.24 KCAL/MOL
REMARK 923 INTER-LIGAND FREE ENERGY PREDICTED BY IDOCK:   -2.79 KCAL/MOL
REMARK 924 INTRA-LIGAND FREE ENERGY PREDICTED BY IDOCK:   -0.45 KCAL/MOL
REMARK 927      BINDING AFFINITY PREDICTED BY RF-SCORE:    0.00 PKD
ROOT
HETATM    1  C   UNL     1      -7.072   4.184  69.499  1.00  0.00    -0.049 C  
HETATM    2  N   UNL     1      -6.954   2.902  68.828  1.00  0.00    -0.047 NA 
HETATM    3  C   UNL     1      -6.816   1.694  69.632  1.00  0.00    -0.033 C  
ENDROOT
BRANCH   2   4
HETATM    4  N   UNL     1      -7.543   2.853  67.589  1.00  0.00    -0.057 NA 
HETATM    5  H   UNL     1      -7.741   1.980  67.100  1.00  0.00     0.000 HD 
BRANCH   4   6
HETATM    6  N   UNL     1      -7.814   3.975  67.116  1.00  0.00    -0.091 NA 
HETATM    7  H   UNL     1      -7.234   4.796  67.293  1.00  0.00     0.000 HD 
BRANCH   6   8
HETATM    8  C   UNL     1      -8.933   4.031  66.351  1.00  0.00    -0.128 A  
HETATM    9  C   UNL     1     -10.133   4.715  66.463  1.00  0.00    -0.250 A  
HETATM   10  N   UNL     1     -10.977   4.407  65.394  1.00  0.00    -0.826 NA 
HETATM   11  N   UNL     1      -9.080   3.289  65.202  1.00  0.00    -0.140 NA 
HETATM   12  C   UNL     1     -10.304   3.551  64.663  1.00  0.00    -0.051 A  
HETATM   13  H   UNL     1     -11.914   4.769  65.220  1.00  0.00     0.000 HD 
BRANCH   9  14
HETATM   14  C   UNL     1     -10.522   5.646  67.520  1.00  0.00    -0.229 C  
HETATM   15  N   UNL     1     -11.529   6.495  67.153  1.00  0.00    -0.745 N  
HETATM   16  H2  UNL     1     -11.966   6.479  66.232  1.00  0.00     0.000 HD 
HETATM   17  H1  UNL     1     -11.800   7.145  67.890  1.00  0.00     0.000 HD 
HETATM   18  O   UNL     1     -10.019   5.698  68.638  1.00  0.00    -0.141 OA 
ENDBRANCH   9  14
ENDBRANCH   6   8
ENDBRANCH   4   6
ENDBRANCH   2   4
TORSDOF 4
ENDMDL
MODEL      249
REMARK 921   NORMALIZED FREE ENERGY PREDICTED BY IDOCK:   -2.27 KCAL/MOL
REMARK 922        TOTAL FREE ENERGY PREDICTED BY IDOCK:   -3.24 KCAL/MOL
REMARK 923 INTER-LIGAND FREE ENERGY PREDICTED BY IDOCK:   -2.80 KCAL/MOL
REMARK 924 INTRA-LIGAND FREE ENERGY PREDICTED BY IDOCK:   -0.43 KCAL/MOL
REMARK 927      BINDING AFFINITY PREDICTED BY RF-SCORE:    0.00 PKD
ROOT
HETATM    1  C   UNL     1      -6.324   9.641  70.004  1.00  0.00    -0.059 C  
HETATM    2  N   UNL     1      -6.607   9.175  68.658  1.00  0.00    -0.053 NA 
HETATM    3  C   UNL     1      -5.506   9.033  67.713  1.00  0.00    -0.035 C  
ENDROOT
BRANCH   2   4
HETATM    4  N   UNL     1      -7.723   8.383  68.555  1.00  0.00    -0.102 NA 
HETATM    5  H   UNL     1      -7.795   7.604  67.900  1.00  0.00     0.000 HD 
BRANCH   4   6
HETATM    6  N   UNL     1      -8.642   8.703  69.336  1.00  0.00    -0.126 NA 
HETATM    7  H   UNL     1      -8.596   9.541  69.916  1.00  0.00     0.000 HD 
BRANCH   6   8
HETATM    8  C   UNL     1      -9.706   7.861  69.360  1.00  0.00    -0.170 A  
HETATM    9  C   UNL     1     -10.830   7.767  70.166  1.00  0.00    -0.244 A  
HETATM   10  N   UNL     1     -11.628   6.691  69.772  1.00  0.00    -0.616 NA 
HETATM   11  N   UNL     1      -9.835   6.809  68.484  1.00  0.00    -0.139 NA 
HETATM   12  C   UNL     1     -10.995   6.147  68.760  1.00  0.00    -0.348 A  
HETATM   13  H   UNL     1     -12.512   6.392  70.183  1.00  0.00     0.000 HD 
BRANCH   9  14
HETATM   14  C   UNL     1     -11.191   8.639  71.281  1.00  0.00    -0.276 C  
HETATM   15  N   UNL     1     -10.860   9.949  71.075  1.00  0.00    -0.299 N  
HETATM   16  H2  UNL     1     -10.406  10.285  70.226  1.00  0.00     0.000 HD 
HETATM   17  H1  UNL     1     -11.112  10.558  71.853  1.00  0.00     0.000 HD 
HETATM   18  O   UNL     1     -11.735   8.274  72.318  1.00  0.00    -0.338 OA 
ENDBRANCH   9  14
ENDBRANCH   6   8
ENDBRANCH   4   6
ENDBRANCH   2   4
TORSDOF 4
ENDMDL
MODEL      250
REMARK 921   NORMALIZED FREE ENERGY PREDICTED BY IDOCK:   -2.26 KCAL/MOL
REMARK 922        TOTAL FREE ENERGY PREDICTED BY IDOCK:   -3.23 KCAL/MOL
REMARK 923 INTER-LIGAND FREE ENERGY PREDICTED BY IDOCK:   -2.86 KCAL/MOL
REMARK 924 INTRA-LIGAND FREE ENERGY PREDICTED BY IDOCK:   -0.36 KCAL/MOL
REMARK 927      BINDING AFFINITY PREDICTED BY RF-SCORE:    0.00 PKD
ROOT
HETATM    1  C   UNL     1      -9.570   8.649  71.408  1.00  0.00    -0.243 C  
HETATM    2  N   UNL     1      -8.578   9.499  70.774  1.00  0.00    -0.253 NA 
HETATM    3  C   UNL     1      -7.203   9.025  70.672  1.00  0.00    -0.093 C  
ENDROOT
BRANCH   2   4
HETATM    4  N   UNL     1      -9.089  10.370  69.845  1.00  0.00    -0.387 NA 
HETATM    5  H   UNL     1      -9.683  11.163  70.091  1.00  0.00     0.000 HD 
BRANCH   4   6
HETATM    6  N   UNL     1      -8.760  10.104  68.672  1.00  0.00    -0.122 NA 
HETATM    7  H   UNL     1      -8.269   9.245  68.425  1.00  0.00     0.000 HD 
BRANCH   6   8
HETATM    8  C   UNL     1      -9.100  11.037  67.746  1.00  0.00    -0.147 A  
HETATM    9  C   UNL     1      -9.038  11.074  66.362  1.00  0.00    -0.178 A  
HETATM   10  N   UNL     1      -9.509  12.298  65.881  1.00  0.00    -0.376 NA 
HETATM   11  N   UNL     1      -9.601  12.271  68.090  1.00  0.00    -0.209 NA 
HETATM   12  C   UNL     1      -9.838  12.982  66.951  1.00  0.00    -0.240 A  
HETATM   13  H   UNL     1      -9.582  12.595  64.908  1.00  0.00     0.000 HD 
BRANCH   9  14
HETATM   14  C   UNL     1      -8.564  10.017  65.472  1.00  0.00    -0.151 C  
HETATM   15  N   UNL     1      -9.356   9.839  64.371  1.00  0.00    -0.372 N  
HETATM   16  H2  UNL     1     -10.194  10.389  64.190  1.00  0.00     0.000 HD 
HETATM   17  H1  UNL     1      -9.025   9.101  63.750  1.00  0.00     0.000 HD 
HETATM   18  O   UNL     1      -7.564   9.332  65.656  1.00  0.00    -0.093 OA 
ENDBRANCH   9  14
ENDBRANCH   6   8
ENDBRANCH   4   6
ENDBRANCH   2   4
TORSDOF 4
ENDMDL
MODEL      251
REMARK 921   NORMALIZED FREE ENERGY PREDICTED BY IDOCK:   -2.25 KCAL/MOL
REMARK 922        TOTAL FREE ENERGY PREDICTED BY IDOCK:   -3.21 KCAL/MOL
REMARK 923 INTER-LIGAND FREE ENERGY PREDICTED BY IDOCK:   -2.95 KCAL/MOL
REMARK 924 INTRA-LIGAND FREE ENERGY PREDICTED BY IDOCK:   -0.26 KCAL/MOL
REMARK 927      BINDING AFFINITY PREDICTED BY RF-SCORE:    0.00 PKD
ROOT
HETATM    1  C   UNL     1      -6.557   7.911  66.304  1.00  0.00    -0.050 C  
HETATM    2  N   UNL     1      -6.697   9.275  66.781  1.00  0.00    -0.075 NA 
HETATM    3  C   UNL     1      -5.822  10.307  66.236  1.00  0.00    -0.070 C  
ENDROOT
BRANCH   2   4
HETATM    4  N   UNL     1      -7.952   9.592  67.237  1.00  0.00    -0.106 NA 
HETATM    5  H   UNL     1      -8.374   9.153  68.057  1.00  0.00     0.000 HD 
BRANCH   4   6
HETATM    6  N   UNL     1      -8.529  10.464  66.558  1.00  0.00    -0.129 NA 
HETATM    7  H   UNL     1      -8.096  10.893  65.740  1.00  0.00     0.000 HD 
BRANCH   6   8
HETATM    8  C   UNL     1      -9.772  10.805  66.983  1.00  0.00    -0.176 A  
HETATM    9  C   UNL     1     -10.817  11.511  66.408  1.00  0.00    -0.285 A  
HETATM   10  N   UNL     1     -11.898  11.594  67.288  1.00  0.00    -0.626 NA 
HETATM   11  N   UNL     1     -10.241  10.479  68.234  1.00  0.00    -0.157 NA 
HETATM   12  C   UNL     1     -11.509  10.960  68.368  1.00  0.00    -0.304 A  
HETATM   13  H   UNL     1     -12.796  12.049  67.125  1.00  0.00     0.000 HD 
BRANCH   9  14
HETATM   14  C   UNL     1     -10.850  12.106  65.074  1.00  0.00    -0.300 C  
HETATM   15  N   UNL     1     -10.674  13.462  65.079  1.00  0.00    -0.324 N  
HETATM   16  H2  UNL     1     -10.533  14.004  65.931  1.00  0.00     0.000 HD 
HETATM   17  H1  UNL     1     -10.697  13.878  64.149  1.00  0.00     0.000 HD 
HETATM   18  O   UNL     1     -11.019  11.489  64.027  1.00  0.00    -0.354 OA 
ENDBRANCH   9  14
ENDBRANCH   6   8
ENDBRANCH   4   6
ENDBRANCH   2   4
TORSDOF 4
ENDMDL
MODEL      252
REMARK 921   NORMALIZED FREE ENERGY PREDICTED BY IDOCK:   -2.25 KCAL/MOL
REMARK 922        TOTAL FREE ENERGY PREDICTED BY IDOCK:   -3.21 KCAL/MOL
REMARK 923 INTER-LIGAND FREE ENERGY PREDICTED BY IDOCK:   -2.65 KCAL/MOL
REMARK 924 INTRA-LIGAND FREE ENERGY PREDICTED BY IDOCK:   -0.56 KCAL/MOL
REMARK 927      BINDING AFFINITY PREDICTED BY RF-SCORE:    0.00 PKD
ROOT
HETATM    1  C   UNL     1      -7.408   7.667  71.669  1.00  0.00    -0.068 C  
HETATM    2  N   UNL     1      -7.985   8.154  70.428  1.00  0.00    -0.096 NA 
HETATM    3  C   UNL     1      -8.074   9.593  70.209  1.00  0.00    -0.183 C  
ENDROOT
BRANCH   2   4
HETATM    4  N   UNL     1      -7.865   7.291  69.369  1.00  0.00    -0.120 NA 
HETATM    5  H   UNL     1      -8.124   6.305  69.420  1.00  0.00     0.000 HD 
BRANCH   4   6
HETATM    6  N   UNL     1      -7.409   7.822  68.336  1.00  0.00    -0.092 NA 
HETATM    7  H   UNL     1      -6.749   8.600  68.369  1.00  0.00     0.000 HD 
BRANCH   6   8
HETATM    8  C   UNL     1      -7.851   7.295  67.166  1.00  0.00    -0.110 A  
HETATM    9  C   UNL     1      -9.112   7.079  66.633  1.00  0.00    -0.152 A  
HETATM   10  N   UNL     1      -9.018   6.483  65.373  1.00  0.00    -0.368 NA 
HETATM   11  N   UNL     1      -6.996   6.800  66.209  1.00  0.00    -0.060 NA 
HETATM   12  C   UNL     1      -7.732   6.337  65.160  1.00  0.00    -0.099 A  
HETATM   13  H   UNL     1      -9.783   6.218  64.754  1.00  0.00     0.000 HD 
BRANCH   9  14
HETATM   14  C   UNL     1     -10.397   7.409  67.245  1.00  0.00    -0.286 C  
HETATM   15  N   UNL     1     -11.407   6.566  66.875  1.00  0.00    -0.817 N  
HETATM   16  H2  UNL     1     -11.277   5.783  66.235  1.00  0.00     0.000 HD 
HETATM   17  H1  UNL     1     -12.304   6.796  67.302  1.00  0.00     0.000 HD 
HETATM   18  O   UNL     1     -10.594   8.342  68.017  1.00  0.00    -0.201 OA 
ENDBRANCH   9  14
ENDBRANCH   6   8
ENDBRANCH   4   6
ENDBRANCH   2   4
TORSDOF 4
ENDMDL
MODEL      253
REMARK 921   NORMALIZED FREE ENERGY PREDICTED BY IDOCK:   -2.24 KCAL/MOL
REMARK 922        TOTAL FREE ENERGY PREDICTED BY IDOCK:   -3.21 KCAL/MOL
REMARK 923 INTER-LIGAND FREE ENERGY PREDICTED BY IDOCK:   -2.57 KCAL/MOL
REMARK 924 INTRA-LIGAND FREE ENERGY PREDICTED BY IDOCK:   -0.63 KCAL/MOL
REMARK 927      BINDING AFFINITY PREDICTED BY RF-SCORE:    0.00 PKD
ROOT
HETATM    1  C   UNL     1      -9.670   4.292  64.669  1.00  0.00    -0.146 C  
HETATM    2  N   UNL     1      -9.324   4.751  66.002  1.00  0.00    -0.146 NA 
HETATM    3  C   UNL     1      -8.227   4.101  66.709  1.00  0.00    -0.101 C  
ENDROOT
BRANCH   2   4
HETATM    4  N   UNL     1      -9.636   6.064  66.249  1.00  0.00    -0.269 NA 
HETATM    5  H   UNL     1     -10.574   6.377  66.500  1.00  0.00     0.000 HD 
BRANCH   4   6
HETATM    6  N   UNL     1      -8.666   6.840  66.140  1.00  0.00    -0.145 NA 
HETATM    7  H   UNL     1      -7.715   6.563  66.386  1.00  0.00     0.000 HD 
BRANCH   6   8
HETATM    8  C   UNL     1      -8.961   8.080  65.672  1.00  0.00    -0.054 A  
HETATM    9  C   UNL     1      -9.627   9.170  66.210  1.00  0.00    -0.255 A  
HETATM   10  N   UNL     1      -9.672  10.221  65.292  1.00  0.00    -0.269 NA 
HETATM   11  N   UNL     1      -8.622   8.490  64.403  1.00  0.00    -0.076 NA 
HETATM   12  C   UNL     1      -9.056   9.770  64.225  1.00  0.00    -0.246 A  
HETATM   13  H   UNL     1     -10.093  11.140  65.423  1.00  0.00     0.000 HD 
BRANCH   9  14
HETATM   14  C   UNL     1     -10.215   9.273  67.543  1.00  0.00    -0.242 C  
HETATM   15  N   UNL     1     -10.999   8.203  67.875  1.00  0.00    -0.478 N  
HETATM   16  H2  UNL     1     -11.157   7.411  67.253  1.00  0.00     0.000 HD 
HETATM   17  H1  UNL     1     -11.410   8.275  68.805  1.00  0.00     0.000 HD 
HETATM   18  O   UNL     1     -10.052  10.209  68.319  1.00  0.00    -0.148 OA 
ENDBRANCH   9  14
ENDBRANCH   6   8
ENDBRANCH   4   6
ENDBRANCH   2   4
TORSDOF 4
ENDMDL
MODEL      254
REMARK 921   NORMALIZED FREE ENERGY PREDICTED BY IDOCK:   -2.24 KCAL/MOL
REMARK 922        TOTAL FREE ENERGY PREDICTED BY IDOCK:   -3.20 KCAL/MOL
REMARK 923 INTER-LIGAND FREE ENERGY PREDICTED BY IDOCK:   -2.61 KCAL/MOL
REMARK 924 INTRA-LIGAND FREE ENERGY PREDICTED BY IDOCK:   -0.59 KCAL/MOL
REMARK 927      BINDING AFFINITY PREDICTED BY RF-SCORE:    0.00 PKD
ROOT
HETATM    1  C   UNL     1      -7.322   6.212  66.591  1.00  0.00    -0.082 C  
HETATM    2  N   UNL     1      -7.500   7.596  66.991  1.00  0.00    -0.093 NA 
HETATM    3  C   UNL     1      -6.327   8.455  67.106  1.00  0.00    -0.057 C  
ENDROOT
BRANCH   2   4
HETATM    4  N   UNL     1      -8.726   8.126  66.675  1.00  0.00    -0.133 NA 
HETATM    5  H   UNL     1      -9.326   8.589  67.358  1.00  0.00     0.000 HD 
BRANCH   4   6
HETATM    6  N   UNL     1      -9.039   7.988  65.476  1.00  0.00    -0.403 NA 
HETATM    7  H   UNL     1      -9.355   7.096  65.094  1.00  0.00     0.000 HD 
BRANCH   6   8
HETATM    8  C   UNL     1      -8.931   9.105  64.713  1.00  0.00    -0.127 A  
HETATM    9  C   UNL     1      -9.525  10.356  64.763  1.00  0.00    -0.273 A  
HETATM   10  N   UNL     1      -9.070  11.159  63.715  1.00  0.00    -0.386 NA 
HETATM   11  N   UNL     1      -8.123   9.165  63.601  1.00  0.00    -0.150 NA 
HETATM   12  C   UNL     1      -8.231  10.405  63.046  1.00  0.00    -0.160 A  
HETATM   13  H   UNL     1      -9.335  12.123  63.513  1.00  0.00     0.000 HD 
BRANCH   9  14
HETATM   14  C   UNL     1     -10.491  10.835  65.749  1.00  0.00    -0.188 C  
HETATM   15  N   UNL     1     -11.276  11.855  65.290  1.00  0.00    -0.314 N  
HETATM   16  H2  UNL     1     -11.194  12.244  64.351  1.00  0.00     0.000 HD 
HETATM   17  H1  UNL     1     -11.950  12.189  65.977  1.00  0.00     0.000 HD 
HETATM   18  O   UNL     1     -10.618  10.395  66.888  1.00  0.00    -0.248 OA 
ENDBRANCH   9  14
ENDBRANCH   6   8
ENDBRANCH   4   6
ENDBRANCH   2   4
TORSDOF 4
ENDMDL
MODEL      255
REMARK 921   NORMALIZED FREE ENERGY PREDICTED BY IDOCK:   -2.23 KCAL/MOL
REMARK 922        TOTAL FREE ENERGY PREDICTED BY IDOCK:   -3.19 KCAL/MOL
REMARK 923 INTER-LIGAND FREE ENERGY PREDICTED BY IDOCK:   -2.61 KCAL/MOL
REMARK 924 INTRA-LIGAND FREE ENERGY PREDICTED BY IDOCK:   -0.57 KCAL/MOL
REMARK 927      BINDING AFFINITY PREDICTED BY RF-SCORE:    0.00 PKD
ROOT
HETATM    1  C   UNL     1     -11.894  12.354  68.589  1.00  0.00    -0.302 C  
HETATM    2  N   UNL     1     -11.357  12.743  67.297  1.00  0.00    -0.295 NA 
HETATM    3  C   UNL     1     -12.245  13.364  66.321  1.00  0.00    -0.398 C  
ENDROOT
BRANCH   2   4
HETATM    4  N   UNL     1     -10.015  13.028  67.302  1.00  0.00    -0.229 NA 
HETATM    5  H   UNL     1      -9.526  13.426  66.499  1.00  0.00     0.000 HD 
BRANCH   4   6
HETATM    6  N   UNL     1      -9.447  12.756  68.379  1.00  0.00    -0.327 NA 
HETATM    7  H   UNL     1      -9.956  12.401  69.189  1.00  0.00     0.000 HD 
BRANCH   6   8
HETATM    8  C   UNL     1      -8.106  12.965  68.399  1.00  0.00    -0.130 A  
HETATM    9  C   UNL     1      -7.318  14.096  68.541  1.00  0.00    -0.120 A  
HETATM   10  N   UNL     1      -5.963  13.763  68.477  1.00  0.00    -0.086 NA 
HETATM   11  N   UNL     1      -7.198  11.946  68.229  1.00  0.00    -0.082 NA 
HETATM   12  C   UNL     1      -5.939  12.465  68.292  1.00  0.00    -0.059 A  
HETATM   13  H   UNL     1      -5.166  14.394  68.557  1.00  0.00     0.000 HD 
BRANCH   9  14
HETATM   14  C   UNL     1      -7.775  15.469  68.740  1.00  0.00    -0.159 C  
HETATM   15  N   UNL     1      -8.982  15.553  69.377  1.00  0.00    -0.270 N  
HETATM   16  H2  UNL     1      -9.511  14.737  69.683  1.00  0.00     0.000 HD 
HETATM   17  H1  UNL     1      -9.301  16.511  69.516  1.00  0.00     0.000 HD 
HETATM   18  O   UNL     1      -7.170  16.475  68.384  1.00  0.00    -0.156 OA 
ENDBRANCH   9  14
ENDBRANCH   6   8
ENDBRANCH   4   6
ENDBRANCH   2   4
TORSDOF 4
ENDMDL
MODEL      256
REMARK 921   NORMALIZED FREE ENERGY PREDICTED BY IDOCK:   -2.22 KCAL/MOL
REMARK 922        TOTAL FREE ENERGY PREDICTED BY IDOCK:   -3.18 KCAL/MOL
REMARK 923 INTER-LIGAND FREE ENERGY PREDICTED BY IDOCK:   -2.82 KCAL/MOL
REMARK 924 INTRA-LIGAND FREE ENERGY PREDICTED BY IDOCK:   -0.36 KCAL/MOL
REMARK 927      BINDING AFFINITY PREDICTED BY RF-SCORE:    0.00 PKD
ROOT
HETATM    1  C   UNL     1      -8.152   8.580  71.581  1.00  0.00    -0.150 C  
HETATM    2  N   UNL     1      -8.585   8.234  70.239  1.00  0.00    -0.125 NA 
HETATM    3  C   UNL     1      -9.590   7.191  70.069  1.00  0.00    -0.164 C  
ENDROOT
BRANCH   2   4
HETATM    4  N   UNL     1      -8.472   9.252  69.325  1.00  0.00    -0.132 NA 
HETATM    5  H   UNL     1      -8.161   9.106  68.364  1.00  0.00     0.000 HD 
BRANCH   4   6
HETATM    6  N   UNL     1      -8.784  10.371  69.778  1.00  0.00    -0.385 NA 
HETATM    7  H   UNL     1      -8.270  10.813  70.541  1.00  0.00     0.000 HD 
BRANCH   6   8
HETATM    8  C   UNL     1      -9.853  10.961  69.187  1.00  0.00    -0.145 A  
HETATM    9  C   UNL     1     -10.000  12.067  68.364  1.00  0.00    -0.208 A  
HETATM   10  N   UNL     1     -11.343  12.261  68.035  1.00  0.00    -0.270 NA 
HETATM   11  N   UNL     1     -11.139  10.505  69.362  1.00  0.00    -0.240 NA 
HETATM   12  C   UNL     1     -11.989  11.301  68.654  1.00  0.00    -0.243 A  
HETATM   13  H   UNL     1     -11.737  12.992  67.443  1.00  0.00     0.000 HD 
BRANCH   9  14
HETATM   14  C   UNL     1      -8.941  12.943  67.868  1.00  0.00    -0.193 C  
HETATM   15  N   UNL     1      -8.440  12.557  66.656  1.00  0.00    -0.401 N  
HETATM   16  H2  UNL     1      -8.772  11.738  66.148  1.00  0.00     0.000 HD 
HETATM   17  H1  UNL     1      -7.701  13.168  66.310  1.00  0.00     0.000 HD 
HETATM   18  O   UNL     1      -8.512  13.935  68.450  1.00  0.00    -0.159 OA 
ENDBRANCH   9  14
ENDBRANCH   6   8
ENDBRANCH   4   6
ENDBRANCH   2   4
TORSDOF 4
ENDMDL
MODEL      257
REMARK 921   NORMALIZED FREE ENERGY PREDICTED BY IDOCK:   -2.21 KCAL/MOL
REMARK 922        TOTAL FREE ENERGY PREDICTED BY IDOCK:   -3.17 KCAL/MOL
REMARK 923 INTER-LIGAND FREE ENERGY PREDICTED BY IDOCK:   -2.70 KCAL/MOL
REMARK 924 INTRA-LIGAND FREE ENERGY PREDICTED BY IDOCK:   -0.47 KCAL/MOL
REMARK 927      BINDING AFFINITY PREDICTED BY RF-SCORE:    0.00 PKD
ROOT
HETATM    1  C   UNL     1     -12.283  11.248  70.498  1.00  0.00    -0.383 C  
HETATM    2  N   UNL     1     -11.347  11.389  69.397  1.00  0.00    -0.274 NA 
HETATM    3  C   UNL     1     -11.637  12.352  68.342  1.00  0.00    -0.324 C  
ENDROOT
BRANCH   2   4
HETATM    4  N   UNL     1     -10.051  11.062  69.709  1.00  0.00    -0.378 NA 
HETATM    5  H   UNL     1      -9.452  11.650  70.291  1.00  0.00     0.000 HD 
BRANCH   4   6
HETATM    6  N   UNL     1      -9.672   9.981  69.216  1.00  0.00    -0.203 NA 
HETATM    7  H   UNL     1      -9.715   9.102  69.731  1.00  0.00     0.000 HD 
BRANCH   6   8
HETATM    8  C   UNL     1      -9.197  10.055  67.946  1.00  0.00    -0.137 A  
HETATM    9  C   UNL     1      -8.243  10.848  67.328  1.00  0.00    -0.123 A  
HETATM   10  N   UNL     1      -8.139  10.526  65.973  1.00  0.00    -0.144 NA 
HETATM   11  N   UNL     1      -9.679   9.262  66.931  1.00  0.00    -0.175 NA 
HETATM   12  C   UNL     1      -9.016   9.570  65.780  1.00  0.00    -0.179 A  
HETATM   13  H   UNL     1      -7.516  10.945  65.283  1.00  0.00     0.000 HD 
BRANCH   9  14
HETATM   14  C   UNL     1      -7.423  11.886  67.949  1.00  0.00    -0.114 C  
HETATM   15  N   UNL     1      -6.991  11.558  69.204  1.00  0.00    -0.112 N  
HETATM   16  H2  UNL     1      -7.218  10.676  69.661  1.00  0.00     0.000 HD 
HETATM   17  H1  UNL     1      -6.419  12.282  69.637  1.00  0.00     0.000 HD 
HETATM   18  O   UNL     1      -7.130  12.959  67.433  1.00  0.00    -0.153 OA 
ENDBRANCH   9  14
ENDBRANCH   6   8
ENDBRANCH   4   6
ENDBRANCH   2   4
TORSDOF 4
ENDMDL
MODEL      258
REMARK 921   NORMALIZED FREE ENERGY PREDICTED BY IDOCK:   -2.20 KCAL/MOL
REMARK 922        TOTAL FREE ENERGY PREDICTED BY IDOCK:   -3.16 KCAL/MOL
REMARK 923 INTER-LIGAND FREE ENERGY PREDICTED BY IDOCK:   -2.50 KCAL/MOL
REMARK 924 INTRA-LIGAND FREE ENERGY PREDICTED BY IDOCK:   -0.66 KCAL/MOL
REMARK 927      BINDING AFFINITY PREDICTED BY RF-SCORE:    0.00 PKD
ROOT
HETATM    1  C   UNL     1      -6.606   4.192  66.610  1.00  0.00    -0.046 C  
HETATM    2  N   UNL     1      -7.821   3.639  67.182  1.00  0.00    -0.079 NA 
HETATM    3  C   UNL     1      -7.785   2.299  67.754  1.00  0.00    -0.059 C  
ENDROOT
BRANCH   2   4
HETATM    4  N   UNL     1      -8.705   4.577  67.652  1.00  0.00    -0.103 NA 
HETATM    5  H   UNL     1      -9.643   4.701  67.269  1.00  0.00     0.000 HD 
BRANCH   4   6
HETATM    6  N   UNL     1      -8.257   5.265  68.591  1.00  0.00    -0.093 NA 
HETATM    7  H   UNL     1      -7.470   5.903  68.472  1.00  0.00     0.000 HD 
BRANCH   6   8
HETATM    8  C   UNL     1      -8.887   5.106  69.783  1.00  0.00    -0.106 A  
HETATM    9  C   UNL     1     -10.127   5.492  70.265  1.00  0.00    -0.237 A  
HETATM   10  N   UNL     1     -10.288   5.085  71.591  1.00  0.00    -0.206 NA 
HETATM   11  N   UNL     1      -8.296   4.474  70.852  1.00  0.00    -0.087 NA 
HETATM   12  C   UNL     1      -9.167   4.477  71.900  1.00  0.00    -0.136 A  
HETATM   13  H   UNL     1     -11.101   5.229  72.190  1.00  0.00     0.000 HD 
BRANCH   9  14
HETATM   14  C   UNL     1     -11.168   6.218  69.541  1.00  0.00    -0.430 C  
HETATM   15  N   UNL     1     -12.094   6.802  70.360  1.00  0.00    -0.589 N  
HETATM   16  H2  UNL     1     -12.061   6.736  71.377  1.00  0.00     0.000 HD 
HETATM   17  H1  UNL     1     -12.820   7.308  69.855  1.00  0.00     0.000 HD 
HETATM   18  O   UNL     1     -11.244   6.317  68.320  1.00  0.00    -0.328 OA 
ENDBRANCH   9  14
ENDBRANCH   6   8
ENDBRANCH   4   6
ENDBRANCH   2   4
TORSDOF 4
ENDMDL
MODEL      259
REMARK 921   NORMALIZED FREE ENERGY PREDICTED BY IDOCK:   -2.20 KCAL/MOL
REMARK 922        TOTAL FREE ENERGY PREDICTED BY IDOCK:   -3.15 KCAL/MOL
REMARK 923 INTER-LIGAND FREE ENERGY PREDICTED BY IDOCK:   -2.47 KCAL/MOL
REMARK 924 INTRA-LIGAND FREE ENERGY PREDICTED BY IDOCK:   -0.68 KCAL/MOL
REMARK 927      BINDING AFFINITY PREDICTED BY RF-SCORE:    0.00 PKD
ROOT
HETATM    1  C   UNL     1      -7.464   3.673  68.980  1.00  0.00    -0.053 C  
HETATM    2  N   UNL     1      -8.852   3.334  69.232  1.00  0.00    -0.088 NA 
HETATM    3  C   UNL     1      -9.167   2.406  70.313  1.00  0.00    -0.126 C  
ENDROOT
BRANCH   2   4
HETATM    4  N   UNL     1      -9.751   4.301  68.857  1.00  0.00    -0.156 NA 
HETATM    5  H   UNL     1     -10.551   4.113  68.252  1.00  0.00     0.000 HD 
BRANCH   4   6
HETATM    6  N   UNL     1      -9.499   5.429  69.324  1.00  0.00    -0.126 NA 
HETATM    7  H   UNL     1      -8.685   5.971  69.032  1.00  0.00     0.000 HD 
BRANCH   6   8
HETATM    8  C   UNL     1     -10.382   5.888  70.247  1.00  0.00    -0.235 A  
HETATM    9  C   UNL     1     -10.377   5.934  71.632  1.00  0.00    -0.219 A  
HETATM   10  N   UNL     1     -11.558   6.505  72.110  1.00  0.00    -0.295 NA 
HETATM   11  N   UNL     1     -11.599   6.427  69.901  1.00  0.00    -0.424 NA 
HETATM   12  C   UNL     1     -12.259   6.788  71.038  1.00  0.00    -0.352 A  
HETATM   13  H   UNL     1     -11.819   6.667  73.083  1.00  0.00     0.000 HD 
BRANCH   9  14
HETATM   14  C   UNL     1      -9.316   5.472  72.526  1.00  0.00    -0.142 C  
HETATM   15  N   UNL     1      -9.734   5.287  73.814  1.00  0.00    -0.142 N  
HETATM   16  H2  UNL     1     -10.692   5.455  74.121  1.00  0.00     0.000 HD 
HETATM   17  H1  UNL     1      -8.994   4.966  74.438  1.00  0.00     0.000 HD 
HETATM   18  O   UNL     1      -8.154   5.262  72.195  1.00  0.00    -0.110 OA 
ENDBRANCH   9  14
ENDBRANCH   6   8
ENDBRANCH   4   6
ENDBRANCH   2   4
TORSDOF 4
ENDMDL
MODEL      260
REMARK 921   NORMALIZED FREE ENERGY PREDICTED BY IDOCK:   -2.19 KCAL/MOL
REMARK 922        TOTAL FREE ENERGY PREDICTED BY IDOCK:   -3.14 KCAL/MOL
REMARK 923 INTER-LIGAND FREE ENERGY PREDICTED BY IDOCK:   -3.08 KCAL/MOL
REMARK 924 INTRA-LIGAND FREE ENERGY PREDICTED BY IDOCK:   -0.07 KCAL/MOL
REMARK 927      BINDING AFFINITY PREDICTED BY RF-SCORE:    0.00 PKD
ROOT
HETATM    1  C   UNL     1      -9.384  15.496  68.465  1.00  0.00    -0.197 C  
HETATM    2  N   UNL     1      -9.580  16.390  67.339  1.00  0.00    -0.229 NA 
HETATM    3  C   UNL     1      -8.683  17.529  67.177  1.00  0.00    -0.237 C  
ENDROOT
BRANCH   2   4
HETATM    4  N   UNL     1     -10.174  15.807  66.248  1.00  0.00    -0.287 NA 
HETATM    5  H   UNL     1     -11.153  15.956  66.000  1.00  0.00     0.000 HD 
BRANCH   4   6
HETATM    6  N   UNL     1      -9.407  15.078  65.587  1.00  0.00    -0.458 NA 
HETATM    7  H   UNL     1      -8.434  15.329  65.411  1.00  0.00     0.000 HD 
BRANCH   6   8
HETATM    8  C   UNL     1      -9.957  13.930  65.117  1.00  0.00    -0.218 A  
HETATM    9  C   UNL     1     -11.163  13.286  65.343  1.00  0.00    -0.287 A  
HETATM   10  N   UNL     1     -11.234  12.101  64.608  1.00  0.00    -0.313 NA 
HETATM   11  N   UNL     1      -9.295  13.098  64.244  1.00  0.00     0.728 NA 
HETATM   12  C   UNL     1     -10.094  12.030  63.962  1.00  0.00    -0.335 A  
HETATM   13  H   UNL     1     -12.005  11.434  64.579  1.00  0.00     0.000 HD 
BRANCH   9  14
HETATM   14  C   UNL     1     -12.251  13.732  66.211  1.00  0.00    -0.447 C  
HETATM   15  N   UNL     1     -13.430  13.923  65.547  1.00  0.00    -0.403 N  
HETATM   16  H2  UNL     1     -13.540  13.770  64.545  1.00  0.00     0.000 HD 
HETATM   17  H1  UNL     1     -14.190  14.234  66.152  1.00  0.00     0.000 HD 
HETATM   18  O   UNL     1     -12.158  13.930  67.418  1.00  0.00    -0.392 OA 
ENDBRANCH   9  14
ENDBRANCH   6   8
ENDBRANCH   4   6
ENDBRANCH   2   4
TORSDOF 4
ENDMDL
MODEL      261
REMARK 921   NORMALIZED FREE ENERGY PREDICTED BY IDOCK:   -2.19 KCAL/MOL
REMARK 922        TOTAL FREE ENERGY PREDICTED BY IDOCK:   -3.14 KCAL/MOL
REMARK 923 INTER-LIGAND FREE ENERGY PREDICTED BY IDOCK:   -2.69 KCAL/MOL
REMARK 924 INTRA-LIGAND FREE ENERGY PREDICTED BY IDOCK:   -0.45 KCAL/MOL
REMARK 927      BINDING AFFINITY PREDICTED BY RF-SCORE:    0.00 PKD
ROOT
HETATM    1  C   UNL     1      -9.339   8.634  71.723  1.00  0.00    -0.273 C  
HETATM    2  N   UNL     1      -8.480   9.503  70.939  1.00  0.00    -0.267 NA 
HETATM    3  C   UNL     1      -7.052   9.213  70.875  1.00  0.00    -0.105 C  
ENDROOT
BRANCH   2   4
HETATM    4  N   UNL     1      -9.112  10.140  69.901  1.00  0.00    -0.390 NA 
HETATM    5  H   UNL     1     -10.017  10.602  69.998  1.00  0.00     0.000 HD 
BRANCH   4   6
HETATM    6  N   UNL     1      -8.478  10.102  68.827  1.00  0.00    -0.124 NA 
HETATM    7  H   UNL     1      -7.600  10.604  68.695  1.00  0.00     0.000 HD 
BRANCH   6   8
HETATM    8  C   UNL     1      -9.037   9.348  67.847  1.00  0.00    -0.129 A  
HETATM    9  C   UNL     1      -8.688   9.078  66.534  1.00  0.00    -0.129 A  
HETATM   10  N   UNL     1      -9.628   8.234  65.938  1.00  0.00    -0.451 NA 
HETATM   11  N   UNL     1     -10.217   8.662  68.025  1.00  0.00    -0.201 NA 
HETATM   12  C   UNL     1     -10.524   8.009  66.869  1.00  0.00    -0.317 A  
HETATM   13  H   UNL     1      -9.618   7.871  64.985  1.00  0.00     0.000 HD 
BRANCH   9  14
HETATM   14  C   UNL     1      -7.516   9.570  65.814  1.00  0.00    -0.100 C  
HETATM   15  N   UNL     1      -7.091   8.727  64.826  1.00  0.00    -0.076 N  
HETATM   16  H2  UNL     1      -7.549   7.841  64.612  1.00  0.00     0.000 HD 
HETATM   17  H1  UNL     1      -6.273   9.070  64.324  1.00  0.00     0.000 HD 
HETATM   18  O   UNL     1      -6.936  10.627  66.044  1.00  0.00    -0.127 OA 
ENDBRANCH   9  14
ENDBRANCH   6   8
ENDBRANCH   4   6
ENDBRANCH   2   4
TORSDOF 4
ENDMDL
MODEL      262
REMARK 921   NORMALIZED FREE ENERGY PREDICTED BY IDOCK:   -2.15 KCAL/MOL
REMARK 922        TOTAL FREE ENERGY PREDICTED BY IDOCK:   -3.09 KCAL/MOL
REMARK 923 INTER-LIGAND FREE ENERGY PREDICTED BY IDOCK:   -2.62 KCAL/MOL
REMARK 924 INTRA-LIGAND FREE ENERGY PREDICTED BY IDOCK:   -0.46 KCAL/MOL
REMARK 927      BINDING AFFINITY PREDICTED BY RF-SCORE:    0.00 PKD
ROOT
HETATM    1  C   UNL     1      -7.598   9.516  70.322  1.00  0.00    -0.155 C  
HETATM    2  N   UNL     1      -7.314   8.146  70.709  1.00  0.00    -0.055 NA 
HETATM    3  C   UNL     1      -6.808   7.881  72.050  1.00  0.00    -0.066 C  
ENDROOT
BRANCH   2   4
HETATM    4  N   UNL     1      -8.055   7.203  70.041  1.00  0.00    -0.125 NA 
HETATM    5  H   UNL     1      -7.641   6.386  69.591  1.00  0.00     0.000 HD 
BRANCH   4   6
HETATM    6  N   UNL     1      -9.280   7.437  70.036  1.00  0.00    -0.148 NA 
HETATM    7  H   UNL     1      -9.772   7.783  70.860  1.00  0.00     0.000 HD 
BRANCH   6   8
HETATM    8  C   UNL     1      -9.913   7.200  68.859  1.00  0.00    -0.163 A  
HETATM    9  C   UNL     1     -10.579   8.010  67.953  1.00  0.00    -0.145 A  
HETATM   10  N   UNL     1     -11.072   7.254  66.888  1.00  0.00    -0.574 NA 
HETATM   11  N   UNL     1     -10.032   5.937  68.326  1.00  0.00    -0.137 NA 
HETATM   12  C   UNL     1     -10.719   6.018  67.152  1.00  0.00    -0.330 A  
HETATM   13  H   UNL     1     -11.595   7.590  66.079  1.00  0.00     0.000 HD 
BRANCH   9  14
HETATM   14  C   UNL     1     -10.768   9.456  68.037  1.00  0.00    -0.190 C  
HETATM   15  N   UNL     1     -10.951   9.907  69.315  1.00  0.00    -0.274 N  
HETATM   16  H2  UNL     1     -10.955   9.293  70.129  1.00  0.00     0.000 HD 
HETATM   17  H1  UNL     1     -11.083  10.916  69.374  1.00  0.00     0.000 HD 
HETATM   18  O   UNL     1     -10.773  10.226  67.082  1.00  0.00    -0.257 OA 
ENDBRANCH   9  14
ENDBRANCH   6   8
ENDBRANCH   4   6
ENDBRANCH   2   4
TORSDOF 4
ENDMDL
MODEL      263
REMARK 921   NORMALIZED FREE ENERGY PREDICTED BY IDOCK:   -2.13 KCAL/MOL
REMARK 922        TOTAL FREE ENERGY PREDICTED BY IDOCK:   -3.06 KCAL/MOL
REMARK 923 INTER-LIGAND FREE ENERGY PREDICTED BY IDOCK:   -2.44 KCAL/MOL
REMARK 924 INTRA-LIGAND FREE ENERGY PREDICTED BY IDOCK:   -0.62 KCAL/MOL
REMARK 927      BINDING AFFINITY PREDICTED BY RF-SCORE:    0.00 PKD
ROOT
HETATM    1  C   UNL     1     -10.935   6.300  69.439  1.00  0.00    -0.375 C  
HETATM    2  N   UNL     1     -10.308   7.105  68.406  1.00  0.00    -0.188 NA 
HETATM    3  C   UNL     1     -10.827   7.035  67.045  1.00  0.00    -0.343 C  
ENDROOT
BRANCH   2   4
HETATM    4  N   UNL     1      -9.701   8.247  68.866  1.00  0.00    -0.161 NA 
HETATM    5  H   UNL     1     -10.208   8.994  69.343  1.00  0.00     0.000 HD 
BRANCH   4   6
HETATM    6  N   UNL     1      -8.474   8.288  68.647  1.00  0.00    -0.125 NA 
HETATM    7  H   UNL     1      -7.958   7.486  68.283  1.00  0.00     0.000 HD 
BRANCH   6   8
HETATM    8  C   UNL     1      -7.871   9.471  68.926  1.00  0.00    -0.080 A  
HETATM    9  C   UNL     1      -7.960  10.740  68.377  1.00  0.00    -0.124 A  
HETATM   10  N   UNL     1      -7.101  11.623  69.035  1.00  0.00    -0.119 NA 
HETATM   11  N   UNL     1      -6.927   9.603  69.917  1.00  0.00    -0.068 NA 
HETATM   12  C   UNL     1      -6.504  10.898  69.952  1.00  0.00    -0.144 A  
HETATM   13  H   UNL     1      -6.967  12.615  68.845  1.00  0.00     0.000 HD 
BRANCH   9  14
HETATM   14  C   UNL     1      -8.815  11.165  67.271  1.00  0.00    -0.144 C  
HETATM   15  N   UNL     1      -8.424  12.346  66.704  1.00  0.00    -0.387 N  
HETATM   16  H2  UNL     1      -7.615  12.878  67.022  1.00  0.00     0.000 HD 
HETATM   17  H1  UNL     1      -9.020  12.642  65.932  1.00  0.00     0.000 HD 
HETATM   18  O   UNL     1      -9.797  10.554  66.860  1.00  0.00    -0.181 OA 
ENDBRANCH   9  14
ENDBRANCH   6   8
ENDBRANCH   4   6
ENDBRANCH   2   4
TORSDOF 4
ENDMDL
MODEL      264
REMARK 921   NORMALIZED FREE ENERGY PREDICTED BY IDOCK:   -2.12 KCAL/MOL
REMARK 922        TOTAL FREE ENERGY PREDICTED BY IDOCK:   -3.05 KCAL/MOL
REMARK 923 INTER-LIGAND FREE ENERGY PREDICTED BY IDOCK:   -2.62 KCAL/MOL
REMARK 924 INTRA-LIGAND FREE ENERGY PREDICTED BY IDOCK:   -0.43 KCAL/MOL
REMARK 927      BINDING AFFINITY PREDICTED BY RF-SCORE:    0.00 PKD
ROOT
HETATM    1  C   UNL     1      -5.350  15.508  69.278  1.00  0.00    -0.097 C  
HETATM    2  N   UNL     1      -6.139  14.354  68.888  1.00  0.00    -0.084 NA 
HETATM    3  C   UNL     1      -5.849  13.062  69.498  1.00  0.00    -0.103 C  
ENDROOT
BRANCH   2   4
HETATM    4  N   UNL     1      -7.406  14.653  68.452  1.00  0.00    -0.107 NA 
HETATM    5  H   UNL     1      -7.733  15.608  68.303  1.00  0.00     0.000 HD 
BRANCH   4   6
HETATM    6  N   UNL     1      -8.120  13.649  68.254  1.00  0.00    -0.149 NA 
HETATM    7  H   UNL     1      -7.726  12.716  68.129  1.00  0.00     0.000 HD 
BRANCH   6   8
HETATM    8  C   UNL     1      -9.456  13.884  68.217  1.00  0.00    -0.217 A  
HETATM    9  C   UNL     1     -10.566  13.145  68.596  1.00  0.00    -0.239 A  
HETATM   10  N   UNL     1     -11.741  13.849  68.328  1.00  0.00    -0.341 NA 
HETATM   11  N   UNL     1      -9.989  15.041  67.698  1.00  0.00    -0.225 NA 
HETATM   12  C   UNL     1     -11.347  14.980  67.792  1.00  0.00    -0.330 A  
HETATM   13  H   UNL     1     -12.699  13.549  68.509  1.00  0.00     0.000 HD 
BRANCH   9  14
HETATM   14  C   UNL     1     -10.575  11.815  69.201  1.00  0.00    -0.069 C  
HETATM   15  N   UNL     1      -9.408  11.126  69.016  1.00  0.00    -0.386 N  
HETATM   16  H2  UNL     1      -8.610  11.504  68.506  1.00  0.00     0.000 HD 
HETATM   17  H1  UNL     1      -9.414  10.198  69.438  1.00  0.00     0.000 HD 
HETATM   18  O   UNL     1     -11.514  11.324  69.819  1.00  0.00    -0.274 OA 
ENDBRANCH   9  14
ENDBRANCH   6   8
ENDBRANCH   4   6
ENDBRANCH   2   4
TORSDOF 4
ENDMDL
MODEL      265
REMARK 921   NORMALIZED FREE ENERGY PREDICTED BY IDOCK:   -2.11 KCAL/MOL
REMARK 922        TOTAL FREE ENERGY PREDICTED BY IDOCK:   -3.04 KCAL/MOL
REMARK 923 INTER-LIGAND FREE ENERGY PREDICTED BY IDOCK:   -2.58 KCAL/MOL
REMARK 924 INTRA-LIGAND FREE ENERGY PREDICTED BY IDOCK:   -0.46 KCAL/MOL
REMARK 927      BINDING AFFINITY PREDICTED BY RF-SCORE:    0.00 PKD
ROOT
HETATM    1  C   UNL     1      -8.094   7.760  72.504  1.00  0.00    -0.122 C  
HETATM    2  N   UNL     1      -9.038   8.121  71.462  1.00  0.00    -0.146 NA 
HETATM    3  C   UNL     1     -10.373   8.569  71.843  1.00  0.00    -0.308 C  
ENDROOT
BRANCH   2   4
HETATM    4  N   UNL     1      -8.459   8.559  70.298  1.00  0.00    -0.122 NA 
HETATM    5  H   UNL     1      -8.051   9.488  70.194  1.00  0.00     0.000 HD 
BRANCH   4   6
HETATM    6  N   UNL     1      -8.479   7.717  69.378  1.00  0.00    -0.131 NA 
HETATM    7  H   UNL     1      -8.095   6.778  69.490  1.00  0.00     0.000 HD 
BRANCH   6   8
HETATM    8  C   UNL     1      -9.045   8.134  68.217  1.00  0.00    -0.135 A  
HETATM    9  C   UNL     1      -9.541   7.472  67.105  1.00  0.00    -0.161 A  
HETATM   10  N   UNL     1     -10.013   8.385  66.159  1.00  0.00    -0.472 NA 
HETATM   11  N   UNL     1      -9.211   9.465  67.913  1.00  0.00    -0.130 NA 
HETATM   12  C   UNL     1      -9.797   9.566  66.687  1.00  0.00    -0.231 A  
HETATM   13  H   UNL     1     -10.433   8.177  65.254  1.00  0.00     0.000 HD 
BRANCH   9  14
HETATM   14  C   UNL     1      -9.598   6.028  66.892  1.00  0.00    -0.140 C  
HETATM   15  N   UNL     1     -10.011   5.681  65.635  1.00  0.00    -0.367 N  
HETATM   16  H2  UNL     1     -10.256   6.363  64.918  1.00  0.00     0.000 HD 
HETATM   17  H1  UNL     1     -10.051   4.673  65.486  1.00  0.00     0.000 HD 
HETATM   18  O   UNL     1      -9.316   5.177  67.729  1.00  0.00    -0.115 OA 
ENDBRANCH   9  14
ENDBRANCH   6   8
ENDBRANCH   4   6
ENDBRANCH   2   4
TORSDOF 4
ENDMDL
MODEL      266
REMARK 921   NORMALIZED FREE ENERGY PREDICTED BY IDOCK:   -2.11 KCAL/MOL
REMARK 922        TOTAL FREE ENERGY PREDICTED BY IDOCK:   -3.04 KCAL/MOL
REMARK 923 INTER-LIGAND FREE ENERGY PREDICTED BY IDOCK:   -2.67 KCAL/MOL
REMARK 924 INTRA-LIGAND FREE ENERGY PREDICTED BY IDOCK:   -0.37 KCAL/MOL
REMARK 927      BINDING AFFINITY PREDICTED BY RF-SCORE:    0.00 PKD
ROOT
HETATM    1  C   UNL     1      -9.163   9.575  69.685  1.00  0.00    -0.200 C  
HETATM    2  N   UNL     1      -8.867   8.354  70.411  1.00  0.00    -0.142 NA 
HETATM    3  C   UNL     1      -9.012   8.343  71.862  1.00  0.00    -0.214 C  
ENDROOT
BRANCH   2   4
HETATM    4  N   UNL     1      -9.039   7.204  69.683  1.00  0.00    -0.141 NA 
HETATM    5  H   UNL     1      -8.400   6.410  69.735  1.00  0.00     0.000 HD 
BRANCH   4   6
HETATM    6  N   UNL     1     -10.048   7.219  68.950  1.00  0.00    -0.175 NA 
HETATM    7  H   UNL     1     -10.921   7.665  69.233  1.00  0.00     0.000 HD 
BRANCH   6   8
HETATM    8  C   UNL     1      -9.906   6.600  67.750  1.00  0.00    -0.124 A  
HETATM    9  C   UNL     1      -9.416   7.005  66.519  1.00  0.00    -0.150 A  
HETATM   10  N   UNL     1      -9.506   5.969  65.588  1.00  0.00    -0.368 NA 
HETATM   11  N   UNL     1     -10.311   5.302  67.536  1.00  0.00    -0.184 NA 
HETATM   12  C   UNL     1     -10.046   4.967  66.242  1.00  0.00    -0.247 A  
HETATM   13  H   UNL     1      -9.215   5.986  64.611  1.00  0.00     0.000 HD 
BRANCH   9  14
HETATM   14  C   UNL     1      -8.863   8.314  66.178  1.00  0.00    -0.167 C  
HETATM   15  N   UNL     1      -9.764   9.141  65.567  1.00  0.00    -0.462 N  
HETATM   16  H2  UNL     1     -10.727   8.871  65.369  1.00  0.00     0.000 HD 
HETATM   17  H1  UNL     1      -9.379  10.055  65.329  1.00  0.00     0.000 HD 
HETATM   18  O   UNL     1      -7.711   8.675  66.397  1.00  0.00    -0.092 OA 
ENDBRANCH   9  14
ENDBRANCH   6   8
ENDBRANCH   4   6
ENDBRANCH   2   4
TORSDOF 4
ENDMDL
MODEL      267
REMARK 921   NORMALIZED FREE ENERGY PREDICTED BY IDOCK:   -2.10 KCAL/MOL
REMARK 922        TOTAL FREE ENERGY PREDICTED BY IDOCK:   -3.03 KCAL/MOL
REMARK 923 INTER-LIGAND FREE ENERGY PREDICTED BY IDOCK:   -2.43 KCAL/MOL
REMARK 924 INTRA-LIGAND FREE ENERGY PREDICTED BY IDOCK:   -0.60 KCAL/MOL
REMARK 927      BINDING AFFINITY PREDICTED BY RF-SCORE:    0.00 PKD
ROOT
HETATM    1  C   UNL     1      -6.680   5.044  68.987  1.00  0.00    -0.049 C  
HETATM    2  N   UNL     1      -8.005   5.110  69.576  1.00  0.00    -0.079 NA 
HETATM    3  C   UNL     1      -8.498   3.968  70.336  1.00  0.00    -0.064 C  
ENDROOT
BRANCH   2   4
HETATM    4  N   UNL     1      -8.434   6.381  69.865  1.00  0.00    -0.130 NA 
HETATM    5  H   UNL     1      -8.826   7.011  69.164  1.00  0.00     0.000 HD 
BRANCH   4   6
HETATM    6  N   UNL     1      -8.301   6.696  71.065  1.00  0.00    -0.124 NA 
HETATM    7  H   UNL     1      -7.408   6.620  71.553  1.00  0.00     0.000 HD 
BRANCH   6   8
HETATM    8  C   UNL     1      -9.425   7.147  71.677  1.00  0.00    -0.152 A  
HETATM    9  C   UNL     1     -10.159   8.319  71.582  1.00  0.00    -0.215 A  
HETATM   10  N   UNL     1     -11.247   8.290  72.457  1.00  0.00    -0.380 NA 
HETATM   11  N   UNL     1     -10.084   6.419  72.641  1.00  0.00    -0.176 NA 
HETATM   12  C   UNL     1     -11.164   7.133  73.069  1.00  0.00    -0.239 A  
HETATM   13  H   UNL     1     -11.954   9.013  72.591  1.00  0.00     0.000 HD 
BRANCH   9  14
HETATM   14  C   UNL     1      -9.891   9.458  70.708  1.00  0.00    -0.279 C  
HETATM   15  N   UNL     1      -8.569   9.603  70.395  1.00  0.00    -0.255 N  
HETATM   16  H2  UNL     1      -7.841   8.977  70.738  1.00  0.00     0.000 HD 
HETATM   17  H1  UNL     1      -8.381  10.398  69.785  1.00  0.00     0.000 HD 
HETATM   18  O   UNL     1     -10.738  10.235  70.277  1.00  0.00    -0.288 OA 
ENDBRANCH   9  14
ENDBRANCH   6   8
ENDBRANCH   4   6
ENDBRANCH   2   4
TORSDOF 4
ENDMDL
MODEL      268
REMARK 921   NORMALIZED FREE ENERGY PREDICTED BY IDOCK:   -2.10 KCAL/MOL
REMARK 922        TOTAL FREE ENERGY PREDICTED BY IDOCK:   -3.03 KCAL/MOL
REMARK 923 INTER-LIGAND FREE ENERGY PREDICTED BY IDOCK:   -2.64 KCAL/MOL
REMARK 924 INTRA-LIGAND FREE ENERGY PREDICTED BY IDOCK:   -0.39 KCAL/MOL
REMARK 927      BINDING AFFINITY PREDICTED BY RF-SCORE:    0.00 PKD
ROOT
HETATM    1  C   UNL     1     -10.874   6.763  67.237  1.00  0.00    -0.373 C  
HETATM    2  N   UNL     1     -10.394   5.826  68.237  1.00  0.00    -0.195 NA 
HETATM    3  C   UNL     1      -9.017   5.353  68.158  1.00  0.00    -0.108 C  
ENDROOT
BRANCH   2   4
HETATM    4  N   UNL     1     -11.038   5.907  69.446  1.00  0.00    -0.357 NA 
HETATM    5  H   UNL     1     -11.809   5.292  69.710  1.00  0.00     0.000 HD 
BRANCH   4   6
HETATM    6  N   UNL     1     -10.593   6.801  70.194  1.00  0.00    -0.208 NA 
HETATM    7  H   UNL     1     -10.319   7.719  69.843  1.00  0.00     0.000 HD 
BRANCH   6   8
HETATM    8  C   UNL     1     -10.499   6.469  71.507  1.00  0.00    -0.215 A  
HETATM    9  C   UNL     1      -9.611   6.806  72.515  1.00  0.00    -0.153 A  
HETATM   10  N   UNL     1      -9.957   6.172  73.710  1.00  0.00    -0.192 NA 
HETATM   11  N   UNL     1     -11.378   5.602  72.114  1.00  0.00    -0.249 NA 
HETATM   12  C   UNL     1     -11.023   5.462  73.423  1.00  0.00    -0.297 A  
HETATM   13  H   UNL     1      -9.484   6.244  74.610  1.00  0.00     0.000 HD 
BRANCH   9  14
HETATM   14  C   UNL     1      -8.458   7.699  72.412  1.00  0.00    -0.117 C  
HETATM   15  N   UNL     1      -8.307   8.518  73.496  1.00  0.00    -0.094 N  
HETATM   16  H2  UNL     1      -8.937   8.507  74.298  1.00  0.00     0.000 HD 
HETATM   17  H1  UNL     1      -7.503   9.141  73.425  1.00  0.00     0.000 HD 
HETATM   18  O   UNL     1      -7.679   7.743  71.465  1.00  0.00    -0.081 OA 
ENDBRANCH   9  14
ENDBRANCH   6   8
ENDBRANCH   4   6
ENDBRANCH   2   4
TORSDOF 4
ENDMDL
MODEL      269
REMARK 921   NORMALIZED FREE ENERGY PREDICTED BY IDOCK:   -2.09 KCAL/MOL
REMARK 922        TOTAL FREE ENERGY PREDICTED BY IDOCK:   -3.02 KCAL/MOL
REMARK 923 INTER-LIGAND FREE ENERGY PREDICTED BY IDOCK:   -2.06 KCAL/MOL
REMARK 924 INTRA-LIGAND FREE ENERGY PREDICTED BY IDOCK:   -0.97 KCAL/MOL
REMARK 927      BINDING AFFINITY PREDICTED BY RF-SCORE:    0.00 PKD
ROOT
HETATM    1  C   UNL     1      -8.162   3.835  72.609  1.00  0.00    -0.089 C  
HETATM    2  N   UNL     1      -8.790   4.486  71.473  1.00  0.00    -0.117 NA 
HETATM    3  C   UNL     1      -8.956   3.737  70.233  1.00  0.00    -0.104 C  
ENDROOT
BRANCH   2   4
HETATM    4  N   UNL     1      -9.664   5.490  71.805  1.00  0.00    -0.161 NA 
HETATM    5  H   UNL     1      -9.911   5.718  72.769  1.00  0.00     0.000 HD 
BRANCH   4   6
HETATM    6  N   UNL     1     -10.130   6.098  70.821  1.00  0.00    -0.188 NA 
HETATM    7  H   UNL     1     -10.574   5.614  70.041  1.00  0.00     0.000 HD 
BRANCH   6   8
HETATM    8  C   UNL     1     -10.006   7.449  70.859  1.00  0.00    -0.184 A  
HETATM    9  C   UNL     1      -8.999   8.326  70.488  1.00  0.00    -0.147 A  
HETATM   10  N   UNL     1      -9.372   9.645  70.752  1.00  0.00    -0.302 NA 
HETATM   11  N   UNL     1     -10.987   8.267  71.370  1.00  0.00    -0.240 NA 
HETATM   12  C   UNL     1     -10.571   9.562  71.278  1.00  0.00    -0.288 A  
HETATM   13  H   UNL     1      -8.830  10.490  70.575  1.00  0.00     0.000 HD 
BRANCH   9  14
HETATM   14  C   UNL     1      -7.708   7.985  69.893  1.00  0.00    -0.099 C  
HETATM   15  N   UNL     1      -7.045   6.995  70.564  1.00  0.00    -0.062 N  
HETATM   16  H2  UNL     1      -7.416   6.540  71.398  1.00  0.00     0.000 HD 
HETATM   17  H1  UNL     1      -6.145   6.757  70.149  1.00  0.00     0.000 HD 
HETATM   18  O   UNL     1      -7.228   8.511  68.894  1.00  0.00    -0.074 OA 
ENDBRANCH   9  14
ENDBRANCH   6   8
ENDBRANCH   4   6
ENDBRANCH   2   4
TORSDOF 4
ENDMDL
MODEL      270
REMARK 921   NORMALIZED FREE ENERGY PREDICTED BY IDOCK:   -2.09 KCAL/MOL
REMARK 922        TOTAL FREE ENERGY PREDICTED BY IDOCK:   -3.02 KCAL/MOL
REMARK 923 INTER-LIGAND FREE ENERGY PREDICTED BY IDOCK:   -2.60 KCAL/MOL
REMARK 924 INTRA-LIGAND FREE ENERGY PREDICTED BY IDOCK:   -0.42 KCAL/MOL
REMARK 927      BINDING AFFINITY PREDICTED BY RF-SCORE:    0.00 PKD
ROOT
HETATM    1  C   UNL     1      -6.372   4.912  68.773  1.00  0.00    -0.035 C  
HETATM    2  N   UNL     1      -7.778   4.711  69.078  1.00  0.00    -0.070 NA 
HETATM    3  C   UNL     1      -8.190   3.466  69.715  1.00  0.00    -0.051 C  
ENDROOT
BRANCH   2   4
HETATM    4  N   UNL     1      -8.486   5.868  69.280  1.00  0.00    -0.112 NA 
HETATM    5  H   UNL     1      -8.317   6.495  70.067  1.00  0.00     0.000 HD 
BRANCH   4   6
HETATM    6  N   UNL     1      -9.357   6.083  68.413  1.00  0.00    -0.120 NA 
HETATM    7  H   UNL     1      -9.568   5.412  67.674  1.00  0.00     0.000 HD 
BRANCH   6   8
HETATM    8  C   UNL     1     -10.004   7.272  68.519  1.00  0.00    -0.162 A  
HETATM    9  C   UNL     1     -10.860   7.811  69.466  1.00  0.00    -0.153 A  
HETATM   10  N   UNL     1     -11.267   9.092  69.088  1.00  0.00    -0.438 NA 
HETATM   11  N   UNL     1      -9.918   8.248  67.553  1.00  0.00    -0.177 NA 
HETATM   12  C   UNL     1     -10.677   9.313  67.937  1.00  0.00    -0.188 A  
HETATM   13  H   UNL     1     -11.889   9.720  69.596  1.00  0.00     0.000 HD 
BRANCH   9  14
HETATM   14  C   UNL     1     -11.307   7.186  70.708  1.00  0.00    -0.289 C  
HETATM   15  N   UNL     1     -12.667   7.179  70.853  1.00  0.00    -0.586 N  
HETATM   16  H2  UNL     1     -13.305   7.572  70.162  1.00  0.00     0.000 HD 
HETATM   17  H1  UNL     1     -12.980   6.742  71.720  1.00  0.00     0.000 HD 
HETATM   18  O   UNL     1     -10.572   6.704  71.564  1.00  0.00    -0.218 OA 
ENDBRANCH   9  14
ENDBRANCH   6   8
ENDBRANCH   4   6
ENDBRANCH   2   4
TORSDOF 4
ENDMDL
MODEL      271
REMARK 921   NORMALIZED FREE ENERGY PREDICTED BY IDOCK:   -2.08 KCAL/MOL
REMARK 922        TOTAL FREE ENERGY PREDICTED BY IDOCK:   -3.01 KCAL/MOL
REMARK 923 INTER-LIGAND FREE ENERGY PREDICTED BY IDOCK:   -2.45 KCAL/MOL
REMARK 924 INTRA-LIGAND FREE ENERGY PREDICTED BY IDOCK:   -0.56 KCAL/MOL
REMARK 927      BINDING AFFINITY PREDICTED BY RF-SCORE:    0.00 PKD
ROOT
HETATM    1  C   UNL     1      -8.700  10.174  69.382  1.00  0.00    -0.176 C  
HETATM    2  N   UNL     1      -8.655   8.745  69.637  1.00  0.00    -0.127 NA 
HETATM    3  C   UNL     1      -8.543   7.830  68.507  1.00  0.00    -0.128 C  
ENDROOT
BRANCH   2   4
HETATM    4  N   UNL     1      -8.150   8.404  70.866  1.00  0.00    -0.100 NA 
HETATM    5  H   UNL     1      -7.809   9.091  71.539  1.00  0.00     0.000 HD 
BRANCH   4   6
HETATM    6  N   UNL     1      -8.148   7.176  71.085  1.00  0.00    -0.103 NA 
HETATM    7  H   UNL     1      -7.644   6.517  70.492  1.00  0.00     0.000 HD 
BRANCH   6   8
HETATM    8  C   UNL     1      -8.862   6.776  72.168  1.00  0.00    -0.133 A  
HETATM    9  C   UNL     1     -10.181   6.395  72.354  1.00  0.00    -0.186 A  
HETATM   10  N   UNL     1     -10.420   6.084  73.694  1.00  0.00    -0.251 NA 
HETATM   11  N   UNL     1      -8.315   6.706  73.429  1.00  0.00    -0.118 NA 
HETATM   12  C   UNL     1      -9.274   6.282  74.300  1.00  0.00    -0.162 A  
HETATM   13  H   UNL     1     -11.296   5.770  74.111  1.00  0.00     0.000 HD 
BRANCH   9  14
HETATM   14  C   UNL     1     -11.224   6.303  71.334  1.00  0.00    -0.293 C  
HETATM   15  N   UNL     1     -10.798   5.722  70.173  1.00  0.00    -0.319 N  
HETATM   16  H2  UNL     1      -9.847   5.385  70.032  1.00  0.00     0.000 HD 
HETATM   17  H1  UNL     1     -11.526   5.658  69.461  1.00  0.00     0.000 HD 
HETATM   18  O   UNL     1     -12.378   6.699  71.465  1.00  0.00    -0.349 OA 
ENDBRANCH   9  14
ENDBRANCH   6   8
ENDBRANCH   4   6
ENDBRANCH   2   4
TORSDOF 4
ENDMDL
MODEL      272
REMARK 921   NORMALIZED FREE ENERGY PREDICTED BY IDOCK:   -2.08 KCAL/MOL
REMARK 922        TOTAL FREE ENERGY PREDICTED BY IDOCK:   -3.00 KCAL/MOL
REMARK 923 INTER-LIGAND FREE ENERGY PREDICTED BY IDOCK:   -2.78 KCAL/MOL
REMARK 924 INTRA-LIGAND FREE ENERGY PREDICTED BY IDOCK:   -0.22 KCAL/MOL
REMARK 927      BINDING AFFINITY PREDICTED BY RF-SCORE:    0.00 PKD
ROOT
HETATM    1  C   UNL     1      -8.193  12.744  67.292  1.00  0.00    -0.181 C  
HETATM    2  N   UNL     1      -7.649  13.232  68.546  1.00  0.00    -0.132 NA 
HETATM    3  C   UNL     1      -6.567  12.490  69.183  1.00  0.00    -0.100 C  
ENDROOT
BRANCH   2   4
HETATM    4  N   UNL     1      -7.770  14.587  68.728  1.00  0.00    -0.136 NA 
HETATM    5  H   UNL     1      -7.007  15.243  68.560  1.00  0.00     0.000 HD 
BRANCH   4   6
HETATM    6  N   UNL     1      -8.900  14.943  69.120  1.00  0.00    -0.330 NA 
HETATM    7  H   UNL     1      -9.545  14.300  69.579  1.00  0.00     0.000 HD 
BRANCH   6   8
HETATM    8  C   UNL     1      -9.212  16.244  68.892  1.00  0.00    -0.249 A  
HETATM    9  C   UNL     1      -8.455  17.395  68.741  1.00  0.00    -0.225 A  
HETATM   10  N   UNL     1      -9.280  18.502  68.534  1.00  0.00    -0.330 NA 
HETATM   11  N   UNL     1     -10.511  16.684  68.791  1.00  0.00    -0.301 NA 
HETATM   12  C   UNL     1     -10.503  18.029  68.570  1.00  0.00    -0.280 A  
HETATM   13  H   UNL     1      -8.993  19.470  68.388  1.00  0.00     0.000 HD 
BRANCH   9  14
HETATM   14  C   UNL     1      -6.999  17.503  68.775  1.00  0.00    -0.237 C  
HETATM   15  N   UNL     1      -6.436  16.916  69.874  1.00  0.00    -0.105 N  
HETATM   16  H2  UNL     1      -6.981  16.448  70.599  1.00  0.00     0.000 HD 
HETATM   17  H1  UNL     1      -5.420  16.991  69.899  1.00  0.00     0.000 HD 
HETATM   18  O   UNL     1      -6.309  18.058  67.925  1.00  0.00    -0.176 OA 
ENDBRANCH   9  14
ENDBRANCH   6   8
ENDBRANCH   4   6
ENDBRANCH   2   4
TORSDOF 4
ENDMDL
MODEL      273
REMARK 921   NORMALIZED FREE ENERGY PREDICTED BY IDOCK:   -2.05 KCAL/MOL
REMARK 922        TOTAL FREE ENERGY PREDICTED BY IDOCK:   -2.97 KCAL/MOL
REMARK 923 INTER-LIGAND FREE ENERGY PREDICTED BY IDOCK:   -2.37 KCAL/MOL
REMARK 924 INTRA-LIGAND FREE ENERGY PREDICTED BY IDOCK:   -0.60 KCAL/MOL
REMARK 927      BINDING AFFINITY PREDICTED BY RF-SCORE:    0.00 PKD
ROOT
HETATM    1  C   UNL     1      -9.383   4.328  64.465  1.00  0.00    -0.160 C  
HETATM    2  N   UNL     1      -8.622   5.225  65.317  1.00  0.00    -0.147 NA 
HETATM    3  C   UNL     1      -7.424   4.722  65.979  1.00  0.00    -0.078 C  
ENDROOT
BRANCH   2   4
HETATM    4  N   UNL     1      -8.734   6.552  64.988  1.00  0.00    -0.358 NA 
HETATM    5  H   UNL     1      -8.221   6.981  64.217  1.00  0.00     0.000 HD 
BRANCH   4   6
HETATM    6  N   UNL     1      -9.523   7.186  65.718  1.00  0.00    -0.373 NA 
HETATM    7  H   UNL     1     -10.506   6.931  65.809  1.00  0.00     0.000 HD 
BRANCH   6   8
HETATM    8  C   UNL     1      -8.982   8.239  66.382  1.00  0.00    -0.166 A  
HETATM    9  C   UNL     1      -8.420   9.438  65.974  1.00  0.00    -0.124 A  
HETATM   10  N   UNL     1      -7.994  10.183  67.076  1.00  0.00    -0.109 NA 
HETATM   11  N   UNL     1      -8.869   8.269  67.752  1.00  0.00    -0.137 NA 
HETATM   12  C   UNL     1      -8.285   9.444  68.120  1.00  0.00    -0.118 A  
HETATM   13  H   UNL     1      -7.551  11.101  67.069  1.00  0.00     0.000 HD 
BRANCH   9  14
HETATM   14  C   UNL     1      -8.270   9.920  64.602  1.00  0.00    -0.153 C  
HETATM   15  N   UNL     1      -9.305   9.562  63.785  1.00  0.00    -0.410 N  
HETATM   16  H2  UNL     1     -10.104   9.014  64.101  1.00  0.00     0.000 HD 
HETATM   17  H1  UNL     1      -9.201   9.898  62.828  1.00  0.00     0.000 HD 
HETATM   18  O   UNL     1      -7.324  10.579  64.183  1.00  0.00    -0.037 OA 
ENDBRANCH   9  14
ENDBRANCH   6   8
ENDBRANCH   4   6
ENDBRANCH   2   4
TORSDOF 4
ENDMDL
MODEL      274
REMARK 921   NORMALIZED FREE ENERGY PREDICTED BY IDOCK:   -2.05 KCAL/MOL
REMARK 922        TOTAL FREE ENERGY PREDICTED BY IDOCK:   -2.97 KCAL/MOL
REMARK 923 INTER-LIGAND FREE ENERGY PREDICTED BY IDOCK:   -2.34 KCAL/MOL
REMARK 924 INTRA-LIGAND FREE ENERGY PREDICTED BY IDOCK:   -0.62 KCAL/MOL
REMARK 927      BINDING AFFINITY PREDICTED BY RF-SCORE:    0.00 PKD
ROOT
HETATM    1  C   UNL     1      -9.115   5.429  66.005  1.00  0.00    -0.154 C  
HETATM    2  N   UNL     1      -9.724   6.385  66.913  1.00  0.00    -0.147 NA 
HETATM    3  C   UNL     1     -11.147   6.272  67.208  1.00  0.00    -0.296 C  
ENDROOT
BRANCH   2   4
HETATM    4  N   UNL     1      -8.860   6.923  67.834  1.00  0.00    -0.124 NA 
HETATM    5  H   UNL     1      -8.530   6.412  68.654  1.00  0.00     0.000 HD 
BRANCH   4   6
HETATM    6  N   UNL     1      -8.514   8.093  67.575  1.00  0.00    -0.126 NA 
HETATM    7  H   UNL     1      -7.893   8.319  66.798  1.00  0.00     0.000 HD 
BRANCH   6   8
HETATM    8  C   UNL     1      -9.020   9.045  68.400  1.00  0.00    -0.133 A  
HETATM    9  C   UNL     1      -8.762   9.407  69.712  1.00  0.00    -0.181 A  
HETATM   10  N   UNL     1      -9.584  10.467  70.102  1.00  0.00    -0.320 NA 
HETATM   11  N   UNL     1     -10.029   9.897  68.012  1.00  0.00    -0.147 NA 
HETATM   12  C   UNL     1     -10.325  10.729  69.051  1.00  0.00    -0.215 A  
HETATM   13  H   UNL     1      -9.604  10.935  71.007  1.00  0.00     0.000 HD 
BRANCH   9  14
HETATM   14  C   UNL     1      -7.778   8.811  70.613  1.00  0.00    -0.094 C  
HETATM   15  N   UNL     1      -7.465   7.518  70.297  1.00  0.00    -0.083 N  
HETATM   16  H2  UNL     1      -7.877   7.020  69.510  1.00  0.00     0.000 HD 
HETATM   17  H1  UNL     1      -6.779   7.102  70.926  1.00  0.00     0.000 HD 
HETATM   18  O   UNL     1      -7.262   9.377  71.572  1.00  0.00    -0.325 OA 
ENDBRANCH   9  14
ENDBRANCH   6   8
ENDBRANCH   4   6
ENDBRANCH   2   4
TORSDOF 4
ENDMDL
MODEL      275
REMARK 921   NORMALIZED FREE ENERGY PREDICTED BY IDOCK:   -2.04 KCAL/MOL
REMARK 922        TOTAL FREE ENERGY PREDICTED BY IDOCK:   -2.95 KCAL/MOL
REMARK 923 INTER-LIGAND FREE ENERGY PREDICTED BY IDOCK:   -2.48 KCAL/MOL
REMARK 924 INTRA-LIGAND FREE ENERGY PREDICTED BY IDOCK:   -0.47 KCAL/MOL
REMARK 927      BINDING AFFINITY PREDICTED BY RF-SCORE:    0.00 PKD
ROOT
HETATM    1  C   UNL     1     -10.773   3.445  63.668  1.00  0.00    -0.255 C  
HETATM    2  N   UNL     1      -9.664   2.952  64.463  1.00  0.00    -0.142 NA 
HETATM    3  C   UNL     1      -8.717   2.024  63.856  1.00  0.00    -0.090 C  
ENDROOT
BRANCH   2   4
HETATM    4  N   UNL     1      -9.268   3.797  65.470  1.00  0.00    -0.146 NA 
HETATM    5  H   UNL     1      -8.552   4.513  65.347  1.00  0.00     0.000 HD 
BRANCH   4   6
HETATM    6  N   UNL     1      -9.864   3.608  66.549  1.00  0.00    -0.410 NA 
HETATM    7  H   UNL     1     -10.054   2.673  66.911  1.00  0.00     0.000 HD 
BRANCH   6   8
HETATM    8  C   UNL     1     -10.244   4.731  67.209  1.00  0.00    -0.103 A  
HETATM    9  C   UNL     1     -10.216   5.111  68.542  1.00  0.00    -0.112 A  
HETATM   10  N   UNL     1     -10.749   6.391  68.700  1.00  0.00    -0.255 NA 
HETATM   11  N   UNL     1     -10.822   5.803  66.570  1.00  0.00    -0.233 NA 
HETATM   12  C   UNL     1     -11.097   6.769  67.493  1.00  0.00    -0.265 A  
HETATM   13  H   UNL     1     -10.846   6.919  69.567  1.00  0.00     0.000 HD 
BRANCH   9  14
HETATM   14  C   UNL     1      -9.709   4.332  69.670  1.00  0.00    -0.214 C  
HETATM   15  N   UNL     1     -10.279   4.672  70.865  1.00  0.00    -0.186 N  
HETATM   16  H2  UNL     1     -10.989   5.398  70.959  1.00  0.00     0.000 HD 
HETATM   17  H1  UNL     1      -9.926   4.129  71.652  1.00  0.00     0.000 HD 
HETATM   18  O   UNL     1      -8.855   3.454  69.597  1.00  0.00    -0.072 OA 
ENDBRANCH   9  14
ENDBRANCH   6   8
ENDBRANCH   4   6
ENDBRANCH   2   4
TORSDOF 4
ENDMDL
MODEL      276
REMARK 921   NORMALIZED FREE ENERGY PREDICTED BY IDOCK:   -2.03 KCAL/MOL
REMARK 922        TOTAL FREE ENERGY PREDICTED BY IDOCK:   -2.95 KCAL/MOL
REMARK 923 INTER-LIGAND FREE ENERGY PREDICTED BY IDOCK:   -2.48 KCAL/MOL
REMARK 924 INTRA-LIGAND FREE ENERGY PREDICTED BY IDOCK:   -0.47 KCAL/MOL
REMARK 927      BINDING AFFINITY PREDICTED BY RF-SCORE:    0.00 PKD
ROOT
HETATM    1  C   UNL     1      -7.596   9.293  65.880  1.00  0.00    -0.098 C  
HETATM    2  N   UNL     1      -8.586   9.337  66.942  1.00  0.00    -0.126 NA 
HETATM    3  C   UNL     1     -10.000   9.359  66.589  1.00  0.00    -0.258 C  
ENDROOT
BRANCH   2   4
HETATM    4  N   UNL     1      -8.170   8.786  68.128  1.00  0.00    -0.114 NA 
HETATM    5  H   UNL     1      -7.836   9.344  68.915  1.00  0.00     0.000 HD 
BRANCH   4   6
HETATM    6  N   UNL     1      -8.236   7.541  68.156  1.00  0.00    -0.124 NA 
HETATM    7  H   UNL     1      -8.109   6.970  67.321  1.00  0.00     0.000 HD 
BRANCH   6   8
HETATM    8  C   UNL     1      -8.491   6.999  69.374  1.00  0.00    -0.133 A  
HETATM    9  C   UNL     1      -9.593   7.012  70.213  1.00  0.00    -0.168 A  
HETATM   10  N   UNL     1      -9.330   6.296  71.383  1.00  0.00    -0.152 NA 
HETATM   11  N   UNL     1      -7.551   6.275  70.071  1.00  0.00    -0.094 NA 
HETATM   12  C   UNL     1      -8.096   5.871  71.253  1.00  0.00    -0.118 A  
HETATM   13  H   UNL     1      -9.961   6.138  72.169  1.00  0.00     0.000 HD 
BRANCH   9  14
HETATM   14  C   UNL     1     -10.881   7.658  69.968  1.00  0.00    -0.243 C  
HETATM   15  N   UNL     1     -11.951   6.831  70.168  1.00  0.00    -0.639 N  
HETATM   16  H2  UNL     1     -11.859   5.858  70.460  1.00  0.00     0.000 HD 
HETATM   17  H1  UNL     1     -12.849   7.281  69.996  1.00  0.00     0.000 HD 
HETATM   18  O   UNL     1     -11.032   8.823  69.613  1.00  0.00    -0.206 OA 
ENDBRANCH   9  14
ENDBRANCH   6   8
ENDBRANCH   4   6
ENDBRANCH   2   4
TORSDOF 4
ENDMDL
MODEL      277
REMARK 921   NORMALIZED FREE ENERGY PREDICTED BY IDOCK:   -2.03 KCAL/MOL
REMARK 922        TOTAL FREE ENERGY PREDICTED BY IDOCK:   -2.94 KCAL/MOL
REMARK 923 INTER-LIGAND FREE ENERGY PREDICTED BY IDOCK:   -2.43 KCAL/MOL
REMARK 924 INTRA-LIGAND FREE ENERGY PREDICTED BY IDOCK:   -0.52 KCAL/MOL
REMARK 927      BINDING AFFINITY PREDICTED BY RF-SCORE:    0.00 PKD
ROOT
HETATM    1  C   UNL     1     -11.219   6.307  68.856  1.00  0.00    -0.309 C  
HETATM    2  N   UNL     1      -9.875   5.794  69.054  1.00  0.00    -0.148 NA 
HETATM    3  C   UNL     1      -9.547   4.462  68.559  1.00  0.00    -0.143 C  
ENDROOT
BRANCH   2   4
HETATM    4  N   UNL     1      -8.907   6.762  69.152  1.00  0.00    -0.134 NA 
HETATM    5  H   UNL     1      -8.203   6.921  68.431  1.00  0.00     0.000 HD 
BRANCH   4   6
HETATM    6  N   UNL     1      -8.968   7.429  70.204  1.00  0.00    -0.148 NA 
HETATM    7  H   UNL     1      -9.374   8.365  70.234  1.00  0.00     0.000 HD 
BRANCH   6   8
HETATM    8  C   UNL     1      -8.457   6.825  71.307  1.00  0.00    -0.124 A  
HETATM    9  C   UNL     1      -8.898   6.694  72.615  1.00  0.00    -0.123 A  
HETATM   10  N   UNL     1      -7.973   5.976  73.376  1.00  0.00    -0.107 NA 
HETATM   11  N   UNL     1      -7.238   6.187  71.302  1.00  0.00    -0.077 NA 
HETATM   12  C   UNL     1      -6.997   5.690  72.548  1.00  0.00    -0.083 A  
HETATM   13  H   UNL     1      -8.043   5.727  74.363  1.00  0.00     0.000 HD 
BRANCH   9  14
HETATM   14  C   UNL     1     -10.145   7.204  73.180  1.00  0.00    -0.251 C  
HETATM   15  N   UNL     1     -10.529   6.557  74.321  1.00  0.00    -0.427 N  
HETATM   16  H2  UNL     1      -9.997   5.792  74.736  1.00  0.00     0.000 HD 
HETATM   17  H1  UNL     1     -11.399   6.913  74.715  1.00  0.00     0.000 HD 
HETATM   18  O   UNL     1     -10.814   8.119  72.709  1.00  0.00    -0.353 OA 
ENDBRANCH   9  14
ENDBRANCH   6   8
ENDBRANCH   4   6
ENDBRANCH   2   4
TORSDOF 4
ENDMDL
MODEL      278
REMARK 921   NORMALIZED FREE ENERGY PREDICTED BY IDOCK:   -2.02 KCAL/MOL
REMARK 922        TOTAL FREE ENERGY PREDICTED BY IDOCK:   -2.93 KCAL/MOL
REMARK 923 INTER-LIGAND FREE ENERGY PREDICTED BY IDOCK:   -2.28 KCAL/MOL
REMARK 924 INTRA-LIGAND FREE ENERGY PREDICTED BY IDOCK:   -0.65 KCAL/MOL
REMARK 927      BINDING AFFINITY PREDICTED BY RF-SCORE:    0.00 PKD
ROOT
HETATM    1  C   UNL     1      -9.624   4.027  63.585  1.00  0.00    -0.156 C  
HETATM    2  N   UNL     1      -9.317   3.846  64.993  1.00  0.00    -0.148 NA 
HETATM    3  C   UNL     1      -8.259   2.917  65.371  1.00  0.00    -0.091 C  
ENDROOT
BRANCH   2   4
HETATM    4  N   UNL     1      -9.610   4.930  65.781  1.00  0.00    -0.167 NA 
HETATM    5  H   UNL     1     -10.084   4.853  66.682  1.00  0.00     0.000 HD 
BRANCH   4   6
HETATM    6  N   UNL     1      -9.245   6.020  65.296  1.00  0.00    -0.360 NA 
HETATM    7  H   UNL     1      -9.518   6.317  64.359  1.00  0.00     0.000 HD 
BRANCH   6   8
HETATM    8  C   UNL     1      -8.460   6.782  66.099  1.00  0.00    -0.135 A  
HETATM    9  C   UNL     1      -8.715   7.590  67.195  1.00  0.00    -0.121 A  
HETATM   10  N   UNL     1      -7.536   8.176  67.659  1.00  0.00    -0.093 NA 
HETATM   11  N   UNL     1      -7.104   6.908  65.901  1.00  0.00    -0.071 NA 
HETATM   12  C   UNL     1      -6.596   7.738  66.856  1.00  0.00    -0.059 A  
HETATM   13  H   UNL     1      -7.429   8.809  68.452  1.00  0.00     0.000 HD 
BRANCH   9  14
HETATM   14  C   UNL     1     -10.009   7.833  67.829  1.00  0.00    -0.174 C  
HETATM   15  N   UNL     1     -10.928   6.852  67.580  1.00  0.00    -0.506 N  
HETATM   16  H2  UNL     1     -10.730   6.032  67.008  1.00  0.00     0.000 HD 
HETATM   17  H1  UNL     1     -11.831   7.021  68.022  1.00  0.00     0.000 HD 
HETATM   18  O   UNL     1     -10.287   8.807  68.521  1.00  0.00    -0.199 OA 
ENDBRANCH   9  14
ENDBRANCH   6   8
ENDBRANCH   4   6
ENDBRANCH   2   4
TORSDOF 4
ENDMDL
MODEL      279
REMARK 921   NORMALIZED FREE ENERGY PREDICTED BY IDOCK:   -2.00 KCAL/MOL
REMARK 922        TOTAL FREE ENERGY PREDICTED BY IDOCK:   -2.90 KCAL/MOL
REMARK 923 INTER-LIGAND FREE ENERGY PREDICTED BY IDOCK:   -2.42 KCAL/MOL
REMARK 924 INTRA-LIGAND FREE ENERGY PREDICTED BY IDOCK:   -0.49 KCAL/MOL
REMARK 927      BINDING AFFINITY PREDICTED BY RF-SCORE:    0.00 PKD
ROOT
HETATM    1  C   UNL     1      -7.709   6.082  66.668  1.00  0.00    -0.103 C  
HETATM    2  N   UNL     1      -8.827   6.861  67.169  1.00  0.00    -0.119 NA 
HETATM    3  C   UNL     1     -10.032   6.972  66.355  1.00  0.00    -0.007 C  
ENDROOT
BRANCH   2   4
HETATM    4  N   UNL     1      -8.898   6.936  68.537  1.00  0.00    -0.124 NA 
HETATM    5  H   UNL     1      -8.086   7.115  69.129  1.00  0.00     0.000 HD 
BRANCH   4   6
HETATM    6  N   UNL     1     -10.047   6.764  68.992  1.00  0.00    -0.159 NA 
HETATM    7  H   UNL     1     -10.866   7.219  68.589  1.00  0.00     0.000 HD 
BRANCH   6   8
HETATM    8  C   UNL     1     -10.133   5.930  70.059  1.00  0.00    -0.198 A  
HETATM    9  C   UNL     1     -10.643   6.069  71.340  1.00  0.00    -0.246 A  
HETATM   10  N   UNL     1     -10.469   4.892  72.070  1.00  0.00    -0.199 NA 
HETATM   11  N   UNL     1      -9.630   4.650  70.039  1.00  0.00    -0.169 NA 
HETATM   12  C   UNL     1      -9.859   4.068  71.250  1.00  0.00    -0.172 A  
HETATM   13  H   UNL     1     -10.753   4.711  73.032  1.00  0.00     0.000 HD 
BRANCH   9  14
HETATM   14  C   UNL     1     -11.291   7.249  71.908  1.00  0.00    -0.254 C  
HETATM   15  N   UNL     1     -11.844   8.072  70.966  1.00  0.00    -0.336 N  
HETATM   16  H2  UNL     1     -11.808   7.880  69.965  1.00  0.00     0.000 HD 
HETATM   17  H1  UNL     1     -12.296   8.895  71.362  1.00  0.00     0.000 HD 
HETATM   18  O   UNL     1     -11.353   7.517  73.104  1.00  0.00    -0.331 OA 
ENDBRANCH   9  14
ENDBRANCH   6   8
ENDBRANCH   4   6
ENDBRANCH   2   4
TORSDOF 4
ENDMDL
MODEL      280
REMARK 921   NORMALIZED FREE ENERGY PREDICTED BY IDOCK:   -2.00 KCAL/MOL
REMARK 922        TOTAL FREE ENERGY PREDICTED BY IDOCK:   -2.90 KCAL/MOL
REMARK 923 INTER-LIGAND FREE ENERGY PREDICTED BY IDOCK:   -2.46 KCAL/MOL
REMARK 924 INTRA-LIGAND FREE ENERGY PREDICTED BY IDOCK:   -0.44 KCAL/MOL
REMARK 927      BINDING AFFINITY PREDICTED BY RF-SCORE:    0.00 PKD
ROOT
HETATM    1  C   UNL     1      -6.753   8.085  73.138  1.00  0.00    -0.094 C  
HETATM    2  N   UNL     1      -8.119   7.673  72.867  1.00  0.00    -0.106 NA 
HETATM    3  C   UNL     1      -9.074   7.624  73.968  1.00  0.00    -0.225 C  
ENDROOT
BRANCH   2   4
HETATM    4  N   UNL     1      -8.542   7.920  71.585  1.00  0.00    -0.114 NA 
HETATM    5  H   UNL     1      -8.098   8.606  70.973  1.00  0.00     0.000 HD 
BRANCH   4   6
HETATM    6  N   UNL     1      -9.519   7.228  71.235  1.00  0.00    -0.155 NA 
HETATM    7  H   UNL     1     -10.437   7.322  71.671  1.00  0.00     0.000 HD 
BRANCH   6   8
HETATM    8  C   UNL     1      -9.278   6.341  70.236  1.00  0.00    -0.157 A  
HETATM    9  C   UNL     1      -9.666   6.272  68.908  1.00  0.00    -0.129 A  
HETATM   10  N   UNL     1      -9.148   5.125  68.303  1.00  0.00    -0.110 NA 
HETATM   11  N   UNL     1      -8.531   5.202  70.424  1.00  0.00    -0.107 NA 
HETATM   12  C   UNL     1      -8.473   4.515  69.248  1.00  0.00    -0.078 A  
HETATM   13  H   UNL     1      -9.269   4.826  67.336  1.00  0.00     0.000 HD 
BRANCH   9  14
HETATM   14  C   UNL     1     -10.492   7.232  68.179  1.00  0.00    -0.198 C  
HETATM   15  N   UNL     1     -11.387   6.644  67.330  1.00  0.00    -0.783 N  
HETATM   16  H2  UNL     1     -11.470   5.634  67.216  1.00  0.00     0.000 HD 
HETATM   17  H1  UNL     1     -11.964   7.313  66.821  1.00  0.00     0.000 HD 
HETATM   18  O   UNL     1     -10.422   8.452  68.287  1.00  0.00    -0.206 OA 
ENDBRANCH   9  14
ENDBRANCH   6   8
ENDBRANCH   4   6
ENDBRANCH   2   4
TORSDOF 4
ENDMDL
MODEL      281
REMARK 921   NORMALIZED FREE ENERGY PREDICTED BY IDOCK:   -1.98 KCAL/MOL
REMARK 922        TOTAL FREE ENERGY PREDICTED BY IDOCK:   -2.89 KCAL/MOL
REMARK 923 INTER-LIGAND FREE ENERGY PREDICTED BY IDOCK:   -2.37 KCAL/MOL
REMARK 924 INTRA-LIGAND FREE ENERGY PREDICTED BY IDOCK:   -0.52 KCAL/MOL
REMARK 927      BINDING AFFINITY PREDICTED BY RF-SCORE:    0.00 PKD
ROOT
HETATM    1  C   UNL     1      -8.039   7.772  72.513  1.00  0.00    -0.122 C  
HETATM    2  N   UNL     1      -9.050   7.977  71.490  1.00  0.00    -0.136 NA 
HETATM    3  C   UNL     1     -10.263   8.709  71.834  1.00  0.00    -0.334 C  
ENDROOT
BRANCH   2   4
HETATM    4  N   UNL     1      -8.564   7.992  70.207  1.00  0.00    -0.131 NA 
HETATM    5  H   UNL     1      -8.214   8.837  69.753  1.00  0.00     0.000 HD 
BRANCH   4   6
HETATM    6  N   UNL     1      -8.589   6.878  69.647  1.00  0.00    -0.133 NA 
HETATM    7  H   UNL     1      -8.136   6.056  70.047  1.00  0.00     0.000 HD 
BRANCH   6   8
HETATM    8  C   UNL     1      -9.260   6.834  68.468  1.00  0.00    -0.128 A  
HETATM    9  C   UNL     1      -8.869   6.932  67.142  1.00  0.00    -0.120 A  
HETATM   10  N   UNL     1      -9.975   6.835  66.294  1.00  0.00    -0.415 NA 
HETATM   11  N   UNL     1     -10.627   6.694  68.402  1.00  0.00    -0.219 NA 
HETATM   12  C   UNL     1     -11.006   6.691  67.092  1.00  0.00    -0.408 A  
HETATM   13  H   UNL     1      -9.979   6.869  65.275  1.00  0.00     0.000 HD 
BRANCH   9  14
HETATM   14  C   UNL     1      -7.510   7.107  66.635  1.00  0.00    -0.088 C  
HETATM   15  N   UNL     1      -7.458   7.326  65.286  1.00  0.00    -0.083 N  
HETATM   16  H2  UNL     1      -8.286   7.363  64.693  1.00  0.00     0.000 HD 
HETATM   17  H1  UNL     1      -6.510   7.448  64.932  1.00  0.00     0.000 HD 
HETATM   18  O   UNL     1      -6.490   7.067  67.315  1.00  0.00    -0.049 OA 
ENDBRANCH   9  14
ENDBRANCH   6   8
ENDBRANCH   4   6
ENDBRANCH   2   4
TORSDOF 4
ENDMDL
MODEL      282
REMARK 921   NORMALIZED FREE ENERGY PREDICTED BY IDOCK:   -1.97 KCAL/MOL
REMARK 922        TOTAL FREE ENERGY PREDICTED BY IDOCK:   -2.86 KCAL/MOL
REMARK 923 INTER-LIGAND FREE ENERGY PREDICTED BY IDOCK:   -2.42 KCAL/MOL
REMARK 924 INTRA-LIGAND FREE ENERGY PREDICTED BY IDOCK:   -0.45 KCAL/MOL
REMARK 927      BINDING AFFINITY PREDICTED BY RF-SCORE:    0.00 PKD
ROOT
HETATM    1  C   UNL     1      -8.133   7.757  72.537  1.00  0.00    -0.122 C  
HETATM    2  N   UNL     1      -9.245   7.691  71.606  1.00  0.00    -0.133 NA 
HETATM    3  C   UNL     1     -10.556   8.161  72.038  1.00  0.00    -0.269 C  
ENDROOT
BRANCH   2   4
HETATM    4  N   UNL     1      -8.882   7.746  70.284  1.00  0.00    -0.143 NA 
HETATM    5  H   UNL     1      -8.778   8.622  69.771  1.00  0.00     0.000 HD 
BRANCH   4   6
HETATM    6  N   UNL     1      -8.692   6.627  69.767  1.00  0.00    -0.139 NA 
HETATM    7  H   UNL     1      -7.962   5.993  70.093  1.00  0.00     0.000 HD 
BRANCH   6   8
HETATM    8  C   UNL     1      -9.524   6.309  68.742  1.00  0.00    -0.122 A  
HETATM    9  C   UNL     1      -9.855   5.119  68.116  1.00  0.00    -0.151 A  
HETATM   10  N   UNL     1     -10.769   5.343  67.084  1.00  0.00    -0.303 NA 
HETATM   11  N   UNL     1     -10.242   7.259  68.054  1.00  0.00    -0.176 NA 
HETATM   12  C   UNL     1     -10.974   6.639  67.085  1.00  0.00    -0.408 A  
HETATM   13  H   UNL     1     -11.186   4.650  66.464  1.00  0.00     0.000 HD 
BRANCH   9  14
HETATM   14  C   UNL     1      -9.361   3.783  68.443  1.00  0.00    -0.166 C  
HETATM   15  N   UNL     1      -8.733   3.718  69.656  1.00  0.00    -0.073 N  
HETATM   16  H2  UNL     1      -8.621   4.523  70.271  1.00  0.00     0.000 HD 
HETATM   17  H1  UNL     1      -8.388   2.786  69.884  1.00  0.00     0.000 HD 
HETATM   18  O   UNL     1      -9.474   2.792  67.729  1.00  0.00    -0.210 OA 
ENDBRANCH   9  14
ENDBRANCH   6   8
ENDBRANCH   4   6
ENDBRANCH   2   4
TORSDOF 4
ENDMDL
MODEL      283
REMARK 921   NORMALIZED FREE ENERGY PREDICTED BY IDOCK:   -1.94 KCAL/MOL
REMARK 922        TOTAL FREE ENERGY PREDICTED BY IDOCK:   -2.83 KCAL/MOL
REMARK 923 INTER-LIGAND FREE ENERGY PREDICTED BY IDOCK:   -2.45 KCAL/MOL
REMARK 924 INTRA-LIGAND FREE ENERGY PREDICTED BY IDOCK:   -0.38 KCAL/MOL
REMARK 927      BINDING AFFINITY PREDICTED BY RF-SCORE:    0.00 PKD
ROOT
HETATM    1  C   UNL     1      -6.806   9.520  66.358  1.00  0.00    -0.083 C  
HETATM    2  N   UNL     1      -7.867  10.079  65.539  1.00  0.00    -0.128 NA 
HETATM    3  C   UNL     1      -8.611   9.195  64.648  1.00  0.00    -0.182 C  
ENDROOT
BRANCH   2   4
HETATM    4  N   UNL     1      -8.455  11.203  66.061  1.00  0.00    -0.244 NA 
HETATM    5  H   UNL     1      -9.445  11.420  65.942  1.00  0.00     0.000 HD 
BRANCH   4   6
HETATM    6  N   UNL     1      -7.669  11.934  66.696  1.00  0.00    -0.364 NA 
HETATM    7  H   UNL     1      -6.656  11.829  66.632  1.00  0.00     0.000 HD 
BRANCH   6   8
HETATM    8  C   UNL     1      -8.252  12.878  67.477  1.00  0.00    -0.184 A  
HETATM    9  C   UNL     1      -7.807  13.645  68.541  1.00  0.00    -0.131 A  
HETATM   10  N   UNL     1      -8.827  14.474  69.012  1.00  0.00    -0.351 NA 
HETATM   11  N   UNL     1      -9.569  13.249  67.328  1.00  0.00    -0.227 NA 
HETATM   12  C   UNL     1      -9.863  14.204  68.254  1.00  0.00    -0.235 A  
HETATM   13  H   UNL     1      -8.777  15.143  69.779  1.00  0.00     0.000 HD 
BRANCH   9  14
HETATM   14  C   UNL     1      -6.470  13.641  69.132  1.00  0.00    -0.107 C  
HETATM   15  N   UNL     1      -6.127  12.440  69.689  1.00  0.00    -0.124 N  
HETATM   16  H2  UNL     1      -6.743  11.628  69.692  1.00  0.00     0.000 HD 
HETATM   17  H1  UNL     1      -5.194  12.437  70.102  1.00  0.00     0.000 HD 
HETATM   18  O   UNL     1      -5.701  14.597  69.151  1.00  0.00    -0.094 OA 
ENDBRANCH   9  14
ENDBRANCH   6   8
ENDBRANCH   4   6
ENDBRANCH   2   4
TORSDOF 4
ENDMDL
MODEL      284
REMARK 921   NORMALIZED FREE ENERGY PREDICTED BY IDOCK:   -1.93 KCAL/MOL
REMARK 922        TOTAL FREE ENERGY PREDICTED BY IDOCK:   -2.82 KCAL/MOL
REMARK 923 INTER-LIGAND FREE ENERGY PREDICTED BY IDOCK:   -2.20 KCAL/MOL
REMARK 924 INTRA-LIGAND FREE ENERGY PREDICTED BY IDOCK:   -0.62 KCAL/MOL
REMARK 927      BINDING AFFINITY PREDICTED BY RF-SCORE:    0.00 PKD
ROOT
HETATM    1  C   UNL     1      -7.481   8.536  69.043  1.00  0.00    -0.089 C  
HETATM    2  N   UNL     1      -8.821   8.790  69.540  1.00  0.00    -0.141 NA 
HETATM    3  C   UNL     1      -9.809   9.374  68.641  1.00  0.00    -0.163 C  
ENDROOT
BRANCH   2   4
HETATM    4  N   UNL     1      -9.210   7.969  70.569  1.00  0.00    -0.153 NA 
HETATM    5  H   UNL     1      -9.040   8.187  71.551  1.00  0.00     0.000 HD 
BRANCH   4   6
HETATM    6  N   UNL     1      -9.791   6.932  70.192  1.00  0.00    -0.177 NA 
HETATM    7  H   UNL     1     -10.426   6.921  69.394  1.00  0.00     0.000 HD 
BRANCH   6   8
HETATM    8  C   UNL     1      -9.520   5.817  70.917  1.00  0.00    -0.165 A  
HETATM    9  C   UNL     1      -9.852   5.408  72.199  1.00  0.00    -0.169 A  
HETATM   10  N   UNL     1      -9.301   4.155  72.474  1.00  0.00    -0.117 NA 
HETATM   11  N   UNL     1      -8.743   4.791  70.432  1.00  0.00    -0.096 NA 
HETATM   12  C   UNL     1      -8.647   3.822  71.387  1.00  0.00    -0.084 A  
HETATM   13  H   UNL     1      -9.389   3.614  73.335  1.00  0.00     0.000 HD 
BRANCH   9  14
HETATM   14  C   UNL     1     -10.663   6.134  73.174  1.00  0.00    -0.260 C  
HETATM   15  N   UNL     1     -11.453   7.098  72.612  1.00  0.00    -0.443 N  
HETATM   16  H2  UNL     1     -11.474   7.291  71.611  1.00  0.00     0.000 HD 
HETATM   17  H1  UNL     1     -12.020   7.605  73.292  1.00  0.00     0.000 HD 
HETATM   18  O   UNL     1     -10.664   5.933  74.384  1.00  0.00    -0.141 OA 
ENDBRANCH   9  14
ENDBRANCH   6   8
ENDBRANCH   4   6
ENDBRANCH   2   4
TORSDOF 4
ENDMDL
MODEL      285
REMARK 921   NORMALIZED FREE ENERGY PREDICTED BY IDOCK:   -1.89 KCAL/MOL
REMARK 922        TOTAL FREE ENERGY PREDICTED BY IDOCK:   -2.78 KCAL/MOL
REMARK 923 INTER-LIGAND FREE ENERGY PREDICTED BY IDOCK:   -2.22 KCAL/MOL
REMARK 924 INTRA-LIGAND FREE ENERGY PREDICTED BY IDOCK:   -0.56 KCAL/MOL
REMARK 927      BINDING AFFINITY PREDICTED BY RF-SCORE:    0.00 PKD
ROOT
HETATM    1  C   UNL     1      -8.942   8.683  71.280  1.00  0.00    -0.210 C  
HETATM    2  N   UNL     1      -9.792   9.068  70.167  1.00  0.00    -0.177 NA 
HETATM    3  C   UNL     1     -10.681  10.213  70.321  1.00  0.00    -0.293 C  
ENDROOT
BRANCH   2   4
HETATM    4  N   UNL     1      -9.301   8.724  68.932  1.00  0.00    -0.144 NA 
HETATM    5  H   UNL     1      -9.684   9.087  68.059  1.00  0.00     0.000 HD 
BRANCH   4   6
HETATM    6  N   UNL     1      -8.343   7.927  68.976  1.00  0.00    -0.129 NA 
HETATM    7  H   UNL     1      -7.462   8.157  69.438  1.00  0.00     0.000 HD 
BRANCH   6   8
HETATM    8  C   UNL     1      -8.551   6.732  68.368  1.00  0.00    -0.125 A  
HETATM    9  C   UNL     1      -8.696   6.347  67.045  1.00  0.00    -0.115 A  
HETATM   10  N   UNL     1      -8.909   4.970  66.953  1.00  0.00    -0.107 NA 
HETATM   11  N   UNL     1      -8.698   5.560  69.073  1.00  0.00    -0.103 NA 
HETATM   12  C   UNL     1      -8.899   4.539  68.192  1.00  0.00    -0.107 A  
HETATM   13  H   UNL     1      -9.042   4.418  66.105  1.00  0.00     0.000 HD 
BRANCH   9  14
HETATM   14  C   UNL     1      -8.641   7.208  65.865  1.00  0.00    -0.148 C  
HETATM   15  N   UNL     1      -9.587   8.195  65.868  1.00  0.00    -0.446 N  
HETATM   16  H2  UNL     1     -10.264   8.318  66.620  1.00  0.00     0.000 HD 
HETATM   17  H1  UNL     1      -9.548   8.795  65.045  1.00  0.00     0.000 HD 
HETATM   18  O   UNL     1      -7.844   7.090  64.940  1.00  0.00    -0.113 OA 
ENDBRANCH   9  14
ENDBRANCH   6   8
ENDBRANCH   4   6
ENDBRANCH   2   4
TORSDOF 4
ENDMDL
MODEL      286
REMARK 921   NORMALIZED FREE ENERGY PREDICTED BY IDOCK:   -1.83 KCAL/MOL
REMARK 922        TOTAL FREE ENERGY PREDICTED BY IDOCK:   -2.70 KCAL/MOL
REMARK 923 INTER-LIGAND FREE ENERGY PREDICTED BY IDOCK:   -2.21 KCAL/MOL
REMARK 924 INTRA-LIGAND FREE ENERGY PREDICTED BY IDOCK:   -0.49 KCAL/MOL
REMARK 927      BINDING AFFINITY PREDICTED BY RF-SCORE:    0.00 PKD
ROOT
HETATM    1  C   UNL     1      -7.813   8.177  69.987  1.00  0.00    -0.103 C  
HETATM    2  N   UNL     1      -7.510   8.036  68.574  1.00  0.00    -0.100 NA 
HETATM    3  C   UNL     1      -8.118   6.940  67.827  1.00  0.00    -0.114 C  
ENDROOT
BRANCH   2   4
HETATM    4  N   UNL     1      -7.175   9.209  67.945  1.00  0.00    -0.079 NA 
HETATM    5  H   UNL     1      -6.293   9.696  68.108  1.00  0.00     0.000 HD 
BRANCH   4   6
HETATM    6  N   UNL     1      -8.047   9.624  67.157  1.00  0.00    -0.109 NA 
HETATM    7  H   UNL     1      -8.520   9.010  66.493  1.00  0.00     0.000 HD 
BRANCH   6   8
HETATM    8  C   UNL     1      -8.325  10.950  67.242  1.00  0.00    -0.123 A  
HETATM    9  C   UNL     1      -9.003  11.838  66.422  1.00  0.00    -0.201 A  
HETATM   10  N   UNL     1      -8.993  13.122  66.971  1.00  0.00    -0.226 NA 
HETATM   11  N   UNL     1      -7.890  11.730  68.288  1.00  0.00    -0.130 NA 
HETATM   12  C   UNL     1      -8.317  13.010  68.090  1.00  0.00    -0.164 A  
HETATM   13  H   UNL     1      -9.418  13.964  66.585  1.00  0.00     0.000 HD 
BRANCH   9  14
HETATM   14  C   UNL     1      -9.663  11.538  65.153  1.00  0.00    -0.237 C  
HETATM   15  N   UNL     1      -8.858  10.885  64.263  1.00  0.00    -0.341 N  
HETATM   16  H2  UNL     1      -7.891  10.633  64.464  1.00  0.00     0.000 HD 
HETATM   17  H1  UNL     1      -9.318  10.676  63.378  1.00  0.00     0.000 HD 
HETATM   18  O   UNL     1     -10.822  11.827  64.873  1.00  0.00    -0.283 OA 
ENDBRANCH   9  14
ENDBRANCH   6   8
ENDBRANCH   4   6
ENDBRANCH   2   4
TORSDOF 4
ENDMDL
MODEL      287
REMARK 921   NORMALIZED FREE ENERGY PREDICTED BY IDOCK:   -1.83 KCAL/MOL
REMARK 922        TOTAL FREE ENERGY PREDICTED BY IDOCK:   -2.69 KCAL/MOL
REMARK 923 INTER-LIGAND FREE ENERGY PREDICTED BY IDOCK:   -2.21 KCAL/MOL
REMARK 924 INTRA-LIGAND FREE ENERGY PREDICTED BY IDOCK:   -0.49 KCAL/MOL
REMARK 927      BINDING AFFINITY PREDICTED BY RF-SCORE:    0.00 PKD
ROOT
HETATM    1  C   UNL     1     -10.660   3.552  64.024  1.00  0.00    -0.239 C  
HETATM    2  N   UNL     1      -9.367   4.212  63.998  1.00  0.00    -0.151 NA 
HETATM    3  C   UNL     1      -8.435   3.897  62.921  1.00  0.00    -0.087 C  
ENDROOT
BRANCH   2   4
HETATM    4  N   UNL     1      -9.346   5.443  64.604  1.00  0.00    -0.335 NA 
HETATM    5  H   UNL     1      -9.811   6.264  64.215  1.00  0.00     0.000 HD 
BRANCH   4   6
HETATM    6  N   UNL     1      -8.707   5.466  65.674  1.00  0.00    -0.148 NA 
HETATM    7  H   UNL     1      -7.732   5.170  65.734  1.00  0.00     0.000 HD 
BRANCH   6   8
HETATM    8  C   UNL     1      -9.396   5.911  66.755  1.00  0.00    -0.136 A  
HETATM    9  C   UNL     1      -9.020   6.515  67.945  1.00  0.00    -0.115 A  
HETATM   10  N   UNL     1     -10.137   6.766  68.744  1.00  0.00    -0.154 NA 
HETATM   11  N   UNL     1     -10.762   5.788  66.863  1.00  0.00    -0.306 NA 
HETATM   12  C   UNL     1     -11.159   6.316  68.055  1.00  0.00    -0.265 A  
HETATM   13  H   UNL     1     -10.155   7.205  69.664  1.00  0.00     0.000 HD 
BRANCH   9  14
HETATM   14  C   UNL     1      -7.666   6.870  68.364  1.00  0.00    -0.116 C  
HETATM   15  N   UNL     1      -6.929   7.459  67.374  1.00  0.00    -0.077 N  
HETATM   16  H2  UNL     1      -7.288   7.632  66.436  1.00  0.00     0.000 HD 
HETATM   17  H1  UNL     1      -5.984   7.707  67.666  1.00  0.00     0.000 HD 
HETATM   18  O   UNL     1      -7.196   6.676  69.480  1.00  0.00    -0.077 OA 
ENDBRANCH   9  14
ENDBRANCH   6   8
ENDBRANCH   4   6
ENDBRANCH   2   4
TORSDOF 4
ENDMDL
MODEL      288
REMARK 921   NORMALIZED FREE ENERGY PREDICTED BY IDOCK:   -1.81 KCAL/MOL
REMARK 922        TOTAL FREE ENERGY PREDICTED BY IDOCK:   -2.68 KCAL/MOL
REMARK 923 INTER-LIGAND FREE ENERGY PREDICTED BY IDOCK:   -2.39 KCAL/MOL
REMARK 924 INTRA-LIGAND FREE ENERGY PREDICTED BY IDOCK:   -0.29 KCAL/MOL
REMARK 927      BINDING AFFINITY PREDICTED BY RF-SCORE:    0.00 PKD
ROOT
HETATM    1  C   UNL     1      -9.454   2.657  64.774  1.00  0.00    -0.116 C  
HETATM    2  N   UNL     1      -9.217   3.678  65.778  1.00  0.00    -0.152 NA 
HETATM    3  C   UNL     1      -9.225   3.300  67.186  1.00  0.00    -0.187 C  
ENDROOT
BRANCH   2   4
HETATM    4  N   UNL     1      -8.459   4.737  65.343  1.00  0.00    -0.125 NA 
HETATM    5  H   UNL     1      -8.174   4.855  64.370  1.00  0.00     0.000 HD 
BRANCH   4   6
HETATM    6  N   UNL     1      -8.151   5.540  66.246  1.00  0.00    -0.105 NA 
HETATM    7  H   UNL     1      -7.435   5.330  66.942  1.00  0.00     0.000 HD 
BRANCH   6   8
HETATM    8  C   UNL     1      -8.835   6.713  66.240  1.00  0.00    -0.147 A  
HETATM    9  C   UNL     1      -8.776   7.847  65.446  1.00  0.00    -0.046 A  
HETATM   10  N   UNL     1      -9.705   8.797  65.876  1.00  0.00    -0.447 NA 
HETATM   11  N   UNL     1      -9.806   7.007  67.169  1.00  0.00    -0.160 NA 
HETATM   12  C   UNL     1     -10.301   8.250  66.909  1.00  0.00    -0.320 A  
HETATM   13  H   UNL     1      -9.882   9.718  65.474  1.00  0.00     0.000 HD 
BRANCH   9  14
HETATM   14  C   UNL     1      -7.896   8.079  64.303  1.00  0.00    -0.137 C  
HETATM   15  N   UNL     1      -8.428   7.660  63.115  1.00  0.00    -0.373 N  
HETATM   16  H2  UNL     1      -9.348   7.228  63.035  1.00  0.00     0.000 HD 
HETATM   17  H1  UNL     1      -7.814   7.822  62.317  1.00  0.00     0.000 HD 
HETATM   18  O   UNL     1      -6.783   8.592  64.358  1.00  0.00    -0.070 OA 
ENDBRANCH   9  14
ENDBRANCH   6   8
ENDBRANCH   4   6
ENDBRANCH   2   4
TORSDOF 4
ENDMDL
MODEL      289
REMARK 921   NORMALIZED FREE ENERGY PREDICTED BY IDOCK:   -1.80 KCAL/MOL
REMARK 922        TOTAL FREE ENERGY PREDICTED BY IDOCK:   -2.66 KCAL/MOL
REMARK 923 INTER-LIGAND FREE ENERGY PREDICTED BY IDOCK:   -2.80 KCAL/MOL
REMARK 924 INTRA-LIGAND FREE ENERGY PREDICTED BY IDOCK:    0.14 KCAL/MOL
REMARK 927      BINDING AFFINITY PREDICTED BY RF-SCORE:    0.00 PKD
ROOT
HETATM    1  C   UNL     1      -5.150  16.442  70.808  1.00  0.00    -0.202 C  
HETATM    2  N   UNL     1      -5.908  16.366  69.572  1.00  0.00    -0.159 NA 
HETATM    3  C   UNL     1      -6.252  15.055  69.035  1.00  0.00    -0.098 C  
ENDROOT
BRANCH   2   4
HETATM    4  N   UNL     1      -6.709  17.454  69.328  1.00  0.00    -0.242 NA 
HETATM    5  H   UNL     1      -7.130  18.013  70.071  1.00  0.00     0.000 HD 
BRANCH   4   6
HETATM    6  N   UNL     1      -6.873  17.696  68.116  1.00  0.00    -0.201 NA 
HETATM    7  H   UNL     1      -6.161  18.159  67.551  1.00  0.00     0.000 HD 
BRANCH   6   8
HETATM    8  C   UNL     1      -8.065  17.301  67.600  1.00  0.00    -0.191 A  
HETATM    9  C   UNL     1      -9.377  17.687  67.823  1.00  0.00    -0.255 A  
HETATM   10  N   UNL     1     -10.251  16.943  67.027  1.00  0.00    -0.292 NA 
HETATM   11  N   UNL     1      -8.168  16.296  66.666  1.00  0.00    -0.251 NA 
HETATM   12  C   UNL     1      -9.483  16.124  66.349  1.00  0.00    -0.295 A  
HETATM   13  H   UNL     1     -11.267  17.021  66.982  1.00  0.00     0.000 HD 
BRANCH   9  14
HETATM   14  C   UNL     1      -9.847  18.722  68.740  1.00  0.00    -0.384 C  
HETATM   15  N   UNL     1     -10.384  18.221  69.894  1.00  0.00     0.158 N  
HETATM   16  H2  UNL     1     -10.448  17.224  70.094  1.00  0.00     0.000 HD 
HETATM   17  H1  UNL     1     -10.712  18.943  70.535  1.00  0.00     0.000 HD 
HETATM   18  O   UNL     1      -9.789  19.930  68.535  1.00  0.00    -0.382 OA 
ENDBRANCH   9  14
ENDBRANCH   6   8
ENDBRANCH   4   6
ENDBRANCH   2   4
TORSDOF 4
ENDMDL
MODEL      290
REMARK 921   NORMALIZED FREE ENERGY PREDICTED BY IDOCK:   -1.74 KCAL/MOL
REMARK 922        TOTAL FREE ENERGY PREDICTED BY IDOCK:   -2.59 KCAL/MOL
REMARK 923 INTER-LIGAND FREE ENERGY PREDICTED BY IDOCK:   -2.07 KCAL/MOL
REMARK 924 INTRA-LIGAND FREE ENERGY PREDICTED BY IDOCK:   -0.52 KCAL/MOL
REMARK 927      BINDING AFFINITY PREDICTED BY RF-SCORE:    0.00 PKD
ROOT
HETATM    1  C   UNL     1      -8.836   8.669  70.198  1.00  0.00    -0.141 C  
HETATM    2  N   UNL     1      -8.136   7.746  71.073  1.00  0.00    -0.096 NA 
HETATM    3  C   UNL     1      -7.891   8.134  72.457  1.00  0.00    -0.136 C  
ENDROOT
BRANCH   2   4
HETATM    4  N   UNL     1      -8.275   6.424  70.731  1.00  0.00    -0.123 NA 
HETATM    5  H   UNL     1      -7.483   5.786  70.640  1.00  0.00     0.000 HD 
BRANCH   4   6
HETATM    6  N   UNL     1      -9.457   6.075  70.543  1.00  0.00    -0.166 NA 
HETATM    7  H   UNL     1      -9.973   6.327  69.700  1.00  0.00     0.000 HD 
BRANCH   6   8
HETATM    8  C   UNL     1     -10.011   5.335  71.537  1.00  0.00    -0.182 A  
HETATM    9  C   UNL     1      -9.929   3.998  71.892  1.00  0.00    -0.176 A  
HETATM   10  N   UNL     1     -10.721   3.736  73.012  1.00  0.00    -0.167 NA 
HETATM   11  N   UNL     1     -10.884   5.870  72.457  1.00  0.00    -0.232 NA 
HETATM   12  C   UNL     1     -11.272   4.887  73.317  1.00  0.00    -0.345 A  
HETATM   13  H   UNL     1     -10.844   2.844  73.489  1.00  0.00     0.000 HD 
BRANCH   9  14
HETATM   14  C   UNL     1      -9.141   2.959  71.234  1.00  0.00    -0.109 C  
HETATM   15  N   UNL     1      -9.410   2.835  69.900  1.00  0.00    -0.144 N  
HETATM   16  H2  UNL     1     -10.095   3.412  69.411  1.00  0.00     0.000 HD 
HETATM   17  H1  UNL     1      -8.860   2.110  69.440  1.00  0.00     0.000 HD 
HETATM   18  O   UNL     1      -8.311   2.243  71.786  1.00  0.00    -0.055 OA 
ENDBRANCH   9  14
ENDBRANCH   6   8
ENDBRANCH   4   6
ENDBRANCH   2   4
TORSDOF 4
ENDMDL
MODEL      291
REMARK 921   NORMALIZED FREE ENERGY PREDICTED BY IDOCK:   -1.74 KCAL/MOL
REMARK 922        TOTAL FREE ENERGY PREDICTED BY IDOCK:   -2.59 KCAL/MOL
REMARK 923 INTER-LIGAND FREE ENERGY PREDICTED BY IDOCK:   -2.33 KCAL/MOL
REMARK 924 INTRA-LIGAND FREE ENERGY PREDICTED BY IDOCK:   -0.25 KCAL/MOL
REMARK 927      BINDING AFFINITY PREDICTED BY RF-SCORE:    0.00 PKD
ROOT
HETATM    1  C   UNL     1     -11.409  12.214  65.079  1.00  0.00    -0.328 C  
HETATM    2  N   UNL     1     -10.088  11.613  65.098  1.00  0.00    -0.252 NA 
HETATM    3  C   UNL     1      -9.630  10.875  63.927  1.00  0.00    -0.284 C  
ENDROOT
BRANCH   2   4
HETATM    4  N   UNL     1      -9.190  12.244  65.922  1.00  0.00    -0.427 NA 
HETATM    5  H   UNL     1      -9.420  13.078  66.463  1.00  0.00     0.000 HD 
BRANCH   4   6
HETATM    6  N   UNL     1      -8.065  11.704  65.948  1.00  0.00    -0.351 NA 
HETATM    7  H   UNL     1      -7.618  11.335  65.109  1.00  0.00     0.000 HD 
BRANCH   6   8
HETATM    8  C   UNL     1      -7.478  11.641  67.170  1.00  0.00    -0.146 A  
HETATM    9  C   UNL     1      -6.895  10.615  67.897  1.00  0.00    -0.073 A  
HETATM   10  N   UNL     1      -6.443  11.083  69.133  1.00  0.00    -0.059 NA 
HETATM   11  N   UNL     1      -7.384  12.733  68.002  1.00  0.00    -0.103 NA 
HETATM   12  C   UNL     1      -6.755  12.357  69.151  1.00  0.00    -0.090 A  
HETATM   13  H   UNL     1      -5.972  10.549  69.863  1.00  0.00     0.000 HD 
BRANCH   9  14
HETATM   14  C   UNL     1      -6.737   9.222  67.485  1.00  0.00    -0.069 C  
HETATM   15  N   UNL     1      -7.754   8.413  67.909  1.00  0.00    -0.102 N  
HETATM   16  H2  UNL     1      -8.545   8.748  68.459  1.00  0.00     0.000 HD 
HETATM   17  H1  UNL     1      -7.645   7.440  67.622  1.00  0.00     0.000 HD 
HETATM   18  O   UNL     1      -5.801   8.780  66.827  1.00  0.00    -0.050 OA 
ENDBRANCH   9  14
ENDBRANCH   6   8
ENDBRANCH   4   6
ENDBRANCH   2   4
TORSDOF 4
ENDMDL
MODEL      292
REMARK 921   NORMALIZED FREE ENERGY PREDICTED BY IDOCK:   -1.74 KCAL/MOL
REMARK 922        TOTAL FREE ENERGY PREDICTED BY IDOCK:   -2.59 KCAL/MOL
REMARK 923 INTER-LIGAND FREE ENERGY PREDICTED BY IDOCK:   -2.04 KCAL/MOL
REMARK 924 INTRA-LIGAND FREE ENERGY PREDICTED BY IDOCK:   -0.55 KCAL/MOL
REMARK 927      BINDING AFFINITY PREDICTED BY RF-SCORE:    0.00 PKD
ROOT
HETATM    1  C   UNL     1     -10.614   4.071  64.456  1.00  0.00    -0.180 C  
HETATM    2  N   UNL     1      -9.259   4.589  64.507  1.00  0.00    -0.153 NA 
HETATM    3  C   UNL     1      -8.231   3.962  63.685  1.00  0.00    -0.090 C  
ENDROOT
BRANCH   2   4
HETATM    4  N   UNL     1      -9.172   5.917  64.845  1.00  0.00    -0.256 NA 
HETATM    5  H   UNL     1      -9.861   6.390  65.430  1.00  0.00     0.000 HD 
BRANCH   4   6
HETATM    6  N   UNL     1      -8.172   6.492  64.370  1.00  0.00    -0.294 NA 
HETATM    7  H   UNL     1      -7.343   5.981  64.065  1.00  0.00     0.000 HD 
BRANCH   6   8
HETATM    8  C   UNL     1      -8.262   7.843  64.286  1.00  0.00    -0.038 A  
HETATM    9  C   UNL     1      -8.450   8.847  65.222  1.00  0.00    -0.169 A  
HETATM   10  N   UNL     1      -8.483  10.098  64.603  1.00  0.00    -0.164 NA 
HETATM   11  N   UNL     1      -8.201   8.514  63.087  1.00  0.00    -0.171 NA 
HETATM   12  C   UNL     1      -8.328   9.851  63.324  1.00  0.00    -0.169 A  
HETATM   13  H   UNL     1      -8.602  11.008  65.048  1.00  0.00     0.000 HD 
BRANCH   9  14
HETATM   14  C   UNL     1      -8.594   8.689  66.668  1.00  0.00    -0.117 C  
HETATM   15  N   UNL     1      -8.371   9.843  67.365  1.00  0.00    -0.118 N  
HETATM   16  H2  UNL     1      -8.128  10.728  66.920  1.00  0.00     0.000 HD 
HETATM   17  H1  UNL     1      -8.471   9.733  68.374  1.00  0.00     0.000 HD 
HETATM   18  O   UNL     1      -8.883   7.643  67.240  1.00  0.00    -0.119 OA 
ENDBRANCH   9  14
ENDBRANCH   6   8
ENDBRANCH   4   6
ENDBRANCH   2   4
TORSDOF 4
ENDMDL
MODEL      293
REMARK 921   NORMALIZED FREE ENERGY PREDICTED BY IDOCK:   -1.72 KCAL/MOL
REMARK 922        TOTAL FREE ENERGY PREDICTED BY IDOCK:   -2.57 KCAL/MOL
REMARK 923 INTER-LIGAND FREE ENERGY PREDICTED BY IDOCK:   -2.38 KCAL/MOL
REMARK 924 INTRA-LIGAND FREE ENERGY PREDICTED BY IDOCK:   -0.19 KCAL/MOL
REMARK 927      BINDING AFFINITY PREDICTED BY RF-SCORE:    0.00 PKD
ROOT
HETATM    1  C   UNL     1      -9.645  12.800  68.549  1.00  0.00    -0.110 C  
HETATM    2  N   UNL     1      -8.332  12.210  68.360  1.00  0.00    -0.161 NA 
HETATM    3  C   UNL     1      -7.983  11.011  69.112  1.00  0.00    -0.078 C  
ENDROOT
BRANCH   2   4
HETATM    4  N   UNL     1      -7.772  12.452  67.131  1.00  0.00    -0.285 NA 
HETATM    5  H   UNL     1      -6.947  13.039  67.000  1.00  0.00     0.000 HD 
BRANCH   4   6
HETATM    6  N   UNL     1      -8.364  11.890  66.188  1.00  0.00    -0.389 NA 
HETATM    7  H   UNL     1      -9.047  12.376  65.607  1.00  0.00     0.000 HD 
BRANCH   6   8
HETATM    8  C   UNL     1      -8.038  10.588  65.989  1.00  0.00    -0.148 A  
HETATM    9  C   UNL     1      -8.709   9.393  66.194  1.00  0.00    -0.147 A  
HETATM   10  N   UNL     1      -7.907   8.309  65.832  1.00  0.00    -0.090 NA 
HETATM   11  N   UNL     1      -6.807  10.200  65.513  1.00  0.00    -0.123 NA 
HETATM   12  C   UNL     1      -6.778   8.840  65.427  1.00  0.00    -0.068 A  
HETATM   13  H   UNL     1      -8.148   7.319  65.873  1.00  0.00     0.000 HD 
BRANCH   9  14
HETATM   14  C   UNL     1     -10.067   9.222  66.708  1.00  0.00    -0.261 C  
HETATM   15  N   UNL     1     -10.378   7.923  66.996  1.00  0.00    -0.316 N  
HETATM   16  H2  UNL     1      -9.727   7.149  66.866  1.00  0.00     0.000 HD 
HETATM   17  H1  UNL     1     -11.325   7.803  67.355  1.00  0.00     0.000 HD 
HETATM   18  O   UNL     1     -10.879  10.126  66.876  1.00  0.00    -0.201 OA 
ENDBRANCH   9  14
ENDBRANCH   6   8
ENDBRANCH   4   6
ENDBRANCH   2   4
TORSDOF 4
ENDMDL
MODEL      294
REMARK 921   NORMALIZED FREE ENERGY PREDICTED BY IDOCK:   -1.69 KCAL/MOL
REMARK 922        TOTAL FREE ENERGY PREDICTED BY IDOCK:   -2.53 KCAL/MOL
REMARK 923 INTER-LIGAND FREE ENERGY PREDICTED BY IDOCK:   -1.89 KCAL/MOL
REMARK 924 INTRA-LIGAND FREE ENERGY PREDICTED BY IDOCK:   -0.64 KCAL/MOL
REMARK 927      BINDING AFFINITY PREDICTED BY RF-SCORE:    0.00 PKD
ROOT
HETATM    1  C   UNL     1      -6.991   8.212  69.958  1.00  0.00    -0.040 C  
HETATM    2  N   UNL     1      -6.401   7.409  68.903  1.00  0.00    -0.038 NA 
HETATM    3  C   UNL     1      -6.464   5.956  69.002  1.00  0.00    -0.049 C  
ENDROOT
BRANCH   2   4
HETATM    4  N   UNL     1      -6.357   8.025  67.677  1.00  0.00    -0.051 NA 
HETATM    5  H   UNL     1      -5.776   8.841  67.484  1.00  0.00     0.000 HD 
BRANCH   4   6
HETATM    6  N   UNL     1      -7.095   7.496  66.822  1.00  0.00    -0.081 NA 
HETATM    7  H   UNL     1      -6.796   6.695  66.266  1.00  0.00     0.000 HD 
BRANCH   6   8
HETATM    8  C   UNL     1      -8.321   8.060  66.681  1.00  0.00    -0.120 A  
HETATM    9  C   UNL     1      -8.771   9.236  66.104  1.00  0.00    -0.149 A  
HETATM   10  N   UNL     1     -10.155   9.355  66.242  1.00  0.00    -0.277 NA 
HETATM   11  N   UNL     1      -9.462   7.481  67.187  1.00  0.00    -0.146 NA 
HETATM   12  C   UNL     1     -10.527   8.280  66.895  1.00  0.00    -0.295 A  
HETATM   13  H   UNL     1     -10.748  10.114  65.908  1.00  0.00     0.000 HD 
BRANCH   9  14
HETATM   14  C   UNL     1      -7.965  10.249  65.425  1.00  0.00    -0.148 C  
HETATM   15  N   UNL     1      -8.691  11.050  64.589  1.00  0.00    -0.369 N  
HETATM   16  H2  UNL     1      -9.697  10.951  64.452  1.00  0.00     0.000 HD 
HETATM   17  H1  UNL     1      -8.129  11.757  64.116  1.00  0.00     0.000 HD 
HETATM   18  O   UNL     1      -6.755  10.399  65.561  1.00  0.00    -0.122 OA 
ENDBRANCH   9  14
ENDBRANCH   6   8
ENDBRANCH   4   6
ENDBRANCH   2   4
TORSDOF 4
ENDMDL
MODEL      295
REMARK 921   NORMALIZED FREE ENERGY PREDICTED BY IDOCK:   -1.67 KCAL/MOL
REMARK 922        TOTAL FREE ENERGY PREDICTED BY IDOCK:   -2.50 KCAL/MOL
REMARK 923 INTER-LIGAND FREE ENERGY PREDICTED BY IDOCK:   -1.83 KCAL/MOL
REMARK 924 INTRA-LIGAND FREE ENERGY PREDICTED BY IDOCK:   -0.67 KCAL/MOL
REMARK 927      BINDING AFFINITY PREDICTED BY RF-SCORE:    0.00 PKD
ROOT
HETATM    1  C   UNL     1     -10.709   3.942  63.759  1.00  0.00    -0.175 C  
HETATM    2  N   UNL     1      -9.748   2.940  64.184  1.00  0.00    -0.150 NA 
HETATM    3  C   UNL     1      -9.102   2.108  63.175  1.00  0.00    -0.091 C  
ENDROOT
BRANCH   2   4
HETATM    4  N   UNL     1      -9.112   3.228  65.365  1.00  0.00    -0.144 NA 
HETATM    5  H   UNL     1      -8.140   2.979  65.550  1.00  0.00     0.000 HD 
BRANCH   4   6
HETATM    6  N   UNL     1      -9.832   3.822  66.192  1.00  0.00    -0.395 NA 
HETATM    7  H   UNL     1     -10.796   4.086  65.986  1.00  0.00     0.000 HD 
BRANCH   6   8
HETATM    8  C   UNL     1      -9.246   4.094  67.386  1.00  0.00    -0.157 A  
HETATM    9  C   UNL     1      -8.368   5.076  67.816  1.00  0.00    -0.105 A  
HETATM   10  N   UNL     1      -8.052   4.897  69.165  1.00  0.00    -0.078 NA 
HETATM   11  N   UNL     1      -9.438   3.309  68.499  1.00  0.00    -0.170 NA 
HETATM   12  C   UNL     1      -8.718   3.828  69.533  1.00  0.00    -0.079 A  
HETATM   13  H   UNL     1      -7.438   5.473  69.739  1.00  0.00     0.000 HD 
BRANCH   9  14
HETATM   14  C   UNL     1      -7.817   6.174  67.026  1.00  0.00    -0.101 C  
HETATM   15  N   UNL     1      -7.414   5.795  65.776  1.00  0.00    -0.076 N  
HETATM   16  H2  UNL     1      -7.491   4.839  65.429  1.00  0.00     0.000 HD 
HETATM   17  H1  UNL     1      -7.030   6.561  65.224  1.00  0.00     0.000 HD 
HETATM   18  O   UNL     1      -7.706   7.335  67.407  1.00  0.00    -0.106 OA 
ENDBRANCH   9  14
ENDBRANCH   6   8
ENDBRANCH   4   6
ENDBRANCH   2   4
TORSDOF 4
ENDMDL
MODEL      296
REMARK 921   NORMALIZED FREE ENERGY PREDICTED BY IDOCK:   -1.65 KCAL/MOL
REMARK 922        TOTAL FREE ENERGY PREDICTED BY IDOCK:   -2.47 KCAL/MOL
REMARK 923 INTER-LIGAND FREE ENERGY PREDICTED BY IDOCK:   -1.76 KCAL/MOL
REMARK 924 INTRA-LIGAND FREE ENERGY PREDICTED BY IDOCK:   -0.71 KCAL/MOL
REMARK 927      BINDING AFFINITY PREDICTED BY RF-SCORE:    0.00 PKD
ROOT
HETATM    1  C   UNL     1      -7.358   2.905  74.394  1.00  0.00    -0.047 C  
HETATM    2  N   UNL     1      -8.010   3.474  73.227  1.00  0.00    -0.070 NA 
HETATM    3  C   UNL     1      -8.030   2.708  71.986  1.00  0.00    -0.054 C  
ENDROOT
BRANCH   2   4
HETATM    4  N   UNL     1      -9.012   4.365  73.516  1.00  0.00    -0.100 NA 
HETATM    5  H   UNL     1      -9.211   4.694  74.461  1.00  0.00     0.000 HD 
BRANCH   4   6
HETATM    6  N   UNL     1      -9.658   4.737  72.515  1.00  0.00    -0.136 NA 
HETATM    7  H   UNL     1     -10.011   4.080  71.820  1.00  0.00     0.000 HD 
BRANCH   6   8
HETATM    8  C   UNL     1      -9.858   6.076  72.416  1.00  0.00    -0.162 A  
HETATM    9  C   UNL     1      -9.021   7.176  72.513  1.00  0.00    -0.127 A  
HETATM   10  N   UNL     1      -9.742   8.360  72.342  1.00  0.00    -0.296 NA 
HETATM   11  N   UNL     1     -11.102   6.622  72.202  1.00  0.00    -0.244 NA 
HETATM   12  C   UNL     1     -10.984   7.980  72.157  1.00  0.00    -0.295 A  
HETATM   13  H   UNL     1      -9.381   9.313  72.359  1.00  0.00     0.000 HD 
BRANCH   9  14
HETATM   14  C   UNL     1      -7.580   7.169  72.751  1.00  0.00    -0.083 C  
HETATM   15  N   UNL     1      -6.893   6.345  71.903  1.00  0.00    -0.067 N  
HETATM   16  H2  UNL     1      -7.343   5.790  71.176  1.00  0.00     0.000 HD 
HETATM   17  H1  UNL     1      -5.887   6.339  72.069  1.00  0.00     0.000 HD 
HETATM   18  O   UNL     1      -7.002   7.819  73.616  1.00  0.00    -0.083 OA 
ENDBRANCH   9  14
ENDBRANCH   6   8
ENDBRANCH   4   6
ENDBRANCH   2   4
TORSDOF 4
ENDMDL
MODEL      297
REMARK 921   NORMALIZED FREE ENERGY PREDICTED BY IDOCK:   -1.63 KCAL/MOL
REMARK 922        TOTAL FREE ENERGY PREDICTED BY IDOCK:   -2.45 KCAL/MOL
REMARK 923 INTER-LIGAND FREE ENERGY PREDICTED BY IDOCK:   -1.82 KCAL/MOL
REMARK 924 INTRA-LIGAND FREE ENERGY PREDICTED BY IDOCK:   -0.63 KCAL/MOL
REMARK 927      BINDING AFFINITY PREDICTED BY RF-SCORE:    0.00 PKD
ROOT
HETATM    1  C   UNL     1     -11.174   6.213  69.144  1.00  0.00    -0.339 C  
HETATM    2  N   UNL     1      -9.958   5.663  69.716  1.00  0.00    -0.183 NA 
HETATM    3  C   UNL     1      -8.681   6.293  69.401  1.00  0.00    -0.128 C  
ENDROOT
BRANCH   2   4
HETATM    4  N   UNL     1     -10.138   5.006  70.908  1.00  0.00    -0.224 NA 
HETATM    5  H   UNL     1     -10.616   5.423  71.708  1.00  0.00     0.000 HD 
BRANCH   4   6
HETATM    6  N   UNL     1      -9.665   3.852  70.922  1.00  0.00    -0.188 NA 
HETATM    7  H   UNL     1      -9.306   3.400  70.081  1.00  0.00     0.000 HD 
BRANCH   6   8
HETATM    8  C   UNL     1      -9.661   3.239  72.133  1.00  0.00    -0.159 A  
HETATM    9  C   UNL     1      -8.854   3.346  73.254  1.00  0.00    -0.080 A  
HETATM   10  N   UNL     1      -9.277   2.464  74.251  1.00  0.00    -0.076 NA 
HETATM   11  N   UNL     1     -10.568   2.261  72.468  1.00  0.00    -0.110 NA 
HETATM   12  C   UNL     1     -10.307   1.836  73.737  1.00  0.00    -0.098 A  
HETATM   13  H   UNL     1      -8.871   2.336  75.178  1.00  0.00     0.000 HD 
BRANCH   9  14
HETATM   14  C   UNL     1      -7.711   4.238  73.436  1.00  0.00    -0.085 C  
HETATM   15  N   UNL     1      -6.926   3.905  74.504  1.00  0.00    -0.057 N  
HETATM   16  H2  UNL     1      -7.119   3.111  75.114  1.00  0.00     0.000 HD 
HETATM   17  H1  UNL     1      -6.129   4.527  74.631  1.00  0.00     0.000 HD 
HETATM   18  O   UNL     1      -7.447   5.204  72.727  1.00  0.00    -0.091 OA 
ENDBRANCH   9  14
ENDBRANCH   6   8
ENDBRANCH   4   6
ENDBRANCH   2   4
TORSDOF 4
ENDMDL
MODEL      298
REMARK 921   NORMALIZED FREE ENERGY PREDICTED BY IDOCK:   -1.61 KCAL/MOL
REMARK 922        TOTAL FREE ENERGY PREDICTED BY IDOCK:   -2.43 KCAL/MOL
REMARK 923 INTER-LIGAND FREE ENERGY PREDICTED BY IDOCK:   -2.12 KCAL/MOL
REMARK 924 INTRA-LIGAND FREE ENERGY PREDICTED BY IDOCK:   -0.31 KCAL/MOL
REMARK 927      BINDING AFFINITY PREDICTED BY RF-SCORE:    0.00 PKD
ROOT
HETATM    1  C   UNL     1     -10.837   6.747  67.288  1.00  0.00    -0.373 C  
HETATM    2  N   UNL     1      -9.876   6.120  68.177  1.00  0.00    -0.127 NA 
HETATM    3  C   UNL     1      -8.470   6.095  67.792  1.00  0.00    -0.115 C  
ENDROOT
BRANCH   2   4
HETATM    4  N   UNL     1     -10.239   6.125  69.501  1.00  0.00    -0.183 NA 
HETATM    5  H   UNL     1     -10.546   5.289  69.998  1.00  0.00     0.000 HD 
BRANCH   4   6
HETATM    6  N   UNL     1     -10.158   7.247  70.040  1.00  0.00    -0.187 NA 
HETATM    7  H   UNL     1     -10.326   8.112  69.526  1.00  0.00     0.000 HD 
BRANCH   6   8
HETATM    8  C   UNL     1      -9.831   7.239  71.357  1.00  0.00    -0.186 A  
HETATM    9  C   UNL     1      -9.015   6.431  72.133  1.00  0.00    -0.136 A  
HETATM   10  N   UNL     1      -9.033   6.848  73.465  1.00  0.00    -0.134 NA 
HETATM   11  N   UNL     1     -10.355   8.140  72.254  1.00  0.00    -0.265 NA 
HETATM   12  C   UNL     1      -9.847   7.876  73.491  1.00  0.00    -0.141 A  
HETATM   13  H   UNL     1      -8.523   6.440  74.249  1.00  0.00     0.000 HD 
BRANCH   9  14
HETATM   14  C   UNL     1      -8.217   5.293  71.682  1.00  0.00    -0.118 C  
HETATM   15  N   UNL     1      -6.908   5.359  72.072  1.00  0.00    -0.064 N  
HETATM   16  H2  UNL     1      -6.526   6.128  72.622  1.00  0.00     0.000 HD 
HETATM   17  H1  UNL     1      -6.351   4.565  71.758  1.00  0.00     0.000 HD 
HETATM   18  O   UNL     1      -8.637   4.352  71.017  1.00  0.00    -0.087 OA 
ENDBRANCH   9  14
ENDBRANCH   6   8
ENDBRANCH   4   6
ENDBRANCH   2   4
TORSDOF 4
ENDMDL
MODEL      299
REMARK 921   NORMALIZED FREE ENERGY PREDICTED BY IDOCK:   -1.61 KCAL/MOL
REMARK 922        TOTAL FREE ENERGY PREDICTED BY IDOCK:   -2.42 KCAL/MOL
REMARK 923 INTER-LIGAND FREE ENERGY PREDICTED BY IDOCK:   -1.94 KCAL/MOL
REMARK 924 INTRA-LIGAND FREE ENERGY PREDICTED BY IDOCK:   -0.48 KCAL/MOL
REMARK 927      BINDING AFFINITY PREDICTED BY RF-SCORE:    0.00 PKD
ROOT
HETATM    1  C   UNL     1      -7.726   8.225  69.496  1.00  0.00    -0.101 C  
HETATM    2  N   UNL     1      -7.962   6.857  69.072  1.00  0.00    -0.115 NA 
HETATM    3  C   UNL     1      -6.820   5.973  68.869  1.00  0.00    -0.066 C  
ENDROOT
BRANCH   2   4
HETATM    4  N   UNL     1      -9.181   6.349  69.447  1.00  0.00    -0.142 NA 
HETATM    5  H   UNL     1     -10.056   6.604  68.987  1.00  0.00     0.000 HD 
BRANCH   4   6
HETATM    6  N   UNL     1      -9.121   5.549  70.401  1.00  0.00    -0.137 NA 
HETATM    7  H   UNL     1      -8.668   4.638  70.322  1.00  0.00     0.000 HD 
BRANCH   6   8
HETATM    8  C   UNL     1      -9.701   5.971  71.553  1.00  0.00    -0.163 A  
HETATM    9  C   UNL     1      -9.542   5.624  72.885  1.00  0.00    -0.155 A  
HETATM   10  N   UNL     1     -10.408   6.363  73.694  1.00  0.00    -0.260 NA 
HETATM   11  N   UNL     1     -10.695   6.923  71.574  1.00  0.00    -0.222 NA 
HETATM   12  C   UNL     1     -11.078   7.129  72.866  1.00  0.00    -0.298 A  
HETATM   13  H   UNL     1     -10.500   6.316  74.708  1.00  0.00     0.000 HD 
BRANCH   9  14
HETATM   14  C   UNL     1      -8.614   4.638  73.434  1.00  0.00    -0.101 C  
HETATM   15  N   UNL     1      -8.563   3.479  72.711  1.00  0.00    -0.085 N  
HETATM   16  H2  UNL     1      -9.118   3.318  71.871  1.00  0.00     0.000 HD 
HETATM   17  H1  UNL     1      -7.916   2.790  73.094  1.00  0.00     0.000 HD 
HETATM   18  O   UNL     1      -7.932   4.792  74.442  1.00  0.00    -0.095 OA 
ENDBRANCH   9  14
ENDBRANCH   6   8
ENDBRANCH   4   6
ENDBRANCH   2   4
TORSDOF 4
ENDMDL
MODEL      300
REMARK 921   NORMALIZED FREE ENERGY PREDICTED BY IDOCK:   -1.60 KCAL/MOL
REMARK 922        TOTAL FREE ENERGY PREDICTED BY IDOCK:   -2.41 KCAL/MOL
REMARK 923 INTER-LIGAND FREE ENERGY PREDICTED BY IDOCK:   -1.94 KCAL/MOL
REMARK 924 INTRA-LIGAND FREE ENERGY PREDICTED BY IDOCK:   -0.47 KCAL/MOL
REMARK 927      BINDING AFFINITY PREDICTED BY RF-SCORE:    0.00 PKD
ROOT
HETATM    1  C   UNL     1      -8.070   8.456  65.804  1.00  0.00    -0.117 C  
HETATM    2  N   UNL     1      -8.879   8.345  67.004  1.00  0.00    -0.131 NA 
HETATM    3  C   UNL     1     -10.195   7.723  66.913  1.00  0.00    -0.303 C  
ENDROOT
BRANCH   2   4
HETATM    4  N   UNL     1      -8.159   8.292  68.171  1.00  0.00    -0.122 NA 
HETATM    5  H   UNL     1      -7.813   9.124  68.651  1.00  0.00     0.000 HD 
BRANCH   4   6
HETATM    6  N   UNL     1      -7.966   7.134  68.591  1.00  0.00    -0.122 NA 
HETATM    7  H   UNL     1      -7.648   6.379  67.982  1.00  0.00     0.000 HD 
BRANCH   6   8
HETATM    8  C   UNL     1      -8.207   6.945  69.913  1.00  0.00    -0.127 A  
HETATM    9  C   UNL     1      -8.934   6.005  70.626  1.00  0.00    -0.146 A  
HETATM   10  N   UNL     1      -8.873   6.272  71.996  1.00  0.00    -0.138 NA 
HETATM   11  N   UNL     1      -7.723   7.795  70.881  1.00  0.00    -0.086 NA 
HETATM   12  C   UNL     1      -8.136   7.352  72.102  1.00  0.00    -0.097 A  
HETATM   13  H   UNL     1      -9.309   5.742  72.750  1.00  0.00     0.000 HD 
BRANCH   9  14
HETATM   14  C   UNL     1      -9.675   4.868  70.085  1.00  0.00    -0.213 C  
HETATM   15  N   UNL     1      -9.750   3.809  70.947  1.00  0.00    -0.188 N  
HETATM   16  H2  UNL     1      -9.330   3.813  71.876  1.00  0.00     0.000 HD 
HETATM   17  H1  UNL     1     -10.267   3.016  70.570  1.00  0.00     0.000 HD 
HETATM   18  O   UNL     1     -10.192   4.824  68.973  1.00  0.00    -0.155 OA 
ENDBRANCH   9  14
ENDBRANCH   6   8
ENDBRANCH   4   6
ENDBRANCH   2   4
TORSDOF 4
ENDMDL
MODEL      301
REMARK 921   NORMALIZED FREE ENERGY PREDICTED BY IDOCK:   -1.59 KCAL/MOL
REMARK 922        TOTAL FREE ENERGY PREDICTED BY IDOCK:   -2.40 KCAL/MOL
REMARK 923 INTER-LIGAND FREE ENERGY PREDICTED BY IDOCK:   -1.92 KCAL/MOL
REMARK 924 INTRA-LIGAND FREE ENERGY PREDICTED BY IDOCK:   -0.48 KCAL/MOL
REMARK 927      BINDING AFFINITY PREDICTED BY RF-SCORE:    0.00 PKD
ROOT
HETATM    1  C   UNL     1      -8.032   9.155  68.565  1.00  0.00    -0.102 C  
HETATM    2  N   UNL     1      -9.399   9.312  69.029  1.00  0.00    -0.149 NA 
HETATM    3  C   UNL     1     -10.401   9.841  68.110  1.00  0.00    -0.202 C  
ENDROOT
BRANCH   2   4
HETATM    4  N   UNL     1      -9.759   8.451  70.035  1.00  0.00    -0.175 NA 
HETATM    5  H   UNL     1      -9.683   8.688  71.025  1.00  0.00     0.000 HD 
BRANCH   4   6
HETATM    6  N   UNL     1     -10.188   7.353  69.629  1.00  0.00    -0.204 NA 
HETATM    7  H   UNL     1     -10.764   7.269  68.791  1.00  0.00     0.000 HD 
BRANCH   6   8
HETATM    8  C   UNL     1      -9.835   6.277  70.377  1.00  0.00    -0.176 A  
HETATM    9  C   UNL     1      -9.354   5.015  70.068  1.00  0.00    -0.150 A  
HETATM   10  N   UNL     1      -9.160   4.263  71.228  1.00  0.00    -0.121 NA 
HETATM   11  N   UNL     1      -9.944   6.263  71.749  1.00  0.00    -0.171 NA 
HETATM   12  C   UNL     1      -9.524   5.052  72.211  1.00  0.00    -0.139 A  
HETATM   13  H   UNL     1      -8.810   3.308  71.297  1.00  0.00     0.000 HD 
BRANCH   9  14
HETATM   14  C   UNL     1      -9.064   4.484  68.737  1.00  0.00    -0.120 C  
HETATM   15  N   UNL     1      -8.915   5.455  67.786  1.00  0.00    -0.109 N  
HETATM   16  H2  UNL     1      -8.999   6.451  67.986  1.00  0.00     0.000 HD 
HETATM   17  H1  UNL     1      -8.713   5.085  66.858  1.00  0.00     0.000 HD 
HETATM   18  O   UNL     1      -8.957   3.294  68.457  1.00  0.00    -0.106 OA 
ENDBRANCH   9  14
ENDBRANCH   6   8
ENDBRANCH   4   6
ENDBRANCH   2   4
TORSDOF 4
ENDMDL
MODEL      302
REMARK 921   NORMALIZED FREE ENERGY PREDICTED BY IDOCK:   -1.56 KCAL/MOL
REMARK 922        TOTAL FREE ENERGY PREDICTED BY IDOCK:   -2.36 KCAL/MOL
REMARK 923 INTER-LIGAND FREE ENERGY PREDICTED BY IDOCK:   -2.04 KCAL/MOL
REMARK 924 INTRA-LIGAND FREE ENERGY PREDICTED BY IDOCK:   -0.32 KCAL/MOL
REMARK 927      BINDING AFFINITY PREDICTED BY RF-SCORE:    0.00 PKD
ROOT
HETATM    1  C   UNL     1      -6.934  10.474  67.945  1.00  0.00    -0.077 C  
HETATM    2  N   UNL     1      -8.193   9.883  68.361  1.00  0.00    -0.104 NA 
HETATM    3  C   UNL     1      -9.326   9.917  67.443  1.00  0.00    -0.137 C  
ENDROOT
BRANCH   2   4
HETATM    4  N   UNL     1      -8.069   8.875  69.283  1.00  0.00    -0.107 NA 
HETATM    5  H   UNL     1      -7.318   8.184  69.257  1.00  0.00     0.000 HD 
BRANCH   4   6
HETATM    6  N   UNL     1      -8.960   8.879  70.156  1.00  0.00    -0.159 NA 
HETATM    7  H   UNL     1      -9.251   9.733  70.633  1.00  0.00     0.000 HD 
BRANCH   6   8
HETATM    8  C   UNL     1      -9.515   7.671  70.428  1.00  0.00    -0.164 A  
HETATM    9  C   UNL     1      -9.302   6.724  71.417  1.00  0.00    -0.157 A  
HETATM   10  N   UNL     1     -10.144   5.625  71.236  1.00  0.00    -0.198 NA 
HETATM   11  N   UNL     1     -10.490   7.111  69.636  1.00  0.00    -0.222 NA 
HETATM   12  C   UNL     1     -10.840   5.902  70.159  1.00  0.00    -0.332 A  
HETATM   13  H   UNL     1     -10.205   4.789  71.816  1.00  0.00     0.000 HD 
BRANCH   9  14
HETATM   14  C   UNL     1      -8.352   6.804  72.525  1.00  0.00    -0.111 C  
HETATM   15  N   UNL     1      -8.766   7.625  73.537  1.00  0.00    -0.190 N  
HETATM   16  H2  UNL     1      -9.651   8.131  73.521  1.00  0.00     0.000 HD 
HETATM   17  H1  UNL     1      -8.104   7.680  74.310  1.00  0.00     0.000 HD 
HETATM   18  O   UNL     1      -7.278   6.213  72.581  1.00  0.00    -0.083 OA 
ENDBRANCH   9  14
ENDBRANCH   6   8
ENDBRANCH   4   6
ENDBRANCH   2   4
TORSDOF 4
ENDMDL
MODEL      303
REMARK 921   NORMALIZED FREE ENERGY PREDICTED BY IDOCK:   -1.52 KCAL/MOL
REMARK 922        TOTAL FREE ENERGY PREDICTED BY IDOCK:   -2.32 KCAL/MOL
REMARK 923 INTER-LIGAND FREE ENERGY PREDICTED BY IDOCK:   -2.07 KCAL/MOL
REMARK 924 INTRA-LIGAND FREE ENERGY PREDICTED BY IDOCK:   -0.25 KCAL/MOL
REMARK 927      BINDING AFFINITY PREDICTED BY RF-SCORE:    0.00 PKD
ROOT
HETATM    1  C   UNL     1      -8.678   5.085  66.601  1.00  0.00    -0.108 C  
HETATM    2  N   UNL     1      -8.679   5.609  67.955  1.00  0.00    -0.101 NA 
HETATM    3  C   UNL     1      -7.472   5.482  68.762  1.00  0.00    -0.079 C  
ENDROOT
BRANCH   2   4
HETATM    4  N   UNL     1      -9.552   6.648  68.161  1.00  0.00    -0.121 NA 
HETATM    5  H   UNL     1      -9.737   7.368  67.462  1.00  0.00     0.000 HD 
BRANCH   4   6
HETATM    6  N   UNL     1     -10.100   6.630  69.282  1.00  0.00    -0.164 NA 
HETATM    7  H   UNL     1     -10.862   5.990  69.506  1.00  0.00     0.000 HD 
BRANCH   6   8
HETATM    8  C   UNL     1      -9.613   7.521  70.182  1.00  0.00    -0.168 A  
HETATM    9  C   UNL     1      -9.271   8.862  70.109  1.00  0.00    -0.180 A  
HETATM   10  N   UNL     1      -8.796   9.317  71.340  1.00  0.00    -0.303 NA 
HETATM   11  N   UNL     1      -9.316   7.173  71.479  1.00  0.00    -0.153 NA 
HETATM   12  C   UNL     1      -8.843   8.272  72.132  1.00  0.00    -0.201 A  
HETATM   13  H   UNL     1      -8.480  10.259  71.573  1.00  0.00     0.000 HD 
BRANCH   9  14
HETATM   14  C   UNL     1      -9.375   9.736  68.942  1.00  0.00    -0.158 C  
HETATM   15  N   UNL     1     -10.620   9.743  68.378  1.00  0.00    -0.218 N  
HETATM   16  H2  UNL     1     -11.400   9.194  68.737  1.00  0.00     0.000 HD 
HETATM   17  H1  UNL     1     -10.692  10.353  67.564  1.00  0.00     0.000 HD 
HETATM   18  O   UNL     1      -8.460  10.410  68.479  1.00  0.00    -0.117 OA 
ENDBRANCH   9  14
ENDBRANCH   6   8
ENDBRANCH   4   6
ENDBRANCH   2   4
TORSDOF 4
ENDMDL
MODEL      304
REMARK 921   NORMALIZED FREE ENERGY PREDICTED BY IDOCK:   -1.46 KCAL/MOL
REMARK 922        TOTAL FREE ENERGY PREDICTED BY IDOCK:   -2.24 KCAL/MOL
REMARK 923 INTER-LIGAND FREE ENERGY PREDICTED BY IDOCK:   -1.91 KCAL/MOL
REMARK 924 INTRA-LIGAND FREE ENERGY PREDICTED BY IDOCK:   -0.33 KCAL/MOL
REMARK 927      BINDING AFFINITY PREDICTED BY RF-SCORE:    0.00 PKD
ROOT
HETATM    1  C   UNL     1     -10.466   4.765  66.445  1.00  0.00    -0.239 C  
HETATM    2  N   UNL     1      -9.331   4.019  66.958  1.00  0.00    -0.169 NA 
HETATM    3  C   UNL     1      -8.091   4.003  66.190  1.00  0.00    -0.098 C  
ENDROOT
BRANCH   2   4
HETATM    4  N   UNL     1      -9.310   3.886  68.324  1.00  0.00    -0.156 NA 
HETATM    5  H   UNL     1      -9.768   3.119  68.816  1.00  0.00     0.000 HD 
BRANCH   4   6
HETATM    6  N   UNL     1      -8.678   4.790  68.907  1.00  0.00    -0.088 NA 
HETATM    7  H   UNL     1      -7.980   5.361  68.432  1.00  0.00     0.000 HD 
BRANCH   6   8
HETATM    8  C   UNL     1      -8.985   4.961  70.218  1.00  0.00    -0.108 A  
HETATM    9  C   UNL     1      -9.378   6.056  70.972  1.00  0.00    -0.161 A  
HETATM   10  N   UNL     1      -9.558   5.694  72.309  1.00  0.00    -0.151 NA 
HETATM   11  N   UNL     1      -8.913   3.936  71.133  1.00  0.00    -0.098 NA 
HETATM   12  C   UNL     1      -9.271   4.415  72.359  1.00  0.00    -0.121 A  
HETATM   13  H   UNL     1      -9.850   6.295  73.079  1.00  0.00     0.000 HD 
BRANCH   9  14
HETATM   14  C   UNL     1      -9.598   7.420  70.496  1.00  0.00    -0.172 C  
HETATM   15  N   UNL     1      -8.450   8.049  70.102  1.00  0.00    -0.126 N  
HETATM   16  H2  UNL     1      -7.531   7.609  70.136  1.00  0.00     0.000 HD 
HETATM   17  H1  UNL     1      -8.603   9.001  69.770  1.00  0.00     0.000 HD 
HETATM   18  O   UNL     1     -10.686   7.984  70.442  1.00  0.00    -0.225 OA 
ENDBRANCH   9  14
ENDBRANCH   6   8
ENDBRANCH   4   6
ENDBRANCH   2   4
TORSDOF 4
ENDMDL
MODEL      305
REMARK 921   NORMALIZED FREE ENERGY PREDICTED BY IDOCK:   -1.45 KCAL/MOL
REMARK 922        TOTAL FREE ENERGY PREDICTED BY IDOCK:   -2.22 KCAL/MOL
REMARK 923 INTER-LIGAND FREE ENERGY PREDICTED BY IDOCK:   -1.47 KCAL/MOL
REMARK 924 INTRA-LIGAND FREE ENERGY PREDICTED BY IDOCK:   -0.75 KCAL/MOL
REMARK 927      BINDING AFFINITY PREDICTED BY RF-SCORE:    0.00 PKD
ROOT
HETATM    1  C   UNL     1      -7.918   8.780  71.071  1.00  0.00    -0.144 C  
HETATM    2  N   UNL     1      -8.197   7.946  72.226  1.00  0.00    -0.118 NA 
HETATM    3  C   UNL     1      -7.743   8.386  73.540  1.00  0.00    -0.080 C  
ENDROOT
BRANCH   2   4
HETATM    4  N   UNL     1      -9.311   7.155  72.099  1.00  0.00    -0.133 NA 
HETATM    5  H   UNL     1      -9.902   7.155  71.268  1.00  0.00     0.000 HD 
BRANCH   4   6
HETATM    6  N   UNL     1      -9.533   6.437  73.094  1.00  0.00    -0.138 NA 
HETATM    7  H   UNL     1      -9.659   6.824  74.029  1.00  0.00     0.000 HD 
BRANCH   6   8
HETATM    8  C   UNL     1      -9.596   5.103  72.847  1.00  0.00    -0.144 A  
HETATM    9  C   UNL     1      -8.790   4.224  72.143  1.00  0.00    -0.112 A  
HETATM   10  N   UNL     1      -9.317   2.931  72.184  1.00  0.00    -0.099 NA 
HETATM   11  N   UNL     1     -10.631   4.317  73.298  1.00  0.00    -0.187 NA 
HETATM   12  C   UNL     1     -10.419   3.034  72.889  1.00  0.00    -0.148 A  
HETATM   13  H   UNL     1      -8.930   2.090  71.758  1.00  0.00     0.000 HD 
BRANCH   9  14
HETATM   14  C   UNL     1      -7.548   4.537  71.440  1.00  0.00    -0.073 C  
HETATM   15  N   UNL     1      -6.640   5.207  72.213  1.00  0.00    -0.046 N  
HETATM   16  H2  UNL     1      -6.814   5.463  73.184  1.00  0.00     0.000 HD 
HETATM   17  H1  UNL     1      -5.773   5.425  71.723  1.00  0.00     0.000 HD 
HETATM   18  O   UNL     1      -7.302   4.248  70.273  1.00  0.00    -0.044 OA 
ENDBRANCH   9  14
ENDBRANCH   6   8
ENDBRANCH   4   6
ENDBRANCH   2   4
TORSDOF 4
ENDMDL
MODEL      306
REMARK 921   NORMALIZED FREE ENERGY PREDICTED BY IDOCK:   -1.44 KCAL/MOL
REMARK 922        TOTAL FREE ENERGY PREDICTED BY IDOCK:   -2.21 KCAL/MOL
REMARK 923 INTER-LIGAND FREE ENERGY PREDICTED BY IDOCK:   -2.15 KCAL/MOL
REMARK 924 INTRA-LIGAND FREE ENERGY PREDICTED BY IDOCK:   -0.07 KCAL/MOL
REMARK 927      BINDING AFFINITY PREDICTED BY RF-SCORE:    0.00 PKD
ROOT
HETATM    1  C   UNL     1     -10.472   3.832  64.503  1.00  0.00    -0.182 C  
HETATM    2  N   UNL     1      -9.257   4.578  64.777  1.00  0.00    -0.155 NA 
HETATM    3  C   UNL     1      -8.429   5.014  63.658  1.00  0.00    -0.127 C  
ENDROOT
BRANCH   2   4
HETATM    4  N   UNL     1      -9.280   5.290  65.950  1.00  0.00    -0.158 NA 
HETATM    5  H   UNL     1      -8.889   4.937  66.824  1.00  0.00     0.000 HD 
BRANCH   4   6
HETATM    6  N   UNL     1      -9.822   6.409  65.849  1.00  0.00    -0.370 NA 
HETATM    7  H   UNL     1     -10.443   6.646  65.074  1.00  0.00     0.000 HD 
BRANCH   6   8
HETATM    8  C   UNL     1      -9.531   7.289  66.839  1.00  0.00    -0.164 A  
HETATM    9  C   UNL     1      -9.064   7.147  68.136  1.00  0.00    -0.133 A  
HETATM   10  N   UNL     1      -8.943   8.392  68.756  1.00  0.00    -0.140 NA 
HETATM   11  N   UNL     1      -9.707   8.646  66.697  1.00  0.00    -0.224 NA 
HETATM   12  C   UNL     1      -9.337   9.261  67.856  1.00  0.00    -0.129 A  
HETATM   13  H   UNL     1      -8.619   8.584  69.703  1.00  0.00     0.000 HD 
BRANCH   9  14
HETATM   14  C   UNL     1      -8.721   5.900  68.818  1.00  0.00    -0.109 C  
HETATM   15  N   UNL     1      -9.813   5.165  69.186  1.00  0.00    -0.170 N  
HETATM   16  H2  UNL     1     -10.772   5.458  69.003  1.00  0.00     0.000 HD 
HETATM   17  H1  UNL     1      -9.574   4.295  69.662  1.00  0.00     0.000 HD 
HETATM   18  O   UNL     1      -7.581   5.515  69.058  1.00  0.00    -0.083 OA 
ENDBRANCH   9  14
ENDBRANCH   6   8
ENDBRANCH   4   6
ENDBRANCH   2   4
TORSDOF 4
ENDMDL
MODEL      307
REMARK 921   NORMALIZED FREE ENERGY PREDICTED BY IDOCK:   -1.44 KCAL/MOL
REMARK 922        TOTAL FREE ENERGY PREDICTED BY IDOCK:   -2.21 KCAL/MOL
REMARK 923 INTER-LIGAND FREE ENERGY PREDICTED BY IDOCK:   -1.89 KCAL/MOL
REMARK 924 INTRA-LIGAND FREE ENERGY PREDICTED BY IDOCK:   -0.33 KCAL/MOL
REMARK 927      BINDING AFFINITY PREDICTED BY RF-SCORE:    0.00 PKD
ROOT
HETATM    1  C   UNL     1      -7.396   9.333  71.273  1.00  0.00     0.033 C  
HETATM    2  N   UNL     1      -6.999   8.157  72.027  1.00  0.00    -0.075 NA 
HETATM    3  C   UNL     1      -6.673   8.302  73.440  1.00  0.00    -0.118 C  
ENDROOT
BRANCH   2   4
HETATM    4  N   UNL     1      -7.503   6.976  71.542  1.00  0.00    -0.083 NA 
HETATM    5  H   UNL     1      -7.732   6.181  72.140  1.00  0.00     0.000 HD 
BRANCH   4   6
HETATM    6  N   UNL     1      -7.654   6.963  70.304  1.00  0.00    -0.089 NA 
HETATM    7  H   UNL     1      -6.942   7.316  69.665  1.00  0.00     0.000 HD 
BRANCH   6   8
HETATM    8  C   UNL     1      -8.831   6.448  69.867  1.00  0.00    -0.142 A  
HETATM    9  C   UNL     1     -10.054   6.212  70.473  1.00  0.00    -0.189 A  
HETATM   10  N   UNL     1     -10.951   5.642  69.568  1.00  0.00    -0.294 NA 
HETATM   11  N   UNL     1      -9.004   5.991  68.581  1.00  0.00    -0.118 NA 
HETATM   12  C   UNL     1     -10.280   5.530  68.446  1.00  0.00    -0.180 A  
HETATM   13  H   UNL     1     -11.919   5.371  69.741  1.00  0.00     0.000 HD 
BRANCH   9  14
HETATM   14  C   UNL     1     -10.422   6.500  71.858  1.00  0.00    -0.206 C  
HETATM   15  N   UNL     1     -10.276   7.817  72.195  1.00  0.00    -0.201 N  
HETATM   16  H2  UNL     1      -9.944   8.528  71.545  1.00  0.00     0.000 HD 
HETATM   17  H1  UNL     1     -10.533   8.019  73.161  1.00  0.00     0.000 HD 
HETATM   18  O   UNL     1     -10.823   5.674  72.671  1.00  0.00    -0.225 OA 
ENDBRANCH   9  14
ENDBRANCH   6   8
ENDBRANCH   4   6
ENDBRANCH   2   4
TORSDOF 4
ENDMDL
MODEL      308
REMARK 921   NORMALIZED FREE ENERGY PREDICTED BY IDOCK:   -1.42 KCAL/MOL
REMARK 922        TOTAL FREE ENERGY PREDICTED BY IDOCK:   -2.19 KCAL/MOL
REMARK 923 INTER-LIGAND FREE ENERGY PREDICTED BY IDOCK:   -1.72 KCAL/MOL
REMARK 924 INTRA-LIGAND FREE ENERGY PREDICTED BY IDOCK:   -0.47 KCAL/MOL
REMARK 927      BINDING AFFINITY PREDICTED BY RF-SCORE:    0.00 PKD
ROOT
HETATM    1  C   UNL     1     -11.356   6.731  69.733  1.00  0.00    -0.296 C  
HETATM    2  N   UNL     1     -10.271   7.300  68.954  1.00  0.00    -0.188 NA 
HETATM    3  C   UNL     1      -9.791   6.580  67.780  1.00  0.00    -0.123 C  
ENDROOT
BRANCH   2   4
HETATM    4  N   UNL     1     -10.181   8.668  69.021  1.00  0.00    -0.204 NA 
HETATM    5  H   UNL     1     -10.658   9.291  68.368  1.00  0.00     0.000 HD 
BRANCH   4   6
HETATM    6  N   UNL     1      -9.462   9.080  69.954  1.00  0.00    -0.168 NA 
HETATM    7  H   UNL     1      -9.635   8.828  70.927  1.00  0.00     0.000 HD 
BRANCH   6   8
HETATM    8  C   UNL     1      -8.435   9.886  69.585  1.00  0.00    -0.187 A  
HETATM    9  C   UNL     1      -7.066   9.848  69.802  1.00  0.00    -0.106 A  
HETATM   10  N   UNL     1      -6.443  10.947  69.207  1.00  0.00    -0.062 NA 
HETATM   11  N   UNL     1      -8.625  11.042  68.864  1.00  0.00    -0.149 NA 
HETATM   12  C   UNL     1      -7.415  11.634  68.655  1.00  0.00    -0.117 A  
HETATM   13  H   UNL     1      -5.448  11.168  69.204  1.00  0.00     0.000 HD 
BRANCH   9  14
HETATM   14  C   UNL     1      -6.318   8.829  70.533  1.00  0.00    -0.038 C  
HETATM   15  N   UNL     1      -6.508   7.564  70.050  1.00  0.00    -0.034 N  
HETATM   16  H2  UNL     1      -7.113   7.353  69.257  1.00  0.00     0.000 HD 
HETATM   17  H1  UNL     1      -5.986   6.852  70.560  1.00  0.00     0.000 HD 
HETATM   18  O   UNL     1      -5.583   9.041  71.492  1.00  0.00    -0.043 OA 
ENDBRANCH   9  14
ENDBRANCH   6   8
ENDBRANCH   4   6
ENDBRANCH   2   4
TORSDOF 4
ENDMDL
MODEL      309
REMARK 921   NORMALIZED FREE ENERGY PREDICTED BY IDOCK:   -1.36 KCAL/MOL
REMARK 922        TOTAL FREE ENERGY PREDICTED BY IDOCK:   -2.12 KCAL/MOL
REMARK 923 INTER-LIGAND FREE ENERGY PREDICTED BY IDOCK:   -1.56 KCAL/MOL
REMARK 924 INTRA-LIGAND FREE ENERGY PREDICTED BY IDOCK:   -0.56 KCAL/MOL
REMARK 927      BINDING AFFINITY PREDICTED BY RF-SCORE:    0.00 PKD
ROOT
HETATM    1  C   UNL     1      -9.389   3.749  65.324  1.00  0.00    -0.158 C  
HETATM    2  N   UNL     1      -8.206   4.095  66.093  1.00  0.00    -0.105 NA 
HETATM    3  C   UNL     1      -6.941   3.445  65.773  1.00  0.00    -0.057 C  
ENDROOT
BRANCH   2   4
HETATM    4  N   UNL     1      -8.228   5.357  66.631  1.00  0.00    -0.108 NA 
HETATM    5  H   UNL     1      -7.399   5.948  66.701  1.00  0.00     0.000 HD 
BRANCH   4   6
HETATM    6  N   UNL     1      -9.355   5.715  67.028  1.00  0.00    -0.116 NA 
HETATM    7  H   UNL     1     -10.217   5.376  66.599  1.00  0.00     0.000 HD 
BRANCH   6   8
HETATM    8  C   UNL     1      -9.357   6.587  68.068  1.00  0.00    -0.108 A  
HETATM    9  C   UNL     1      -8.891   7.882  68.229  1.00  0.00    -0.129 A  
HETATM   10  N   UNL     1      -9.132   8.334  69.528  1.00  0.00    -0.153 NA 
HETATM   11  N   UNL     1      -9.868   6.261  69.303  1.00  0.00    -0.139 NA 
HETATM   12  C   UNL     1      -9.721   7.331  70.136  1.00  0.00    -0.172 A  
HETATM   13  H   UNL     1      -8.901   9.246  69.920  1.00  0.00     0.000 HD 
BRANCH   9  14
HETATM   14  C   UNL     1      -8.237   8.715  67.223  1.00  0.00    -0.105 C  
HETATM   15  N   UNL     1      -8.386  10.055  67.447  1.00  0.00    -0.118 N  
HETATM   16  H2  UNL     1      -8.903  10.436  68.239  1.00  0.00     0.000 HD 
HETATM   17  H1  UNL     1      -7.930  10.637  66.745  1.00  0.00     0.000 HD 
HETATM   18  O   UNL     1      -7.609   8.295  66.256  1.00  0.00    -0.092 OA 
ENDBRANCH   9  14
ENDBRANCH   6   8
ENDBRANCH   4   6
ENDBRANCH   2   4
TORSDOF 4
ENDMDL
MODEL      310
REMARK 921   NORMALIZED FREE ENERGY PREDICTED BY IDOCK:   -1.35 KCAL/MOL
REMARK 922        TOTAL FREE ENERGY PREDICTED BY IDOCK:   -2.10 KCAL/MOL
REMARK 923 INTER-LIGAND FREE ENERGY PREDICTED BY IDOCK:   -1.80 KCAL/MOL
REMARK 924 INTRA-LIGAND FREE ENERGY PREDICTED BY IDOCK:   -0.30 KCAL/MOL
REMARK 927      BINDING AFFINITY PREDICTED BY RF-SCORE:    0.00 PKD
ROOT
HETATM    1  C   UNL     1      -8.312   7.255  69.483  1.00  0.00    -0.133 C  
HETATM    2  N   UNL     1      -9.202   6.325  68.810  1.00  0.00    -0.126 NA 
HETATM    3  C   UNL     1     -10.638   6.577  68.837  1.00  0.00    -0.241 C  
ENDROOT
BRANCH   2   4
HETATM    4  N   UNL     1      -8.629   5.651  67.761  1.00  0.00    -0.102 NA 
HETATM    5  H   UNL     1      -8.144   4.760  67.869  1.00  0.00     0.000 HD 
BRANCH   4   6
HETATM    6  N   UNL     1      -8.758   6.227  66.662  1.00  0.00    -0.122 NA 
HETATM    7  H   UNL     1      -8.528   7.213  66.533  1.00  0.00     0.000 HD 
BRANCH   6   8
HETATM    8  C   UNL     1      -9.224   5.453  65.649  1.00  0.00    -0.114 A  
HETATM    9  C   UNL     1      -8.773   5.187  64.366  1.00  0.00    -0.088 A  
HETATM   10  N   UNL     1      -9.643   4.314  63.710  1.00  0.00    -0.271 NA 
HETATM   11  N   UNL     1     -10.395   4.737  65.745  1.00  0.00    -0.253 NA 
HETATM   12  C   UNL     1     -10.599   4.070  64.574  1.00  0.00    -0.180 A  
HETATM   13  H   UNL     1      -9.555   3.947  62.762  1.00  0.00     0.000 HD 
BRANCH   9  14
HETATM   14  C   UNL     1      -7.564   5.706  63.731  1.00  0.00    -0.074 C  
HETATM   15  N   UNL     1      -6.437   5.002  64.051  1.00  0.00    -0.033 N  
HETATM   16  H2  UNL     1      -6.440   4.193  64.671  1.00  0.00     0.000 HD 
HETATM   17  H1  UNL     1      -5.593   5.364  63.608  1.00  0.00     0.000 HD 
HETATM   18  O   UNL     1      -7.519   6.677  62.982  1.00  0.00    -0.067 OA 
ENDBRANCH   9  14
ENDBRANCH   6   8
ENDBRANCH   4   6
ENDBRANCH   2   4
TORSDOF 4
ENDMDL
MODEL      311
REMARK 921   NORMALIZED FREE ENERGY PREDICTED BY IDOCK:   -1.25 KCAL/MOL
REMARK 922        TOTAL FREE ENERGY PREDICTED BY IDOCK:   -1.98 KCAL/MOL
REMARK 923 INTER-LIGAND FREE ENERGY PREDICTED BY IDOCK:   -1.45 KCAL/MOL
REMARK 924 INTRA-LIGAND FREE ENERGY PREDICTED BY IDOCK:   -0.54 KCAL/MOL
REMARK 927      BINDING AFFINITY PREDICTED BY RF-SCORE:    0.00 PKD
ROOT
HETATM    1  C   UNL     1      -8.645   8.765  71.442  1.00  0.00    -0.194 C  
HETATM    2  N   UNL     1      -8.476   7.411  71.937  1.00  0.00    -0.106 NA 
HETATM    3  C   UNL     1      -7.505   7.162  72.996  1.00  0.00    -0.072 C  
ENDROOT
BRANCH   2   4
HETATM    4  N   UNL     1      -9.587   6.616  71.806  1.00  0.00    -0.159 NA 
HETATM    5  H   UNL     1     -10.141   6.296  72.602  1.00  0.00     0.000 HD 
BRANCH   4   6
HETATM    6  N   UNL     1      -9.859   6.321  70.625  1.00  0.00    -0.183 NA 
HETATM    7  H   UNL     1     -10.605   6.783  70.105  1.00  0.00     0.000 HD 
BRANCH   6   8
HETATM    8  C   UNL     1      -9.093   5.343  70.078  1.00  0.00    -0.130 A  
HETATM    9  C   UNL     1      -8.671   4.101  70.522  1.00  0.00    -0.079 A  
HETATM   10  N   UNL     1      -7.870   3.480  69.561  1.00  0.00    -0.051 NA 
HETATM   11  N   UNL     1      -8.514   5.466  68.836  1.00  0.00    -0.099 NA 
HETATM   12  C   UNL     1      -7.806   4.333  68.567  1.00  0.00    -0.074 A  
HETATM   13  H   UNL     1      -7.430   2.562  69.620  1.00  0.00     0.000 HD 
BRANCH   9  14
HETATM   14  C   UNL     1      -8.987   3.467  71.801  1.00  0.00    -0.105 C  
HETATM   15  N   UNL     1      -9.191   2.119  71.703  1.00  0.00    -0.089 N  
HETATM   16  H2  UNL     1      -9.130   1.606  70.824  1.00  0.00     0.000 HD 
HETATM   17  H1  UNL     1      -9.412   1.677  72.595  1.00  0.00     0.000 HD 
HETATM   18  O   UNL     1      -9.072   4.050  72.877  1.00  0.00    -0.106 OA 
ENDBRANCH   9  14
ENDBRANCH   6   8
ENDBRANCH   4   6
ENDBRANCH   2   4
TORSDOF 4
ENDMDL
MODEL      312
REMARK 921   NORMALIZED FREE ENERGY PREDICTED BY IDOCK:   -1.22 KCAL/MOL
REMARK 922        TOTAL FREE ENERGY PREDICTED BY IDOCK:   -1.95 KCAL/MOL
REMARK 923 INTER-LIGAND FREE ENERGY PREDICTED BY IDOCK:   -1.61 KCAL/MOL
REMARK 924 INTRA-LIGAND FREE ENERGY PREDICTED BY IDOCK:   -0.34 KCAL/MOL
REMARK 927      BINDING AFFINITY PREDICTED BY RF-SCORE:    0.00 PKD
ROOT
HETATM    1  C   UNL     1     -11.458  10.594  68.290  1.00  0.00    -0.245 C  
HETATM    2  N   UNL     1     -10.827  10.956  67.034  1.00  0.00    -0.272 NA 
HETATM    3  C   UNL     1      -9.708  10.156  66.549  1.00  0.00    -0.200 C  
ENDROOT
BRANCH   2   4
HETATM    4  N   UNL     1     -11.649  11.613  66.154  1.00  0.00    -0.382 NA 
HETATM    5  H   UNL     1     -11.856  11.265  65.217  1.00  0.00     0.000 HD 
BRANCH   4   6
HETATM    6  N   UNL     1     -12.122  12.676  66.606  1.00  0.00    -0.539 NA 
HETATM    7  H   UNL     1     -12.502  12.746  67.550  1.00  0.00     0.000 HD 
BRANCH   6   8
HETATM    8  C   UNL     1     -12.096  13.733  65.755  1.00  0.00    -0.429 A  
HETATM    9  C   UNL     1     -11.115  14.283  64.945  1.00  0.00    -0.390 A  
HETATM   10  N   UNL     1     -11.607  15.398  64.264  1.00  0.00    -0.715 NA 
HETATM   11  N   UNL     1     -13.185  14.551  65.561  1.00  0.00    -0.306 NA 
HETATM   12  C   UNL     1     -12.851  15.520  64.662  1.00  0.00     0.779 A  
HETATM   13  H   UNL     1     -11.108  15.989  63.600  1.00  0.00     0.000 HD 
BRANCH   9  14
HETATM   14  C   UNL     1      -9.743  13.809  64.777  1.00  0.00     0.305 C  
HETATM   15  N   UNL     1      -8.826  14.540  65.479  1.00  0.00     0.450 N  
HETATM   16  H2  UNL     1      -9.076  15.337  66.064  1.00  0.00     0.000 HD 
HETATM   17  H1  UNL     1      -7.869  14.209  65.362  1.00  0.00     0.000 HD 
HETATM   18  O   UNL     1      -9.403  12.857  64.082  1.00  0.00     0.339 OA 
ENDBRANCH   9  14
ENDBRANCH   6   8
ENDBRANCH   4   6
ENDBRANCH   2   4
TORSDOF 4
ENDMDL
MODEL      313
REMARK 921   NORMALIZED FREE ENERGY PREDICTED BY IDOCK:   -1.18 KCAL/MOL
REMARK 922        TOTAL FREE ENERGY PREDICTED BY IDOCK:   -1.90 KCAL/MOL
REMARK 923 INTER-LIGAND FREE ENERGY PREDICTED BY IDOCK:   -1.33 KCAL/MOL
REMARK 924 INTRA-LIGAND FREE ENERGY PREDICTED BY IDOCK:   -0.57 KCAL/MOL
REMARK 927      BINDING AFFINITY PREDICTED BY RF-SCORE:    0.00 PKD
ROOT
HETATM    1  C   UNL     1      -8.094   8.408  71.653  1.00  0.00    -0.144 C  
HETATM    2  N   UNL     1      -7.767   7.076  71.176  1.00  0.00    -0.090 NA 
HETATM    3  C   UNL     1      -6.651   6.362  71.785  1.00  0.00    -0.058 C  
ENDROOT
BRANCH   2   4
HETATM    4  N   UNL     1      -8.826   6.390  70.638  1.00  0.00    -0.143 NA 
HETATM    5  H   UNL     1      -9.789   6.724  70.686  1.00  0.00     0.000 HD 
BRANCH   4   6
HETATM    6  N   UNL     1      -8.504   5.319  70.086  1.00  0.00    -0.107 NA 
HETATM    7  H   UNL     1      -8.044   4.562  70.591  1.00  0.00     0.000 HD 
BRANCH   6   8
HETATM    8  C   UNL     1      -8.807   5.230  68.765  1.00  0.00    -0.096 A  
HETATM    9  C   UNL     1      -8.140   5.596  67.607  1.00  0.00    -0.101 A  
HETATM   10  N   UNL     1      -8.909   5.293  66.481  1.00  0.00    -0.115 NA 
HETATM   11  N   UNL     1     -10.001   4.718  68.315  1.00  0.00    -0.125 NA 
HETATM   12  C   UNL     1     -10.014   4.767  66.952  1.00  0.00    -0.217 A  
HETATM   13  H   UNL     1      -8.664   5.448  65.503  1.00  0.00     0.000 HD 
BRANCH   9  14
HETATM   14  C   UNL     1      -6.818   6.208  67.506  1.00  0.00    -0.063 C  
HETATM   15  N   UNL     1      -6.667   6.998  66.400  1.00  0.00    -0.052 N  
HETATM   16  H2  UNL     1      -7.406   7.144  65.713  1.00  0.00     0.000 HD 
HETATM   17  H1  UNL     1      -5.745   7.425  66.330  1.00  0.00     0.000 HD 
HETATM   18  O   UNL     1      -5.903   6.055  68.310  1.00  0.00    -0.014 OA 
ENDBRANCH   9  14
ENDBRANCH   6   8
ENDBRANCH   4   6
ENDBRANCH   2   4
TORSDOF 4
ENDMDL
MODEL      314
REMARK 921   NORMALIZED FREE ENERGY PREDICTED BY IDOCK:   14.12 KCAL/MOL
REMARK 922        TOTAL FREE ENERGY PREDICTED BY IDOCK:   16.99 KCAL/MOL
REMARK 923 INTER-LIGAND FREE ENERGY PREDICTED BY IDOCK:   15.05 KCAL/MOL
REMARK 924 INTRA-LIGAND FREE ENERGY PREDICTED BY IDOCK:    1.94 KCAL/MOL
REMARK 927      BINDING AFFINITY PREDICTED BY RF-SCORE:    0.00 PKD
ROOT
HETATM    1  C   UNL     1     -11.153  14.098  74.197  1.00  0.00     3.910 C  
HETATM    2  N   UNL     1     -12.446  13.753  73.636  1.00  0.00     0.622 NA 
HETATM    3  C   UNL     1     -13.333  14.823  73.193  1.00  0.00    -0.350 C  
ENDROOT
BRANCH   2   4
HETATM    4  N   UNL     1     -12.497  12.514  73.047  1.00  0.00     1.938 NA 
HETATM    5  H   UNL     1     -12.988  11.720  73.460  1.00  0.00     0.000 HD 
BRANCH   4   6
HETATM    6  N   UNL     1     -11.889  12.448  71.960  1.00  0.00     1.565 NA 
HETATM    7  H   UNL     1     -11.222  11.705  71.752  1.00  0.00     0.000 HD 
BRANCH   6   8
HETATM    8  C   UNL     1     -12.176  13.434  71.072  1.00  0.00    -0.224 A  
HETATM    9  C   UNL     1     -11.399  14.342  70.371  1.00  0.00    -0.094 A  
HETATM   10  N   UNL     1     -12.200  15.170  69.581  1.00  0.00    -0.490 NA 
HETATM   11  N   UNL     1     -13.464  13.743  70.702  1.00  0.00     0.152 NA 
HETATM   12  C   UNL     1     -13.430  14.773  69.809  1.00  0.00     1.280 A  
HETATM   13  H   UNL     1     -11.895  15.920  68.962  1.00  0.00     0.000 HD 
BRANCH   9  14
HETATM   14  C   UNL     1      -9.943  14.467  70.403  1.00  0.00     1.090 C  
HETATM   15  N   UNL     1      -9.397  14.138  71.613  1.00  0.00     5.679 N  
HETATM   16  H2  UNL     1      -9.951  13.835  72.413  1.00  0.00     0.000 HD 
HETATM   17  H1  UNL     1      -8.381  14.225  71.635  1.00  0.00     0.000 HD 
HETATM   18  O   UNL     1      -9.243  14.830  69.464  1.00  0.00    -0.032 OA 
ENDBRANCH   9  14
ENDBRANCH   6   8
ENDBRANCH   4   6
ENDBRANCH   2   4
TORSDOF 4
ENDMDL
