MODEL        1
REMARK 921   NORMALIZED FREE ENERGY PREDICTED BY IDOCK:   -8.40 KCAL/MOL
REMARK 922        TOTAL FREE ENERGY PREDICTED BY IDOCK:  -12.76 KCAL/MOL
REMARK 923 INTER-LIGAND FREE ENERGY PREDICTED BY IDOCK:  -11.84 KCAL/MOL
REMARK 924 INTRA-LIGAND FREE ENERGY PREDICTED BY IDOCK:   -0.92 KCAL/MOL
REMARK 927      BINDING AFFINITY PREDICTED BY RF-SCORE:    0.00 PKD
ROOT
HETATM    1  C   UNL     1     -11.674  12.756  63.578  1.00  0.00    -0.530 C  
HETATM    2  O   UNL     1     -10.399  13.178  64.061  1.00  0.00    -0.396 OA 
ENDROOT
BRANCH   2   3
HETATM    3  C   UNL     1     -10.415  14.101  65.077  1.00  0.00    -0.425 A  
HETATM    4  C   UNL     1     -10.183  13.621  66.370  1.00  0.00    -0.292 A  
HETATM    5  N   UNL     1     -10.658  17.670  65.623  1.00  0.00    -0.569 NA 
HETATM    6  C   UNL     1     -10.203  14.516  67.452  1.00  0.00    -0.240 A  
HETATM    7  C   UNL     1     -10.534  16.379  65.939  1.00  0.00    -0.337 A  
HETATM    8  C   UNL     1     -10.650  18.530  66.636  1.00  0.00    -0.342 A  
HETATM    9  C   UNL     1     -10.379  15.911  67.252  1.00  0.00    -0.293 A  
HETATM   10  C   UNL     1     -10.558  15.478  64.889  1.00  0.00    -0.370 A  
HETATM   11  N   UNL     1     -10.545  18.212  67.925  1.00  0.00    -0.396 NA 
HETATM   12  C   UNL     1     -10.421  16.910  68.255  1.00  0.00    -0.352 A  
BRANCH   4  13
HETATM   13  N   UNL     1      -9.910  12.240  66.548  1.00  0.00    -0.224 N  
HETATM   14  H   UNL     1      -8.957  11.907  66.402  1.00  0.00     0.000 HD 
HETATM   15  C   UNL     1     -10.882  11.331  66.910  1.00  0.00    -0.282 C  
HETATM   16  O   UNL     1     -12.074  11.595  67.049  1.00  0.00    -0.547 OA 
BRANCH  15  17
HETATM   17  C   UNL     1     -10.355   9.975  67.247  1.00  0.00    -0.293 C  
HETATM   18  C   UNL     1     -10.880   9.350  68.317  1.00  0.00    -0.163 C  
BRANCH  18  19
HETATM   19  C   UNL     1     -10.398   8.071  68.941  1.00  0.00    -0.209 C  
BRANCH  19  20
HETATM   20  N   UNL     1      -9.781   8.199  70.271  1.00  0.00    -0.175 NA 
HETATM   21  C   UNL     1     -11.865   7.630  72.317  1.00  0.00    -0.354 C  
HETATM   22  C   UNL     1     -10.421   9.286  71.042  1.00  0.00    -0.314 C  
HETATM   23  C   UNL     1     -11.162   6.523  71.540  1.00  0.00    -0.322 C  
HETATM   24  C   UNL     1     -11.830   8.953  71.556  1.00  0.00    -0.402 C  
HETATM   25  C   UNL     1      -9.773   6.972  71.084  1.00  0.00    -0.172 C  
ENDBRANCH  19  20
ENDBRANCH  18  19
ENDBRANCH  15  17
ENDBRANCH   4  13
BRANCH  12  26
HETATM   26  N   UNL     1     -10.471  16.549  69.620  1.00  0.00    -0.295 NA 
HETATM   27  H   UNL     1      -9.637  16.796  70.152  1.00  0.00     0.000 HD 
BRANCH  26  28
HETATM   28  C   UNL     1     -11.475  15.905  70.375  1.00  0.00    -0.378 A  
HETATM   29  C   UNL     1     -11.566  16.194  71.748  1.00  0.00    -0.503 A  
HETATM   30  C   UNL     1     -12.402  15.448  72.587  1.00  0.00    -0.396 A  
HETATM   31  C   UNL     1     -13.122  14.125  70.712  1.00  0.00    -0.289 A  
HETATM   32  C   UNL     1     -12.286  14.872  69.878  1.00  0.00    -0.322 A  
HETATM   33  C   UNL     1     -13.160  14.404  72.068  1.00  0.00    -0.361 A  
HETATM   34  F   UNL     1     -13.928  13.645  72.863  1.00  0.00    -0.536 F  
HETATM   35 CL   UNL     1     -12.450  15.809  74.270  1.00  0.00    -0.761 Cl 
ENDBRANCH  26  28
ENDBRANCH  12  26
ENDBRANCH   2   3
TORSDOF 7
ENDMDL
MODEL        2
REMARK 921   NORMALIZED FREE ENERGY PREDICTED BY IDOCK:   -8.29 KCAL/MOL
REMARK 922        TOTAL FREE ENERGY PREDICTED BY IDOCK:  -12.60 KCAL/MOL
REMARK 923 INTER-LIGAND FREE ENERGY PREDICTED BY IDOCK:  -11.92 KCAL/MOL
REMARK 924 INTRA-LIGAND FREE ENERGY PREDICTED BY IDOCK:   -0.68 KCAL/MOL
REMARK 927      BINDING AFFINITY PREDICTED BY RF-SCORE:    0.00 PKD
ROOT
HETATM    1  C   UNL     1     -11.618  12.683  63.495  1.00  0.00    -0.514 C  
HETATM    2  O   UNL     1     -10.389  12.902  64.186  1.00  0.00    -0.410 OA 
ENDROOT
BRANCH   2   3
HETATM    3  C   UNL     1     -10.411  13.863  65.166  1.00  0.00    -0.393 A  
HETATM    4  C   UNL     1     -10.192  13.434  66.478  1.00  0.00    -0.282 A  
HETATM    5  N   UNL     1     -10.648  17.452  65.570  1.00  0.00    -0.598 NA 
HETATM    6  C   UNL     1     -10.220  14.370  67.524  1.00  0.00    -0.240 A  
HETATM    7  C   UNL     1     -10.531  16.174  65.937  1.00  0.00    -0.352 A  
HETATM    8  C   UNL     1     -10.647  18.350  66.549  1.00  0.00    -0.311 A  
HETATM    9  C   UNL     1     -10.389  15.757  67.268  1.00  0.00    -0.290 A  
HETATM   10  C   UNL     1     -10.548  15.233  64.923  1.00  0.00    -0.379 A  
HETATM   11  N   UNL     1     -10.555  18.083  67.850  1.00  0.00    -0.394 NA 
HETATM   12  C   UNL     1     -10.438  16.794  68.231  1.00  0.00    -0.341 A  
BRANCH   4  13
HETATM   13  N   UNL     1      -9.925  12.060  66.712  1.00  0.00    -0.199 N  
HETATM   14  H   UNL     1      -9.013  11.687  66.449  1.00  0.00     0.000 HD 
HETATM   15  C   UNL     1     -10.850  11.209  67.281  1.00  0.00    -0.274 C  
HETATM   16  O   UNL     1     -12.001  11.520  67.578  1.00  0.00    -0.629 OA 
BRANCH  15  17
HETATM   17  C   UNL     1     -10.306   9.863  67.632  1.00  0.00    -0.275 C  
HETATM   18  C   UNL     1     -10.037   9.016  66.622  1.00  0.00    -0.355 C  
BRANCH  18  19
HETATM   19  C   UNL     1      -9.649   7.569  66.739  1.00  0.00    -0.206 C  
BRANCH  19  20
HETATM   20  N   UNL     1     -10.742   6.635  67.055  1.00  0.00    -0.338 NA 
HETATM   21  C   UNL     1      -9.618   4.409  68.678  1.00  0.00    -0.216 C  
HETATM   22  C   UNL     1     -10.482   5.306  66.463  1.00  0.00    -0.298 C  
HETATM   23  C   UNL     1      -9.932   5.775  69.276  1.00  0.00    -0.238 C  
HETATM   24  C   UNL     1      -9.381   4.502  67.173  1.00  0.00    -0.163 C  
HETATM   25  C   UNL     1     -11.040   6.475  68.487  1.00  0.00    -0.265 C  
ENDBRANCH  19  20
ENDBRANCH  18  19
ENDBRANCH  15  17
ENDBRANCH   4  13
BRANCH  12  26
HETATM   26  N   UNL     1     -10.501  16.487  69.609  1.00  0.00    -0.295 NA 
HETATM   27  H   UNL     1      -9.689  16.792  70.146  1.00  0.00     0.000 HD 
BRANCH  26  28
HETATM   28  C   UNL     1     -11.492  15.831  70.370  1.00  0.00    -0.365 A  
HETATM   29  C   UNL     1     -11.663  16.212  71.712  1.00  0.00    -0.568 A  
HETATM   30  C   UNL     1     -12.484  15.472  72.572  1.00  0.00    -0.409 A  
HETATM   31  C   UNL     1     -13.029  13.968  70.776  1.00  0.00    -0.298 A  
HETATM   32  C   UNL     1     -12.209  14.710  69.921  1.00  0.00    -0.365 A  
HETATM   33  C   UNL     1     -13.146  14.342  72.104  1.00  0.00    -0.366 A  
HETATM   34  F   UNL     1     -13.896  13.591  72.923  1.00  0.00    -0.569 F  
HETATM   35 CL   UNL     1     -12.632  15.950  74.220  1.00  0.00    -0.728 Cl 
ENDBRANCH  26  28
ENDBRANCH  12  26
ENDBRANCH   2   3
TORSDOF 7
ENDMDL
MODEL        3
REMARK 921   NORMALIZED FREE ENERGY PREDICTED BY IDOCK:   -8.02 KCAL/MOL
REMARK 922        TOTAL FREE ENERGY PREDICTED BY IDOCK:  -12.23 KCAL/MOL
REMARK 923 INTER-LIGAND FREE ENERGY PREDICTED BY IDOCK:  -10.90 KCAL/MOL
REMARK 924 INTRA-LIGAND FREE ENERGY PREDICTED BY IDOCK:   -1.33 KCAL/MOL
REMARK 927      BINDING AFFINITY PREDICTED BY RF-SCORE:    0.00 PKD
ROOT
HETATM    1  C   UNL     1      -9.142   7.712  72.780  1.00  0.00    -0.165 C  
HETATM    2  O   UNL     1      -8.922   8.975  72.154  1.00  0.00    -0.378 OA 
ENDROOT
BRANCH   2   3
HETATM    3  C   UNL     1      -8.890   8.969  70.781  1.00  0.00    -0.234 A  
HETATM    4  C   UNL     1      -9.931   9.629  70.122  1.00  0.00    -0.261 A  
HETATM    5  N   UNL     1      -6.777   7.944  68.028  1.00  0.00    -0.066 NA 
HETATM    6  C   UNL     1      -9.960   9.643  68.718  1.00  0.00    -0.184 A  
HETATM    7  C   UNL     1      -7.839   8.474  68.636  1.00  0.00    -0.108 A  
HETATM    8  C   UNL     1      -6.779   7.976  66.699  1.00  0.00    -0.063 A  
HETATM    9  C   UNL     1      -8.912   9.065  67.953  1.00  0.00    -0.135 A  
HETATM   10  C   UNL     1      -7.850   8.429  70.019  1.00  0.00    -0.103 A  
HETATM   11  N   UNL     1      -7.748   8.474  65.935  1.00  0.00    -0.095 NA 
HETATM   12  C   UNL     1      -8.828   9.012  66.541  1.00  0.00    -0.135 A  
BRANCH   4  13
HETATM   13  N   UNL     1     -10.920  10.289  70.896  1.00  0.00    -0.356 N  
HETATM   14  H   UNL     1     -10.738  11.240  71.216  1.00  0.00     0.000 HD 
HETATM   15  C   UNL     1     -12.119   9.694  71.233  1.00  0.00    -0.371 C  
HETATM   16  O   UNL     1     -12.429   8.536  70.966  1.00  0.00    -0.225 OA 
BRANCH  15  17
HETATM   17  C   UNL     1     -13.103  10.622  71.868  1.00  0.00    -0.563 C  
HETATM   18  C   UNL     1     -12.992  11.934  71.590  1.00  0.00    -0.447 C  
BRANCH  18  19
HETATM   19  C   UNL     1     -13.751  13.059  72.236  1.00  0.00    -0.512 C  
BRANCH  19  20
HETATM   20  N   UNL     1     -13.848  14.300  71.451  1.00  0.00    -0.331 NA 
HETATM   21  C   UNL     1     -11.887  16.248  72.554  1.00  0.00    -0.608 C  
HETATM   22  C   UNL     1     -14.278  15.427  72.306  1.00  0.00    -0.545 C  
HETATM   23  C   UNL     1     -11.471  15.103  71.637  1.00  0.00    -0.445 C  
HETATM   24  C   UNL     1     -13.198  15.937  73.272  1.00  0.00    -0.698 C  
HETATM   25  C   UNL     1     -12.626  14.685  70.726  1.00  0.00    -0.350 C  
ENDBRANCH  19  20
ENDBRANCH  18  19
ENDBRANCH  15  17
ENDBRANCH   4  13
BRANCH  12  26
HETATM   26  N   UNL     1      -9.929   9.396  65.745  1.00  0.00    -0.381 NA 
HETATM   27  H   UNL     1     -10.558   8.631  65.498  1.00  0.00     0.000 HD 
BRANCH  26  28
HETATM   28  C   UNL     1     -10.311  10.654  65.230  1.00  0.00    -0.251 A  
HETATM   29  C   UNL     1     -10.903  11.581  66.106  1.00  0.00    -0.330 A  
HETATM   30  C   UNL     1     -11.481  12.760  65.623  1.00  0.00    -0.342 A  
HETATM   31  C   UNL     1     -10.864  12.157  63.378  1.00  0.00    -0.474 A  
HETATM   32  C   UNL     1     -10.287  10.981  63.865  1.00  0.00    -0.436 A  
HETATM   33  C   UNL     1     -11.477  13.032  64.259  1.00  0.00    -0.381 A  
HETATM   34  F   UNL     1     -12.069  14.131  63.770  1.00  0.00    -0.466 F  
HETATM   35 CL   UNL     1     -12.232  13.848  66.726  1.00  0.00    -0.462 Cl 
ENDBRANCH  26  28
ENDBRANCH  12  26
ENDBRANCH   2   3
TORSDOF 7
ENDMDL
MODEL        4
REMARK 921   NORMALIZED FREE ENERGY PREDICTED BY IDOCK:   -7.99 KCAL/MOL
REMARK 922        TOTAL FREE ENERGY PREDICTED BY IDOCK:  -12.18 KCAL/MOL
REMARK 923 INTER-LIGAND FREE ENERGY PREDICTED BY IDOCK:  -11.51 KCAL/MOL
REMARK 924 INTRA-LIGAND FREE ENERGY PREDICTED BY IDOCK:   -0.67 KCAL/MOL
REMARK 927      BINDING AFFINITY PREDICTED BY RF-SCORE:    0.00 PKD
ROOT
HETATM    1  C   UNL     1     -12.040  16.025  72.212  1.00  0.00    -0.527 C  
HETATM    2  O   UNL     1     -11.230  15.120  71.462  1.00  0.00    -0.359 OA 
ENDROOT
BRANCH   2   3
HETATM    3  C   UNL     1     -11.000  15.462  70.152  1.00  0.00    -0.310 A  
HETATM    4  C   UNL     1     -11.021  14.424  69.215  1.00  0.00    -0.255 A  
HETATM    5  N   UNL     1     -10.527  18.371  68.053  1.00  0.00    -0.383 NA 
HETATM    6  C   UNL     1     -10.777  14.711  67.863  1.00  0.00    -0.250 A  
HETATM    7  C   UNL     1     -10.644  17.078  68.361  1.00  0.00    -0.375 A  
HETATM    8  C   UNL     1     -10.324  18.658  66.771  1.00  0.00    -0.407 A  
HETATM    9  C   UNL     1     -10.585  16.045  67.415  1.00  0.00    -0.316 A  
HETATM   10  C   UNL     1     -10.839  16.773  69.696  1.00  0.00    -0.205 A  
HETATM   11  N   UNL     1     -10.214  17.772  65.784  1.00  0.00    -0.600 NA 
HETATM   12  C   UNL     1     -10.329  16.461  66.086  1.00  0.00    -0.344 A  
BRANCH   4  13
HETATM   13  N   UNL     1     -11.312  13.109  69.660  1.00  0.00    -0.472 N  
HETATM   14  H   UNL     1     -11.102  12.861  70.626  1.00  0.00     0.000 HD 
HETATM   15  C   UNL     1     -11.867  12.151  68.836  1.00  0.00    -0.304 C  
HETATM   16  O   UNL     1     -12.103  12.305  67.640  1.00  0.00    -0.502 OA 
BRANCH  15  17
HETATM   17  C   UNL     1     -12.288  10.905  69.544  1.00  0.00    -0.241 C  
HETATM   18  C   UNL     1     -11.926  10.769  70.833  1.00  0.00    -0.438 C  
BRANCH  18  19
HETATM   19  C   UNL     1     -12.087   9.544  71.689  1.00  0.00    -0.398 C  
BRANCH  19  20
HETATM   20  N   UNL     1     -10.871   8.741  71.894  1.00  0.00    -0.339 NA 
HETATM   21  C   UNL     1     -11.235   6.135  70.506  1.00  0.00    -0.403 C  
HETATM   22  C   UNL     1     -11.180   7.506  72.644  1.00  0.00    -0.348 C  
HETATM   23  C   UNL     1     -10.876   7.414  69.758  1.00  0.00    -0.246 C  
HETATM   24  C   UNL     1     -11.932   6.442  71.829  1.00  0.00    -0.370 C  
HETATM   25  C   UNL     1     -10.132   8.390  70.671  1.00  0.00    -0.193 C  
ENDBRANCH  19  20
ENDBRANCH  18  19
ENDBRANCH  15  17
ENDBRANCH   4  13
BRANCH  12  26
HETATM   26  N   UNL     1     -10.055  15.508  65.080  1.00  0.00    -0.372 NA 
HETATM   27  H   UNL     1      -9.190  15.676  64.565  1.00  0.00     0.000 HD 
BRANCH  26  28
HETATM   28  C   UNL     1     -10.770  14.365  64.663  1.00  0.00    -0.336 A  
HETATM   29  C   UNL     1     -10.046  13.195  64.371  1.00  0.00    -0.224 A  
HETATM   30  C   UNL     1     -10.667  12.096  63.767  1.00  0.00    -0.437 A  
HETATM   31  C   UNL     1     -12.765  13.271  63.760  1.00  0.00    -0.054 A  
HETATM   32  C   UNL     1     -12.141  14.366  64.363  1.00  0.00    -0.491 A  
HETATM   33  C   UNL     1     -12.019  12.147  63.446  1.00  0.00    -0.481 A  
HETATM   34  F   UNL     1     -12.622  11.126  62.821  1.00  0.00    -0.168 F  
HETATM   35 CL   UNL     1      -9.734  10.699  63.390  1.00  0.00    -0.362 Cl 
ENDBRANCH  26  28
ENDBRANCH  12  26
ENDBRANCH   2   3
TORSDOF 7
ENDMDL
MODEL        5
REMARK 921   NORMALIZED FREE ENERGY PREDICTED BY IDOCK:   -7.88 KCAL/MOL
REMARK 922        TOTAL FREE ENERGY PREDICTED BY IDOCK:  -12.02 KCAL/MOL
REMARK 923 INTER-LIGAND FREE ENERGY PREDICTED BY IDOCK:  -10.65 KCAL/MOL
REMARK 924 INTRA-LIGAND FREE ENERGY PREDICTED BY IDOCK:   -1.37 KCAL/MOL
REMARK 927      BINDING AFFINITY PREDICTED BY RF-SCORE:    0.00 PKD
ROOT
HETATM    1  C   UNL     1     -10.188  18.049  66.859  1.00  0.00    -0.362 C  
HETATM    2  O   UNL     1     -10.448  16.674  66.579  1.00  0.00    -0.302 OA 
ENDROOT
BRANCH   2   3
HETATM    3  C   UNL     1     -10.944  15.931  67.621  1.00  0.00    -0.298 A  
HETATM    4  C   UNL     1     -11.223  14.585  67.362  1.00  0.00    -0.327 A  
HETATM    5  N   UNL     1     -11.653  16.184  71.161  1.00  0.00    -0.431 NA 
HETATM    6  C   UNL     1     -11.747  13.780  68.385  1.00  0.00    -0.393 A  
HETATM    7  C   UNL     1     -11.573  15.615  69.957  1.00  0.00    -0.350 A  
HETATM    8  C   UNL     1     -12.122  15.423  72.144  1.00  0.00    -0.407 A  
HETATM    9  C   UNL     1     -11.929  14.283  69.700  1.00  0.00    -0.387 A  
HETATM   10  C   UNL     1     -11.101  16.408  68.926  1.00  0.00    -0.328 A  
HETATM   11  N   UNL     1     -12.526  14.160  72.025  1.00  0.00    -0.263 NA 
HETATM   12  C   UNL     1     -12.450  13.576  70.811  1.00  0.00    -0.353 A  
BRANCH   4  13
HETATM   13  N   UNL     1     -10.943  14.067  66.071  1.00  0.00    -0.295 N  
HETATM   14  H   UNL     1      -9.986  13.793  65.850  1.00  0.00     0.000 HD 
HETATM   15  C   UNL     1     -11.915  13.919  65.103  1.00  0.00    -0.385 C  
HETATM   16  O   UNL     1     -13.085  14.272  65.222  1.00  0.00    -0.707 OA 
BRANCH  15  17
HETATM   17  C   UNL     1     -11.463  13.166  63.894  1.00  0.00    -0.451 C  
HETATM   18  C   UNL     1     -10.483  12.258  64.055  1.00  0.00    -0.427 C  
BRANCH  18  19
HETATM   19  C   UNL     1      -9.759  11.512  62.971  1.00  0.00    -0.359 C  
BRANCH  19  20
HETATM   20  N   UNL     1      -9.515  10.083  63.228  1.00  0.00    -0.266 NA 
HETATM   21  C   UNL     1      -6.715   9.779  64.188  1.00  0.00    -0.120 C  
HETATM   22  C   UNL     1      -8.449   9.567  62.343  1.00  0.00    -0.181 C  
HETATM   23  C   UNL     1      -7.839  10.270  65.094  1.00  0.00    -0.138 C  
HETATM   24  C   UNL     1      -7.034  10.035  62.717  1.00  0.00    -0.125 C  
HETATM   25  C   UNL     1      -9.193   9.739  64.622  1.00  0.00    -0.255 C  
ENDBRANCH  19  20
ENDBRANCH  18  19
ENDBRANCH  15  17
ENDBRANCH   4  13
BRANCH  12  26
HETATM   26  N   UNL     1     -13.023  12.296  70.638  1.00  0.00     0.087 NA 
HETATM   27  H   UNL     1     -13.910  12.296  70.134  1.00  0.00     0.000 HD 
BRANCH  26  28
HETATM   28  C   UNL     1     -12.581  11.018  71.041  1.00  0.00    -0.411 A  
HETATM   29  C   UNL     1     -11.543  10.410  70.312  1.00  0.00    -0.410 A  
HETATM   30  C   UNL     1     -11.196   9.072  70.532  1.00  0.00    -0.260 A  
HETATM   31  C   UNL     1     -12.876   8.907  72.246  1.00  0.00    -0.475 A  
HETATM   32  C   UNL     1     -13.219  10.243  72.023  1.00  0.00    -0.516 A  
HETATM   33  C   UNL     1     -11.878   8.321  71.484  1.00  0.00    -0.293 A  
HETATM   34  F   UNL     1     -11.596   7.025  71.676  1.00  0.00    -0.269 F  
HETATM   35 CL   UNL     1      -9.948   8.355  69.588  1.00  0.00    -0.189 Cl 
ENDBRANCH  26  28
ENDBRANCH  12  26
ENDBRANCH   2   3
TORSDOF 7
ENDMDL
MODEL        6
REMARK 921   NORMALIZED FREE ENERGY PREDICTED BY IDOCK:   -7.81 KCAL/MOL
REMARK 922        TOTAL FREE ENERGY PREDICTED BY IDOCK:  -11.93 KCAL/MOL
REMARK 923 INTER-LIGAND FREE ENERGY PREDICTED BY IDOCK:  -11.24 KCAL/MOL
REMARK 924 INTRA-LIGAND FREE ENERGY PREDICTED BY IDOCK:   -0.69 KCAL/MOL
REMARK 927      BINDING AFFINITY PREDICTED BY RF-SCORE:    0.00 PKD
ROOT
HETATM    1  C   UNL     1     -12.681  16.045  73.545  1.00  0.00    -0.589 C  
HETATM    2  O   UNL     1     -13.091  15.983  72.180  1.00  0.00    -0.429 OA 
ENDROOT
BRANCH   2   3
HETATM    3  C   UNL     1     -12.701  14.865  71.484  1.00  0.00    -0.331 A  
HETATM    4  C   UNL     1     -11.787  15.054  70.443  1.00  0.00    -0.297 A  
HETATM    5  N   UNL     1     -13.071  11.265  71.524  1.00  0.00    -0.407 NA 
HETATM    6  C   UNL     1     -11.365  13.950  69.687  1.00  0.00    -0.259 A  
HETATM    7  C   UNL     1     -12.646  12.457  71.100  1.00  0.00    -0.251 A  
HETATM    8  C   UNL     1     -12.655  10.209  70.833  1.00  0.00    -0.360 A  
HETATM    9  C   UNL     1     -11.788  12.633  70.005  1.00  0.00    -0.358 A  
HETATM   10  C   UNL     1     -13.089  13.561  71.806  1.00  0.00    -0.475 A  
HETATM   11  N   UNL     1     -11.871  10.243  69.757  1.00  0.00    -0.190 NA 
HETATM   12  C   UNL     1     -11.437  11.444  69.320  1.00  0.00    -0.303 A  
BRANCH   4  13
HETATM   13  N   UNL     1     -11.294  16.362  70.197  1.00  0.00    -0.444 N  
HETATM   14  H   UNL     1     -11.179  16.998  70.986  1.00  0.00     0.000 HD 
HETATM   15  C   UNL     1     -10.964  16.806  68.934  1.00  0.00    -0.259 C  
HETATM   16  O   UNL     1     -11.119  16.162  67.899  1.00  0.00    -0.340 OA 
BRANCH  15  17
HETATM   17  C   UNL     1     -10.270  18.130  68.914  1.00  0.00    -0.304 C  
HETATM   18  C   UNL     1      -9.007  18.165  68.452  1.00  0.00    -0.305 C  
BRANCH  18  19
HETATM   19  C   UNL     1      -8.064  19.334  68.494  1.00  0.00    -0.366 C  
BRANCH  19  20
HETATM   20  N   UNL     1      -6.682  19.059  68.071  1.00  0.00    -0.228 NA 
HETATM   21  C   UNL     1      -6.162  20.569  65.561  1.00  0.00    -0.271 C  
HETATM   22  C   UNL     1      -6.661  18.384  66.756  1.00  0.00    -0.189 C  
HETATM   23  C   UNL     1      -6.148  21.236  66.931  1.00  0.00    -0.401 C  
HETATM   24  C   UNL     1      -7.007  19.298  65.570  1.00  0.00    -0.264 C  
HETATM   25  C   UNL     1      -5.791  20.229  68.025  1.00  0.00    -0.230 C  
ENDBRANCH  19  20
ENDBRANCH  18  19
ENDBRANCH  15  17
ENDBRANCH   4  13
BRANCH  12  26
HETATM   26  N   UNL     1     -10.741  11.506  68.092  1.00  0.00    -0.195 NA 
HETATM   27  H   UNL     1      -9.741  11.315  68.164  1.00  0.00     0.000 HD 
BRANCH  26  28
HETATM   28  C   UNL     1     -11.189  11.787  66.783  1.00  0.00    -0.328 A  
HETATM   29  C   UNL     1     -10.524  11.175  65.706  1.00  0.00    -0.305 A  
HETATM   30  C   UNL     1     -10.786  11.562  64.386  1.00  0.00    -0.344 A  
HETATM   31  C   UNL     1     -12.413  13.153  65.162  1.00  0.00    -0.539 A  
HETATM   32  C   UNL     1     -12.150  12.764  66.478  1.00  0.00    -0.338 A  
HETATM   33  C   UNL     1     -11.714  12.563  64.122  1.00  0.00    -0.399 A  
HETATM   34  F   UNL     1     -11.943  12.983  62.870  1.00  0.00    -0.567 F  
HETATM   35 CL   UNL     1      -9.919  10.815  63.099  1.00  0.00    -0.372 Cl 
ENDBRANCH  26  28
ENDBRANCH  12  26
ENDBRANCH   2   3
TORSDOF 7
ENDMDL
MODEL        7
REMARK 921   NORMALIZED FREE ENERGY PREDICTED BY IDOCK:   -7.66 KCAL/MOL
REMARK 922        TOTAL FREE ENERGY PREDICTED BY IDOCK:  -11.71 KCAL/MOL
REMARK 923 INTER-LIGAND FREE ENERGY PREDICTED BY IDOCK:  -10.75 KCAL/MOL
REMARK 924 INTRA-LIGAND FREE ENERGY PREDICTED BY IDOCK:   -0.96 KCAL/MOL
REMARK 927      BINDING AFFINITY PREDICTED BY RF-SCORE:    0.00 PKD
ROOT
HETATM    1  C   UNL     1      -9.791  11.470  62.967  1.00  0.00    -0.343 C  
HETATM    2  O   UNL     1     -10.729  11.494  64.042  1.00  0.00    -0.328 OA 
ENDROOT
BRANCH   2   3
HETATM    3  C   UNL     1     -10.630  12.559  64.904  1.00  0.00    -0.301 A  
HETATM    4  C   UNL     1     -10.357  12.264  66.243  1.00  0.00    -0.232 A  
HETATM    5  N   UNL     1     -10.614  16.177  64.904  1.00  0.00    -0.640 NA 
HETATM    6  C   UNL     1     -10.261  13.310  67.174  1.00  0.00    -0.246 A  
HETATM    7  C   UNL     1     -10.556  14.943  65.409  1.00  0.00    -0.373 A  
HETATM    8  C   UNL     1     -10.495  17.177  65.771  1.00  0.00    -0.233 A  
HETATM    9  C   UNL     1     -10.357  14.668  66.770  1.00  0.00    -0.268 A  
HETATM   10  C   UNL     1     -10.695  13.899  64.513  1.00  0.00    -0.382 A  
HETATM   11  N   UNL     1     -10.339  17.051  67.087  1.00  0.00    -0.307 NA 
HETATM   12  C   UNL     1     -10.280  15.807  67.608  1.00  0.00    -0.266 A  
BRANCH   4  13
HETATM   13  N   UNL     1     -10.163  10.909  66.619  1.00  0.00    -0.226 N  
HETATM   14  H   UNL     1      -9.379  10.397  66.215  1.00  0.00     0.000 HD 
HETATM   15  C   UNL     1     -10.994  10.258  67.508  1.00  0.00    -0.280 C  
HETATM   16  O   UNL     1     -12.005  10.743  68.009  1.00  0.00    -0.537 OA 
BRANCH  15  17
HETATM   17  C   UNL     1     -10.501   8.912  67.930  1.00  0.00    -0.281 C  
HETATM   18  C   UNL     1     -10.409   8.667  69.250  1.00  0.00    -0.228 C  
BRANCH  18  19
HETATM   19  C   UNL     1      -9.789   7.464  69.902  1.00  0.00    -0.178 C  
BRANCH  19  20
HETATM   20  N   UNL     1     -10.729   6.509  70.511  1.00  0.00    -0.240 NA 
HETATM   21  C   UNL     1     -10.726   6.956  73.453  1.00  0.00    -0.352 C  
HETATM   22  C   UNL     1     -10.021   5.592  71.429  1.00  0.00    -0.186 C  
HETATM   23  C   UNL     1     -11.483   7.865  72.491  1.00  0.00    -0.455 C  
HETATM   24  C   UNL     1      -9.577   6.237  72.751  1.00  0.00    -0.155 C  
HETATM   25  C   UNL     1     -11.871   7.111  71.218  1.00  0.00    -0.318 C  
ENDBRANCH  19  20
ENDBRANCH  18  19
ENDBRANCH  15  17
ENDBRANCH   4  13
BRANCH  12  26
HETATM   26  N   UNL     1     -10.277  15.660  69.013  1.00  0.00    -0.213 NA 
HETATM   27  H   UNL     1      -9.367  15.805  69.449  1.00  0.00     0.000 HD 
BRANCH  26  28
HETATM   28  C   UNL     1     -11.315  15.348  69.917  1.00  0.00    -0.304 A  
HETATM   29  C   UNL     1     -11.374  16.050  71.133  1.00  0.00    -0.413 A  
HETATM   30  C   UNL     1     -12.250  15.655  72.151  1.00  0.00    -0.439 A  
HETATM   31  C   UNL     1     -13.073  13.870  70.766  1.00  0.00    -0.204 A  
HETATM   32  C   UNL     1     -12.197  14.268  69.752  1.00  0.00    -0.390 A  
HETATM   33  C   UNL     1     -13.081  14.555  71.970  1.00  0.00    -0.344 A  
HETATM   34  F   UNL     1     -13.890  14.129  72.950  1.00  0.00    -0.537 F  
HETATM   35 CL   UNL     1     -12.260  16.518  73.641  1.00  0.00    -0.545 Cl 
ENDBRANCH  26  28
ENDBRANCH  12  26
ENDBRANCH   2   3
TORSDOF 7
ENDMDL
MODEL        8
REMARK 921   NORMALIZED FREE ENERGY PREDICTED BY IDOCK:   -7.60 KCAL/MOL
REMARK 922        TOTAL FREE ENERGY PREDICTED BY IDOCK:  -11.63 KCAL/MOL
REMARK 923 INTER-LIGAND FREE ENERGY PREDICTED BY IDOCK:  -10.52 KCAL/MOL
REMARK 924 INTRA-LIGAND FREE ENERGY PREDICTED BY IDOCK:   -1.11 KCAL/MOL
REMARK 927      BINDING AFFINITY PREDICTED BY RF-SCORE:    0.00 PKD
ROOT
HETATM    1  C   UNL     1      -9.102  11.049  62.651  1.00  0.00    -0.343 C  
HETATM    2  O   UNL     1      -9.542  11.936  63.678  1.00  0.00    -0.246 OA 
ENDROOT
BRANCH   2   3
HETATM    3  C   UNL     1      -9.804  11.362  64.898  1.00  0.00    -0.258 A  
HETATM    4  C   UNL     1     -10.092  12.230  65.956  1.00  0.00    -0.248 A  
HETATM    5  N   UNL     1     -10.256   8.116  66.433  1.00  0.00    -0.174 NA 
HETATM    6  C   UNL     1     -10.352  11.701  67.230  1.00  0.00    -0.232 A  
HETATM    7  C   UNL     1     -10.186   9.447  66.359  1.00  0.00    -0.230 A  
HETATM    8  C   UNL     1     -10.530   7.604  67.628  1.00  0.00    -0.244 A  
HETATM    9  C   UNL     1     -10.404  10.299  67.451  1.00  0.00    -0.282 A  
HETATM   10  C   UNL     1      -9.885   9.985  65.120  1.00  0.00    -0.388 A  
HETATM   11  N   UNL     1     -10.722   8.300  68.747  1.00  0.00    -0.109 NA 
HETATM   12  C   UNL     1     -10.651   9.646  68.683  1.00  0.00    -0.217 A  
BRANCH   4  13
HETATM   13  N   UNL     1     -10.136  13.625  65.702  1.00  0.00    -0.355 N  
HETATM   14  H   UNL     1      -9.287  14.174  65.837  1.00  0.00     0.000 HD 
HETATM   15  C   UNL     1     -11.281  14.268  65.280  1.00  0.00    -0.337 C  
HETATM   16  O   UNL     1     -12.379  13.733  65.146  1.00  0.00    -0.404 OA 
BRANCH  15  17
HETATM   17  C   UNL     1     -11.068  15.689  64.870  1.00  0.00    -0.414 C  
HETATM   18  C   UNL     1     -10.519  16.523  65.772  1.00  0.00    -0.343 C  
BRANCH  18  19
HETATM   19  C   UNL     1     -10.366  18.012  65.647  1.00  0.00    -0.049 C  
BRANCH  19  20
HETATM   20  N   UNL     1     -10.742  18.797  66.834  1.00  0.00    -0.390 NA 
HETATM   21  C   UNL     1      -8.261  19.425  68.353  1.00  0.00    -0.382 C  
HETATM   22  C   UNL     1     -10.393  18.071  68.073  1.00  0.00    -0.387 C  
HETATM   23  C   UNL     1      -8.662  20.188  67.095  1.00  0.00    -0.427 C  
HETATM   24  C   UNL     1      -8.888  18.033  68.382  1.00  0.00    -0.300 C  
HETATM   25  C   UNL     1     -10.178  20.155  66.897  1.00  0.00    -0.430 C  
ENDBRANCH  19  20
ENDBRANCH  18  19
ENDBRANCH  15  17
ENDBRANCH   4  13
BRANCH  12  26
HETATM   26  N   UNL     1     -10.693  10.384  69.886  1.00  0.00    -0.313 NA 
HETATM   27  H   UNL     1      -9.842  10.327  70.445  1.00  0.00     0.000 HD 
BRANCH  26  28
HETATM   28  C   UNL     1     -11.709  11.187  70.450  1.00  0.00    -0.320 A  
HETATM   29  C   UNL     1     -11.678  12.571  70.205  1.00  0.00    -0.255 A  
HETATM   30  C   UNL     1     -12.532  13.443  70.891  1.00  0.00    -0.359 A  
HETATM   31  C   UNL     1     -13.510  11.583  72.060  1.00  0.00    -0.298 A  
HETATM   32  C   UNL     1     -12.656  10.716  71.373  1.00  0.00    -0.526 A  
HETATM   33  C   UNL     1     -13.430  12.946  71.829  1.00  0.00    -0.280 A  
HETATM   34  F   UNL     1     -14.221  13.768  72.533  1.00  0.00    -0.581 F  
HETATM   35 CL   UNL     1     -12.432  15.135  70.590  1.00  0.00    -0.404 Cl 
ENDBRANCH  26  28
ENDBRANCH  12  26
ENDBRANCH   2   3
TORSDOF 7
ENDMDL
MODEL        9
REMARK 921   NORMALIZED FREE ENERGY PREDICTED BY IDOCK:   -7.54 KCAL/MOL
REMARK 922        TOTAL FREE ENERGY PREDICTED BY IDOCK:  -11.55 KCAL/MOL
REMARK 923 INTER-LIGAND FREE ENERGY PREDICTED BY IDOCK:  -10.32 KCAL/MOL
REMARK 924 INTRA-LIGAND FREE ENERGY PREDICTED BY IDOCK:   -1.23 KCAL/MOL
REMARK 927      BINDING AFFINITY PREDICTED BY RF-SCORE:    0.00 PKD
ROOT
HETATM    1  C   UNL     1     -13.756   9.149  72.269  1.00  0.00    -0.487 C  
HETATM    2  O   UNL     1     -12.802   9.591  71.305  1.00  0.00    -0.328 OA 
ENDROOT
BRANCH   2   3
HETATM    3  C   UNL     1     -12.732  10.948  71.105  1.00  0.00    -0.429 A  
HETATM    4  C   UNL     1     -12.248  11.381  69.867  1.00  0.00    -0.277 A  
HETATM    5  N   UNL     1     -13.629  14.069  72.703  1.00  0.00    -0.640 NA 
HETATM    6  C   UNL     1     -12.140  12.757  69.611  1.00  0.00    -0.286 A  
HETATM    7  C   UNL     1     -13.135  13.262  71.762  1.00  0.00    -0.379 A  
HETATM    8  C   UNL     1     -13.558  15.373  72.460  1.00  0.00    -0.533 A  
HETATM    9  C   UNL     1     -12.583  13.720  70.556  1.00  0.00    -0.361 A  
HETATM   10  C   UNL     1     -13.192  11.903  72.016  1.00  0.00    -0.461 A  
HETATM   11  N   UNL     1     -13.028  15.935  71.376  1.00  0.00    -0.407 NA 
HETATM   12  C   UNL     1     -12.525  15.128  70.419  1.00  0.00    -0.368 A  
BRANCH   4  13
HETATM   13  N   UNL     1     -11.901  10.410  68.892  1.00  0.00    -0.523 N  
HETATM   14  H   UNL     1     -12.634  10.041  68.286  1.00  0.00     0.000 HD 
HETATM   15  C   UNL     1     -10.612   9.945  68.732  1.00  0.00    -0.222 C  
HETATM   16  O   UNL     1      -9.659  10.259  69.440  1.00  0.00    -0.213 OA 
BRANCH  15  17
HETATM   17  C   UNL     1     -10.417   9.089  67.523  1.00  0.00    -0.338 C  
HETATM   18  C   UNL     1     -10.513   7.756  67.681  1.00  0.00    -0.308 C  
BRANCH  18  19
HETATM   19  C   UNL     1     -10.192   6.703  66.658  1.00  0.00    -0.138 C  
BRANCH  19  20
HETATM   20  N   UNL     1      -8.859   6.090  66.765  1.00  0.00    -0.118 NA 
HETATM   21  C   UNL     1      -9.210   3.228  67.498  1.00  0.00    -0.233 C  
HETATM   22  C   UNL     1      -8.611   5.611  68.142  1.00  0.00    -0.104 C  
HETATM   23  C   UNL     1      -9.419   3.737  66.077  1.00  0.00    -0.178 C  
HETATM   24  C   UNL     1      -9.395   4.345  68.522  1.00  0.00    -0.203 C  
HETATM   25  C   UNL     1      -8.589   4.995  65.820  1.00  0.00    -0.131 C  
ENDBRANCH  19  20
ENDBRANCH  18  19
ENDBRANCH  15  17
ENDBRANCH   4  13
BRANCH  12  26
HETATM   26  N   UNL     1     -11.818  15.711  69.343  1.00  0.00    -0.376 NA 
HETATM   27  H   UNL     1     -12.342  15.754  68.469  1.00  0.00     0.000 HD 
BRANCH  26  28
HETATM   28  C   UNL     1     -10.514  16.246  69.269  1.00  0.00    -0.285 A  
HETATM   29  C   UNL     1     -10.362  17.577  68.844  1.00  0.00    -0.338 A  
HETATM   30  C   UNL     1      -9.096  18.102  68.559  1.00  0.00    -0.306 A  
HETATM   31  C   UNL     1      -8.080  16.004  69.152  1.00  0.00    -0.238 A  
HETATM   32  C   UNL     1      -9.346  15.484  69.435  1.00  0.00    -0.279 A  
HETATM   33  C   UNL     1      -7.963  17.306  68.695  1.00  0.00    -0.267 A  
HETATM   34  F   UNL     1      -6.747  17.773  68.379  1.00  0.00    -0.187 F  
HETATM   35 CL   UNL     1      -8.959  19.726  68.002  1.00  0.00    -0.377 Cl 
ENDBRANCH  26  28
ENDBRANCH  12  26
ENDBRANCH   2   3
TORSDOF 7
ENDMDL
MODEL       10
REMARK 921   NORMALIZED FREE ENERGY PREDICTED BY IDOCK:   -7.50 KCAL/MOL
REMARK 922        TOTAL FREE ENERGY PREDICTED BY IDOCK:  -11.49 KCAL/MOL
REMARK 923 INTER-LIGAND FREE ENERGY PREDICTED BY IDOCK:  -10.23 KCAL/MOL
REMARK 924 INTRA-LIGAND FREE ENERGY PREDICTED BY IDOCK:   -1.27 KCAL/MOL
REMARK 927      BINDING AFFINITY PREDICTED BY RF-SCORE:    0.00 PKD
ROOT
HETATM    1  C   UNL     1     -14.394   8.204  71.925  1.00  0.00    -0.472 C  
HETATM    2  O   UNL     1     -13.041   8.650  71.836  1.00  0.00    -0.334 OA 
ENDROOT
BRANCH   2   3
HETATM    3  C   UNL     1     -12.864   9.983  71.556  1.00  0.00    -0.432 A  
HETATM    4  C   UNL     1     -11.972  10.300  70.527  1.00  0.00    -0.323 A  
HETATM    5  N   UNL     1     -14.154  13.238  72.471  1.00  0.00    -0.701 NA 
HETATM    6  C   UNL     1     -11.738  11.647  70.207  1.00  0.00    -0.355 A  
HETATM    7  C   UNL     1     -13.394  12.348  71.831  1.00  0.00    -0.349 A  
HETATM    8  C   UNL     1     -13.963  14.514  72.156  1.00  0.00    -0.501 A  
HETATM    9  C   UNL     1     -12.448  12.692  70.854  1.00  0.00    -0.368 A  
HETATM   10  C   UNL     1     -13.578  11.018  72.166  1.00  0.00    -0.084 A  
HETATM   11  N   UNL     1     -13.076  14.974  71.276  1.00  0.00    -0.370 NA 
HETATM   12  C   UNL     1     -12.301  14.082  70.624  1.00  0.00    -0.375 A  
BRANCH   4  13
HETATM   13  N   UNL     1     -11.343   9.243  69.820  1.00  0.00    -0.432 N  
HETATM   14  H   UNL     1     -11.898   8.696  69.161  1.00  0.00     0.000 HD 
HETATM   15  C   UNL     1     -10.010   8.926  69.987  1.00  0.00    -0.190 C  
HETATM   16  O   UNL     1      -9.256   9.464  70.794  1.00  0.00    -0.247 OA 
BRANCH  15  17
HETATM   17  C   UNL     1      -9.492   7.927  69.004  1.00  0.00    -0.151 C  
HETATM   18  C   UNL     1      -9.765   8.134  67.702  1.00  0.00    -0.200 C  
BRANCH  18  19
HETATM   19  C   UNL     1      -9.498   7.189  66.565  1.00  0.00    -0.156 C  
BRANCH  19  20
HETATM   20  N   UNL     1      -8.997   5.858  66.941  1.00  0.00    -0.114 NA 
HETATM   21  C   UNL     1      -9.455   4.014  64.651  1.00  0.00    -0.169 C  
HETATM   22  C   UNL     1     -10.097   4.870  66.956  1.00  0.00    -0.205 C  
HETATM   23  C   UNL     1      -8.304   5.012  64.676  1.00  0.00    -0.141 C  
HETATM   24  C   UNL     1     -10.597   4.459  65.562  1.00  0.00    -0.193 C  
HETATM   25  C   UNL     1      -7.896   5.340  66.113  1.00  0.00    -0.103 C  
ENDBRANCH  19  20
ENDBRANCH  18  19
ENDBRANCH  15  17
ENDBRANCH   4  13
BRANCH  12  26
HETATM   26  N   UNL     1     -11.251  14.564  69.812  1.00  0.00    -0.328 NA 
HETATM   27  H   UNL     1     -10.366  14.695  70.301  1.00  0.00     0.000 HD 
BRANCH  26  28
HETATM   28  C   UNL     1     -11.214  14.895  68.440  1.00  0.00    -0.292 A  
HETATM   29  C   UNL     1     -11.859  14.040  67.530  1.00  0.00    -0.442 A  
HETATM   30  C   UNL     1     -11.693  14.200  66.149  1.00  0.00    -0.393 A  
HETATM   31  C   UNL     1     -10.268  16.100  66.530  1.00  0.00    -0.304 A  
HETATM   32  C   UNL     1     -10.437  15.936  67.907  1.00  0.00    -0.288 A  
HETATM   33  C   UNL     1     -10.882  15.217  65.657  1.00  0.00    -0.363 A  
HETATM   34  F   UNL     1     -10.669  15.358  64.341  1.00  0.00    -0.346 F  
HETATM   35 CL   UNL     1     -12.468  13.105  65.071  1.00  0.00    -0.507 Cl 
ENDBRANCH  26  28
ENDBRANCH  12  26
ENDBRANCH   2   3
TORSDOF 7
ENDMDL
MODEL       11
REMARK 921   NORMALIZED FREE ENERGY PREDICTED BY IDOCK:   -7.50 KCAL/MOL
REMARK 922        TOTAL FREE ENERGY PREDICTED BY IDOCK:  -11.48 KCAL/MOL
REMARK 923 INTER-LIGAND FREE ENERGY PREDICTED BY IDOCK:  -10.73 KCAL/MOL
REMARK 924 INTRA-LIGAND FREE ENERGY PREDICTED BY IDOCK:   -0.76 KCAL/MOL
REMARK 927      BINDING AFFINITY PREDICTED BY RF-SCORE:    0.00 PKD
ROOT
HETATM    1  C   UNL     1     -13.667   8.672  71.977  1.00  0.00    -0.426 C  
HETATM    2  O   UNL     1     -12.506   9.224  71.359  1.00  0.00    -0.314 OA 
ENDROOT
BRANCH   2   3
HETATM    3  C   UNL     1     -12.501  10.588  71.195  1.00  0.00    -0.412 A  
HETATM    4  C   UNL     1     -11.709  11.098  70.162  1.00  0.00    -0.353 A  
HETATM    5  N   UNL     1     -14.111  13.571  72.461  1.00  0.00    -0.758 NA 
HETATM    6  C   UNL     1     -11.653  12.485  69.957  1.00  0.00    -0.207 A  
HETATM    7  C   UNL     1     -13.288  12.838  71.709  1.00  0.00    -0.342 A  
HETATM    8  C   UNL     1     -14.088  14.884  72.256  1.00  0.00    -0.499 A  
HETATM    9  C   UNL     1     -12.443  13.378  70.728  1.00  0.00    -0.418 A  
HETATM   10  C   UNL     1     -13.296  11.472  71.929  1.00  0.00    -0.408 A  
HETATM   11  N   UNL     1     -13.310  15.522  71.384  1.00  0.00    -0.510 NA 
HETATM   12  C   UNL     1     -12.473  14.789  70.620  1.00  0.00    -0.345 A  
BRANCH   4  13
HETATM   13  N   UNL     1     -11.000  10.190  69.333  1.00  0.00    -0.234 N  
HETATM   14  H   UNL     1     -10.424   9.473  69.773  1.00  0.00     0.000 HD 
HETATM   15  C   UNL     1     -11.060  10.239  67.955  1.00  0.00    -0.274 C  
HETATM   16  O   UNL     1     -11.663  11.092  67.308  1.00  0.00    -0.540 OA 
BRANCH  15  17
HETATM   17  C   UNL     1     -10.416   9.076  67.274  1.00  0.00    -0.343 C  
HETATM   18  C   UNL     1     -10.636   7.852  67.789  1.00  0.00    -0.244 C  
BRANCH  18  19
HETATM   19  C   UNL     1      -9.967   6.570  67.382  1.00  0.00    -0.143 C  
BRANCH  19  20
HETATM   20  N   UNL     1      -8.807   6.166  68.193  1.00  0.00    -0.113 NA 
HETATM   21  C   UNL     1      -9.622   3.862  69.891  1.00  0.00    -0.270 C  
HETATM   22  C   UNL     1      -9.093   6.333  69.634  1.00  0.00    -0.142 C  
HETATM   23  C   UNL     1      -9.283   3.706  68.413  1.00  0.00    -0.219 C  
HETATM   24  C   UNL     1     -10.060   5.289  70.213  1.00  0.00    -0.329 C  
HETATM   25  C   UNL     1      -8.316   4.799  67.956  1.00  0.00    -0.102 C  
ENDBRANCH  19  20
ENDBRANCH  18  19
ENDBRANCH  15  17
ENDBRANCH   4  13
BRANCH  12  26
HETATM   26  N   UNL     1     -11.532  15.463  69.810  1.00  0.00    -0.298 NA 
HETATM   27  H   UNL     1     -11.027  16.212  70.284  1.00  0.00     0.000 HD 
BRANCH  26  28
HETATM   28  C   UNL     1     -11.169  15.280  68.458  1.00  0.00    -0.303 A  
HETATM   29  C   UNL     1     -12.140  14.787  67.568  1.00  0.00    -0.128 A  
HETATM   30  C   UNL     1     -11.793  14.397  66.269  1.00  0.00    -0.379 A  
HETATM   31  C   UNL     1      -9.506  15.016  66.681  1.00  0.00    -0.288 A  
HETATM   32  C   UNL     1      -9.856  15.405  67.976  1.00  0.00    -0.216 A  
HETATM   33  C   UNL     1     -10.474  14.495  65.839  1.00  0.00    -0.312 A  
HETATM   34  F   UNL     1     -10.112  14.080  64.617  1.00  0.00    -0.438 F  
HETATM   35 CL   UNL     1     -13.005  13.759  65.226  1.00  0.00    -0.419 Cl 
ENDBRANCH  26  28
ENDBRANCH  12  26
ENDBRANCH   2   3
TORSDOF 7
ENDMDL
MODEL       12
REMARK 921   NORMALIZED FREE ENERGY PREDICTED BY IDOCK:   -7.46 KCAL/MOL
REMARK 922        TOTAL FREE ENERGY PREDICTED BY IDOCK:  -11.43 KCAL/MOL
REMARK 923 INTER-LIGAND FREE ENERGY PREDICTED BY IDOCK:  -10.55 KCAL/MOL
REMARK 924 INTRA-LIGAND FREE ENERGY PREDICTED BY IDOCK:   -0.88 KCAL/MOL
REMARK 927      BINDING AFFINITY PREDICTED BY RF-SCORE:    0.00 PKD
ROOT
HETATM    1  C   UNL     1     -14.213  13.962  72.143  1.00  0.00    -0.501 C  
HETATM    2  O   UNL     1     -13.085  13.748  71.295  1.00  0.00    -0.329 OA 
ENDROOT
BRANCH   2   3
HETATM    3  C   UNL     1     -12.720  12.439  71.097  1.00  0.00    -0.240 A  
HETATM    4  C   UNL     1     -11.717  12.198  70.153  1.00  0.00    -0.218 A  
HETATM    5  N   UNL     1     -13.335   9.125  72.414  1.00  0.00    -0.461 NA 
HETATM    6  C   UNL     1     -11.314  10.878  69.897  1.00  0.00    -0.381 A  
HETATM    7  C   UNL     1     -12.799  10.060  71.627  1.00  0.00    -0.440 A  
HETATM    8  C   UNL     1     -12.940   7.874  72.200  1.00  0.00    -0.177 A  
HETATM    9  C   UNL     1     -11.849   9.788  70.632  1.00  0.00    -0.360 A  
HETATM   10  C   UNL     1     -13.219  11.362  71.835  1.00  0.00    -0.485 A  
HETATM   11  N   UNL     1     -12.075   7.481  71.268  1.00  0.00    -0.314 NA 
HETATM   12  C   UNL     1     -11.528   8.418  70.466  1.00  0.00    -0.179 A  
BRANCH   4  13
HETATM   13  N   UNL     1     -11.119  13.304  69.495  1.00  0.00    -0.464 N  
HETATM   14  H   UNL     1     -10.452  13.878  70.010  1.00  0.00     0.000 HD 
HETATM   15  C   UNL     1     -11.404  13.633  68.185  1.00  0.00    -0.288 C  
HETATM   16  O   UNL     1     -12.235  13.063  67.483  1.00  0.00    -0.272 OA 
BRANCH  15  17
HETATM   17  C   UNL     1     -10.520  14.694  67.617  1.00  0.00    -0.243 C  
HETATM   18  C   UNL     1     -10.965  15.964  67.656  1.00  0.00    -0.298 C  
BRANCH  18  19
HETATM   19  C   UNL     1     -10.335  17.160  67.002  1.00  0.00    -0.308 C  
BRANCH  19  20
HETATM   20  N   UNL     1     -10.564  18.451  67.671  1.00  0.00    -0.420 NA 
HETATM   21  C   UNL     1      -8.075  20.066  67.445  1.00  0.00    -0.358 C  
HETATM   22  C   UNL     1      -9.647  18.617  68.818  1.00  0.00    -0.344 C  
HETATM   23  C   UNL     1      -9.057  19.916  66.289  1.00  0.00    -0.436 C  
HETATM   24  C   UNL     1      -8.188  18.902  68.426  1.00  0.00    -0.377 C  
HETATM   25  C   UNL     1     -10.469  19.637  66.804  1.00  0.00    -0.490 C  
ENDBRANCH  19  20
ENDBRANCH  18  19
ENDBRANCH  15  17
ENDBRANCH   4  13
BRANCH  12  26
HETATM   26  N   UNL     1     -10.737   7.997  69.374  1.00  0.00    -0.349 NA 
HETATM   27  H   UNL     1     -10.168   8.735  68.958  1.00  0.00     0.000 HD 
BRANCH  26  28
HETATM   28  C   UNL     1     -10.597   6.734  68.760  1.00  0.00    -0.226 A  
HETATM   29  C   UNL     1      -9.905   5.727  69.456  1.00  0.00    -0.231 A  
HETATM   30  C   UNL     1      -9.560   4.525  68.827  1.00  0.00    -0.159 A  
HETATM   31  C   UNL     1     -10.620   5.267  66.800  1.00  0.00    -0.309 A  
HETATM   32  C   UNL     1     -10.963   6.466  67.431  1.00  0.00    -0.463 A  
HETATM   33  C   UNL     1      -9.902   4.309  67.496  1.00  0.00    -0.109 A  
HETATM   34  F   UNL     1      -9.538   3.187  66.861  1.00  0.00    -0.207 F  
HETATM   35 CL   UNL     1      -8.676   3.335  69.704  1.00  0.00    -0.114 Cl 
ENDBRANCH  26  28
ENDBRANCH  12  26
ENDBRANCH   2   3
TORSDOF 7
ENDMDL
MODEL       13
REMARK 921   NORMALIZED FREE ENERGY PREDICTED BY IDOCK:   -7.46 KCAL/MOL
REMARK 922        TOTAL FREE ENERGY PREDICTED BY IDOCK:  -11.43 KCAL/MOL
REMARK 923 INTER-LIGAND FREE ENERGY PREDICTED BY IDOCK:  -10.20 KCAL/MOL
REMARK 924 INTRA-LIGAND FREE ENERGY PREDICTED BY IDOCK:   -1.23 KCAL/MOL
REMARK 927      BINDING AFFINITY PREDICTED BY RF-SCORE:    0.00 PKD
ROOT
HETATM    1  C   UNL     1     -13.447  16.082  72.948  1.00  0.00    -0.453 C  
HETATM    2  O   UNL     1     -13.284  15.885  71.544  1.00  0.00    -0.448 OA 
ENDROOT
BRANCH   2   3
HETATM    3  C   UNL     1     -13.030  14.597  71.142  1.00  0.00    -0.350 A  
HETATM    4  C   UNL     1     -12.362  14.436  69.924  1.00  0.00    -0.314 A  
HETATM    5  N   UNL     1     -13.313  11.184  72.311  1.00  0.00    -0.229 NA 
HETATM    6  C   UNL     1     -12.089  13.142  69.453  1.00  0.00    -0.285 A  
HETATM    7  C   UNL     1     -13.011  12.182  71.477  1.00  0.00    -0.295 A  
HETATM    8  C   UNL     1     -13.033   9.956  71.889  1.00  0.00    -0.448 A  
HETATM    9  C   UNL     1     -12.409  11.994  70.225  1.00  0.00    -0.275 A  
HETATM   10  C   UNL     1     -13.314  13.462  71.905  1.00  0.00    -0.539 A  
HETATM   11  N   UNL     1     -12.497   9.641  70.711  1.00  0.00    -0.221 NA 
HETATM   12  C   UNL     1     -12.190  10.643  69.861  1.00  0.00    -0.275 A  
BRANCH   4  13
HETATM   13  N   UNL     1     -11.958  15.593  69.208  1.00  0.00    -0.489 N  
HETATM   14  H   UNL     1     -12.639  16.062  68.612  1.00  0.00     0.000 HD 
HETATM   15  C   UNL     1     -10.680  16.107  69.287  1.00  0.00    -0.295 C  
HETATM   16  O   UNL     1      -9.755  15.597  69.915  1.00  0.00    -0.283 OA 
BRANCH  15  17
HETATM   17  C   UNL     1     -10.515  17.438  68.629  1.00  0.00    -0.355 C  
HETATM   18  C   UNL     1      -9.881  17.473  67.443  1.00  0.00    -0.297 C  
BRANCH  18  19
HETATM   19  C   UNL     1      -9.455  18.698  66.684  1.00  0.00    -0.319 C  
BRANCH  19  20
HETATM   20  N   UNL     1      -8.103  18.655  66.105  1.00  0.00    -0.438 NA 
HETATM   21  C   UNL     1      -6.232  19.955  68.019  1.00  0.00    -0.268 C  
HETATM   22  C   UNL     1      -7.590  20.022  65.873  1.00  0.00    -0.300 C  
HETATM   23  C   UNL     1      -6.742  18.532  68.217  1.00  0.00    -0.233 C  
HETATM   24  C   UNL     1      -7.186  20.772  67.152  1.00  0.00    -0.394 C  
HETATM   25  C   UNL     1      -7.108  17.893  66.877  1.00  0.00    -0.183 C  
ENDBRANCH  19  20
ENDBRANCH  18  19
ENDBRANCH  15  17
ENDBRANCH   4  13
BRANCH  12  26
HETATM   26  N   UNL     1     -11.772  10.315  68.552  1.00  0.00    -0.672 NA 
HETATM   27  H   UNL     1     -12.440   9.751  68.025  1.00  0.00     0.000 HD 
BRANCH  26  28
HETATM   28  C   UNL     1     -10.592  10.633  67.845  1.00  0.00    -0.228 A  
HETATM   29  C   UNL     1     -10.694  10.929  66.475  1.00  0.00    -0.270 A  
HETATM   30  C   UNL     1      -9.550  11.055  65.678  1.00  0.00    -0.226 A  
HETATM   31  C   UNL     1      -8.156  10.638  67.594  1.00  0.00    -0.107 A  
HETATM   32  C   UNL     1      -9.301  10.513  68.385  1.00  0.00    -0.158 A  
HETATM   33  C   UNL     1      -8.287  10.890  66.238  1.00  0.00    -0.164 A  
HETATM   34  F   UNL     1      -7.181  10.956  65.484  1.00  0.00    -0.119 F  
HETATM   35 CL   UNL     1      -9.722  11.378  63.996  1.00  0.00    -0.270 Cl 
ENDBRANCH  26  28
ENDBRANCH  12  26
ENDBRANCH   2   3
TORSDOF 7
ENDMDL
MODEL       14
REMARK 921   NORMALIZED FREE ENERGY PREDICTED BY IDOCK:   -7.44 KCAL/MOL
REMARK 922        TOTAL FREE ENERGY PREDICTED BY IDOCK:  -11.41 KCAL/MOL
REMARK 923 INTER-LIGAND FREE ENERGY PREDICTED BY IDOCK:  -10.09 KCAL/MOL
REMARK 924 INTRA-LIGAND FREE ENERGY PREDICTED BY IDOCK:   -1.31 KCAL/MOL
REMARK 927      BINDING AFFINITY PREDICTED BY RF-SCORE:    0.00 PKD
ROOT
HETATM    1  C   UNL     1      -8.555   7.859  66.093  1.00  0.00    -0.150 C  
HETATM    2  O   UNL     1      -9.897   8.081  66.522  1.00  0.00    -0.234 OA 
ENDROOT
BRANCH   2   3
HETATM    3  C   UNL     1     -10.317   9.389  66.534  1.00  0.00    -0.198 A  
HETATM    4  C   UNL     1     -10.840   9.874  67.737  1.00  0.00    -0.264 A  
HETATM    5  N   UNL     1     -10.362  12.340  64.441  1.00  0.00    -0.314 NA 
HETATM    6  C   UNL     1     -11.300  11.199  67.804  1.00  0.00    -0.364 A  
HETATM    7  C   UNL     1     -10.577  11.594  65.526  1.00  0.00    -0.279 A  
HETATM    8  C   UNL     1     -10.767  13.604  64.502  1.00  0.00    -0.407 A  
HETATM    9  C   UNL     1     -11.174  12.080  66.698  1.00  0.00    -0.380 A  
HETATM   10  C   UNL     1     -10.172  10.273  65.462  1.00  0.00    -0.308 A  
HETATM   11  N   UNL     1     -11.376  14.176  65.539  1.00  0.00    -0.312 NA 
HETATM   12  C   UNL     1     -11.600  13.429  66.640  1.00  0.00    -0.362 A  
BRANCH   4  13
HETATM   13  N   UNL     1     -10.869   9.014  68.865  1.00  0.00    -0.415 N  
HETATM   14  H   UNL     1     -11.584   8.288  68.909  1.00  0.00     0.000 HD 
HETATM   15  C   UNL     1      -9.968   9.122  69.905  1.00  0.00    -0.197 C  
HETATM   16  O   UNL     1      -9.107   9.992  70.001  1.00  0.00    -0.202 OA 
BRANCH  15  17
HETATM   17  C   UNL     1     -10.035   7.999  70.889  1.00  0.00    -0.207 C  
HETATM   18  C   UNL     1     -10.923   7.016  70.654  1.00  0.00    -0.292 C  
BRANCH  18  19
HETATM   19  C   UNL     1     -11.282   5.887  71.578  1.00  0.00    -0.225 C  
BRANCH  19  20
HETATM   20  N   UNL     1     -10.215   5.435  72.484  1.00  0.00    -0.189 NA 
HETATM   21  C   UNL     1     -10.426   2.480  72.764  1.00  0.00    -0.225 C  
HETATM   22  C   UNL     1     -10.786   4.816  73.698  1.00  0.00    -0.308 C  
HETATM   23  C   UNL     1      -9.803   3.140  71.540  1.00  0.00    -0.200 C  
HETATM   24  C   UNL     1     -11.396   3.423  73.471  1.00  0.00    -0.228 C  
HETATM   25  C   UNL     1      -9.231   4.514  71.891  1.00  0.00    -0.136 C  
ENDBRANCH  19  20
ENDBRANCH  18  19
ENDBRANCH  15  17
ENDBRANCH   4  13
BRANCH  12  26
HETATM   26  N   UNL     1     -12.385  13.975  67.680  1.00  0.00    -0.513 NA 
HETATM   27  H   UNL     1     -13.389  13.971  67.497  1.00  0.00     0.000 HD 
BRANCH  26  28
HETATM   28  C   UNL     1     -12.022  14.527  68.928  1.00  0.00    -0.290 A  
HETATM   29  C   UNL     1     -12.637  14.019  70.085  1.00  0.00    -0.310 A  
HETATM   30  C   UNL     1     -12.472  14.651  71.324  1.00  0.00    -0.339 A  
HETATM   31  C   UNL     1     -11.039  16.293  70.308  1.00  0.00    -0.340 A  
HETATM   32  C   UNL     1     -11.206  15.660  69.074  1.00  0.00    -0.306 A  
HETATM   33  C   UNL     1     -11.690  15.796  71.425  1.00  0.00    -0.445 A  
HETATM   34  F   UNL     1     -11.560  16.445  72.591  1.00  0.00    -0.554 F  
HETATM   35 CL   UNL     1     -13.278  14.020  72.709  1.00  0.00    -0.603 Cl 
ENDBRANCH  26  28
ENDBRANCH  12  26
ENDBRANCH   2   3
TORSDOF 7
ENDMDL
MODEL       15
REMARK 921   NORMALIZED FREE ENERGY PREDICTED BY IDOCK:   -7.40 KCAL/MOL
REMARK 922        TOTAL FREE ENERGY PREDICTED BY IDOCK:  -11.35 KCAL/MOL
REMARK 923 INTER-LIGAND FREE ENERGY PREDICTED BY IDOCK:  -10.43 KCAL/MOL
REMARK 924 INTRA-LIGAND FREE ENERGY PREDICTED BY IDOCK:   -0.92 KCAL/MOL
REMARK 927      BINDING AFFINITY PREDICTED BY RF-SCORE:    0.00 PKD
ROOT
HETATM    1  C   UNL     1     -14.347  15.161  71.681  1.00  0.00    -0.585 C  
HETATM    2  O   UNL     1     -13.129  14.902  70.983  1.00  0.00    -0.356 OA 
ENDROOT
BRANCH   2   3
HETATM    3  C   UNL     1     -12.807  13.580  70.802  1.00  0.00    -0.173 A  
HETATM    4  C   UNL     1     -11.905  13.284  69.776  1.00  0.00    -0.325 A  
HETATM    5  N   UNL     1     -13.348  10.330  72.299  1.00  0.00    -0.326 NA 
HETATM    6  C   UNL     1     -11.551  11.947  69.534  1.00  0.00    -0.394 A  
HETATM    7  C   UNL     1     -12.875  11.224  71.429  1.00  0.00    -0.410 A  
HETATM    8  C   UNL     1     -12.997   9.065  72.097  1.00  0.00    -0.424 A  
HETATM    9  C   UNL     1     -12.030  10.896  70.359  1.00  0.00    -0.453 A  
HETATM   10  C   UNL     1     -13.250  12.541  71.625  1.00  0.00    -0.381 A  
HETATM   11  N   UNL     1     -12.233   8.619  71.102  1.00  0.00    -0.274 NA 
HETATM   12  C   UNL     1     -11.750   9.515  70.216  1.00  0.00    -0.117 A  
BRANCH   4  13
HETATM   13  N   UNL     1     -11.354  14.351  69.021  1.00  0.00    -0.254 N  
HETATM   14  H   UNL     1     -10.801  15.059  69.505  1.00  0.00     0.000 HD 
HETATM   15  C   UNL     1     -11.537  14.471  67.659  1.00  0.00    -0.378 C  
HETATM   16  O   UNL     1     -12.234  13.725  66.975  1.00  0.00    -0.401 OA 
BRANCH  15  17
HETATM   17  C   UNL     1     -10.708  15.538  67.022  1.00  0.00    -0.321 C  
HETATM   18  C   UNL     1      -9.514  15.816  67.578  1.00  0.00    -0.218 C  
BRANCH  18  19
HETATM   19  C   UNL     1      -8.595  16.948  67.220  1.00  0.00    -0.196 C  
BRANCH  19  20
HETATM   20  N   UNL     1      -8.563  18.073  68.168  1.00  0.00    -0.266 NA 
HETATM   21  C   UNL     1      -9.772  20.443  66.835  1.00  0.00    -0.567 C  
HETATM   22  C   UNL     1      -7.726  19.174  67.647  1.00  0.00    -0.243 C  
HETATM   23  C   UNL     1     -10.617  19.316  67.417  1.00  0.00    -0.594 C  
HETATM   24  C   UNL     1      -8.364  19.962  66.492  1.00  0.00    -0.372 C  
HETATM   25  C   UNL     1      -9.878  18.610  68.554  1.00  0.00    -0.386 C  
ENDBRANCH  19  20
ENDBRANCH  18  19
ENDBRANCH  15  17
ENDBRANCH   4  13
BRANCH  12  26
HETATM   26  N   UNL     1     -11.076   9.037  69.071  1.00  0.00    -0.436 NA 
HETATM   27  H   UNL     1     -11.095   9.675  68.274  1.00  0.00     0.000 HD 
BRANCH  26  28
HETATM   28  C   UNL     1     -10.380   7.832  68.837  1.00  0.00    -0.213 A  
HETATM   29  C   UNL     1     -10.712   7.081  67.696  1.00  0.00    -0.331 A  
HETATM   30  C   UNL     1     -10.205   5.788  67.512  1.00  0.00    -0.196 A  
HETATM   31  C   UNL     1      -8.982   5.962  69.575  1.00  0.00    -0.131 A  
HETATM   32  C   UNL     1      -9.490   7.251  69.755  1.00  0.00    -0.149 A  
HETATM   33  C   UNL     1      -9.359   5.228  68.462  1.00  0.00    -0.121 A  
HETATM   34  F   UNL     1      -8.903   3.975  68.331  1.00  0.00    -0.102 F  
HETATM   35 CL   UNL     1     -10.672   4.887  66.121  1.00  0.00    -0.334 Cl 
ENDBRANCH  26  28
ENDBRANCH  12  26
ENDBRANCH   2   3
TORSDOF 7
ENDMDL
MODEL       16
REMARK 921   NORMALIZED FREE ENERGY PREDICTED BY IDOCK:   -7.35 KCAL/MOL
REMARK 922        TOTAL FREE ENERGY PREDICTED BY IDOCK:  -11.27 KCAL/MOL
REMARK 923 INTER-LIGAND FREE ENERGY PREDICTED BY IDOCK:  -10.11 KCAL/MOL
REMARK 924 INTRA-LIGAND FREE ENERGY PREDICTED BY IDOCK:   -1.16 KCAL/MOL
REMARK 927      BINDING AFFINITY PREDICTED BY RF-SCORE:    0.00 PKD
ROOT
HETATM    1  C   UNL     1     -12.860   8.458  72.446  1.00  0.00    -0.277 C  
HETATM    2  O   UNL     1     -13.346   9.173  71.311  1.00  0.00    -0.314 OA 
ENDROOT
BRANCH   2   3
HETATM    3  C   UNL     1     -13.031  10.509  71.260  1.00  0.00    -0.433 A  
HETATM    4  C   UNL     1     -12.123  10.906  70.273  1.00  0.00    -0.355 A  
HETATM    5  N   UNL     1     -13.950  13.669  72.763  1.00  0.00    -0.658 NA 
HETATM    6  C   UNL     1     -11.750  12.257  70.183  1.00  0.00    -0.280 A  
HETATM    7  C   UNL     1     -13.299  12.831  71.955  1.00  0.00    -0.466 A  
HETATM    8  C   UNL     1     -13.627  14.954  72.667  1.00  0.00    -0.459 A  
HETATM    9  C   UNL     1     -12.334  13.241  71.023  1.00  0.00    -0.379 A  
HETATM   10  C   UNL     1     -13.620  11.489  72.062  1.00  0.00    -0.138 A  
HETATM   11  N   UNL     1     -12.707  15.466  71.852  1.00  0.00    -0.356 NA 
HETATM   12  C   UNL     1     -12.041  14.626  71.032  1.00  0.00    -0.329 A  
BRANCH   4  13
HETATM   13  N   UNL     1     -11.621   9.930  69.374  1.00  0.00    -0.454 N  
HETATM   14  H   UNL     1     -12.147   9.732  68.523  1.00  0.00     0.000 HD 
HETATM   15  C   UNL     1     -10.450   9.238  69.605  1.00  0.00    -0.224 C  
HETATM   16  O   UNL     1      -9.764   9.337  70.620  1.00  0.00    -0.232 OA 
BRANCH  15  17
HETATM   17  C   UNL     1      -9.988   8.414  68.448  1.00  0.00    -0.208 C  
HETATM   18  C   UNL     1      -9.071   8.954  67.624  1.00  0.00    -0.144 C  
BRANCH  18  19
HETATM   19  C   UNL     1      -8.589   8.389  66.318  1.00  0.00    -0.135 C  
BRANCH  19  20
HETATM   20  N   UNL     1      -7.940   9.345  65.407  1.00  0.00    -0.103 NA 
HETATM   21  C   UNL     1      -9.696  11.735  65.166  1.00  0.00    -0.228 C  
HETATM   22  C   UNL     1      -8.773   9.571  64.206  1.00  0.00    -0.207 C  
HETATM   23  C   UNL     1      -8.798  11.502  66.375  1.00  0.00    -0.193 C  
HETATM   24  C   UNL     1     -10.027  10.424  64.458  1.00  0.00    -0.401 C  
HETATM   25  C   UNL     1      -7.588  10.644  66.000  1.00  0.00    -0.142 C  
ENDBRANCH  19  20
ENDBRANCH  18  19
ENDBRANCH  15  17
ENDBRANCH   4  13
BRANCH  12  26
HETATM   26  N   UNL     1     -10.956  15.131  70.281  1.00  0.00    -0.361 NA 
HETATM   27  H   UNL     1     -10.162  15.439  70.843  1.00  0.00     0.000 HD 
BRANCH  26  28
HETATM   28  C   UNL     1     -10.780  15.285  68.889  1.00  0.00    -0.245 A  
HETATM   29  C   UNL     1     -11.763  14.760  68.031  1.00  0.00    -0.360 A  
HETATM   30  C   UNL     1     -11.554  14.702  66.648  1.00  0.00    -0.350 A  
HETATM   31  C   UNL     1      -9.395  15.728  66.919  1.00  0.00    -0.246 A  
HETATM   32  C   UNL     1      -9.608  15.784  68.299  1.00  0.00    -0.201 A  
HETATM   33  C   UNL     1     -10.363  15.168  66.101  1.00  0.00    -0.301 A  
HETATM   34  F   UNL     1     -10.122  15.075  64.786  1.00  0.00    -0.373 F  
HETATM   35 CL   UNL     1     -12.766  14.014  65.638  1.00  0.00    -0.555 Cl 
ENDBRANCH  26  28
ENDBRANCH  12  26
ENDBRANCH   2   3
TORSDOF 7
ENDMDL
MODEL       17
REMARK 921   NORMALIZED FREE ENERGY PREDICTED BY IDOCK:   -7.31 KCAL/MOL
REMARK 922        TOTAL FREE ENERGY PREDICTED BY IDOCK:  -11.21 KCAL/MOL
REMARK 923 INTER-LIGAND FREE ENERGY PREDICTED BY IDOCK:  -10.16 KCAL/MOL
REMARK 924 INTRA-LIGAND FREE ENERGY PREDICTED BY IDOCK:   -1.06 KCAL/MOL
REMARK 927      BINDING AFFINITY PREDICTED BY RF-SCORE:    0.00 PKD
ROOT
HETATM    1  C   UNL     1      -9.418  10.550  62.796  1.00  0.00    -0.325 C  
HETATM    2  O   UNL     1      -8.757  10.957  63.993  1.00  0.00    -0.118 OA 
ENDROOT
BRANCH   2   3
HETATM    3  C   UNL     1      -9.167  10.337  65.148  1.00  0.00    -0.206 A  
HETATM    4  C   UNL     1      -9.465  11.162  66.236  1.00  0.00    -0.196 A  
HETATM    5  N   UNL     1     -10.021   7.059  66.421  1.00  0.00    -0.076 NA 
HETATM    6  C   UNL     1      -9.874  10.583  67.449  1.00  0.00    -0.204 A  
HETATM    7  C   UNL     1      -9.830   8.380  66.443  1.00  0.00    -0.240 A  
HETATM    8  C   UNL     1     -10.435   6.503  67.555  1.00  0.00    -0.240 A  
HETATM    9  C   UNL     1     -10.064   9.181  67.569  1.00  0.00    -0.284 A  
HETATM   10  C   UNL     1      -9.384   8.962  65.269  1.00  0.00    -0.095 A  
HETATM   11  N   UNL     1     -10.658   7.145  68.700  1.00  0.00    -0.203 NA 
HETATM   12  C   UNL     1     -10.467   8.480  68.732  1.00  0.00    -0.184 A  
BRANCH   4  13
HETATM   13  N   UNL     1      -9.368  12.568  66.075  1.00  0.00    -0.416 N  
HETATM   14  H   UNL     1      -8.452  13.008  66.158  1.00  0.00     0.000 HD 
HETATM   15  C   UNL     1     -10.464  13.364  65.809  1.00  0.00    -0.290 C  
HETATM   16  O   UNL     1     -11.624  12.964  65.752  1.00  0.00    -0.332 OA 
BRANCH  15  17
HETATM   17  C   UNL     1     -10.124  14.778  65.468  1.00  0.00    -0.409 C  
HETATM   18  C   UNL     1      -9.233  15.411  66.252  1.00  0.00    -0.354 C  
BRANCH  18  19
HETATM   19  C   UNL     1      -8.868  16.868  66.206  1.00  0.00    -0.279 C  
BRANCH  19  20
HETATM   20  N   UNL     1      -8.873  17.571  67.499  1.00  0.00    -0.228 NA 
HETATM   21  C   UNL     1      -9.785  20.365  67.030  1.00  0.00    -0.588 C  
HETATM   22  C   UNL     1      -7.920  18.701  67.484  1.00  0.00    -0.244 C  
HETATM   23  C   UNL     1     -10.755  19.190  67.090  1.00  0.00    -0.567 C  
HETATM   24  C   UNL     1      -8.380  19.906  66.649  1.00  0.00    -0.369 C  
HETATM   25  C   UNL     1     -10.188  18.058  67.947  1.00  0.00    -0.378 C  
ENDBRANCH  19  20
ENDBRANCH  18  19
ENDBRANCH  15  17
ENDBRANCH   4  13
BRANCH  12  26
HETATM   26  N   UNL     1     -10.544   9.146  69.976  1.00  0.00    -0.218 NA 
HETATM   27  H   UNL     1      -9.740   8.994  70.585  1.00  0.00     0.000 HD 
BRANCH  26  28
HETATM   28  C   UNL     1     -11.541   9.983  70.522  1.00  0.00    -0.323 A  
HETATM   29  C   UNL     1     -11.523  11.348  70.184  1.00  0.00    -0.302 A  
HETATM   30  C   UNL     1     -12.354  12.263  70.842  1.00  0.00    -0.267 A  
HETATM   31  C   UNL     1     -13.282  10.484  72.168  1.00  0.00    -0.398 A  
HETATM   32  C   UNL     1     -12.451   9.574  71.509  1.00  0.00    -0.463 A  
HETATM   33  C   UNL     1     -13.215  11.829  71.844  1.00  0.00    -0.362 A  
HETATM   34  F   UNL     1     -13.982  12.696  72.521  1.00  0.00    -0.578 F  
HETATM   35 CL   UNL     1     -12.271  13.931  70.425  1.00  0.00    -0.417 Cl 
ENDBRANCH  26  28
ENDBRANCH  12  26
ENDBRANCH   2   3
TORSDOF 7
ENDMDL
MODEL       18
REMARK 921   NORMALIZED FREE ENERGY PREDICTED BY IDOCK:   -7.25 KCAL/MOL
REMARK 922        TOTAL FREE ENERGY PREDICTED BY IDOCK:  -11.13 KCAL/MOL
REMARK 923 INTER-LIGAND FREE ENERGY PREDICTED BY IDOCK:   -9.86 KCAL/MOL
REMARK 924 INTRA-LIGAND FREE ENERGY PREDICTED BY IDOCK:   -1.27 KCAL/MOL
REMARK 927      BINDING AFFINITY PREDICTED BY RF-SCORE:    0.00 PKD
ROOT
HETATM    1  C   UNL     1      -8.384   8.362  72.121  1.00  0.00    -0.164 C  
HETATM    2  O   UNL     1      -9.578   8.104  71.383  1.00  0.00    -0.152 OA 
ENDROOT
BRANCH   2   3
HETATM    3  C   UNL     1      -9.537   8.411  70.045  1.00  0.00    -0.168 A  
HETATM    4  C   UNL     1     -10.354   9.460  69.612  1.00  0.00    -0.216 A  
HETATM    5  N   UNL     1      -7.761   7.533  67.017  1.00  0.00    -0.109 NA 
HETATM    6  C   UNL     1     -10.367   9.808  68.252  1.00  0.00    -0.231 A  
HETATM    7  C   UNL     1      -8.644   8.170  67.789  1.00  0.00    -0.131 A  
HETATM    8  C   UNL     1      -7.744   7.874  65.733  1.00  0.00    -0.090 A  
HETATM    9  C   UNL     1      -9.510   9.168  67.319  1.00  0.00    -0.187 A  
HETATM   10  C   UNL     1      -8.678   7.807  69.124  1.00  0.00    -0.139 A  
HETATM   11  N   UNL     1      -8.535   8.777  65.157  1.00  0.00    -0.166 NA 
HETATM   12  C   UNL     1      -9.432   9.425  65.929  1.00  0.00    -0.251 A  
BRANCH   4  13
HETATM   13  N   UNL     1     -11.133  10.160  70.570  1.00  0.00    -0.313 N  
HETATM   14  H   UNL     1     -10.818  11.079  70.880  1.00  0.00     0.000 HD 
HETATM   15  C   UNL     1     -12.299   9.645  71.100  1.00  0.00    -0.339 C  
HETATM   16  O   UNL     1     -12.746   8.527  70.859  1.00  0.00    -0.086 OA 
BRANCH  15  17
HETATM   17  C   UNL     1     -13.075  10.617  71.927  1.00  0.00    -0.563 C  
HETATM   18  C   UNL     1     -13.074  11.906  71.540  1.00  0.00    -0.377 C  
BRANCH  18  19
HETATM   19  C   UNL     1     -13.635  13.075  72.298  1.00  0.00    -0.547 C  
BRANCH  19  20
HETATM   20  N   UNL     1     -13.766  14.329  71.539  1.00  0.00    -0.365 NA 
HETATM   21  C   UNL     1     -11.927  16.336  72.740  1.00  0.00    -0.636 C  
HETATM   22  C   UNL     1     -14.271  15.415  72.405  1.00  0.00    -0.492 C  
HETATM   23  C   UNL     1     -11.435  15.232  71.811  1.00  0.00    -0.494 C  
HETATM   24  C   UNL     1     -13.241  15.951  73.413  1.00  0.00    -0.668 C  
HETATM   25  C   UNL     1     -12.544  14.785  70.858  1.00  0.00    -0.336 C  
ENDBRANCH  19  20
ENDBRANCH  18  19
ENDBRANCH  15  17
ENDBRANCH   4  13
BRANCH  12  26
HETATM   26  N   UNL     1     -10.381  10.264  65.304  1.00  0.00    -0.232 NA 
HETATM   27  H   UNL     1     -10.956   9.799  64.600  1.00  0.00     0.000 HD 
BRANCH  26  28
HETATM   28  C   UNL     1     -10.672  11.634  65.483  1.00  0.00    -0.281 A  
HETATM   29  C   UNL     1      -9.632  12.490  65.884  1.00  0.00    -0.174 A  
HETATM   30  C   UNL     1      -9.894  13.810  66.269  1.00  0.00    -0.303 A  
HETATM   31  C   UNL     1     -12.236  13.486  65.829  1.00  0.00    -0.505 A  
HETATM   32  C   UNL     1     -11.970  12.169  65.445  1.00  0.00    -0.296 A  
HETATM   33  C   UNL     1     -11.197  14.295  66.259  1.00  0.00    -0.337 A  
HETATM   34  F   UNL     1     -11.476  15.539  66.673  1.00  0.00    -0.255 F  
HETATM   35 CL   UNL     1      -8.595  14.812  66.793  1.00  0.00    -0.255 Cl 
ENDBRANCH  26  28
ENDBRANCH  12  26
ENDBRANCH   2   3
TORSDOF 7
ENDMDL
MODEL       19
REMARK 921   NORMALIZED FREE ENERGY PREDICTED BY IDOCK:   -7.24 KCAL/MOL
REMARK 922        TOTAL FREE ENERGY PREDICTED BY IDOCK:  -11.12 KCAL/MOL
REMARK 923 INTER-LIGAND FREE ENERGY PREDICTED BY IDOCK:   -9.90 KCAL/MOL
REMARK 924 INTRA-LIGAND FREE ENERGY PREDICTED BY IDOCK:   -1.22 KCAL/MOL
REMARK 927      BINDING AFFINITY PREDICTED BY RF-SCORE:    0.00 PKD
ROOT
HETATM    1  C   UNL     1     -10.890   6.302  70.179  1.00  0.00    -0.313 C  
HETATM    2  O   UNL     1     -10.170   7.459  70.604  1.00  0.00    -0.198 OA 
ENDROOT
BRANCH   2   3
HETATM    3  C   UNL     1      -9.629   8.232  69.607  1.00  0.00    -0.167 A  
HETATM    4  C   UNL     1      -9.942   9.595  69.623  1.00  0.00    -0.221 A  
HETATM    5  N   UNL     1      -7.313   8.019  66.835  1.00  0.00    -0.088 NA 
HETATM    6  C   UNL     1      -9.431  10.432  68.619  1.00  0.00    -0.167 A  
HETATM    7  C   UNL     1      -8.178   8.584  67.678  1.00  0.00    -0.118 A  
HETATM    8  C   UNL     1      -6.799   8.808  65.897  1.00  0.00    -0.068 A  
HETATM    9  C   UNL     1      -8.539   9.938  67.631  1.00  0.00    -0.122 A  
HETATM   10  C   UNL     1      -8.728   7.763  68.647  1.00  0.00    -0.128 A  
HETATM   11  N   UNL     1      -7.085  10.096  65.723  1.00  0.00    -0.120 NA 
HETATM   12  C   UNL     1      -7.961  10.677  66.570  1.00  0.00    -0.138 A  
BRANCH   4  13
HETATM   13  N   UNL     1     -10.754  10.096  70.673  1.00  0.00    -0.399 N  
HETATM   14  H   UNL     1     -10.356  10.166  71.609  1.00  0.00     0.000 HD 
HETATM   15  C   UNL     1     -12.061  10.494  70.477  1.00  0.00    -0.345 C  
HETATM   16  O   UNL     1     -12.673  10.398  69.416  1.00  0.00    -0.071 OA 
BRANCH  15  17
HETATM   17  C   UNL     1     -12.672  11.183  71.653  1.00  0.00    -0.466 C  
HETATM   18  C   UNL     1     -13.183  12.413  71.459  1.00  0.00    -0.285 C  
BRANCH  18  19
HETATM   19  C   UNL     1     -13.690  13.355  72.514  1.00  0.00    -0.531 C  
BRANCH  19  20
HETATM   20  N   UNL     1     -14.102  14.686  72.041  1.00  0.00    -0.465 NA 
HETATM   21  C   UNL     1     -11.659  16.354  71.722  1.00  0.00    -0.343 C  
HETATM   22  C   UNL     1     -13.745  15.726  73.029  1.00  0.00    -0.502 C  
HETATM   23  C   UNL     1     -12.069  15.304  70.696  1.00  0.00    -0.399 C  
HETATM   24  C   UNL     1     -12.243  16.045  73.098  1.00  0.00    -0.636 C  
HETATM   25  C   UNL     1     -13.581  15.076  70.722  1.00  0.00    -0.216 C  
ENDBRANCH  19  20
ENDBRANCH  18  19
ENDBRANCH  15  17
ENDBRANCH   4  13
BRANCH  12  26
HETATM   26  N   UNL     1      -8.393  11.994  66.298  1.00  0.00    -0.393 NA 
HETATM   27  H   UNL     1      -7.638  12.673  66.200  1.00  0.00     0.000 HD 
BRANCH  26  28
HETATM   28  C   UNL     1      -9.688  12.534  66.140  1.00  0.00    -0.254 A  
HETATM   29  C   UNL     1     -10.496  12.034  65.104  1.00  0.00    -0.328 A  
HETATM   30  C   UNL     1     -11.704  12.657  64.769  1.00  0.00    -0.352 A  
HETATM   31  C   UNL     1     -11.367  14.276  66.515  1.00  0.00    -0.351 A  
HETATM   32  C   UNL     1     -10.162  13.650  66.847  1.00  0.00    -0.261 A  
HETATM   33  C   UNL     1     -12.123  13.787  65.463  1.00  0.00    -0.410 A  
HETATM   34  F   UNL     1     -13.250  14.429  65.125  1.00  0.00    -0.370 F  
HETATM   35 CL   UNL     1     -12.643  12.037  63.465  1.00  0.00    -0.678 Cl 
ENDBRANCH  26  28
ENDBRANCH  12  26
ENDBRANCH   2   3
TORSDOF 7
ENDMDL
MODEL       20
REMARK 921   NORMALIZED FREE ENERGY PREDICTED BY IDOCK:   -7.21 KCAL/MOL
REMARK 922        TOTAL FREE ENERGY PREDICTED BY IDOCK:  -11.08 KCAL/MOL
REMARK 923 INTER-LIGAND FREE ENERGY PREDICTED BY IDOCK:   -9.81 KCAL/MOL
REMARK 924 INTRA-LIGAND FREE ENERGY PREDICTED BY IDOCK:   -1.27 KCAL/MOL
REMARK 927      BINDING AFFINITY PREDICTED BY RF-SCORE:    0.00 PKD
ROOT
HETATM    1  C   UNL     1     -13.518  15.771  72.851  1.00  0.00    -0.580 C  
HETATM    2  O   UNL     1     -13.604  15.463  71.461  1.00  0.00    -0.464 OA 
ENDROOT
BRANCH   2   3
HETATM    3  C   UNL     1     -13.181  14.210  71.093  1.00  0.00    -0.301 A  
HETATM    4  C   UNL     1     -12.403  14.120  69.935  1.00  0.00    -0.327 A  
HETATM    5  N   UNL     1     -13.187  10.789  72.272  1.00  0.00    -0.280 NA 
HETATM    6  C   UNL     1     -11.955  12.862  69.501  1.00  0.00    -0.346 A  
HETATM    7  C   UNL     1     -12.928  11.811  71.455  1.00  0.00    -0.341 A  
HETATM    8  C   UNL     1     -12.743   9.597  71.887  1.00  0.00    -0.411 A  
HETATM    9  C   UNL     1     -12.211  11.687  70.257  1.00  0.00    -0.401 A  
HETATM   10  C   UNL     1     -13.402  13.052  71.844  1.00  0.00    -0.539 A  
HETATM   11  N   UNL     1     -12.083   9.340  70.760  1.00  0.00    -0.225 NA 
HETATM   12  C   UNL     1     -11.818  10.367  69.926  1.00  0.00    -0.238 A  
BRANCH   4  13
HETATM   13  N   UNL     1     -12.070  15.312  69.241  1.00  0.00    -0.524 N  
HETATM   14  H   UNL     1     -12.816  15.839  68.787  1.00  0.00     0.000 HD 
HETATM   15  C   UNL     1     -10.777  15.786  69.157  1.00  0.00    -0.246 C  
HETATM   16  O   UNL     1      -9.787  15.211  69.602  1.00  0.00    -0.219 OA 
BRANCH  15  17
HETATM   17  C   UNL     1     -10.666  17.155  68.568  1.00  0.00    -0.326 C  
HETATM   18  C   UNL     1      -9.800  17.328  67.552  1.00  0.00    -0.275 C  
BRANCH  18  19
HETATM   19  C   UNL     1      -9.399  18.632  66.923  1.00  0.00    -0.304 C  
BRANCH  19  20
HETATM   20  N   UNL     1      -8.058  18.666  66.319  1.00  0.00    -0.378 NA 
HETATM   21  C   UNL     1      -6.281  20.258  68.097  1.00  0.00    -0.313 C  
HETATM   22  C   UNL     1      -7.672  20.053  65.981  1.00  0.00    -0.300 C  
HETATM   23  C   UNL     1      -6.659  18.814  68.404  1.00  0.00    -0.249 C  
HETATM   24  C   UNL     1      -7.317  20.925  67.196  1.00  0.00    -0.369 C  
HETATM   25  C   UNL     1      -6.988  18.051  67.120  1.00  0.00    -0.191 C  
ENDBRANCH  19  20
ENDBRANCH  18  19
ENDBRANCH  15  17
ENDBRANCH   4  13
BRANCH  12  26
HETATM   26  N   UNL     1     -11.263  10.084  68.658  1.00  0.00    -0.458 NA 
HETATM   27  H   UNL     1     -11.886   9.578  68.029  1.00  0.00     0.000 HD 
BRANCH  26  28
HETATM   28  C   UNL     1      -9.996  10.381  68.110  1.00  0.00    -0.149 A  
HETATM   29  C   UNL     1      -8.892  10.440  68.978  1.00  0.00    -0.176 A  
HETATM   30  C   UNL     1      -7.653  10.921  68.536  1.00  0.00    -0.111 A  
HETATM   31  C   UNL     1      -8.559  11.262  66.334  1.00  0.00    -0.174 A  
HETATM   32  C   UNL     1      -9.793  10.781  66.780  1.00  0.00    -0.233 A  
HETATM   33  C   UNL     1      -7.499  11.348  67.222  1.00  0.00    -0.134 A  
HETATM   34  F   UNL     1      -6.337  11.859  66.792  1.00  0.00    -0.139 F  
HETATM   35 CL   UNL     1      -6.338  11.016  69.644  1.00  0.00    -0.091 Cl 
ENDBRANCH  26  28
ENDBRANCH  12  26
ENDBRANCH   2   3
TORSDOF 7
ENDMDL
MODEL       21
REMARK 921   NORMALIZED FREE ENERGY PREDICTED BY IDOCK:   -7.15 KCAL/MOL
REMARK 922        TOTAL FREE ENERGY PREDICTED BY IDOCK:  -10.99 KCAL/MOL
REMARK 923 INTER-LIGAND FREE ENERGY PREDICTED BY IDOCK:   -9.86 KCAL/MOL
REMARK 924 INTRA-LIGAND FREE ENERGY PREDICTED BY IDOCK:   -1.13 KCAL/MOL
REMARK 927      BINDING AFFINITY PREDICTED BY RF-SCORE:    0.00 PKD
ROOT
HETATM    1  C   UNL     1     -10.985   6.477  67.084  1.00  0.00    -0.408 C  
HETATM    2  O   UNL     1     -10.169   7.524  67.607  1.00  0.00    -0.182 OA 
ENDROOT
BRANCH   2   3
HETATM    3  C   UNL     1     -10.304   8.751  67.005  1.00  0.00    -0.283 A  
HETATM    4  C   UNL     1     -10.832   9.783  67.787  1.00  0.00    -0.246 A  
HETATM    5  N   UNL     1      -9.519  10.464  63.916  1.00  0.00    -0.282 NA 
HETATM    6  C   UNL     1     -11.009  11.056  67.221  1.00  0.00    -0.356 A  
HETATM    7  C   UNL     1      -9.994  10.306  65.153  1.00  0.00    -0.325 A  
HETATM    8  C   UNL     1      -9.654  11.671  63.379  1.00  0.00    -0.287 A  
HETATM    9  C   UNL     1     -10.591  11.337  65.893  1.00  0.00    -0.309 A  
HETATM   10  C   UNL     1      -9.870   9.046  65.710  1.00  0.00    -0.181 A  
HETATM   11  N   UNL     1     -10.231  12.721  63.961  1.00  0.00    -0.370 NA 
HETATM   12  C   UNL     1     -10.717  12.572  65.211  1.00  0.00    -0.286 A  
BRANCH   4  13
HETATM   13  N   UNL     1     -11.154   9.517  69.143  1.00  0.00    -0.425 N  
HETATM   14  H   UNL     1     -12.115   9.267  69.378  1.00  0.00     0.000 HD 
HETATM   15  C   UNL     1     -10.220   9.583  70.156  1.00  0.00    -0.246 C  
HETATM   16  O   UNL     1      -9.052   9.936  70.012  1.00  0.00    -0.225 OA 
BRANCH  15  17
HETATM   17  C   UNL     1     -10.707   9.067  71.470  1.00  0.00    -0.421 C  
HETATM   18  C   UNL     1      -9.845   8.351  72.217  1.00  0.00    -0.383 C  
BRANCH  18  19
HETATM   19  C   UNL     1     -10.157   7.598  73.479  1.00  0.00    -0.285 C  
BRANCH  19  20
HETATM   20  N   UNL     1      -9.323   6.414  73.741  1.00  0.00    -0.133 NA 
HETATM   21  C   UNL     1     -10.521   4.099  72.305  1.00  0.00    -0.141 C  
HETATM   22  C   UNL     1     -10.096   5.379  74.459  1.00  0.00    -0.270 C  
HETATM   23  C   UNL     1      -9.686   5.157  71.593  1.00  0.00    -0.217 C  
HETATM   24  C   UNL     1     -11.134   4.648  73.592  1.00  0.00    -0.379 C  
HETATM   25  C   UNL     1      -8.694   5.810  72.556  1.00  0.00    -0.124 C  
ENDBRANCH  19  20
ENDBRANCH  18  19
ENDBRANCH  15  17
ENDBRANCH   4  13
BRANCH  12  26
HETATM   26  N   UNL     1     -11.470  13.625  65.775  1.00  0.00    -0.310 NA 
HETATM   27  H   UNL     1     -12.470  13.579  65.578  1.00  0.00     0.000 HD 
BRANCH  26  28
HETATM   28  C   UNL     1     -11.080  14.730  66.563  1.00  0.00    -0.334 A  
HETATM   29  C   UNL     1     -11.507  14.778  67.901  1.00  0.00    -0.361 A  
HETATM   30  C   UNL     1     -11.324  15.931  68.674  1.00  0.00    -0.376 A  
HETATM   31  C   UNL     1     -10.245  17.017  66.819  1.00  0.00    -0.298 A  
HETATM   32  C   UNL     1     -10.429  15.864  66.052  1.00  0.00    -0.357 A  
HETATM   33  C   UNL     1     -10.713  17.052  68.122  1.00  0.00    -0.374 A  
HETATM   34  F   UNL     1     -10.574  18.183  68.828  1.00  0.00    -0.330 F  
HETATM   35 CL   UNL     1     -11.899  15.962  70.297  1.00  0.00    -0.354 Cl 
ENDBRANCH  26  28
ENDBRANCH  12  26
ENDBRANCH   2   3
TORSDOF 7
ENDMDL
MODEL       22
REMARK 921   NORMALIZED FREE ENERGY PREDICTED BY IDOCK:   -7.14 KCAL/MOL
REMARK 922        TOTAL FREE ENERGY PREDICTED BY IDOCK:  -10.98 KCAL/MOL
REMARK 923 INTER-LIGAND FREE ENERGY PREDICTED BY IDOCK:   -9.93 KCAL/MOL
REMARK 924 INTRA-LIGAND FREE ENERGY PREDICTED BY IDOCK:   -1.05 KCAL/MOL
REMARK 927      BINDING AFFINITY PREDICTED BY RF-SCORE:    0.00 PKD
ROOT
HETATM    1  C   UNL     1     -11.896  15.809  71.404  1.00  0.00    -0.442 C  
HETATM    2  O   UNL     1     -10.970  14.892  70.824  1.00  0.00    -0.181 OA 
ENDROOT
BRANCH   2   3
HETATM    3  C   UNL     1     -11.110  14.666  69.477  1.00  0.00    -0.266 A  
HETATM    4  C   UNL     1     -11.588  13.409  69.093  1.00  0.00    -0.315 A  
HETATM    5  N   UNL     1     -10.861  16.385  66.302  1.00  0.00    -0.145 NA 
HETATM    6  C   UNL     1     -11.737  13.115  67.728  1.00  0.00    -0.401 A  
HETATM    7  C   UNL     1     -11.079  15.371  67.142  1.00  0.00    -0.291 A  
HETATM    8  C   UNL     1     -11.026  16.127  65.009  1.00  0.00    -0.344 A  
HETATM    9  C   UNL     1     -11.485  14.094  66.731  1.00  0.00    -0.383 A  
HETATM   10  C   UNL     1     -10.893  15.630  68.489  1.00  0.00    -0.282 A  
HETATM   11  N   UNL     1     -11.373  14.951  64.489  1.00  0.00    -0.339 NA 
HETATM   12  C   UNL     1     -11.595  13.920  65.330  1.00  0.00    -0.325 A  
BRANCH   4  13
HETATM   13  N   UNL     1     -11.931  12.471  70.102  1.00  0.00    -0.458 N  
HETATM   14  H   UNL     1     -12.585  12.754  70.831  1.00  0.00     0.000 HD 
HETATM   15  C   UNL     1     -11.414  11.193  70.135  1.00  0.00    -0.272 C  
HETATM   16  O   UNL     1     -10.570  10.755  69.356  1.00  0.00    -0.219 OA 
BRANCH  15  17
HETATM   17  C   UNL     1     -12.055  10.301  71.147  1.00  0.00    -0.494 C  
HETATM   18  C   UNL     1     -11.333   9.266  71.614  1.00  0.00    -0.467 C  
BRANCH  18  19
HETATM   19  C   UNL     1     -11.819   8.153  72.498  1.00  0.00    -0.376 C  
BRANCH  19  20
HETATM   20  N   UNL     1     -12.270   6.935  71.805  1.00  0.00    -0.342 NA 
HETATM   21  C   UNL     1     -10.002   5.009  71.747  1.00  0.00    -0.250 C  
HETATM   22  C   UNL     1     -11.481   6.710  70.575  1.00  0.00    -0.376 C  
HETATM   23  C   UNL     1     -10.855   5.227  72.992  1.00  0.00    -0.332 C  
HETATM   24  C   UNL     1     -10.044   6.225  70.825  1.00  0.00    -0.229 C  
HETATM   25  C   UNL     1     -12.258   5.707  72.615  1.00  0.00     0.116 C  
ENDBRANCH  19  20
ENDBRANCH  18  19
ENDBRANCH  15  17
ENDBRANCH   4  13
BRANCH  12  26
HETATM   26  N   UNL     1     -11.805  12.634  64.784  1.00  0.00    -0.360 NA 
HETATM   27  H   UNL     1     -12.786  12.374  64.684  1.00  0.00     0.000 HD 
BRANCH  26  28
HETATM   28  C   UNL     1     -10.892  11.647  64.354  1.00  0.00    -0.339 A  
HETATM   29  C   UNL     1     -10.513  10.646  65.265  1.00  0.00    -0.264 A  
HETATM   30  C   UNL     1      -9.470   9.761  64.970  1.00  0.00    -0.272 A  
HETATM   31  C   UNL     1      -9.170  10.811  62.827  1.00  0.00    -0.346 A  
HETATM   32  C   UNL     1     -10.213  11.692  63.126  1.00  0.00    -0.396 A  
HETATM   33  C   UNL     1      -8.790   9.861  63.760  1.00  0.00    -0.232 A  
HETATM   34  F   UNL     1      -7.756   9.056  63.479  1.00  0.00    -0.106 F  
HETATM   35 CL   UNL     1      -9.010   8.576  66.132  1.00  0.00    -0.202 Cl 
ENDBRANCH  26  28
ENDBRANCH  12  26
ENDBRANCH   2   3
TORSDOF 7
ENDMDL
MODEL       23
REMARK 921   NORMALIZED FREE ENERGY PREDICTED BY IDOCK:   -7.09 KCAL/MOL
REMARK 922        TOTAL FREE ENERGY PREDICTED BY IDOCK:  -10.91 KCAL/MOL
REMARK 923 INTER-LIGAND FREE ENERGY PREDICTED BY IDOCK:   -9.97 KCAL/MOL
REMARK 924 INTRA-LIGAND FREE ENERGY PREDICTED BY IDOCK:   -0.94 KCAL/MOL
REMARK 927      BINDING AFFINITY PREDICTED BY RF-SCORE:    0.00 PKD
ROOT
HETATM    1  C   UNL     1     -12.717  15.823  71.925  1.00  0.00    -0.451 C  
HETATM    2  O   UNL     1     -13.064  15.224  70.677  1.00  0.00    -0.402 OA 
ENDROOT
BRANCH   2   3
HETATM    3  C   UNL     1     -12.737  13.898  70.533  1.00  0.00    -0.249 A  
HETATM    4  C   UNL     1     -11.931  13.561  69.441  1.00  0.00    -0.330 A  
HETATM    5  N   UNL     1     -13.073  10.724  72.239  1.00  0.00    -0.256 NA 
HETATM    6  C   UNL     1     -11.577  12.218  69.234  1.00  0.00    -0.383 A  
HETATM    7  C   UNL     1     -12.701  11.577  71.283  1.00  0.00    -0.364 A  
HETATM    8  C   UNL     1     -12.719   9.455  72.068  1.00  0.00    -0.403 A  
HETATM    9  C   UNL     1     -11.957  11.205  70.154  1.00  0.00    -0.449 A  
HETATM   10  C   UNL     1     -13.080  12.898  71.447  1.00  0.00    -0.331 A  
HETATM   11  N   UNL     1     -12.046   8.968  71.028  1.00  0.00    -0.280 NA 
HETATM   12  C   UNL     1     -11.666   9.822  70.055  1.00  0.00    -0.074 A  
BRANCH   4  13
HETATM   13  N   UNL     1     -11.475  14.595  68.584  1.00  0.00    -0.285 N  
HETATM   14  H   UNL     1     -11.012  15.404  68.997  1.00  0.00     0.000 HD 
HETATM   15  C   UNL     1     -11.632  14.549  67.214  1.00  0.00    -0.385 C  
HETATM   16  O   UNL     1     -12.229  13.664  66.605  1.00  0.00    -0.415 OA 
BRANCH  15  17
HETATM   17  C   UNL     1     -10.902  15.625  66.479  1.00  0.00    -0.260 C  
HETATM   18  C   UNL     1      -9.606  15.820  66.784  1.00  0.00    -0.253 C  
BRANCH  18  19
HETATM   19  C   UNL     1      -8.727  16.940  66.304  1.00  0.00    -0.286 C  
BRANCH  19  20
HETATM   20  N   UNL     1      -8.249  17.869  67.340  1.00  0.00    -0.217 NA 
HETATM   21  C   UNL     1      -9.883  20.351  67.183  1.00  0.00    -0.601 C  
HETATM   22  C   UNL     1      -7.716  19.105  66.729  1.00  0.00    -0.246 C  
HETATM   23  C   UNL     1     -10.397  19.078  67.845  1.00  0.00    -0.485 C  
HETATM   24  C   UNL     1      -8.791  20.045  66.161  1.00  0.00    -0.320 C  
HETATM   25  C   UNL     1      -9.238  18.229  68.370  1.00  0.00    -0.317 C  
ENDBRANCH  19  20
ENDBRANCH  18  19
ENDBRANCH  15  17
ENDBRANCH   4  13
BRANCH  12  26
HETATM   26  N   UNL     1     -11.095   9.295  68.876  1.00  0.00    -0.447 NA 
HETATM   27  H   UNL     1     -11.494   8.405  68.576  1.00  0.00     0.000 HD 
BRANCH  26  28
HETATM   28  C   UNL     1     -10.068   9.786  68.040  1.00  0.00    -0.171 A  
HETATM   29  C   UNL     1     -10.320   9.881  66.661  1.00  0.00    -0.275 A  
HETATM   30  C   UNL     1      -9.288  10.168  65.759  1.00  0.00    -0.188 A  
HETATM   31  C   UNL     1      -7.724  10.318  67.580  1.00  0.00    -0.094 A  
HETATM   32  C   UNL     1      -8.757  10.032  68.476  1.00  0.00    -0.123 A  
HETATM   33  C   UNL     1      -7.991  10.365  66.221  1.00  0.00    -0.138 A  
HETATM   34  F   UNL     1      -6.980  10.591  65.371  1.00  0.00    -0.131 F  
HETATM   35 CL   UNL     1      -9.632  10.234  64.073  1.00  0.00    -0.361 Cl 
ENDBRANCH  26  28
ENDBRANCH  12  26
ENDBRANCH   2   3
TORSDOF 7
ENDMDL
MODEL       24
REMARK 921   NORMALIZED FREE ENERGY PREDICTED BY IDOCK:   -7.09 KCAL/MOL
REMARK 922        TOTAL FREE ENERGY PREDICTED BY IDOCK:  -10.90 KCAL/MOL
REMARK 923 INTER-LIGAND FREE ENERGY PREDICTED BY IDOCK:   -9.99 KCAL/MOL
REMARK 924 INTRA-LIGAND FREE ENERGY PREDICTED BY IDOCK:   -0.91 KCAL/MOL
REMARK 927      BINDING AFFINITY PREDICTED BY RF-SCORE:    0.00 PKD
ROOT
HETATM    1  C   UNL     1     -12.410  11.284  69.903  1.00  0.00    -0.233 C  
HETATM    2  O   UNL     1     -11.990  10.996  68.570  1.00  0.00    -0.535 OA 
ENDROOT
BRANCH   2   3
HETATM    3  C   UNL     1     -11.466  12.050  67.863  1.00  0.00    -0.330 A  
HETATM    4  C   UNL     1     -10.130  12.377  68.111  1.00  0.00    -0.224 A  
HETATM    5  N   UNL     1     -12.329  14.348  65.203  1.00  0.00    -0.403 NA 
HETATM    6  C   UNL     1      -9.546  13.456  67.428  1.00  0.00    -0.223 A  
HETATM    7  C   UNL     1     -11.576  13.781  66.148  1.00  0.00    -0.352 A  
HETATM    8  C   UNL     1     -11.777  15.352  64.530  1.00  0.00    -0.277 A  
HETATM    9  C   UNL     1     -10.261  14.174  66.434  1.00  0.00    -0.292 A  
HETATM   10  C   UNL     1     -12.152  12.746  66.863  1.00  0.00    -0.267 A  
HETATM   11  N   UNL     1     -10.556  15.842  64.729  1.00  0.00    -0.549 NA 
HETATM   12  C   UNL     1      -9.787  15.277  65.683  1.00  0.00    -0.348 A  
BRANCH   4  13
HETATM   13  N   UNL     1      -9.394  11.589  69.033  1.00  0.00    -0.408 N  
HETATM   14  H   UNL     1      -9.440  11.825  70.024  1.00  0.00     0.000 HD 
HETATM   15  C   UNL     1      -8.619  10.517  68.643  1.00  0.00    -0.139 C  
HETATM   16  O   UNL     1      -8.429  10.174  67.478  1.00  0.00    -0.118 OA 
BRANCH  15  17
HETATM   17  C   UNL     1      -8.097   9.696  69.776  1.00  0.00    -0.160 C  
HETATM   18  C   UNL     1      -8.993   9.039  70.535  1.00  0.00    -0.249 C  
BRANCH  18  19
HETATM   19  C   UNL     1      -8.721   8.298  71.813  1.00  0.00    -0.164 C  
BRANCH  19  20
HETATM   20  N   UNL     1      -9.801   8.324  72.812  1.00  0.00    -0.279 NA 
HETATM   21  C   UNL     1     -11.441   5.865  72.468  1.00  0.00    -0.347 C  
HETATM   22  C   UNL     1     -11.123   8.366  72.153  1.00  0.00    -0.345 C  
HETATM   23  C   UNL     1     -10.094   5.853  73.181  1.00  0.00    -0.199 C  
HETATM   24  C   UNL     1     -11.547   7.041  71.500  1.00  0.00    -0.322 C  
HETATM   25  C   UNL     1      -9.785   7.223  73.788  1.00  0.00    -0.298 C  
ENDBRANCH  19  20
ENDBRANCH  18  19
ENDBRANCH  15  17
ENDBRANCH   4  13
BRANCH  12  26
HETATM   26  N   UNL     1      -8.556  15.888  66.011  1.00  0.00    -0.316 NA 
HETATM   27  H   UNL     1      -7.743  15.281  65.907  1.00  0.00     0.000 HD 
BRANCH  26  28
HETATM   28  C   UNL     1      -8.257  17.193  66.459  1.00  0.00    -0.273 A  
HETATM   29  C   UNL     1      -9.204  17.858  67.257  1.00  0.00    -0.254 A  
HETATM   30  C   UNL     1      -9.060  19.216  67.567  1.00  0.00    -0.294 A  
HETATM   31  C   UNL     1      -6.998  19.289  66.331  1.00  0.00    -0.229 A  
HETATM   32  C   UNL     1      -7.146  17.934  66.025  1.00  0.00    -0.340 A  
HETATM   33  C   UNL     1      -7.967  19.929  67.085  1.00  0.00    -0.302 A  
HETATM   34  F   UNL     1      -7.836  21.241  67.327  1.00  0.00    -0.381 F  
HETATM   35 CL   UNL     1     -10.265  20.001  68.513  1.00  0.00    -0.542 Cl 
ENDBRANCH  26  28
ENDBRANCH  12  26
ENDBRANCH   2   3
TORSDOF 7
ENDMDL
MODEL       25
REMARK 921   NORMALIZED FREE ENERGY PREDICTED BY IDOCK:   -7.09 KCAL/MOL
REMARK 922        TOTAL FREE ENERGY PREDICTED BY IDOCK:  -10.90 KCAL/MOL
REMARK 923 INTER-LIGAND FREE ENERGY PREDICTED BY IDOCK:   -9.70 KCAL/MOL
REMARK 924 INTRA-LIGAND FREE ENERGY PREDICTED BY IDOCK:   -1.21 KCAL/MOL
REMARK 927      BINDING AFFINITY PREDICTED BY RF-SCORE:    0.00 PKD
ROOT
HETATM    1  C   UNL     1     -14.222  15.088  71.984  1.00  0.00    -0.555 C  
HETATM    2  O   UNL     1     -13.131  14.879  71.088  1.00  0.00    -0.348 OA 
ENDROOT
BRANCH   2   3
HETATM    3  C   UNL     1     -12.784  13.571  70.857  1.00  0.00    -0.291 A  
HETATM    4  C   UNL     1     -11.848  13.335  69.845  1.00  0.00    -0.310 A  
HETATM    5  N   UNL     1     -13.318  10.249  72.187  1.00  0.00    -0.397 NA 
HETATM    6  C   UNL     1     -11.467  12.016  69.552  1.00  0.00    -0.351 A  
HETATM    7  C   UNL     1     -12.834  11.188  71.373  1.00  0.00    -0.439 A  
HETATM    8  C   UNL     1     -12.942   8.999  71.938  1.00  0.00    -0.389 A  
HETATM    9  C   UNL     1     -11.954  10.921  70.314  1.00  0.00    -0.448 A  
HETATM   10  C   UNL     1     -13.235  12.489  71.618  1.00  0.00    -0.381 A  
HETATM   11  N   UNL     1     -12.143   8.610  70.947  1.00  0.00    -0.210 NA 
HETATM   12  C   UNL     1     -11.649   9.552  70.117  1.00  0.00    -0.111 A  
BRANCH   4  13
HETATM   13  N   UNL     1     -11.293  14.444  69.156  1.00  0.00    -0.262 N  
HETATM   14  H   UNL     1     -10.748  15.126  69.684  1.00  0.00     0.000 HD 
HETATM   15  C   UNL     1     -11.460  14.637  67.800  1.00  0.00    -0.340 C  
HETATM   16  O   UNL     1     -12.146  13.927  67.069  1.00  0.00    -0.420 OA 
BRANCH  15  17
HETATM   17  C   UNL     1     -10.628  15.741  67.233  1.00  0.00    -0.313 C  
HETATM   18  C   UNL     1      -9.501  16.072  67.889  1.00  0.00    -0.210 C  
BRANCH  18  19
HETATM   19  C   UNL     1      -8.605  17.245  67.606  1.00  0.00    -0.217 C  
BRANCH  19  20
HETATM   20  N   UNL     1      -8.735  18.387  68.526  1.00  0.00    -0.319 NA 
HETATM   21  C   UNL     1      -9.776  20.706  66.981  1.00  0.00    -0.485 C  
HETATM   22  C   UNL     1      -7.850  19.495  68.110  1.00  0.00    -0.312 C  
HETATM   23  C   UNL     1     -10.678  19.572  67.455  1.00  0.00    -0.589 C  
HETATM   24  C   UNL     1      -8.325  20.249  66.858  1.00  0.00    -0.348 C  
HETATM   25  C   UNL     1     -10.101  18.902  68.703  1.00  0.00    -0.388 C  
ENDBRANCH  19  20
ENDBRANCH  18  19
ENDBRANCH  15  17
ENDBRANCH   4  13
BRANCH  12  26
HETATM   26  N   UNL     1     -10.934   9.138  68.971  1.00  0.00    -0.432 NA 
HETATM   27  H   UNL     1     -11.523   8.857  68.187  1.00  0.00     0.000 HD 
BRANCH  26  28
HETATM   28  C   UNL     1      -9.548   9.046  68.723  1.00  0.00    -0.152 A  
HETATM   29  C   UNL     1      -9.100   8.098  67.787  1.00  0.00    -0.140 A  
HETATM   30  C   UNL     1      -7.735   7.818  67.642  1.00  0.00    -0.121 A  
HETATM   31  C   UNL     1      -7.210   9.451  69.328  1.00  0.00    -0.066 A  
HETATM   32  C   UNL     1      -8.573   9.726  69.470  1.00  0.00    -0.186 A  
HETATM   33  C   UNL     1      -6.799   8.482  68.427  1.00  0.00    -0.065 A  
HETATM   34  F   UNL     1      -5.493   8.194  68.340  1.00  0.00    -0.029 F  
HETATM   35 CL   UNL     1      -7.233   6.620  66.512  1.00  0.00    -0.071 Cl 
ENDBRANCH  26  28
ENDBRANCH  12  26
ENDBRANCH   2   3
TORSDOF 7
ENDMDL
MODEL       26
REMARK 921   NORMALIZED FREE ENERGY PREDICTED BY IDOCK:   -7.02 KCAL/MOL
REMARK 922        TOTAL FREE ENERGY PREDICTED BY IDOCK:  -10.82 KCAL/MOL
REMARK 923 INTER-LIGAND FREE ENERGY PREDICTED BY IDOCK:   -9.64 KCAL/MOL
REMARK 924 INTRA-LIGAND FREE ENERGY PREDICTED BY IDOCK:   -1.18 KCAL/MOL
REMARK 927      BINDING AFFINITY PREDICTED BY RF-SCORE:    0.00 PKD
ROOT
HETATM    1  C   UNL     1      -9.285  10.209  62.337  1.00  0.00    -0.297 C  
HETATM    2  O   UNL     1      -9.072  10.897  63.569  1.00  0.00    -0.205 OA 
ENDROOT
BRANCH   2   3
HETATM    3  C   UNL     1      -9.136  10.130  64.707  1.00  0.00    -0.222 A  
HETATM    4  C   UNL     1      -9.678  10.733  65.846  1.00  0.00    -0.224 A  
HETATM    5  N   UNL     1      -8.543   6.747  65.846  1.00  0.00    -0.147 NA 
HETATM    6  C   UNL     1      -9.755  10.002  67.042  1.00  0.00    -0.227 A  
HETATM    7  C   UNL     1      -8.893   8.032  65.926  1.00  0.00    -0.153 A  
HETATM    8  C   UNL     1      -8.638   6.038  66.965  1.00  0.00    -0.107 A  
HETATM    9  C   UNL     1      -9.363   8.639  67.100  1.00  0.00    -0.190 A  
HETATM   10  C   UNL     1      -8.781   8.780  64.767  1.00  0.00    -0.133 A  
HETATM   11  N   UNL     1      -9.034   6.501  68.149  1.00  0.00    -0.118 NA 
HETATM   12  C   UNL     1      -9.389   7.800  68.241  1.00  0.00    -0.143 A  
BRANCH   4  13
HETATM   13  N   UNL     1     -10.158  12.065  65.751  1.00  0.00    -0.233 N  
HETATM   14  H   UNL     1     -10.981  12.249  65.177  1.00  0.00     0.000 HD 
HETATM   15  C   UNL     1      -9.557  13.120  66.405  1.00  0.00    -0.255 C  
HETATM   16  O   UNL     1      -8.526  13.040  67.069  1.00  0.00    -0.193 OA 
BRANCH  15  17
HETATM   17  C   UNL     1     -10.331  14.396  66.347  1.00  0.00    -0.289 C  
HETATM   18  C   UNL     1      -9.687  15.498  65.922  1.00  0.00    -0.392 C  
BRANCH  18  19
HETATM   19  C   UNL     1     -10.205  16.908  65.940  1.00  0.00    -0.314 C  
BRANCH  19  20
HETATM   20  N   UNL     1      -9.201  17.957  66.181  1.00  0.00    -0.501 NA 
HETATM   21  C   UNL     1     -10.012  19.477  68.607  1.00  0.00    -0.538 C  
HETATM   22  C   UNL     1      -9.812  19.299  66.080  1.00  0.00    -0.367 C  
HETATM   23  C   UNL     1      -9.343  18.110  68.687  1.00  0.00    -0.309 C  
HETATM   24  C   UNL     1     -10.715  19.674  67.266  1.00  0.00    -0.583 C  
HETATM   25  C   UNL     1      -8.473  17.854  67.456  1.00  0.00    -0.232 C  
ENDBRANCH  19  20
ENDBRANCH  18  19
ENDBRANCH  15  17
ENDBRANCH   4  13
BRANCH  12  26
HETATM   26  N   UNL     1      -9.656   8.340  69.518  1.00  0.00    -0.169 NA 
HETATM   27  H   UNL     1      -8.838   8.718  69.995  1.00  0.00     0.000 HD 
BRANCH  26  28
HETATM   28  C   UNL     1     -10.859   8.447  70.249  1.00  0.00    -0.239 A  
HETATM   29  C   UNL     1     -11.372   9.730  70.506  1.00  0.00    -0.382 A  
HETATM   30  C   UNL     1     -12.444   9.915  71.388  1.00  0.00    -0.398 A  
HETATM   31  C   UNL     1     -12.561   7.541  71.759  1.00  0.00    -0.363 A  
HETATM   32  C   UNL     1     -11.492   7.362  70.878  1.00  0.00    -0.311 A  
HETATM   33  C   UNL     1     -13.019   8.821  72.025  1.00  0.00    -0.390 A  
HETATM   34  F   UNL     1     -14.013   8.980  72.911  1.00  0.00    -0.468 F  
HETATM   35 CL   UNL     1     -13.013  11.508  71.705  1.00  0.00    -0.544 Cl 
ENDBRANCH  26  28
ENDBRANCH  12  26
ENDBRANCH   2   3
TORSDOF 7
ENDMDL
MODEL       27
REMARK 921   NORMALIZED FREE ENERGY PREDICTED BY IDOCK:   -7.00 KCAL/MOL
REMARK 922        TOTAL FREE ENERGY PREDICTED BY IDOCK:  -10.79 KCAL/MOL
REMARK 923 INTER-LIGAND FREE ENERGY PREDICTED BY IDOCK:   -9.50 KCAL/MOL
REMARK 924 INTRA-LIGAND FREE ENERGY PREDICTED BY IDOCK:   -1.29 KCAL/MOL
REMARK 927      BINDING AFFINITY PREDICTED BY RF-SCORE:    0.00 PKD
ROOT
HETATM    1  C   UNL     1     -13.645   8.881  71.906  1.00  0.00    -0.425 C  
HETATM    2  O   UNL     1     -12.447   9.509  71.452  1.00  0.00    -0.321 OA 
ENDROOT
BRANCH   2   3
HETATM    3  C   UNL     1     -12.540  10.848  71.164  1.00  0.00    -0.428 A  
HETATM    4  C   UNL     1     -12.157  11.247  69.879  1.00  0.00    -0.341 A  
HETATM    5  N   UNL     1     -13.722  13.952  72.602  1.00  0.00    -0.709 NA 
HETATM    6  C   UNL     1     -12.216  12.606  69.533  1.00  0.00    -0.149 A  
HETATM    7  C   UNL     1     -13.177  13.142  71.691  1.00  0.00    -0.346 A  
HETATM    8  C   UNL     1     -13.809  15.236  72.274  1.00  0.00    -0.530 A  
HETATM    9  C   UNL     1     -12.729  13.575  70.435  1.00  0.00    -0.173 A  
HETATM   10  C   UNL     1     -13.069  11.806  72.033  1.00  0.00    -0.436 A  
HETATM   11  N   UNL     1     -13.389  15.778  71.133  1.00  0.00    -0.534 NA 
HETATM   12  C   UNL     1     -12.836  14.969  70.206  1.00  0.00    -0.229 A  
BRANCH   4  13
HETATM   13  N   UNL     1     -11.741  10.256  68.952  1.00  0.00    -0.517 N  
HETATM   14  H   UNL     1     -12.442   9.630  68.558  1.00  0.00     0.000 HD 
HETATM   15  C   UNL     1     -10.425  10.108  68.564  1.00  0.00    -0.195 C  
HETATM   16  O   UNL     1      -9.482  10.753  69.016  1.00  0.00    -0.191 OA 
BRANCH  15  17
HETATM   17  C   UNL     1     -10.227   9.154  67.432  1.00  0.00    -0.310 C  
HETATM   18  C   UNL     1      -8.963   8.823  67.109  1.00  0.00    -0.146 C  
BRANCH  18  19
HETATM   19  C   UNL     1      -8.516   8.026  65.917  1.00  0.00    -0.143 C  
BRANCH  19  20
HETATM   20  N   UNL     1      -7.347   8.553  65.195  1.00  0.00    -0.080 NA 
HETATM   21  C   UNL     1      -8.263   9.539  62.541  1.00  0.00    -0.148 C  
HETATM   22  C   UNL     1      -7.102   7.779  63.959  1.00  0.00    -0.072 C  
HETATM   23  C   UNL     1      -8.467  10.339  63.823  1.00  0.00    -0.179 C  
HETATM   24  C   UNL     1      -8.113   8.048  62.834  1.00  0.00    -0.126 C  
HETATM   25  C   UNL     1      -7.403   9.986  64.862  1.00  0.00    -0.140 C  
ENDBRANCH  19  20
ENDBRANCH  18  19
ENDBRANCH  15  17
ENDBRANCH   4  13
BRANCH  12  26
HETATM   26  N   UNL     1     -12.243  15.553  69.064  1.00  0.00    -0.611 NA 
HETATM   27  H   UNL     1     -12.889  15.716  68.292  1.00  0.00     0.000 HD 
BRANCH  26  28
HETATM   28  C   UNL     1     -10.913  15.949  68.807  1.00  0.00    -0.301 A  
HETATM   29  C   UNL     1     -10.599  17.317  68.879  1.00  0.00    -0.276 A  
HETATM   30  C   UNL     1      -9.357  17.795  68.445  1.00  0.00    -0.294 A  
HETATM   31  C   UNL     1      -8.677  15.556  67.890  1.00  0.00    -0.163 A  
HETATM   32  C   UNL     1      -9.918  15.083  68.325  1.00  0.00    -0.225 A  
HETATM   33  C   UNL     1      -8.410  16.914  67.934  1.00  0.00    -0.198 A  
HETATM   34  F   UNL     1      -7.234  17.356  67.465  1.00  0.00    -0.160 F  
HETATM   35 CL   UNL     1      -9.029  19.484  68.512  1.00  0.00    -0.403 Cl 
ENDBRANCH  26  28
ENDBRANCH  12  26
ENDBRANCH   2   3
TORSDOF 7
ENDMDL
MODEL       28
REMARK 921   NORMALIZED FREE ENERGY PREDICTED BY IDOCK:   -6.98 KCAL/MOL
REMARK 922        TOTAL FREE ENERGY PREDICTED BY IDOCK:  -10.76 KCAL/MOL
REMARK 923 INTER-LIGAND FREE ENERGY PREDICTED BY IDOCK:   -9.86 KCAL/MOL
REMARK 924 INTRA-LIGAND FREE ENERGY PREDICTED BY IDOCK:   -0.90 KCAL/MOL
REMARK 927      BINDING AFFINITY PREDICTED BY RF-SCORE:    0.00 PKD
ROOT
HETATM    1  C   UNL     1      -6.565  10.669  68.782  1.00  0.00    -0.053 C  
HETATM    2  O   UNL     1      -7.774  10.665  68.024  1.00  0.00    -0.097 OA 
ENDROOT
BRANCH   2   3
HETATM    3  C   UNL     1      -8.940  10.685  68.750  1.00  0.00    -0.172 A  
HETATM    4  C   UNL     1      -9.804  11.761  68.529  1.00  0.00    -0.189 A  
HETATM    5  N   UNL     1     -10.829   8.659  71.078  1.00  0.00    -0.235 NA 
HETATM    6  C   UNL     1     -11.004  11.842  69.254  1.00  0.00    -0.208 A  
HETATM    7  C   UNL     1     -10.546   9.707  70.302  1.00  0.00    -0.278 A  
HETATM    8  C   UNL     1     -11.975   8.711  71.748  1.00  0.00    -0.336 A  
HETATM    9  C   UNL     1     -11.393  10.814  70.152  1.00  0.00    -0.390 A  
HETATM   10  C   UNL     1      -9.347   9.665  69.615  1.00  0.00    -0.226 A  
HETATM   11  N   UNL     1     -12.847   9.716  71.721  1.00  0.00    -0.388 NA 
HETATM   12  C   UNL     1     -12.570  10.781  70.940  1.00  0.00    -0.401 A  
BRANCH   4  13
HETATM   13  N   UNL     1      -9.452  12.732  67.556  1.00  0.00    -0.182 N  
HETATM   14  H   UNL     1      -9.826  12.638  66.613  1.00  0.00     0.000 HD 
HETATM   15  C   UNL     1      -8.622  13.798  67.837  1.00  0.00    -0.183 C  
HETATM   16  O   UNL     1      -8.056  13.984  68.911  1.00  0.00    -0.106 OA 
BRANCH  15  17
HETATM   17  C   UNL     1      -8.543  14.814  66.745  1.00  0.00    -0.226 C  
HETATM   18  C   UNL     1      -8.133  16.053  67.074  1.00  0.00    -0.257 C  
BRANCH  18  19
HETATM   19  C   UNL     1      -8.137  17.268  66.190  1.00  0.00    -0.237 C  
BRANCH  19  20
HETATM   20  N   UNL     1      -7.612  18.502  66.795  1.00  0.00    -0.221 NA 
HETATM   21  C   UNL     1      -9.920  20.151  67.693  1.00  0.00    -0.560 C  
HETATM   22  C   UNL     1      -8.054  19.689  66.032  1.00  0.00    -0.313 C  
HETATM   23  C   UNL     1      -9.420  18.948  68.485  1.00  0.00    -0.416 C  
HETATM   24  C   UNL     1      -9.538  20.044  66.219  1.00  0.00    -0.516 C  
HETATM   25  C   UNL     1      -7.936  18.697  68.217  1.00  0.00    -0.312 C  
ENDBRANCH  19  20
ENDBRANCH  18  19
ENDBRANCH  15  17
ENDBRANCH   4  13
BRANCH  12  26
HETATM   26  N   UNL     1     -13.403  11.919  71.026  1.00  0.00     0.259 NA 
HETATM   27  H   UNL     1     -14.354  11.771  70.688  1.00  0.00     0.000 HD 
BRANCH  26  28
HETATM   28  C   UNL     1     -13.148  13.225  71.498  1.00  0.00    -0.328 A  
HETATM   29  C   UNL     1     -12.493  14.127  70.642  1.00  0.00    -0.432 A  
HETATM   30  C   UNL     1     -12.035  15.363  71.113  1.00  0.00    -0.362 A  
HETATM   31  C   UNL     1     -12.905  14.865  73.299  1.00  0.00    -0.646 A  
HETATM   32  C   UNL     1     -13.361  13.633  72.824  1.00  0.00    -0.465 A  
HETATM   33  C   UNL     1     -12.226  15.717  72.444  1.00  0.00    -0.472 A  
HETATM   34  F   UNL     1     -11.752  16.874  72.927  1.00  0.00    -0.589 F  
HETATM   35 CL   UNL     1     -11.201  16.421  70.040  1.00  0.00    -0.326 Cl 
ENDBRANCH  26  28
ENDBRANCH  12  26
ENDBRANCH   2   3
TORSDOF 7
ENDMDL
MODEL       29
REMARK 921   NORMALIZED FREE ENERGY PREDICTED BY IDOCK:   -6.95 KCAL/MOL
REMARK 922        TOTAL FREE ENERGY PREDICTED BY IDOCK:  -10.72 KCAL/MOL
REMARK 923 INTER-LIGAND FREE ENERGY PREDICTED BY IDOCK:   -9.67 KCAL/MOL
REMARK 924 INTRA-LIGAND FREE ENERGY PREDICTED BY IDOCK:   -1.05 KCAL/MOL
REMARK 927      BINDING AFFINITY PREDICTED BY RF-SCORE:    0.00 PKD
ROOT
HETATM    1  C   UNL     1     -11.106  11.861  66.408  1.00  0.00    -0.309 C  
HETATM    2  O   UNL     1     -11.550  11.065  67.506  1.00  0.00    -0.529 OA 
ENDROOT
BRANCH   2   3
HETATM    3  C   UNL     1     -10.804   9.946  67.779  1.00  0.00    -0.264 A  
HETATM    4  C   UNL     1     -10.726   9.550  69.118  1.00  0.00    -0.210 A  
HETATM    5  N   UNL     1      -8.980   7.309  66.100  1.00  0.00    -0.166 NA 
HETATM    6  C   UNL     1      -9.964   8.421  69.460  1.00  0.00    -0.190 A  
HETATM    7  C   UNL     1      -9.486   8.002  67.123  1.00  0.00    -0.162 A  
HETATM    8  C   UNL     1      -8.281   6.223  66.409  1.00  0.00    -0.114 A  
HETATM    9  C   UNL     1      -9.332   7.629  68.466  1.00  0.00    -0.147 A  
HETATM   10  C   UNL     1     -10.202   9.143  66.807  1.00  0.00    -0.331 A  
HETATM   11  N   UNL     1      -8.032   5.783  67.641  1.00  0.00    -0.101 NA 
HETATM   12  C   UNL     1      -8.538   6.477  68.682  1.00  0.00    -0.124 A  
BRANCH   4  13
HETATM   13  N   UNL     1     -11.443  10.291  70.093  1.00  0.00    -0.287 N  
HETATM   14  H   UNL     1     -11.358  11.307  70.095  1.00  0.00     0.000 HD 
HETATM   15  C   UNL     1     -12.251   9.691  71.037  1.00  0.00    -0.323 C  
HETATM   16  O   UNL     1     -12.383   8.479  71.180  1.00  0.00    -0.286 OA 
BRANCH  15  17
HETATM   17  C   UNL     1     -13.076  10.650  71.832  1.00  0.00    -0.563 C  
HETATM   18  C   UNL     1     -13.029  11.950  71.485  1.00  0.00    -0.427 C  
BRANCH  18  19
HETATM   19  C   UNL     1     -13.633  13.104  72.234  1.00  0.00    -0.581 C  
BRANCH  19  20
HETATM   20  N   UNL     1     -13.784  14.353  71.471  1.00  0.00    -0.383 NA 
HETATM   21  C   UNL     1     -11.850  16.339  72.552  1.00  0.00    -0.608 C  
HETATM   22  C   UNL     1     -14.223  15.455  72.354  1.00  0.00    -0.492 C  
HETATM   23  C   UNL     1     -11.427  15.220  71.608  1.00  0.00    -0.471 C  
HETATM   24  C   UNL     1     -13.132  15.981  73.299  1.00  0.00    -0.658 C  
HETATM   25  C   UNL     1     -12.594  14.784  70.721  1.00  0.00    -0.349 C  
ENDBRANCH  19  20
ENDBRANCH  18  19
ENDBRANCH  15  17
ENDBRANCH   4  13
BRANCH  12  26
HETATM   26  N   UNL     1      -8.149   6.113  69.991  1.00  0.00    -0.117 NA 
HETATM   27  H   UNL     1      -7.224   6.447  70.264  1.00  0.00     0.000 HD 
BRANCH  26  28
HETATM   28  C   UNL     1      -8.817   5.367  70.985  1.00  0.00    -0.139 A  
HETATM   29  C   UNL     1      -8.939   3.978  70.808  1.00  0.00    -0.152 A  
HETATM   30  C   UNL     1      -9.756   3.214  71.650  1.00  0.00    -0.164 A  
HETATM   31  C   UNL     1     -10.327   5.185  72.904  1.00  0.00    -0.238 A  
HETATM   32  C   UNL     1      -9.510   5.944  72.062  1.00  0.00    -0.164 A  
HETATM   33  C   UNL     1     -10.461   3.824  72.681  1.00  0.00    -0.116 A  
HETATM   34  F   UNL     1     -11.288   3.120  73.467  1.00  0.00    -0.295 F  
HETATM   35 CL   UNL     1      -9.910   1.522  71.371  1.00  0.00    -0.210 Cl 
ENDBRANCH  26  28
ENDBRANCH  12  26
ENDBRANCH   2   3
TORSDOF 7
ENDMDL
MODEL       30
REMARK 921   NORMALIZED FREE ENERGY PREDICTED BY IDOCK:   -6.91 KCAL/MOL
REMARK 922        TOTAL FREE ENERGY PREDICTED BY IDOCK:  -10.66 KCAL/MOL
REMARK 923 INTER-LIGAND FREE ENERGY PREDICTED BY IDOCK:   -9.15 KCAL/MOL
REMARK 924 INTRA-LIGAND FREE ENERGY PREDICTED BY IDOCK:   -1.50 KCAL/MOL
REMARK 927      BINDING AFFINITY PREDICTED BY RF-SCORE:    0.00 PKD
ROOT
HETATM    1  C   UNL     1      -9.412   3.860  64.738  1.00  0.00    -0.169 C  
HETATM    2  O   UNL     1      -9.284   5.205  65.197  1.00  0.00    -0.140 OA 
ENDROOT
BRANCH   2   3
HETATM    3  C   UNL     1      -9.470   5.403  66.543  1.00  0.00    -0.149 A  
HETATM    4  C   UNL     1      -9.766   6.705  66.955  1.00  0.00    -0.157 A  
HETATM    5  N   UNL     1      -9.691   3.554  69.646  1.00  0.00    -0.112 NA 
HETATM    6  C   UNL     1      -9.951   6.971  68.322  1.00  0.00    -0.165 A  
HETATM    7  C   UNL     1      -9.695   4.618  68.841  1.00  0.00    -0.166 A  
HETATM    8  C   UNL     1      -9.893   3.789  70.938  1.00  0.00    -0.122 A  
HETATM    9  C   UNL     1      -9.919   5.929  69.286  1.00  0.00    -0.224 A  
HETATM   10  C   UNL     1      -9.469   4.382  67.497  1.00  0.00    -0.201 A  
HETATM   11  N   UNL     1     -10.082   4.985  71.491  1.00  0.00    -0.190 NA 
HETATM   12  C   UNL     1     -10.086   6.068  70.686  1.00  0.00    -0.194 A  
BRANCH   4  13
HETATM   13  N   UNL     1      -9.894   7.721  65.973  1.00  0.00    -0.431 N  
HETATM   14  H   UNL     1     -10.762   7.779  65.440  1.00  0.00     0.000 HD 
HETATM   15  C   UNL     1      -8.892   8.632  65.710  1.00  0.00    -0.193 C  
HETATM   16  O   UNL     1      -7.781   8.625  66.234  1.00  0.00    -0.095 OA 
BRANCH  15  17
HETATM   17  C   UNL     1      -9.299   9.741  64.795  1.00  0.00    -0.327 C  
HETATM   18  C   UNL     1     -10.210  10.621  65.249  1.00  0.00    -0.351 C  
BRANCH  18  19
HETATM   19  C   UNL     1     -10.889  11.704  64.460  1.00  0.00    -0.324 C  
BRANCH  19  20
HETATM   20  N   UNL     1     -12.012  12.378  65.130  1.00  0.00    -0.405 NA 
HETATM   21  C   UNL     1     -11.024  14.967  66.215  1.00  0.00    -0.338 C  
HETATM   22  C   UNL     1     -11.733  12.553  66.571  1.00  0.00    -0.391 C  
HETATM   23  C   UNL     1     -11.357  14.776  64.740  1.00  0.00    -0.399 C  
HETATM   24  C   UNL     1     -10.690  13.637  66.887  1.00  0.00    -0.275 C  
HETATM   25  C   UNL     1     -12.403  13.675  64.555  1.00  0.00    -0.356 C  
ENDBRANCH  19  20
ENDBRANCH  18  19
ENDBRANCH  15  17
ENDBRANCH   4  13
BRANCH  12  26
HETATM   26  N   UNL     1     -10.124   7.351  71.276  1.00  0.00    -0.189 NA 
HETATM   27  H   UNL     1      -9.245   7.645  71.702  1.00  0.00     0.000 HD 
BRANCH  26  28
HETATM   28  C   UNL     1     -11.168   8.296  71.379  1.00  0.00    -0.255 A  
HETATM   29  C   UNL     1     -11.014   9.532  70.727  1.00  0.00    -0.389 A  
HETATM   30  C   UNL     1     -11.914  10.581  70.951  1.00  0.00    -0.377 A  
HETATM   31  C   UNL     1     -13.179   9.190  72.451  1.00  0.00    -0.512 A  
HETATM   32  C   UNL     1     -12.279   8.146  72.224  1.00  0.00    -0.397 A  
HETATM   33  C   UNL     1     -12.981  10.411  71.827  1.00  0.00    -0.475 A  
HETATM   34  F   UNL     1     -13.824  11.418  72.095  1.00  0.00    -0.326 F  
HETATM   35 CL   UNL     1     -11.665  12.092  70.164  1.00  0.00    -0.362 Cl 
ENDBRANCH  26  28
ENDBRANCH  12  26
ENDBRANCH   2   3
TORSDOF 7
ENDMDL
MODEL       31
REMARK 921   NORMALIZED FREE ENERGY PREDICTED BY IDOCK:   -6.91 KCAL/MOL
REMARK 922        TOTAL FREE ENERGY PREDICTED BY IDOCK:  -10.66 KCAL/MOL
REMARK 923 INTER-LIGAND FREE ENERGY PREDICTED BY IDOCK:   -9.44 KCAL/MOL
REMARK 924 INTRA-LIGAND FREE ENERGY PREDICTED BY IDOCK:   -1.21 KCAL/MOL
REMARK 927      BINDING AFFINITY PREDICTED BY RF-SCORE:    0.00 PKD
ROOT
HETATM    1  C   UNL     1     -12.698  15.273  70.615  1.00  0.00    -0.416 C  
HETATM    2  O   UNL     1     -12.122  13.979  70.444  1.00  0.00    -0.313 OA 
ENDROOT
BRANCH   2   3
HETATM    3  C   UNL     1     -11.893  13.589  69.147  1.00  0.00    -0.340 A  
HETATM    4  C   UNL     1     -11.872  12.213  68.895  1.00  0.00    -0.304 A  
HETATM    5  N   UNL     1     -11.496  14.975  65.828  1.00  0.00    -0.289 NA 
HETATM    6  C   UNL     1     -11.626  11.755  67.591  1.00  0.00    -0.364 A  
HETATM    7  C   UNL     1     -11.573  14.034  66.771  1.00  0.00    -0.386 A  
HETATM    8  C   UNL     1     -11.292  14.552  64.585  1.00  0.00    -0.370 A  
HETATM    9  C   UNL     1     -11.474  12.660  66.508  1.00  0.00    -0.409 A  
HETATM   10  C   UNL     1     -11.770  14.469  68.069  1.00  0.00    -0.373 A  
HETATM   11  N   UNL     1     -11.145  13.284  64.210  1.00  0.00    -0.382 NA 
HETATM   12  C   UNL     1     -11.220  12.324  65.156  1.00  0.00    -0.324 A  
BRANCH   4  13
HETATM   13  N   UNL     1     -12.124  11.319  69.967  1.00  0.00    -0.333 N  
HETATM   14  H   UNL     1     -13.024  11.367  70.444  1.00  0.00     0.000 HD 
HETATM   15  C   UNL     1     -11.199  10.386  70.390  1.00  0.00    -0.321 C  
HETATM   16  O   UNL     1     -10.060  10.273  69.944  1.00  0.00    -0.237 OA 
BRANCH  15  17
HETATM   17  C   UNL     1     -11.731   9.407  71.385  1.00  0.00    -0.448 C  
HETATM   18  C   UNL     1     -10.839   8.688  72.091  1.00  0.00    -0.424 C  
BRANCH  18  19
HETATM   19  C   UNL     1     -11.135   7.540  73.013  1.00  0.00    -0.362 C  
BRANCH  19  20
HETATM   20  N   UNL     1      -9.970   6.755  73.454  1.00  0.00    -0.198 NA 
HETATM   21  C   UNL     1     -10.166   4.045  72.241  1.00  0.00    -0.227 C  
HETATM   22  C   UNL     1     -10.399   5.584  74.249  1.00  0.00    -0.271 C  
HETATM   23  C   UNL     1      -9.688   5.259  71.452  1.00  0.00    -0.219 C  
HETATM   24  C   UNL     1     -11.040   4.459  73.422  1.00  0.00    -0.394 C  
HETATM   25  C   UNL     1      -9.070   6.305  72.381  1.00  0.00    -0.138 C  
ENDBRANCH  19  20
ENDBRANCH  18  19
ENDBRANCH  15  17
ENDBRANCH   4  13
BRANCH  12  26
HETATM   26  N   UNL     1     -10.907  10.994  64.797  1.00  0.00    -0.230 NA 
HETATM   27  H   UNL     1     -11.608  10.539  64.213  1.00  0.00     0.000 HD 
BRANCH  26  28
HETATM   28  C   UNL     1      -9.791  10.186  65.107  1.00  0.00    -0.325 A  
HETATM   29  C   UNL     1      -9.915   9.248  66.147  1.00  0.00    -0.348 A  
HETATM   30  C   UNL     1      -8.797   8.561  66.633  1.00  0.00    -0.135 A  
HETATM   31  C   UNL     1      -7.396   9.686  65.035  1.00  0.00    -0.117 A  
HETATM   32  C   UNL     1      -8.514  10.369  64.552  1.00  0.00    -0.172 A  
HETATM   33  C   UNL     1      -7.540   8.798  66.088  1.00  0.00    -0.094 A  
HETATM   34  F   UNL     1      -6.449   8.188  66.573  1.00  0.00    -0.050 F  
HETATM   35 CL   UNL     1      -8.987   7.452  67.937  1.00  0.00    -0.132 Cl 
ENDBRANCH  26  28
ENDBRANCH  12  26
ENDBRANCH   2   3
TORSDOF 7
ENDMDL
MODEL       32
REMARK 921   NORMALIZED FREE ENERGY PREDICTED BY IDOCK:   -6.89 KCAL/MOL
REMARK 922        TOTAL FREE ENERGY PREDICTED BY IDOCK:  -10.62 KCAL/MOL
REMARK 923 INTER-LIGAND FREE ENERGY PREDICTED BY IDOCK:   -9.98 KCAL/MOL
REMARK 924 INTRA-LIGAND FREE ENERGY PREDICTED BY IDOCK:   -0.64 KCAL/MOL
REMARK 927      BINDING AFFINITY PREDICTED BY RF-SCORE:    0.00 PKD
ROOT
HETATM    1  C   UNL     1     -10.324  12.488  65.498  1.00  0.00    -0.280 C  
HETATM    2  O   UNL     1      -9.969  11.856  66.727  1.00  0.00    -0.193 OA 
ENDROOT
BRANCH   2   3
HETATM    3  C   UNL     1      -9.834  10.490  66.685  1.00  0.00    -0.199 A  
HETATM    4  C   UNL     1     -10.596   9.751  67.595  1.00  0.00    -0.276 A  
HETATM    5  N   UNL     1      -8.225   7.888  64.752  1.00  0.00    -0.137 NA 
HETATM    6  C   UNL     1     -10.486   8.351  67.610  1.00  0.00    -0.307 A  
HETATM    7  C   UNL     1      -8.978   8.423  65.715  1.00  0.00    -0.159 A  
HETATM    8  C   UNL     1      -8.136   6.563  64.738  1.00  0.00    -0.112 A  
HETATM    9  C   UNL     1      -9.675   7.665  66.668  1.00  0.00    -0.283 A  
HETATM   10  C   UNL     1      -9.061   9.803  65.745  1.00  0.00    -0.221 A  
HETATM   11  N   UNL     1      -8.717   5.735  65.603  1.00  0.00    -0.151 NA 
HETATM   12  C   UNL     1      -9.480   6.265  66.582  1.00  0.00    -0.152 A  
BRANCH   4  13
HETATM   13  N   UNL     1     -11.478  10.441  68.466  1.00  0.00    -0.488 N  
HETATM   14  H   UNL     1     -12.262  10.955  68.062  1.00  0.00     0.000 HD 
HETATM   15  C   UNL     1     -11.319  10.444  69.836  1.00  0.00    -0.302 C  
HETATM   16  O   UNL     1     -10.383   9.922  70.436  1.00  0.00    -0.273 OA 
BRANCH  15  17
HETATM   17  C   UNL     1     -12.463  11.048  70.583  1.00  0.00    -0.465 C  
HETATM   18  C   UNL     1     -12.465  12.384  70.747  1.00  0.00    -0.356 C  
BRANCH  18  19
HETATM   19  C   UNL     1     -13.410  13.186  71.596  1.00  0.00    -0.308 C  
BRANCH  19  20
HETATM   20  N   UNL     1     -13.708  14.545  71.116  1.00  0.00    -0.333 NA 
HETATM   21  C   UNL     1     -12.041  16.462  72.665  1.00  0.00    -0.554 C  
HETATM   22  C   UNL     1     -14.286  15.368  72.199  1.00  0.00    -0.565 C  
HETATM   23  C   UNL     1     -11.476  15.633  71.516  1.00  0.00    -0.494 C  
HETATM   24  C   UNL     1     -13.275  15.801  73.273  1.00  0.00    -0.687 C  
HETATM   25  C   UNL     1     -12.574  15.266  70.517  1.00  0.00    -0.399 C  
ENDBRANCH  19  20
ENDBRANCH  18  19
ENDBRANCH  15  17
ENDBRANCH   4  13
BRANCH  12  26
HETATM   26  N   UNL     1      -9.968   5.413  67.597  1.00  0.00    -0.150 NA 
HETATM   27  H   UNL     1     -10.270   4.496  67.268  1.00  0.00     0.000 HD 
BRANCH  26  28
HETATM   28  C   UNL     1     -10.111   5.610  68.987  1.00  0.00    -0.195 A  
HETATM   29  C   UNL     1     -11.331   6.120  69.467  1.00  0.00    -0.426 A  
HETATM   30  C   UNL     1     -11.468   6.523  70.800  1.00  0.00    -0.360 A  
HETATM   31  C   UNL     1      -9.191   5.886  71.239  1.00  0.00    -0.155 A  
HETATM   32  C   UNL     1      -9.059   5.484  69.908  1.00  0.00    -0.159 A  
HETATM   33  C   UNL     1     -10.391   6.423  71.674  1.00  0.00    -0.205 A  
HETATM   34  F   UNL     1     -10.486   6.851  72.941  1.00  0.00    -0.201 F  
HETATM   35 CL   UNL     1     -12.967   7.181  71.335  1.00  0.00    -0.434 Cl 
ENDBRANCH  26  28
ENDBRANCH  12  26
ENDBRANCH   2   3
TORSDOF 7
ENDMDL
MODEL       33
REMARK 921   NORMALIZED FREE ENERGY PREDICTED BY IDOCK:   -6.88 KCAL/MOL
REMARK 922        TOTAL FREE ENERGY PREDICTED BY IDOCK:  -10.61 KCAL/MOL
REMARK 923 INTER-LIGAND FREE ENERGY PREDICTED BY IDOCK:   -9.63 KCAL/MOL
REMARK 924 INTRA-LIGAND FREE ENERGY PREDICTED BY IDOCK:   -0.98 KCAL/MOL
REMARK 927      BINDING AFFINITY PREDICTED BY RF-SCORE:    0.00 PKD
ROOT
HETATM    1  C   UNL     1     -13.956   8.801  72.426  1.00  0.00    -0.416 C  
HETATM    2  O   UNL     1     -12.643   9.196  72.033  1.00  0.00    -0.350 OA 
ENDROOT
BRANCH   2   3
HETATM    3  C   UNL     1     -12.520  10.471  71.536  1.00  0.00    -0.387 A  
HETATM    4  C   UNL     1     -11.722  10.632  70.400  1.00  0.00    -0.353 A  
HETATM    5  N   UNL     1     -13.808  13.814  72.042  1.00  0.00    -0.467 NA 
HETATM    6  C   UNL     1     -11.547  11.915  69.857  1.00  0.00    -0.333 A  
HETATM    7  C   UNL     1     -13.081  12.843  71.486  1.00  0.00    -0.298 A  
HETATM    8  C   UNL     1     -13.673  15.028  71.519  1.00  0.00    -0.468 A  
HETATM    9  C   UNL     1     -12.226  13.041  70.393  1.00  0.00    -0.386 A  
HETATM   10  C   UNL     1     -13.206  11.581  72.037  1.00  0.00    -0.443 A  
HETATM   11  N   UNL     1     -12.871  15.354  70.508  1.00  0.00    -0.413 NA 
HETATM   12  C   UNL     1     -12.130  14.380  69.939  1.00  0.00    -0.344 A  
BRANCH   4  13
HETATM   13  N   UNL     1     -11.128   9.485  69.814  1.00  0.00    -0.327 N  
HETATM   14  H   UNL     1     -11.628   9.002  69.068  1.00  0.00     0.000 HD 
HETATM   15  C   UNL     1      -9.900   8.997  70.213  1.00  0.00    -0.194 C  
HETATM   16  O   UNL     1      -9.233   9.448  71.141  1.00  0.00    -0.230 OA 
BRANCH  15  17
HETATM   17  C   UNL     1      -9.358   7.916  69.336  1.00  0.00    -0.152 C  
HETATM   18  C   UNL     1      -9.781   7.878  68.059  1.00  0.00    -0.182 C  
BRANCH  18  19
HETATM   19  C   UNL     1      -9.509   6.797  67.052  1.00  0.00    -0.146 C  
BRANCH  19  20
HETATM   20  N   UNL     1     -10.258   5.544  67.237  1.00  0.00    -0.189 NA 
HETATM   21  C   UNL     1      -8.617   3.313  66.149  1.00  0.00    -0.121 C  
HETATM   22  C   UNL     1     -10.570   4.923  65.933  1.00  0.00    -0.230 C  
HETATM   23  C   UNL     1      -8.339   3.941  67.510  1.00  0.00    -0.096 C  
HETATM   24  C   UNL     1      -9.363   4.280  65.233  1.00  0.00    -0.165 C  
HETATM   25  C   UNL     1      -9.613   4.544  68.104  1.00  0.00    -0.146 C  
ENDBRANCH  19  20
ENDBRANCH  18  19
ENDBRANCH  15  17
ENDBRANCH   4  13
BRANCH  12  26
HETATM   26  N   UNL     1     -11.161  14.740  68.977  1.00  0.00    -0.255 NA 
HETATM   27  H   UNL     1     -11.020  14.047  68.241  1.00  0.00     0.000 HD 
BRANCH  26  28
HETATM   28  C   UNL     1     -10.354  15.892  68.857  1.00  0.00    -0.228 A  
HETATM   29  C   UNL     1     -10.904  17.030  68.240  1.00  0.00    -0.341 A  
HETATM   30  C   UNL     1     -10.101  18.129  67.913  1.00  0.00    -0.357 A  
HETATM   31  C   UNL     1      -8.180  17.019  68.841  1.00  0.00    -0.204 A  
HETATM   32  C   UNL     1      -8.985  15.924  69.166  1.00  0.00    -0.256 A  
HETATM   33  C   UNL     1      -8.740  18.110  68.196  1.00  0.00    -0.277 A  
HETATM   34  F   UNL     1      -7.945  19.130  67.845  1.00  0.00    -0.280 F  
HETATM   35 CL   UNL     1     -10.807  19.485  67.121  1.00  0.00    -0.596 Cl 
ENDBRANCH  26  28
ENDBRANCH  12  26
ENDBRANCH   2   3
TORSDOF 7
ENDMDL
MODEL       34
REMARK 921   NORMALIZED FREE ENERGY PREDICTED BY IDOCK:   -6.88 KCAL/MOL
REMARK 922        TOTAL FREE ENERGY PREDICTED BY IDOCK:  -10.61 KCAL/MOL
REMARK 923 INTER-LIGAND FREE ENERGY PREDICTED BY IDOCK:   -9.50 KCAL/MOL
REMARK 924 INTRA-LIGAND FREE ENERGY PREDICTED BY IDOCK:   -1.11 KCAL/MOL
REMARK 927      BINDING AFFINITY PREDICTED BY RF-SCORE:    0.00 PKD
ROOT
HETATM    1  C   UNL     1     -12.646  11.997  63.327  1.00  0.00    -0.385 C  
HETATM    2  O   UNL     1     -11.287  12.409  63.468  1.00  0.00    -0.438 OA 
ENDROOT
BRANCH   2   3
HETATM    3  C   UNL     1     -10.440  11.503  64.057  1.00  0.00    -0.370 A  
HETATM    4  C   UNL     1     -10.353  11.532  65.452  1.00  0.00    -0.273 A  
HETATM    5  N   UNL     1      -8.332   8.682  63.224  1.00  0.00    -0.168 NA 
HETATM    6  C   UNL     1      -9.491  10.639  66.108  1.00  0.00    -0.218 A  
HETATM    7  C   UNL     1      -8.924   9.593  63.998  1.00  0.00    -0.223 A  
HETATM    8  C   UNL     1      -7.536   7.813  63.837  1.00  0.00    -0.107 A  
HETATM    9  C   UNL     1      -8.764   9.654  65.390  1.00  0.00    -0.183 A  
HETATM   10  C   UNL     1      -9.742  10.511  63.363  1.00  0.00    -0.368 A  
HETATM   11  N   UNL     1      -7.272   7.786  65.142  1.00  0.00    -0.063 NA 
HETATM   12  C   UNL     1      -7.865   8.704  65.933  1.00  0.00    -0.102 A  
BRANCH   4  13
HETATM   13  N   UNL     1     -11.160  12.454  66.167  1.00  0.00    -0.289 N  
HETATM   14  H   UNL     1     -12.059  12.139  66.531  1.00  0.00     0.000 HD 
HETATM   15  C   UNL     1     -10.776  13.761  66.391  1.00  0.00    -0.281 C  
HETATM   16  O   UNL     1      -9.752  14.277  65.951  1.00  0.00    -0.303 OA 
BRANCH  15  17
HETATM   17  C   UNL     1     -11.662  14.504  67.337  1.00  0.00    -0.425 C  
HETATM   18  C   UNL     1     -11.168  14.798  68.554  1.00  0.00    -0.291 C  
BRANCH  18  19
HETATM   19  C   UNL     1     -11.921  15.382  69.715  1.00  0.00    -0.358 C  
BRANCH  19  20
HETATM   20  N   UNL     1     -12.032  14.522  70.904  1.00  0.00    -0.315 NA 
HETATM   21  C   UNL     1     -13.672  15.953  72.933  1.00  0.00    -0.588 C  
HETATM   22  C   UNL     1     -11.411  15.170  72.079  1.00  0.00    -0.364 C  
HETATM   23  C   UNL     1     -14.294  15.242  71.736  1.00  0.00    -0.678 C  
HETATM   24  C   UNL     1     -12.222  16.341  72.657  1.00  0.00    -0.581 C  
HETATM   25  C   UNL     1     -13.398  14.101  71.254  1.00  0.00    -0.302 C  
ENDBRANCH  19  20
ENDBRANCH  18  19
ENDBRANCH  15  17
ENDBRANCH   4  13
BRANCH  12  26
HETATM   26  N   UNL     1      -7.471   8.786  67.287  1.00  0.00    -0.088 NA 
HETATM   27  H   UNL     1      -6.512   9.105  67.428  1.00  0.00     0.000 HD 
BRANCH  26  28
HETATM   28  C   UNL     1      -8.173   8.504  68.479  1.00  0.00    -0.123 A  
HETATM   29  C   UNL     1      -9.136   7.480  68.459  1.00  0.00    -0.134 A  
HETATM   30  C   UNL     1     -10.001   7.284  69.542  1.00  0.00    -0.170 A  
HETATM   31  C   UNL     1      -8.951   9.097  70.723  1.00  0.00    -0.296 A  
HETATM   32  C   UNL     1      -8.089   9.289  69.640  1.00  0.00    -0.116 A  
HETATM   33  C   UNL     1      -9.918   8.107  70.660  1.00  0.00    -0.189 A  
HETATM   34  F   UNL     1     -10.769   7.969  71.686  1.00  0.00    -0.239 F  
HETATM   35 CL   UNL     1     -11.193   6.044  69.459  1.00  0.00    -0.474 Cl 
ENDBRANCH  26  28
ENDBRANCH  12  26
ENDBRANCH   2   3
TORSDOF 7
ENDMDL
MODEL       35
REMARK 921   NORMALIZED FREE ENERGY PREDICTED BY IDOCK:   -6.87 KCAL/MOL
REMARK 922        TOTAL FREE ENERGY PREDICTED BY IDOCK:  -10.60 KCAL/MOL
REMARK 923 INTER-LIGAND FREE ENERGY PREDICTED BY IDOCK:   -9.95 KCAL/MOL
REMARK 924 INTRA-LIGAND FREE ENERGY PREDICTED BY IDOCK:   -0.65 KCAL/MOL
REMARK 927      BINDING AFFINITY PREDICTED BY RF-SCORE:    0.00 PKD
ROOT
HETATM    1  C   UNL     1     -14.397   8.699  72.266  1.00  0.00    -0.396 C  
HETATM    2  O   UNL     1     -13.306   9.483  72.747  1.00  0.00    -0.263 OA 
ENDROOT
BRANCH   2   3
HETATM    3  C   UNL     1     -13.012  10.614  72.025  1.00  0.00    -0.361 A  
HETATM    4  C   UNL     1     -12.222  10.446  70.883  1.00  0.00    -0.383 A  
HETATM    5  N   UNL     1     -13.793  14.145  71.898  1.00  0.00    -0.421 NA 
HETATM    6  C   UNL     1     -11.875  11.569  70.114  1.00  0.00    -0.440 A  
HETATM    7  C   UNL     1     -13.226  12.993  71.535  1.00  0.00    -0.272 A  
HETATM    8  C   UNL     1     -13.495  15.209  71.161  1.00  0.00    -0.465 A  
HETATM    9  C   UNL     1     -12.374  12.861  70.429  1.00  0.00    -0.333 A  
HETATM   10  C   UNL     1     -13.519  11.884  72.309  1.00  0.00    -0.187 A  
HETATM   11  N   UNL     1     -12.676  15.224  70.112  1.00  0.00    -0.290 NA 
HETATM   12  C   UNL     1     -12.096  14.065  69.737  1.00  0.00    -0.348 A  
BRANCH   4  13
HETATM   13  N   UNL     1     -11.812   9.137  70.522  1.00  0.00    -0.451 N  
HETATM   14  H   UNL     1     -12.399   8.598  69.887  1.00  0.00     0.000 HD 
HETATM   15  C   UNL     1     -10.649   8.565  70.997  1.00  0.00    -0.216 C  
HETATM   16  O   UNL     1      -9.894   9.083  71.816  1.00  0.00    -0.310 OA 
BRANCH  15  17
HETATM   17  C   UNL     1     -10.292   7.272  70.339  1.00  0.00    -0.217 C  
HETATM   18  C   UNL     1     -10.581   6.135  70.999  1.00  0.00    -0.301 C  
BRANCH  18  19
HETATM   19  C   UNL     1     -10.169   4.742  70.617  1.00  0.00    -0.180 C  
BRANCH  19  20
HETATM   20  N   UNL     1      -9.205   4.089  71.518  1.00  0.00    -0.120 NA 
HETATM   21  C   UNL     1     -10.717   2.903  73.790  1.00  0.00    -0.285 C  
HETATM   22  C   UNL     1      -9.220   4.728  72.851  1.00  0.00    -0.124 C  
HETATM   23  C   UNL     1     -10.655   2.241  72.418  1.00  0.00    -0.076 C  
HETATM   24  C   UNL     1     -10.464   4.405  73.694  1.00  0.00    -0.276 C  
HETATM   25  C   UNL     1      -9.376   2.636  71.679  1.00  0.00    -0.124 C  
ENDBRANCH  19  20
ENDBRANCH  18  19
ENDBRANCH  15  17
ENDBRANCH   4  13
BRANCH  12  26
HETATM   26  N   UNL     1     -11.106  14.098  68.730  1.00  0.00    -0.251 NA 
HETATM   27  H   UNL     1     -10.179  14.370  69.060  1.00  0.00     0.000 HD 
BRANCH  26  28
HETATM   28  C   UNL     1     -11.175  13.820  67.348  1.00  0.00    -0.310 A  
HETATM   29  C   UNL     1     -11.248  14.901  66.453  1.00  0.00    -0.331 A  
HETATM   30  C   UNL     1     -11.518  14.695  65.095  1.00  0.00    -0.375 A  
HETATM   31  C   UNL     1     -11.609  12.320  65.462  1.00  0.00    -0.422 A  
HETATM   32  C   UNL     1     -11.339  12.530  66.817  1.00  0.00    -0.390 A  
HETATM   33  C   UNL     1     -11.717  13.407  64.610  1.00  0.00    -0.372 A  
HETATM   34  F   UNL     1     -12.027  13.192  63.324  1.00  0.00    -0.558 F  
HETATM   35 CL   UNL     1     -11.641  16.052  64.042  1.00  0.00    -0.100 Cl 
ENDBRANCH  26  28
ENDBRANCH  12  26
ENDBRANCH   2   3
TORSDOF 7
ENDMDL
MODEL       36
REMARK 921   NORMALIZED FREE ENERGY PREDICTED BY IDOCK:   -6.87 KCAL/MOL
REMARK 922        TOTAL FREE ENERGY PREDICTED BY IDOCK:  -10.59 KCAL/MOL
REMARK 923 INTER-LIGAND FREE ENERGY PREDICTED BY IDOCK:   -9.67 KCAL/MOL
REMARK 924 INTRA-LIGAND FREE ENERGY PREDICTED BY IDOCK:   -0.93 KCAL/MOL
REMARK 927      BINDING AFFINITY PREDICTED BY RF-SCORE:    0.00 PKD
ROOT
HETATM    1  C   UNL     1      -8.094   8.887  63.984  1.00  0.00    -0.161 C  
HETATM    2  O   UNL     1      -9.053   8.713  65.027  1.00  0.00    -0.087 OA 
ENDROOT
BRANCH   2   3
HETATM    3  C   UNL     1      -9.727   9.843  65.420  1.00  0.00    -0.306 A  
HETATM    4  C   UNL     1     -10.010   9.968  66.783  1.00  0.00    -0.210 A  
HETATM    5  N   UNL     1     -10.954  12.981  64.099  1.00  0.00    -0.393 NA 
HETATM    6  C   UNL     1     -10.711  11.095  67.242  1.00  0.00    -0.304 A  
HETATM    7  C   UNL     1     -10.712  12.036  65.009  1.00  0.00    -0.296 A  
HETATM    8  C   UNL     1     -11.592  14.065  64.526  1.00  0.00    -0.391 A  
HETATM    9  C   UNL     1     -11.072  12.148  66.360  1.00  0.00    -0.358 A  
HETATM   10  C   UNL     1     -10.062  10.898  64.566  1.00  0.00    -0.404 A  
HETATM   11  N   UNL     1     -12.018  14.277  65.769  1.00  0.00    -0.387 NA 
HETATM   12  C   UNL     1     -11.779  13.327  66.698  1.00  0.00    -0.377 A  
BRANCH   4  13
HETATM   13  N   UNL     1      -9.557   8.958  67.670  1.00  0.00    -0.144 N  
HETATM   14  H   UNL     1      -8.753   9.154  68.266  1.00  0.00     0.000 HD 
HETATM   15  C   UNL     1     -10.162   7.721  67.759  1.00  0.00    -0.212 C  
HETATM   16  O   UNL     1     -11.092   7.341  67.052  1.00  0.00    -0.308 OA 
BRANCH  15  17
HETATM   17  C   UNL     1      -9.670   6.881  68.893  1.00  0.00    -0.142 C  
HETATM   18  C   UNL     1      -8.974   7.494  69.867  1.00  0.00    -0.141 C  
BRANCH  18  19
HETATM   19  C   UNL     1      -8.245   6.836  71.004  1.00  0.00    -0.119 C  
BRANCH  19  20
HETATM   20  N   UNL     1      -8.158   7.618  72.248  1.00  0.00    -0.102 NA 
HETATM   21  C   UNL     1     -10.137   6.516  74.177  1.00  0.00    -0.374 C  
HETATM   22  C   UNL     1      -9.435   8.311  72.521  1.00  0.00    -0.286 C  
HETATM   23  C   UNL     1      -8.797   5.841  73.909  1.00  0.00    -0.126 C  
HETATM   24  C   UNL     1     -10.566   7.386  72.998  1.00  0.00    -0.392 C  
HETATM   25  C   UNL     1      -7.756   6.860  73.443  1.00  0.00    -0.090 C  
ENDBRANCH  19  20
ENDBRANCH  18  19
ENDBRANCH  15  17
ENDBRANCH   4  13
BRANCH  12  26
HETATM   26  N   UNL     1     -12.364  13.468  67.976  1.00  0.00    -0.253 NA 
HETATM   27  H   UNL     1     -13.194  12.894  68.125  1.00  0.00     0.000 HD 
BRANCH  26  28
HETATM   28  C   UNL     1     -12.000  14.265  69.083  1.00  0.00    -0.335 A  
HETATM   29  C   UNL     1     -12.524  13.934  70.344  1.00  0.00    -0.404 A  
HETATM   30  C   UNL     1     -12.364  14.793  71.438  1.00  0.00    -0.337 A  
HETATM   31  C   UNL     1     -11.116  16.325  70.067  1.00  0.00    -0.351 A  
HETATM   32  C   UNL     1     -11.277  15.465  68.978  1.00  0.00    -0.295 A  
HETATM   33  C   UNL     1     -11.678  15.994  71.289  1.00  0.00    -0.461 A  
HETATM   34  F   UNL     1     -11.557  16.854  72.310  1.00  0.00    -0.514 F  
HETATM   35 CL   UNL     1     -13.057  14.368  72.956  1.00  0.00    -0.608 Cl 
ENDBRANCH  26  28
ENDBRANCH  12  26
ENDBRANCH   2   3
TORSDOF 7
ENDMDL
MODEL       37
REMARK 921   NORMALIZED FREE ENERGY PREDICTED BY IDOCK:   -6.85 KCAL/MOL
REMARK 922        TOTAL FREE ENERGY PREDICTED BY IDOCK:  -10.57 KCAL/MOL
REMARK 923 INTER-LIGAND FREE ENERGY PREDICTED BY IDOCK:   -9.37 KCAL/MOL
REMARK 924 INTRA-LIGAND FREE ENERGY PREDICTED BY IDOCK:   -1.20 KCAL/MOL
REMARK 927      BINDING AFFINITY PREDICTED BY RF-SCORE:    0.00 PKD
ROOT
HETATM    1  C   UNL     1     -11.008   9.746  67.289  1.00  0.00    -0.072 C  
HETATM    2  O   UNL     1     -11.457  10.935  67.937  1.00  0.00    -0.412 OA 
ENDROOT
BRANCH   2   3
HETATM    3  C   UNL     1     -11.216  12.112  67.271  1.00  0.00    -0.306 A  
HETATM    4  C   UNL     1     -10.025  12.778  67.574  1.00  0.00    -0.210 A  
HETATM    5  N   UNL     1     -12.588  14.171  64.631  1.00  0.00    -0.667 NA 
HETATM    6  C   UNL     1      -9.733  13.994  66.936  1.00  0.00    -0.272 A  
HETATM    7  C   UNL     1     -11.738  13.800  65.590  1.00  0.00    -0.347 A  
HETATM    8  C   UNL     1     -12.307  15.306  63.999  1.00  0.00     0.071 A  
HETATM    9  C   UNL     1     -10.586  14.523  65.932  1.00  0.00    -0.315 A  
HETATM   10  C   UNL     1     -12.034  12.627  66.262  1.00  0.00    -0.439 A  
HETATM   11  N   UNL     1     -11.269  16.101  64.252  1.00  0.00    -0.692 NA 
HETATM   12  C   UNL     1     -10.405  15.734  65.221  1.00  0.00    -0.357 A  
BRANCH   4  13
HETATM   13  N   UNL     1      -9.131  12.189  68.506  1.00  0.00    -0.345 N  
HETATM   14  H   UNL     1      -9.367  12.221  69.498  1.00  0.00     0.000 HD 
HETATM   15  C   UNL     1      -7.956  11.576  68.124  1.00  0.00    -0.136 C  
HETATM   16  O   UNL     1      -7.529  11.530  66.973  1.00  0.00    -0.137 OA 
BRANCH  15  17
HETATM   17  C   UNL     1      -7.265  10.840  69.225  1.00  0.00    -0.122 C  
HETATM   18  C   UNL     1      -7.876   9.751  69.727  1.00  0.00    -0.159 C  
BRANCH  18  19
HETATM   19  C   UNL     1      -7.459   8.961  70.934  1.00  0.00    -0.102 C  
BRANCH  19  20
HETATM   20  N   UNL     1      -8.104   7.647  71.095  1.00  0.00    -0.097 NA 
HETATM   21  C   UNL     1     -10.316   7.935  73.064  1.00  0.00    -0.401 C  
HETATM   22  C   UNL     1      -7.966   7.163  72.485  1.00  0.00    -0.096 C  
HETATM   23  C   UNL     1     -10.450   8.390  71.615  1.00  0.00    -0.321 C  
HETATM   24  C   UNL     1      -8.854   7.897  73.502  1.00  0.00    -0.333 C  
HETATM   25  C   UNL     1      -9.521   7.588  70.703  1.00  0.00    -0.164 C  
ENDBRANCH  19  20
ENDBRANCH  18  19
ENDBRANCH  15  17
ENDBRANCH   4  13
BRANCH  12  26
HETATM   26  N   UNL     1      -9.395  16.644  65.606  1.00  0.00    -0.476 NA 
HETATM   27  H   UNL     1      -8.519  16.542  65.094  1.00  0.00     0.000 HD 
BRANCH  26  28
HETATM   28  C   UNL     1      -9.388  17.668  66.578  1.00  0.00    -0.272 A  
HETATM   29  C   UNL     1      -8.209  17.881  67.313  1.00  0.00    -0.225 A  
HETATM   30  C   UNL     1      -8.195  18.739  68.419  1.00  0.00    -0.341 A  
HETATM   31  C   UNL     1     -10.523  19.238  68.075  1.00  0.00    -0.488 A  
HETATM   32  C   UNL     1     -10.531  18.381  66.971  1.00  0.00    -0.429 A  
HETATM   33  C   UNL     1      -9.357  19.397  68.806  1.00  0.00    -0.387 A  
HETATM   34  F   UNL     1      -9.379  20.184  69.892  1.00  0.00    -0.004 F  
HETATM   35 CL   UNL     1      -6.740  18.939  69.317  1.00  0.00    -0.321 Cl 
ENDBRANCH  26  28
ENDBRANCH  12  26
ENDBRANCH   2   3
TORSDOF 7
ENDMDL
MODEL       38
REMARK 921   NORMALIZED FREE ENERGY PREDICTED BY IDOCK:   -6.83 KCAL/MOL
REMARK 922        TOTAL FREE ENERGY PREDICTED BY IDOCK:  -10.54 KCAL/MOL
REMARK 923 INTER-LIGAND FREE ENERGY PREDICTED BY IDOCK:   -9.43 KCAL/MOL
REMARK 924 INTRA-LIGAND FREE ENERGY PREDICTED BY IDOCK:   -1.11 KCAL/MOL
REMARK 927      BINDING AFFINITY PREDICTED BY RF-SCORE:    0.00 PKD
ROOT
HETATM    1  C   UNL     1     -11.483   7.589  72.981  1.00  0.00    -0.197 C  
HETATM    2  O   UNL     1     -12.569   7.995  72.149  1.00  0.00    -0.313 OA 
ENDROOT
BRANCH   2   3
HETATM    3  C   UNL     1     -12.455   9.236  71.572  1.00  0.00    -0.355 A  
HETATM    4  C   UNL     1     -11.898   9.288  70.290  1.00  0.00     0.024 A  
HETATM    5  N   UNL     1     -13.352  12.693  72.152  1.00  0.00    -0.523 NA 
HETATM    6  C   UNL     1     -11.741  10.531  69.657  1.00  0.00    -0.328 A  
HETATM    7  C   UNL     1     -12.832  11.644  71.512  1.00  0.00    -0.364 A  
HETATM    8  C   UNL     1     -13.235  13.872  71.549  1.00  0.00    -0.352 A  
HETATM    9  C   UNL     1     -12.208  11.730  70.259  1.00  0.00    -0.381 A  
HETATM   10  C   UNL     1     -12.936  10.417  72.142  1.00  0.00    -0.393 A  
HETATM   11  N   UNL     1     -12.637  14.092  70.381  1.00  0.00    -0.331 NA 
HETATM   12  C   UNL     1     -12.106  13.038  69.726  1.00  0.00    -0.258 A  
BRANCH   4  13
HETATM   13  N   UNL     1     -11.526   8.074  69.657  1.00  0.00    -0.380 N  
HETATM   14  H   UNL     1     -12.255   7.500  69.233  1.00  0.00     0.000 HD 
HETATM   15  C   UNL     1     -10.218   7.639  69.592  1.00  0.00    -0.204 C  
HETATM   16  O   UNL     1      -9.263   8.204  70.120  1.00  0.00    -0.153 OA 
BRANCH  15  17
HETATM   17  C   UNL     1     -10.012   6.453  68.708  1.00  0.00    -0.165 C  
HETATM   18  C   UNL     1     -10.352   6.576  67.411  1.00  0.00    -0.263 C  
BRANCH  18  19
HETATM   19  C   UNL     1     -10.393   5.481  66.383  1.00  0.00    -0.219 C  
BRANCH  19  20
HETATM   20  N   UNL     1      -9.116   5.180  65.716  1.00  0.00    -0.154 NA 
HETATM   21  C   UNL     1      -8.720   2.231  65.759  1.00  0.00    -0.119 C  
HETATM   22  C   UNL     1      -8.171   4.543  66.658  1.00  0.00    -0.102 C  
HETATM   23  C   UNL     1      -9.658   2.913  64.770  1.00  0.00    -0.104 C  
HETATM   24  C   UNL     1      -8.511   3.086  67.007  1.00  0.00    -0.101 C  
HETATM   25  C   UNL     1      -9.216   4.353  64.503  1.00  0.00    -0.153 C  
ENDBRANCH  19  20
ENDBRANCH  18  19
ENDBRANCH  15  17
ENDBRANCH   4  13
BRANCH  12  26
HETATM   26  N   UNL     1     -11.331  13.279  68.570  1.00  0.00    -0.264 NA 
HETATM   27  H   UNL     1     -10.369  13.562  68.758  1.00  0.00     0.000 HD 
BRANCH  26  28
HETATM   28  C   UNL     1     -11.657  13.199  67.198  1.00  0.00    -0.361 A  
HETATM   29  C   UNL     1     -11.112  12.145  66.444  1.00  0.00    -0.358 A  
HETATM   30  C   UNL     1     -11.233  12.120  65.050  1.00  0.00    -0.322 A  
HETATM   31  C   UNL     1     -12.483  14.174  65.110  1.00  0.00    -0.453 A  
HETATM   32  C   UNL     1     -12.361  14.195  66.502  1.00  0.00    -0.405 A  
HETATM   33  C   UNL     1     -11.900  13.145  64.388  1.00  0.00    -0.388 A  
HETATM   34  F   UNL     1     -11.984  13.167  63.050  1.00  0.00    -0.595 F  
HETATM   35 CL   UNL     1     -10.514  10.833  64.161  1.00  0.00    -0.400 Cl 
ENDBRANCH  26  28
ENDBRANCH  12  26
ENDBRANCH   2   3
TORSDOF 7
ENDMDL
MODEL       39
REMARK 921   NORMALIZED FREE ENERGY PREDICTED BY IDOCK:   -6.81 KCAL/MOL
REMARK 922        TOTAL FREE ENERGY PREDICTED BY IDOCK:  -10.51 KCAL/MOL
REMARK 923 INTER-LIGAND FREE ENERGY PREDICTED BY IDOCK:  -10.05 KCAL/MOL
REMARK 924 INTRA-LIGAND FREE ENERGY PREDICTED BY IDOCK:   -0.46 KCAL/MOL
REMARK 927      BINDING AFFINITY PREDICTED BY RF-SCORE:    0.00 PKD
ROOT
HETATM    1  C   UNL     1     -14.020  15.239  71.400  1.00  0.00    -0.508 C  
HETATM    2  O   UNL     1     -12.623  14.960  71.480  1.00  0.00    -0.293 OA 
ENDROOT
BRANCH   2   3
HETATM    3  C   UNL     1     -11.931  15.006  70.295  1.00  0.00    -0.315 A  
HETATM    4  C   UNL     1     -11.506  13.785  69.763  1.00  0.00    -0.199 A  
HETATM    5  N   UNL     1     -10.906  17.348  67.734  1.00  0.00    -0.327 NA 
HETATM    6  C   UNL     1     -10.780  13.772  68.561  1.00  0.00    -0.274 A  
HETATM    7  C   UNL     1     -11.033  16.171  68.350  1.00  0.00    -0.341 A  
HETATM    8  C   UNL     1     -10.245  17.344  66.581  1.00  0.00    -0.324 A  
HETATM    9  C   UNL     1     -10.533  14.966  67.835  1.00  0.00    -0.250 A  
HETATM   10  C   UNL     1     -11.707  16.172  69.558  1.00  0.00    -0.198 A  
HETATM   11  N   UNL     1      -9.693  16.279  66.005  1.00  0.00    -0.325 NA 
HETATM   12  C   UNL     1      -9.814  15.084  66.621  1.00  0.00    -0.254 A  
BRANCH   4  13
HETATM   13  N   UNL     1     -11.845  12.588  70.445  1.00  0.00    -0.550 N  
HETATM   14  H   UNL     1     -11.802  12.577  71.464  1.00  0.00     0.000 HD 
HETATM   15  C   UNL     1     -12.230  11.439  69.785  1.00  0.00    -0.265 C  
HETATM   16  O   UNL     1     -12.257  11.306  68.564  1.00  0.00    -0.588 OA 
BRANCH  15  17
HETATM   17  C   UNL     1     -12.743  10.362  70.683  1.00  0.00    -0.417 C  
HETATM   18  C   UNL     1     -11.842   9.665  71.399  1.00  0.00    -0.484 C  
BRANCH  18  19
HETATM   19  C   UNL     1     -12.103   8.440  72.230  1.00  0.00    -0.392 C  
BRANCH  19  20
HETATM   20  N   UNL     1     -10.935   7.876  72.925  1.00  0.00    -0.400 NA 
HETATM   21  C   UNL     1      -9.451   6.158  71.002  1.00  0.00    -0.187 C  
HETATM   22  C   UNL     1     -11.022   6.402  72.984  1.00  0.00    -0.238 C  
HETATM   23  C   UNL     1      -9.344   7.678  70.987  1.00  0.00    -0.156 C  
HETATM   24  C   UNL     1     -10.759   5.699  71.643  1.00  0.00    -0.313 C  
HETATM   25  C   UNL     1      -9.626   8.259  72.374  1.00  0.00    -0.294 C  
ENDBRANCH  19  20
ENDBRANCH  18  19
ENDBRANCH  15  17
ENDBRANCH   4  13
BRANCH  12  26
HETATM   26  N   UNL     1      -9.099  13.980  66.105  1.00  0.00    -0.495 NA 
HETATM   27  H   UNL     1      -8.206  14.221  65.674  1.00  0.00     0.000 HD 
BRANCH  26  28
HETATM   28  C   UNL     1      -9.406  12.603  66.081  1.00  0.00    -0.112 A  
HETATM   29  C   UNL     1      -8.676  11.742  66.920  1.00  0.00    -0.189 A  
HETATM   30  C   UNL     1      -8.791  10.352  66.801  1.00  0.00    -0.130 A  
HETATM   31  C   UNL     1     -10.400  10.625  65.034  1.00  0.00    -0.341 A  
HETATM   32  C   UNL     1     -10.282  12.012  65.156  1.00  0.00    -0.308 A  
HETATM   33  C   UNL     1      -9.637   9.801  65.845  1.00  0.00    -0.250 A  
HETATM   34  F   UNL     1      -9.725   8.473  65.681  1.00  0.00    -0.238 F  
HETATM   35 CL   UNL     1      -7.848   9.335  67.821  1.00  0.00    -0.092 Cl 
ENDBRANCH  26  28
ENDBRANCH  12  26
ENDBRANCH   2   3
TORSDOF 7
ENDMDL
MODEL       40
REMARK 921   NORMALIZED FREE ENERGY PREDICTED BY IDOCK:   -6.78 KCAL/MOL
REMARK 922        TOTAL FREE ENERGY PREDICTED BY IDOCK:  -10.47 KCAL/MOL
REMARK 923 INTER-LIGAND FREE ENERGY PREDICTED BY IDOCK:   -9.59 KCAL/MOL
REMARK 924 INTRA-LIGAND FREE ENERGY PREDICTED BY IDOCK:   -0.87 KCAL/MOL
REMARK 927      BINDING AFFINITY PREDICTED BY RF-SCORE:    0.00 PKD
ROOT
HETATM    1  C   UNL     1     -12.488  11.247  69.578  1.00  0.00    -0.061 C  
HETATM    2  O   UNL     1     -12.012  11.078  68.243  1.00  0.00    -0.593 OA 
ENDROOT
BRANCH   2   3
HETATM    3  C   UNL     1     -11.426  12.179  67.669  1.00  0.00    -0.331 A  
HETATM    4  C   UNL     1     -10.137  12.506  68.100  1.00  0.00    -0.225 A  
HETATM    5  N   UNL     1     -11.997  14.623  65.062  1.00  0.00    -0.379 NA 
HETATM    6  C   UNL     1      -9.493  13.631  67.560  1.00  0.00    -0.222 A  
HETATM    7  C   UNL     1     -11.356  14.009  66.058  1.00  0.00    -0.328 A  
HETATM    8  C   UNL     1     -11.385  15.672  64.523  1.00  0.00    -0.320 A  
HETATM    9  C   UNL     1     -10.094  14.399  66.529  1.00  0.00    -0.281 A  
HETATM   10  C   UNL     1     -11.995  12.925  66.634  1.00  0.00    -0.436 A  
HETATM   11  N   UNL     1     -10.207  16.164  64.900  1.00  0.00    -0.431 NA 
HETATM   12  C   UNL     1      -9.552  15.551  65.908  1.00  0.00    -0.348 A  
BRANCH   4  13
HETATM   13  N   UNL     1      -9.506  11.673  69.060  1.00  0.00    -0.410 N  
HETATM   14  H   UNL     1      -9.690  11.839  70.049  1.00  0.00     0.000 HD 
HETATM   15  C   UNL     1      -8.654  10.646  68.708  1.00  0.00    -0.150 C  
HETATM   16  O   UNL     1      -8.301  10.389  67.559  1.00  0.00    -0.114 OA 
BRANCH  15  17
HETATM   17  C   UNL     1      -8.261   9.761  69.845  1.00  0.00    -0.196 C  
HETATM   18  C   UNL     1      -9.236   9.061  70.456  1.00  0.00    -0.261 C  
BRANCH  18  19
HETATM   19  C   UNL     1      -9.109   8.247  71.712  1.00  0.00    -0.193 C  
BRANCH  19  20
HETATM   20  N   UNL     1     -10.301   8.207  72.573  1.00  0.00    -0.308 NA 
HETATM   21  C   UNL     1     -11.506   5.495  72.364  1.00  0.00    -0.266 C  
HETATM   22  C   UNL     1     -11.518   7.965  71.771  1.00  0.00    -0.269 C  
HETATM   23  C   UNL     1     -10.275   5.776  73.218  1.00  0.00    -0.217 C  
HETATM   24  C   UNL     1     -11.656   6.526  71.249  1.00  0.00    -0.381 C  
HETATM   25  C   UNL     1     -10.251   7.235  73.677  1.00  0.00    -0.346 C  
ENDBRANCH  19  20
ENDBRANCH  18  19
ENDBRANCH  15  17
ENDBRANCH   4  13
BRANCH  12  26
HETATM   26  N   UNL     1      -8.383  16.156  66.423  1.00  0.00    -0.312 NA 
HETATM   27  H   UNL     1      -7.594  15.519  66.536  1.00  0.00     0.000 HD 
BRANCH  26  28
HETATM   28  C   UNL     1      -8.119  17.488  66.808  1.00  0.00    -0.244 A  
HETATM   29  C   UNL     1      -7.128  18.200  66.109  1.00  0.00    -0.316 A  
HETATM   30  C   UNL     1      -6.680  19.446  66.565  1.00  0.00    -0.190 A  
HETATM   31  C   UNL     1      -8.223  19.339  68.407  1.00  0.00    -0.383 A  
HETATM   32  C   UNL     1      -8.667  18.096  67.948  1.00  0.00    -0.266 A  
HETATM   33  C   UNL     1      -7.216  20.000  67.722  1.00  0.00    -0.291 A  
HETATM   34  F   UNL     1      -6.766  21.167  68.203  1.00  0.00    -0.336 F  
HETATM   35 CL   UNL     1      -5.435  20.264  65.702  1.00  0.00    -0.190 Cl 
ENDBRANCH  26  28
ENDBRANCH  12  26
ENDBRANCH   2   3
TORSDOF 7
ENDMDL
MODEL       41
REMARK 921   NORMALIZED FREE ENERGY PREDICTED BY IDOCK:   -6.76 KCAL/MOL
REMARK 922        TOTAL FREE ENERGY PREDICTED BY IDOCK:  -10.44 KCAL/MOL
REMARK 923 INTER-LIGAND FREE ENERGY PREDICTED BY IDOCK:   -9.21 KCAL/MOL
REMARK 924 INTRA-LIGAND FREE ENERGY PREDICTED BY IDOCK:   -1.24 KCAL/MOL
REMARK 927      BINDING AFFINITY PREDICTED BY RF-SCORE:    0.00 PKD
ROOT
HETATM    1  C   UNL     1      -7.207  11.876  67.011  1.00  0.00    -0.118 C  
HETATM    2  O   UNL     1      -8.473  11.612  66.408  1.00  0.00    -0.176 OA 
ENDROOT
BRANCH   2   3
HETATM    3  C   UNL     1      -9.021  10.381  66.672  1.00  0.00    -0.141 A  
HETATM    4  C   UNL     1     -10.106  10.348  67.553  1.00  0.00    -0.192 A  
HETATM    5  N   UNL     1      -8.769   6.919  65.649  1.00  0.00    -0.117 NA 
HETATM    6  C   UNL     1     -10.698   9.116  67.873  1.00  0.00    -0.224 A  
HETATM    7  C   UNL     1      -9.226   7.976  66.323  1.00  0.00    -0.184 A  
HETATM    8  C   UNL     1      -9.341   5.751  65.922  1.00  0.00    -0.077 A  
HETATM    9  C   UNL     1     -10.266   7.910  67.261  1.00  0.00    -0.343 A  
HETATM   10  C   UNL     1      -8.624   9.192  66.054  1.00  0.00    -0.162 A  
HETATM   11  N   UNL     1     -10.309   5.549  66.813  1.00  0.00    -0.241 NA 
HETATM   12  C   UNL     1     -10.777   6.611  67.501  1.00  0.00    -0.317 A  
BRANCH   4  13
HETATM   13  N   UNL     1     -10.593  11.571  68.082  1.00  0.00    -0.188 N  
HETATM   14  H   UNL     1     -10.207  11.912  68.963  1.00  0.00     0.000 HD 
HETATM   15  C   UNL     1     -11.568  12.318  67.453  1.00  0.00    -0.355 C  
HETATM   16  O   UNL     1     -12.157  11.984  66.428  1.00  0.00    -0.610 OA 
BRANCH  15  17
HETATM   17  C   UNL     1     -11.791  13.666  68.058  1.00  0.00    -0.397 C  
HETATM   18  C   UNL     1     -11.037  14.684  67.605  1.00  0.00    -0.311 C  
BRANCH  18  19
HETATM   19  C   UNL     1     -10.965  16.074  68.172  1.00  0.00    -0.339 C  
BRANCH  19  20
HETATM   20  N   UNL     1      -9.766  16.850  67.818  1.00  0.00    -0.246 NA 
HETATM   21  C   UNL     1     -10.631  19.235  66.263  1.00  0.00    -0.545 C  
HETATM   22  C   UNL     1      -9.599  16.915  66.351  1.00  0.00    -0.284 C  
HETATM   23  C   UNL     1     -10.755  19.162  67.781  1.00  0.00    -0.463 C  
HETATM   24  C   UNL     1     -10.599  17.841  65.641  1.00  0.00    -0.123 C  
HETATM   25  C   UNL     1      -9.710  18.213  68.369  1.00  0.00    -0.355 C  
ENDBRANCH  19  20
ENDBRANCH  18  19
ENDBRANCH  15  17
ENDBRANCH   4  13
BRANCH  12  26
HETATM   26  N   UNL     1     -11.687   6.386  68.558  1.00  0.00    -0.314 NA 
HETATM   27  H   UNL     1     -12.617   6.092  68.258  1.00  0.00     0.000 HD 
BRANCH  26  28
HETATM   28  C   UNL     1     -11.532   6.496  69.957  1.00  0.00    -0.412 A  
HETATM   29  C   UNL     1     -12.280   7.474  70.635  1.00  0.00    -0.068 A  
HETATM   30  C   UNL     1     -12.029   7.768  71.981  1.00  0.00    -0.308 A  
HETATM   31  C   UNL     1     -10.304   6.092  72.036  1.00  0.00    -0.232 A  
HETATM   32  C   UNL     1     -10.559   5.802  70.694  1.00  0.00    -0.346 A  
HETATM   33  C   UNL     1     -11.029   7.089  72.669  1.00  0.00    -0.278 A  
HETATM   34  F   UNL     1     -10.738   7.390  73.942  1.00  0.00    -0.403 F  
HETATM   35 CL   UNL     1     -12.941   9.002  72.762  1.00  0.00    -0.336 Cl 
ENDBRANCH  26  28
ENDBRANCH  12  26
ENDBRANCH   2   3
TORSDOF 7
ENDMDL
MODEL       42
REMARK 921   NORMALIZED FREE ENERGY PREDICTED BY IDOCK:   -6.72 KCAL/MOL
REMARK 922        TOTAL FREE ENERGY PREDICTED BY IDOCK:  -10.39 KCAL/MOL
REMARK 923 INTER-LIGAND FREE ENERGY PREDICTED BY IDOCK:   -9.38 KCAL/MOL
REMARK 924 INTRA-LIGAND FREE ENERGY PREDICTED BY IDOCK:   -1.00 KCAL/MOL
REMARK 927      BINDING AFFINITY PREDICTED BY RF-SCORE:    0.00 PKD
ROOT
HETATM    1  C   UNL     1     -12.203  11.387  69.707  1.00  0.00    -0.265 C  
HETATM    2  O   UNL     1     -11.869  11.161  68.338  1.00  0.00    -0.495 OA 
ENDROOT
BRANCH   2   3
HETATM    3  C   UNL     1     -11.488  12.268  67.620  1.00  0.00    -0.336 A  
HETATM    4  C   UNL     1     -10.187  12.738  67.826  1.00  0.00    -0.223 A  
HETATM    5  N   UNL     1     -12.686  14.466  65.008  1.00  0.00    -0.599 NA 
HETATM    6  C   UNL     1      -9.747  13.876  67.131  1.00  0.00    -0.244 A  
HETATM    7  C   UNL     1     -11.844  13.982  65.922  1.00  0.00    -0.383 A  
HETATM    8  C   UNL     1     -12.270  15.527  64.323  1.00  0.00    -0.066 A  
HETATM    9  C   UNL     1     -10.570  14.515  66.167  1.00  0.00    -0.308 A  
HETATM   10  C   UNL     1     -12.279  12.888  66.649  1.00  0.00    -0.229 A  
HETATM   11  N   UNL     1     -11.103  16.147  64.484  1.00  0.00    -0.637 NA 
HETATM   12  C   UNL     1     -10.245  15.665  65.407  1.00  0.00    -0.370 A  
BRANCH   4  13
HETATM   13  N   UNL     1      -9.339  12.032  68.718  1.00  0.00    -0.398 N  
HETATM   14  H   UNL     1      -9.429  12.204  69.719  1.00  0.00     0.000 HD 
HETATM   15  C   UNL     1      -8.396  11.122  68.284  1.00  0.00    -0.143 C  
HETATM   16  O   UNL     1      -8.146  10.878  67.107  1.00  0.00    -0.120 OA 
BRANCH  15  17
HETATM   17  C   UNL     1      -7.755  10.338  69.382  1.00  0.00    -0.146 C  
HETATM   18  C   UNL     1      -8.540   9.514  70.100  1.00  0.00    -0.250 C  
BRANCH  18  19
HETATM   19  C   UNL     1      -8.157   8.763  71.344  1.00  0.00    -0.142 C  
BRANCH  19  20
HETATM   20  N   UNL     1      -8.606   7.363  71.411  1.00  0.00    -0.117 NA 
HETATM   21  C   UNL     1     -10.887   7.210  73.315  1.00  0.00    -0.378 C  
HETATM   22  C   UNL     1      -8.435   6.823  72.776  1.00  0.00    -0.117 C  
HETATM   23  C   UNL     1     -11.049   7.725  71.889  1.00  0.00    -0.302 C  
HETATM   24  C   UNL     1      -9.448   7.360  73.800  1.00  0.00    -0.328 C  
HETATM   25  C   UNL     1      -9.988   7.121  70.968  1.00  0.00    -0.188 C  
ENDBRANCH  19  20
ENDBRANCH  18  19
ENDBRANCH  15  17
ENDBRANCH   4  13
BRANCH  12  26
HETATM   26  N   UNL     1      -9.078  16.406  65.698  1.00  0.00    -0.407 NA 
HETATM   27  H   UNL     1      -8.362  16.367  64.973  1.00  0.00     0.000 HD 
BRANCH  26  28
HETATM   28  C   UNL     1      -8.730  17.191  66.819  1.00  0.00    -0.244 A  
HETATM   29  C   UNL     1      -9.666  18.126  67.295  1.00  0.00    -0.297 A  
HETATM   30  C   UNL     1      -9.313  19.066  68.270  1.00  0.00    -0.343 A  
HETATM   31  C   UNL     1      -7.091  18.151  68.364  1.00  0.00    -0.256 A  
HETATM   32  C   UNL     1      -7.448  17.214  67.391  1.00  0.00    -0.182 A  
HETATM   33  C   UNL     1      -8.021  19.087  68.784  1.00  0.00    -0.333 A  
HETATM   34  F   UNL     1      -7.647  20.011  69.681  1.00  0.00    -0.266 F  
HETATM   35 CL   UNL     1     -10.479  20.220  68.794  1.00  0.00    -0.276 Cl 
ENDBRANCH  26  28
ENDBRANCH  12  26
ENDBRANCH   2   3
TORSDOF 7
ENDMDL
MODEL       43
REMARK 921   NORMALIZED FREE ENERGY PREDICTED BY IDOCK:   -6.71 KCAL/MOL
REMARK 922        TOTAL FREE ENERGY PREDICTED BY IDOCK:  -10.38 KCAL/MOL
REMARK 923 INTER-LIGAND FREE ENERGY PREDICTED BY IDOCK:   -9.38 KCAL/MOL
REMARK 924 INTRA-LIGAND FREE ENERGY PREDICTED BY IDOCK:   -1.00 KCAL/MOL
REMARK 927      BINDING AFFINITY PREDICTED BY RF-SCORE:    0.00 PKD
ROOT
HETATM    1  C   UNL     1      -5.455  12.065  67.467  1.00  0.00    -0.102 C  
HETATM    2  O   UNL     1      -6.837  12.097  67.115  1.00  0.00    -0.144 OA 
ENDROOT
BRANCH   2   3
HETATM    3  C   UNL     1      -7.543  13.195  67.542  1.00  0.00    -0.163 A  
HETATM    4  C   UNL     1      -8.815  12.961  68.073  1.00  0.00    -0.195 A  
HETATM    5  N   UNL     1      -7.165  16.762  68.017  1.00  0.00    -0.153 NA 
HETATM    6  C   UNL     1      -9.590  14.047  68.511  1.00  0.00    -0.201 A  
HETATM    7  C   UNL     1      -7.770  15.573  68.031  1.00  0.00    -0.127 A  
HETATM    8  C   UNL     1      -7.878  17.794  68.456  1.00  0.00    -0.290 A  
HETATM    9  C   UNL     1      -9.077  15.371  68.498  1.00  0.00    -0.197 A  
HETATM   10  C   UNL     1      -7.038  14.498  67.560  1.00  0.00    -0.199 A  
HETATM   11  N   UNL     1      -9.136  17.742  68.890  1.00  0.00    -0.189 NA 
HETATM   12  C   UNL     1      -9.757  16.544  68.907  1.00  0.00    -0.257 A  
BRANCH   4  13
HETATM   13  N   UNL     1      -9.278  11.624  68.173  1.00  0.00    -0.178 N  
HETATM   14  H   UNL     1      -9.009  11.072  68.988  1.00  0.00     0.000 HD 
HETATM   15  C   UNL     1     -10.079  11.040  67.213  1.00  0.00    -0.189 C  
HETATM   16  O   UNL     1     -10.416  11.574  66.160  1.00  0.00    -0.236 OA 
BRANCH  15  17
HETATM   17  C   UNL     1     -10.627   9.706  67.604  1.00  0.00    -0.334 C  
HETATM   18  C   UNL     1     -10.277   9.216  68.807  1.00  0.00    -0.228 C  
BRANCH  18  19
HETATM   19  C   UNL     1     -10.564   7.840  69.338  1.00  0.00    -0.208 C  
BRANCH  19  20
HETATM   20  N   UNL     1     -10.396   7.665  70.790  1.00  0.00    -0.202 NA 
HETATM   21  C   UNL     1     -12.839   8.701  72.136  1.00  0.00    -0.442 C  
HETATM   22  C   UNL     1     -10.400   8.973  71.478  1.00  0.00    -0.342 C  
HETATM   23  C   UNL     1     -12.800   7.338  71.455  1.00  0.00    -0.430 C  
HETATM   24  C   UNL     1     -11.782   9.640  71.561  1.00  0.00    -0.472 C  
HETATM   25  C   UNL     1     -11.377   6.778  71.436  1.00  0.00    -0.279 C  
ENDBRANCH  19  20
ENDBRANCH  18  19
ENDBRANCH  15  17
ENDBRANCH   4  13
BRANCH  12  26
HETATM   26  N   UNL     1     -11.136  16.501  69.212  1.00  0.00    -0.293 NA 
HETATM   27  H   UNL     1     -11.704  17.168  68.688  1.00  0.00     0.000 HD 
BRANCH  26  28
HETATM   28  C   UNL     1     -11.864  15.696  70.114  1.00  0.00    -0.364 A  
HETATM   29  C   UNL     1     -11.877  16.061  71.472  1.00  0.00    -0.554 A  
HETATM   30  C   UNL     1     -12.409  15.204  72.443  1.00  0.00    -0.363 A  
HETATM   31  C   UNL     1     -12.973  13.604  70.738  1.00  0.00    -0.205 A  
HETATM   32  C   UNL     1     -12.442  14.463  69.772  1.00  0.00    -0.262 A  
HETATM   33  C   UNL     1     -12.936  13.971  72.073  1.00  0.00    -0.363 A  
HETATM   34  F   UNL     1     -13.404  13.114  72.991  1.00  0.00    -0.478 F  
HETATM   35 CL   UNL     1     -12.367  15.673  74.099  1.00  0.00    -0.742 Cl 
ENDBRANCH  26  28
ENDBRANCH  12  26
ENDBRANCH   2   3
TORSDOF 7
ENDMDL
MODEL       44
REMARK 921   NORMALIZED FREE ENERGY PREDICTED BY IDOCK:   -6.71 KCAL/MOL
REMARK 922        TOTAL FREE ENERGY PREDICTED BY IDOCK:  -10.37 KCAL/MOL
REMARK 923 INTER-LIGAND FREE ENERGY PREDICTED BY IDOCK:   -9.59 KCAL/MOL
REMARK 924 INTRA-LIGAND FREE ENERGY PREDICTED BY IDOCK:   -0.79 KCAL/MOL
REMARK 927      BINDING AFFINITY PREDICTED BY RF-SCORE:    0.00 PKD
ROOT
HETATM    1  C   UNL     1     -10.161  11.251  63.326  1.00  0.00    -0.386 C  
HETATM    2  O   UNL     1      -9.594  11.568  64.596  1.00  0.00    -0.226 OA 
ENDROOT
BRANCH   2   3
HETATM    3  C   UNL     1      -9.833  10.667  65.605  1.00  0.00    -0.251 A  
HETATM    4  C   UNL     1     -10.358  11.176  66.796  1.00  0.00    -0.241 A  
HETATM    5  N   UNL     1      -9.776   7.108  66.259  1.00  0.00    -0.061 NA 
HETATM    6  C   UNL     1     -10.608  10.304  67.868  1.00  0.00    -0.282 A  
HETATM    7  C   UNL     1      -9.953   8.407  66.512  1.00  0.00    -0.265 A  
HETATM    8  C   UNL     1     -10.036   6.270  67.256  1.00  0.00    -0.163 A  
HETATM    9  C   UNL     1     -10.409   8.904  67.741  1.00  0.00    -0.301 A  
HETATM   10  C   UNL     1      -9.668   9.285  65.481  1.00  0.00    -0.247 A  
HETATM   11  N   UNL     1     -10.440   6.616  68.477  1.00  0.00    -0.195 NA 
HETATM   12  C   UNL     1     -10.620   7.926  68.744  1.00  0.00    -0.127 A  
BRANCH   4  13
HETATM   13  N   UNL     1     -10.646  12.563  66.878  1.00  0.00    -0.234 N  
HETATM   14  H   UNL     1     -10.008  13.166  67.397  1.00  0.00     0.000 HD 
HETATM   15  C   UNL     1     -11.756  13.128  66.284  1.00  0.00    -0.375 C  
HETATM   16  O   UNL     1     -12.630  12.502  65.691  1.00  0.00    -0.612 OA 
BRANCH  15  17
HETATM   17  C   UNL     1     -11.767  14.622  66.308  1.00  0.00    -0.325 C  
HETATM   18  C   UNL     1     -10.925  15.238  67.157  1.00  0.00    -0.331 C  
BRANCH  18  19
HETATM   19  C   UNL     1     -10.879  16.706  67.474  1.00  0.00    -0.221 C  
BRANCH  19  20
HETATM   20  N   UNL     1      -9.580  17.367  67.268  1.00  0.00    -0.253 NA 
HETATM   21  C   UNL     1     -10.024  20.309  67.279  1.00  0.00    -0.580 C  
HETATM   22  C   UNL     1      -9.584  18.149  66.015  1.00  0.00    -0.059 C  
HETATM   23  C   UNL     1      -9.975  19.487  68.562  1.00  0.00    -0.538 C  
HETATM   24  C   UNL     1     -10.408  19.445  66.080  1.00  0.00    -0.595 C  
HETATM   25  C   UNL     1      -9.128  18.228  68.372  1.00  0.00    -0.316 C  
ENDBRANCH  19  20
ENDBRANCH  18  19
ENDBRANCH  15  17
ENDBRANCH   4  13
BRANCH  12  26
HETATM   26  N   UNL     1     -10.891   8.316  70.074  1.00  0.00    -0.266 NA 
HETATM   27  H   UNL     1     -11.086   9.310  70.191  1.00  0.00     0.000 HD 
BRANCH  26  28
HETATM   28  C   UNL     1     -10.937   7.567  71.271  1.00  0.00    -0.242 A  
HETATM   29  C   UNL     1      -9.965   7.822  72.254  1.00  0.00    -0.259 A  
HETATM   30  C   UNL     1      -9.834   6.985  73.369  1.00  0.00    -0.237 A  
HETATM   31  C   UNL     1     -11.664   5.635  72.587  1.00  0.00    -0.256 A  
HETATM   32  C   UNL     1     -11.792   6.473  71.476  1.00  0.00    -0.386 A  
HETATM   33  C   UNL     1     -10.670   5.885  73.520  1.00  0.00    -0.259 A  
HETATM   34  F   UNL     1     -10.528   5.043  74.553  1.00  0.00    -0.256 F  
HETATM   35 CL   UNL     1      -8.602   7.309  74.529  1.00  0.00    -0.238 Cl 
ENDBRANCH  26  28
ENDBRANCH  12  26
ENDBRANCH   2   3
TORSDOF 7
ENDMDL
MODEL       45
REMARK 921   NORMALIZED FREE ENERGY PREDICTED BY IDOCK:   -6.67 KCAL/MOL
REMARK 922        TOTAL FREE ENERGY PREDICTED BY IDOCK:  -10.32 KCAL/MOL
REMARK 923 INTER-LIGAND FREE ENERGY PREDICTED BY IDOCK:   -9.85 KCAL/MOL
REMARK 924 INTRA-LIGAND FREE ENERGY PREDICTED BY IDOCK:   -0.47 KCAL/MOL
REMARK 927      BINDING AFFINITY PREDICTED BY RF-SCORE:    0.00 PKD
ROOT
HETATM    1  C   UNL     1     -12.018   8.592  72.402  1.00  0.00    -0.364 C  
HETATM    2  O   UNL     1     -12.727   9.161  71.302  1.00  0.00    -0.317 OA 
ENDROOT
BRANCH   2   3
HETATM    3  C   UNL     1     -12.654  10.527  71.181  1.00  0.00    -0.417 A  
HETATM    4  C   UNL     1     -11.835  11.029  70.165  1.00  0.00    -0.357 A  
HETATM    5  N   UNL     1     -14.116  13.547  72.539  1.00  0.00    -0.758 NA 
HETATM    6  C   UNL     1     -11.709  12.418  70.004  1.00  0.00    -0.307 A  
HETATM    7  C   UNL     1     -13.328  12.797  71.765  1.00  0.00    -0.342 A  
HETATM    8  C   UNL     1     -14.026  14.862  72.376  1.00  0.00    -0.481 A  
HETATM    9  C   UNL     1     -12.456  13.324  70.802  1.00  0.00    -0.403 A  
HETATM   10  C   UNL     1     -13.406  11.427  71.942  1.00  0.00    -0.409 A  
HETATM   11  N   UNL     1     -13.216  15.487  71.525  1.00  0.00    -0.489 NA 
HETATM   12  C   UNL     1     -12.414  14.738  70.739  1.00  0.00    -0.337 A  
BRANCH   4  13
HETATM   13  N   UNL     1     -11.171  10.114  69.309  1.00  0.00    -0.328 N  
HETATM   14  H   UNL     1     -10.623   9.362  69.726  1.00  0.00     0.000 HD 
HETATM   15  C   UNL     1     -11.237  10.200  67.933  1.00  0.00    -0.163 C  
HETATM   16  O   UNL     1     -11.807  11.094  67.312  1.00  0.00    -0.525 OA 
BRANCH  15  17
HETATM   17  C   UNL     1     -10.647   9.028  67.218  1.00  0.00    -0.301 C  
HETATM   18  C   UNL     1      -9.485   9.216  66.567  1.00  0.00    -0.266 C  
BRANCH  18  19
HETATM   19  C   UNL     1      -8.799   8.243  65.651  1.00  0.00    -0.132 C  
BRANCH  19  20
HETATM   20  N   UNL     1      -8.043   7.165  66.309  1.00  0.00    -0.113 NA 
HETATM   21  C   UNL     1      -8.661   4.612  64.911  1.00  0.00    -0.140 C  
HETATM   22  C   UNL     1      -8.960   6.167  66.898  1.00  0.00    -0.118 C  
HETATM   23  C   UNL     1      -7.686   5.638  64.343  1.00  0.00    -0.097 C  
HETATM   24  C   UNL     1      -9.656   5.262  65.869  1.00  0.00    -0.142 C  
HETATM   25  C   UNL     1      -7.060   6.474  65.460  1.00  0.00    -0.064 C  
ENDBRANCH  19  20
ENDBRANCH  18  19
ENDBRANCH  15  17
ENDBRANCH   4  13
BRANCH  12  26
HETATM   26  N   UNL     1     -11.439  15.389  69.951  1.00  0.00    -0.286 NA 
HETATM   27  H   UNL     1     -10.935  16.133  70.434  1.00  0.00     0.000 HD 
BRANCH  26  28
HETATM   28  C   UNL     1     -11.042  15.189  68.611  1.00  0.00    -0.271 A  
HETATM   29  C   UNL     1      -9.748  15.589  68.232  1.00  0.00    -0.201 A  
HETATM   30  C   UNL     1      -9.364  15.602  66.886  1.00  0.00    -0.234 A  
HETATM   31  C   UNL     1     -11.531  14.778  66.247  1.00  0.00    -0.316 A  
HETATM   32  C   UNL     1     -11.910  14.765  67.592  1.00  0.00    -0.319 A  
HETATM   33  C   UNL     1     -10.264  15.216  65.899  1.00  0.00    -0.324 A  
HETATM   34  F   UNL     1      -9.933  15.269  64.601  1.00  0.00    -0.258 F  
HETATM   35 CL   UNL     1      -7.783  16.139  66.463  1.00  0.00    -0.269 Cl 
ENDBRANCH  26  28
ENDBRANCH  12  26
ENDBRANCH   2   3
TORSDOF 7
ENDMDL
MODEL       46
REMARK 921   NORMALIZED FREE ENERGY PREDICTED BY IDOCK:   -6.67 KCAL/MOL
REMARK 922        TOTAL FREE ENERGY PREDICTED BY IDOCK:  -10.32 KCAL/MOL
REMARK 923 INTER-LIGAND FREE ENERGY PREDICTED BY IDOCK:   -9.71 KCAL/MOL
REMARK 924 INTRA-LIGAND FREE ENERGY PREDICTED BY IDOCK:   -0.61 KCAL/MOL
REMARK 927      BINDING AFFINITY PREDICTED BY RF-SCORE:    0.00 PKD
ROOT
HETATM    1  C   UNL     1     -11.344  16.041  70.539  1.00  0.00    -0.401 C  
HETATM    2  O   UNL     1     -12.032  15.254  69.568  1.00  0.00    -0.320 OA 
ENDROOT
BRANCH   2   3
HETATM    3  C   UNL     1     -11.970  13.893  69.743  1.00  0.00    -0.338 A  
HETATM    4  C   UNL     1     -11.144  13.180  68.868  1.00  0.00    -0.266 A  
HETATM    5  N   UNL     1     -13.120  11.296  71.986  1.00  0.00    -0.449 NA 
HETATM    6  C   UNL     1     -11.054  11.784  68.988  1.00  0.00    -0.301 A  
HETATM    7  C   UNL     1     -12.486  11.832  70.941  1.00  0.00    -0.318 A  
HETATM    8  C   UNL     1     -13.018   9.979  72.127  1.00  0.00    -0.366 A  
HETATM    9  C   UNL     1     -11.724  11.089  70.029  1.00  0.00    -0.437 A  
HETATM   10  C   UNL     1     -12.602  13.202  70.780  1.00  0.00    -0.338 A  
HETATM   11  N   UNL     1     -12.357   9.159  71.313  1.00  0.00    -0.315 NA 
HETATM   12  C   UNL     1     -11.714   9.691  70.253  1.00  0.00    -0.155 A  
BRANCH   4  13
HETATM   13  N   UNL     1     -10.401  13.897  67.894  1.00  0.00    -0.236 N  
HETATM   14  H   UNL     1     -10.906  14.454  67.205  1.00  0.00     0.000 HD 
HETATM   15  C   UNL     1      -9.022  13.869  67.842  1.00  0.00    -0.191 C  
HETATM   16  O   UNL     1      -8.306  13.186  68.570  1.00  0.00    -0.141 OA 
BRANCH  15  17
HETATM   17  C   UNL     1      -8.428  14.848  66.884  1.00  0.00    -0.255 C  
HETATM   18  C   UNL     1      -8.336  16.131  67.279  1.00  0.00    -0.204 C  
BRANCH  18  19
HETATM   19  C   UNL     1      -7.935  17.308  66.436  1.00  0.00    -0.303 C  
BRANCH  19  20
HETATM   20  N   UNL     1      -9.029  18.197  66.013  1.00  0.00    -0.511 NA 
HETATM   21  C   UNL     1      -9.849  19.835  68.358  1.00  0.00    -0.522 C  
HETATM   22  C   UNL     1     -10.265  17.899  66.766  1.00  0.00    -0.360 C  
HETATM   23  C   UNL     1      -8.600  20.148  67.541  1.00  0.00    -0.404 C  
HETATM   24  C   UNL     1     -10.243  18.366  68.231  1.00  0.00    -0.412 C  
HETATM   25  C   UNL     1      -8.744  19.637  66.107  1.00  0.00    -0.333 C  
ENDBRANCH  19  20
ENDBRANCH  18  19
ENDBRANCH  15  17
ENDBRANCH   4  13
BRANCH  12  26
HETATM   26  N   UNL     1     -11.147   8.818  69.298  1.00  0.00    -0.432 NA 
HETATM   27  H   UNL     1     -11.279   9.110  68.329  1.00  0.00     0.000 HD 
BRANCH  26  28
HETATM   28  C   UNL     1     -10.429   7.612  69.451  1.00  0.00    -0.220 A  
HETATM   29  C   UNL     1      -9.026   7.676  69.527  1.00  0.00    -0.139 A  
HETATM   30  C   UNL     1      -8.249   6.513  69.479  1.00  0.00    -0.126 A  
HETATM   31  C   UNL     1     -10.241   5.175  69.320  1.00  0.00    -0.276 A  
HETATM   32  C   UNL     1     -11.013   6.338  69.369  1.00  0.00    -0.440 A  
HETATM   33  C   UNL     1      -8.860   5.270  69.355  1.00  0.00    -0.100 A  
HETATM   34  F   UNL     1      -8.132   4.148  69.257  1.00  0.00    -0.060 F  
HETATM   35 CL   UNL     1      -6.533   6.640  69.533  1.00  0.00    -0.042 Cl 
ENDBRANCH  26  28
ENDBRANCH  12  26
ENDBRANCH   2   3
TORSDOF 7
ENDMDL
MODEL       47
REMARK 921   NORMALIZED FREE ENERGY PREDICTED BY IDOCK:   -6.66 KCAL/MOL
REMARK 922        TOTAL FREE ENERGY PREDICTED BY IDOCK:  -10.31 KCAL/MOL
REMARK 923 INTER-LIGAND FREE ENERGY PREDICTED BY IDOCK:   -9.71 KCAL/MOL
REMARK 924 INTRA-LIGAND FREE ENERGY PREDICTED BY IDOCK:   -0.60 KCAL/MOL
REMARK 927      BINDING AFFINITY PREDICTED BY RF-SCORE:    0.00 PKD
ROOT
HETATM    1  C   UNL     1     -11.550  12.541  63.585  1.00  0.00    -0.504 C  
HETATM    2  O   UNL     1     -10.289  13.100  63.951  1.00  0.00    -0.354 OA 
ENDROOT
BRANCH   2   3
HETATM    3  C   UNL     1     -10.314  14.036  64.955  1.00  0.00    -0.409 A  
HETATM    4  C   UNL     1     -10.058  13.579  66.251  1.00  0.00    -0.298 A  
HETATM    5  N   UNL     1     -10.628  17.606  65.456  1.00  0.00    -0.615 NA 
HETATM    6  C   UNL     1     -10.086  14.488  67.321  1.00  0.00    -0.247 A  
HETATM    7  C   UNL     1     -10.473  16.323  65.788  1.00  0.00    -0.364 A  
HETATM    8  C   UNL     1     -10.628  18.480  66.458  1.00  0.00    -0.334 A  
HETATM    9  C   UNL     1     -10.294  15.876  67.105  1.00  0.00    -0.300 A  
HETATM   10  C   UNL     1     -10.489  15.408  64.750  1.00  0.00    -0.186 A  
HETATM   11  N   UNL     1     -10.502  18.182  67.749  1.00  0.00    -0.397 NA 
HETATM   12  C   UNL     1     -10.347  16.887  68.095  1.00  0.00    -0.336 A  
BRANCH   4  13
HETATM   13  N   UNL     1      -9.754  12.207  66.444  1.00  0.00    -0.226 N  
HETATM   14  H   UNL     1     -10.473  11.513  66.242  1.00  0.00     0.000 HD 
HETATM   15  C   UNL     1      -8.523  11.775  66.894  1.00  0.00    -0.174 C  
HETATM   16  O   UNL     1      -7.601  12.511  67.234  1.00  0.00    -0.152 OA 
BRANCH  15  17
HETATM   17  C   UNL     1      -8.335  10.294  66.830  1.00  0.00    -0.124 C  
HETATM   18  C   UNL     1      -9.138   9.599  66.004  1.00  0.00    -0.212 C  
BRANCH  18  19
HETATM   19  C   UNL     1      -9.247   8.104  65.900  1.00  0.00    -0.097 C  
BRANCH  19  20
HETATM   20  N   UNL     1      -7.975   7.376  65.763  1.00  0.00    -0.111 NA 
HETATM   21  C   UNL     1      -8.366   5.187  63.787  1.00  0.00    -0.130 C  
HETATM   22  C   UNL     1      -8.127   5.970  66.192  1.00  0.00    -0.110 C  
HETATM   23  C   UNL     1      -8.165   6.638  63.366  1.00  0.00     0.075 C  
HETATM   24  C   UNL     1      -8.915   5.091  65.208  1.00  0.00    -0.151 C  
HETATM   25  C   UNL     1      -7.370   7.408  64.422  1.00  0.00    -0.085 C  
ENDBRANCH  19  20
ENDBRANCH  18  19
ENDBRANCH  15  17
ENDBRANCH   4  13
BRANCH  12  26
HETATM   26  N   UNL     1     -10.374  16.544  69.465  1.00  0.00    -0.286 NA 
HETATM   27  H   UNL     1      -9.540  16.817  69.984  1.00  0.00     0.000 HD 
BRANCH  26  28
HETATM   28  C   UNL     1     -11.355  15.887  70.239  1.00  0.00    -0.372 A  
HETATM   29  C   UNL     1     -11.581  16.338  71.552  1.00  0.00    -0.435 A  
HETATM   30  C   UNL     1     -12.390  15.612  72.433  1.00  0.00    -0.426 A  
HETATM   31  C   UNL     1     -12.816  13.981  70.717  1.00  0.00    -0.355 A  
HETATM   32  C   UNL     1     -12.008  14.710  69.841  1.00  0.00    -0.381 A  
HETATM   33  C   UNL     1     -12.987  14.427  72.018  1.00  0.00    -0.353 A  
HETATM   34  F   UNL     1     -13.725  13.690  72.861  1.00  0.00    -0.585 F  
HETATM   35 CL   UNL     1     -12.605  16.178  74.045  1.00  0.00    -0.675 Cl 
ENDBRANCH  26  28
ENDBRANCH  12  26
ENDBRANCH   2   3
TORSDOF 7
ENDMDL
MODEL       48
REMARK 921   NORMALIZED FREE ENERGY PREDICTED BY IDOCK:   -6.59 KCAL/MOL
REMARK 922        TOTAL FREE ENERGY PREDICTED BY IDOCK:  -10.21 KCAL/MOL
REMARK 923 INTER-LIGAND FREE ENERGY PREDICTED BY IDOCK:   -9.10 KCAL/MOL
REMARK 924 INTRA-LIGAND FREE ENERGY PREDICTED BY IDOCK:   -1.10 KCAL/MOL
REMARK 927      BINDING AFFINITY PREDICTED BY RF-SCORE:    0.00 PKD
ROOT
HETATM    1  C   UNL     1      -5.621  18.637  70.071  1.00  0.00    -0.234 C  
HETATM    2  O   UNL     1      -6.353  17.430  69.868  1.00  0.00    -0.202 OA 
ENDROOT
BRANCH   2   3
HETATM    3  C   UNL     1      -7.311  17.464  68.885  1.00  0.00    -0.244 A  
HETATM    4  C   UNL     1      -7.842  16.237  68.476  1.00  0.00    -0.192 A  
HETATM    5  N   UNL     1      -9.270  19.819  66.958  1.00  0.00    -0.334 NA 
HETATM    6  C   UNL     1      -8.814  16.209  67.463  1.00  0.00    -0.198 A  
HETATM    7  C   UNL     1      -8.832  18.630  67.377  1.00  0.00    -0.272 A  
HETATM    8  C   UNL     1     -10.210  19.806  66.019  1.00  0.00    -0.501 A  
HETATM    9  C   UNL     1      -9.325  17.407  66.898  1.00  0.00    -0.271 A  
HETATM   10  C   UNL     1      -7.842  18.638  68.342  1.00  0.00    -0.344 A  
HETATM   11  N   UNL     1     -10.734  18.718  65.459  1.00  0.00    -0.506 NA 
HETATM   12  C   UNL     1     -10.298  17.511  65.874  1.00  0.00    -0.259 A  
BRANCH   4  13
HETATM   13  N   UNL     1      -7.397  15.052  69.118  1.00  0.00    -0.151 N  
HETATM   14  H   UNL     1      -7.751  14.838  70.050  1.00  0.00     0.000 HD 
HETATM   15  C   UNL     1      -6.504  14.180  68.530  1.00  0.00    -0.096 C  
HETATM   16  O   UNL     1      -5.957  14.359  67.445  1.00  0.00    -0.345 OA 
BRANCH  15  17
HETATM   17  C   UNL     1      -6.325  12.897  69.274  1.00  0.00    -0.108 C  
HETATM   18  C   UNL     1      -7.139  11.873  68.957  1.00  0.00    -0.092 C  
BRANCH  18  19
HETATM   19  C   UNL     1      -7.257  10.560  69.676  1.00  0.00    -0.148 C  
BRANCH  19  20
HETATM   20  N   UNL     1      -8.205   9.594  69.097  1.00  0.00    -0.113 NA 
HETATM   21  C   UNL     1     -10.779   9.822  70.572  1.00  0.00    -0.381 C  
HETATM   22  C   UNL     1      -8.608   8.589  70.102  1.00  0.00    -0.132 C  
HETATM   23  C   UNL     1     -10.361  10.824  69.501  1.00  0.00    -0.178 C  
HETATM   24  C   UNL     1      -9.567   9.120  71.179  1.00  0.00    -0.347 C  
HETATM   25  C   UNL     1      -9.411  10.179  68.491  1.00  0.00    -0.158 C  
ENDBRANCH  19  20
ENDBRANCH  18  19
ENDBRANCH  15  17
ENDBRANCH   4  13
BRANCH  12  26
HETATM   26  N   UNL     1     -10.727  16.359  65.178  1.00  0.00    -0.628 NA 
HETATM   27  H   UNL     1     -10.999  16.529  64.210  1.00  0.00     0.000 HD 
BRANCH  26  28
HETATM   28  C   UNL     1     -10.844  15.014  65.590  1.00  0.00    -0.349 A  
HETATM   29  C   UNL     1     -10.318  14.013  64.755  1.00  0.00    -0.407 A  
HETATM   30  C   UNL     1     -10.575  12.659  65.004  1.00  0.00    -0.303 A  
HETATM   31  C   UNL     1     -11.855  13.249  66.952  1.00  0.00    -0.446 A  
HETATM   32  C   UNL     1     -11.596  14.599  66.700  1.00  0.00    -0.359 A  
HETATM   33  C   UNL     1     -11.359  12.286  66.090  1.00  0.00    -0.353 A  
HETATM   34  F   UNL     1     -11.658  10.999  66.318  1.00  0.00    -0.130 F  
HETATM   35 CL   UNL     1      -9.945  11.468  63.932  1.00  0.00    -0.324 Cl 
ENDBRANCH  26  28
ENDBRANCH  12  26
ENDBRANCH   2   3
TORSDOF 7
ENDMDL
MODEL       49
REMARK 921   NORMALIZED FREE ENERGY PREDICTED BY IDOCK:   -6.57 KCAL/MOL
REMARK 922        TOTAL FREE ENERGY PREDICTED BY IDOCK:  -10.17 KCAL/MOL
REMARK 923 INTER-LIGAND FREE ENERGY PREDICTED BY IDOCK:   -9.20 KCAL/MOL
REMARK 924 INTRA-LIGAND FREE ENERGY PREDICTED BY IDOCK:   -0.97 KCAL/MOL
REMARK 927      BINDING AFFINITY PREDICTED BY RF-SCORE:    0.00 PKD
ROOT
HETATM    1  C   UNL     1     -13.822   8.812  72.651  1.00  0.00    -0.287 C  
HETATM    2  O   UNL     1     -13.040   9.703  71.856  1.00  0.00    -0.374 OA 
ENDROOT
BRANCH   2   3
HETATM    3  C   UNL     1     -12.048   9.126  71.103  1.00  0.00    -0.299 A  
HETATM    4  C   UNL     1     -11.286   9.979  70.300  1.00  0.00    -0.313 A  
HETATM    5  N   UNL     1     -10.428   5.934  70.569  1.00  0.00    -0.236 NA 
HETATM    6  C   UNL     1     -10.267   9.443  69.496  1.00  0.00    -0.219 A  
HETATM    7  C   UNL     1     -10.672   7.236  70.408  1.00  0.00    -0.236 A  
HETATM    8  C   UNL     1      -9.447   5.420  69.834  1.00  0.00    -0.159 A  
HETATM    9  C   UNL     1      -9.944   8.061  69.539  1.00  0.00    -0.186 A  
HETATM   10  C   UNL     1     -11.703   7.772  71.159  1.00  0.00    -0.304 A  
HETATM   11  N   UNL     1      -8.708   6.086  68.950  1.00  0.00    -0.121 NA 
HETATM   12  C   UNL     1      -8.947   7.403  68.778  1.00  0.00    -0.129 A  
BRANCH   4  13
HETATM   13  N   UNL     1     -11.551  11.373  70.340  1.00  0.00    -0.490 N  
HETATM   14  H   UNL     1     -11.421  11.871  71.221  1.00  0.00     0.000 HD 
HETATM   15  C   UNL     1     -11.979  12.080  69.235  1.00  0.00    -0.270 C  
HETATM   16  O   UNL     1     -12.235  11.586  68.141  1.00  0.00    -0.576 OA 
BRANCH  15  17
HETATM   17  C   UNL     1     -11.999  13.561  69.429  1.00  0.00    -0.383 C  
HETATM   18  C   UNL     1     -11.777  14.335  68.351  1.00  0.00    -0.373 C  
BRANCH  18  19
HETATM   19  C   UNL     1     -11.585  15.824  68.334  1.00  0.00    -0.338 C  
BRANCH  19  20
HETATM   20  N   UNL     1     -10.200  16.290  68.159  1.00  0.00    -0.250 NA 
HETATM   21  C   UNL     1     -10.227  18.589  66.270  1.00  0.00    -0.446 C  
HETATM   22  C   UNL     1      -9.770  16.137  66.754  1.00  0.00    -0.242 C  
HETATM   23  C   UNL     1     -10.626  18.733  67.734  1.00  0.00    -0.452 C  
HETATM   24  C   UNL     1     -10.398  17.152  65.785  1.00  0.00    -0.253 C  
HETATM   25  C   UNL     1      -9.938  17.672  68.595  1.00  0.00    -0.367 C  
ENDBRANCH  19  20
ENDBRANCH  18  19
ENDBRANCH  15  17
ENDBRANCH   4  13
BRANCH  12  26
HETATM   26  N   UNL     1      -8.282   8.081  67.733  1.00  0.00    -0.127 NA 
HETATM   27  H   UNL     1      -7.380   7.680  67.477  1.00  0.00     0.000 HD 
BRANCH  26  28
HETATM   28  C   UNL     1      -8.649   9.219  66.982  1.00  0.00    -0.124 A  
HETATM   29  C   UNL     1      -8.101  10.462  67.344  1.00  0.00    -0.107 A  
HETATM   30  C   UNL     1      -8.572  11.650  66.773  1.00  0.00    -0.180 A  
HETATM   31  C   UNL     1     -10.124  10.401  65.426  1.00  0.00    -0.354 A  
HETATM   32  C   UNL     1      -9.651   9.217  65.998  1.00  0.00    -0.338 A  
HETATM   33  C   UNL     1      -9.595  11.615  65.832  1.00  0.00    -0.229 A  
HETATM   34  F   UNL     1     -10.095  12.744  65.310  1.00  0.00    -0.279 F  
HETATM   35 CL   UNL     1      -7.902  13.154  67.276  1.00  0.00    -0.156 Cl 
ENDBRANCH  26  28
ENDBRANCH  12  26
ENDBRANCH   2   3
TORSDOF 7
ENDMDL
MODEL       50
REMARK 921   NORMALIZED FREE ENERGY PREDICTED BY IDOCK:   -6.56 KCAL/MOL
REMARK 922        TOTAL FREE ENERGY PREDICTED BY IDOCK:  -10.16 KCAL/MOL
REMARK 923 INTER-LIGAND FREE ENERGY PREDICTED BY IDOCK:   -9.20 KCAL/MOL
REMARK 924 INTRA-LIGAND FREE ENERGY PREDICTED BY IDOCK:   -0.96 KCAL/MOL
REMARK 927      BINDING AFFINITY PREDICTED BY RF-SCORE:    0.00 PKD
ROOT
HETATM    1  C   UNL     1     -11.414  14.454  66.244  1.00  0.00    -0.359 C  
HETATM    2  O   UNL     1     -10.718  13.536  67.085  1.00  0.00    -0.275 OA 
ENDROOT
BRANCH   2   3
HETATM    3  C   UNL     1     -11.352  13.189  68.253  1.00  0.00    -0.297 A  
HETATM    4  C   UNL     1     -11.681  11.840  68.416  1.00  0.00    -0.325 A  
HETATM    5  N   UNL     1     -12.374  14.610  71.420  1.00  0.00    -0.330 NA 
HETATM    6  C   UNL     1     -12.345  11.429  69.583  1.00  0.00    -0.236 A  
HETATM    7  C   UNL     1     -12.214  13.674  70.482  1.00  0.00    -0.368 A  
HETATM    8  C   UNL     1     -12.976  14.226  72.541  1.00  0.00    -0.419 A  
HETATM    9  C   UNL     1     -12.621  12.341  70.636  1.00  0.00    -0.241 A  
HETATM   10  C   UNL     1     -11.602  14.072  69.307  1.00  0.00    -0.356 A  
HETATM   11  N   UNL     1     -13.439  13.004  72.796  1.00  0.00    -0.491 NA 
HETATM   12  C   UNL     1     -13.283  12.051  71.853  1.00  0.00    -0.364 A  
BRANCH   4  13
HETATM   13  N   UNL     1     -11.312  10.919  67.402  1.00  0.00    -0.271 N  
HETATM   14  H   UNL     1     -11.665  11.065  66.456  1.00  0.00     0.000 HD 
HETATM   15  C   UNL     1     -10.496   9.833  67.645  1.00  0.00    -0.251 C  
HETATM   16  O   UNL     1     -10.063   9.513  68.749  1.00  0.00    -0.175 OA 
BRANCH  15  17
HETATM   17  C   UNL     1     -10.059   9.111  66.413  1.00  0.00    -0.345 C  
HETATM   18  C   UNL     1      -9.445   7.923  66.571  1.00  0.00    -0.277 C  
BRANCH  18  19
HETATM   19  C   UNL     1      -8.777   7.105  65.503  1.00  0.00    -0.021 C  
BRANCH  19  20
HETATM   20  N   UNL     1      -8.309   5.772  65.915  1.00  0.00    -0.124 NA 
HETATM   21  C   UNL     1      -9.891   3.735  64.432  1.00  0.00    -0.188 C  
HETATM   22  C   UNL     1      -9.396   5.015  66.570  1.00  0.00    -0.141 C  
HETATM   23  C   UNL     1      -8.739   4.498  63.789  1.00  0.00    -0.139 C  
HETATM   24  C   UNL     1     -10.482   4.508  65.609  1.00  0.00    -0.261 C  
HETATM   25  C   UNL     1      -7.727   4.948  64.843  1.00  0.00    -0.083 C  
ENDBRANCH  19  20
ENDBRANCH  18  19
ENDBRANCH  15  17
ENDBRANCH   4  13
BRANCH  12  26
HETATM   26  N   UNL     1     -13.910  10.800  72.045  1.00  0.00    -0.117 NA 
HETATM   27  H   UNL     1     -14.912  10.855  72.227  1.00  0.00     0.000 HD 
BRANCH  26  28
HETATM   28  C   UNL     1     -13.390   9.488  72.028  1.00  0.00    -0.452 A  
HETATM   29  C   UNL     1     -12.023   9.308  72.301  1.00  0.00    -0.204 A  
HETATM   30  C   UNL     1     -11.407   8.066  72.106  1.00  0.00    -0.328 A  
HETATM   31  C   UNL     1     -13.504   7.124  71.400  1.00  0.00    -0.374 A  
HETATM   32  C   UNL     1     -14.115   8.365  71.596  1.00  0.00    -0.487 A  
HETATM   33  C   UNL     1     -12.146   6.986  71.638  1.00  0.00    -0.347 A  
HETATM   34  F   UNL     1     -11.565   5.802  71.396  1.00  0.00    -0.308 F  
HETATM   35 CL   UNL     1      -9.721   7.902  72.413  1.00  0.00    -0.251 Cl 
ENDBRANCH  26  28
ENDBRANCH  12  26
ENDBRANCH   2   3
TORSDOF 7
ENDMDL
MODEL       51
REMARK 921   NORMALIZED FREE ENERGY PREDICTED BY IDOCK:   -6.53 KCAL/MOL
REMARK 922        TOTAL FREE ENERGY PREDICTED BY IDOCK:  -10.12 KCAL/MOL
REMARK 923 INTER-LIGAND FREE ENERGY PREDICTED BY IDOCK:   -9.06 KCAL/MOL
REMARK 924 INTRA-LIGAND FREE ENERGY PREDICTED BY IDOCK:   -1.06 KCAL/MOL
REMARK 927      BINDING AFFINITY PREDICTED BY RF-SCORE:    0.00 PKD
ROOT
HETATM    1  C   UNL     1     -12.309   9.047  72.028  1.00  0.00    -0.384 C  
HETATM    2  O   UNL     1     -13.071   9.741  71.042  1.00  0.00    -0.348 OA 
ENDROOT
BRANCH   2   3
HETATM    3  C   UNL     1     -12.689  11.036  70.787  1.00  0.00    -0.323 A  
HETATM    4  C   UNL     1     -11.979  11.264  69.604  1.00  0.00    -0.353 A  
HETATM    5  N   UNL     1     -13.081  14.386  72.096  1.00  0.00    -0.342 NA 
HETATM    6  C   UNL     1     -11.549  12.565  69.298  1.00  0.00    -0.378 A  
HETATM    7  C   UNL     1     -12.663  13.426  71.270  1.00  0.00    -0.338 A  
HETATM    8  C   UNL     1     -12.704  15.626  71.802  1.00  0.00    -0.451 A  
HETATM    9  C   UNL     1     -11.886  13.667  70.127  1.00  0.00    -0.351 A  
HETATM   10  C   UNL     1     -13.039  12.131  71.580  1.00  0.00    -0.413 A  
HETATM   11  N   UNL     1     -11.940  15.982  70.771  1.00  0.00    -0.363 NA 
HETATM   12  C   UNL     1     -11.511  15.018  69.930  1.00  0.00    -0.289 A  
BRANCH   4  13
HETATM   13  N   UNL     1     -11.734  10.171  68.733  1.00  0.00    -0.507 N  
HETATM   14  H   UNL     1     -12.458   9.904  68.066  1.00  0.00     0.000 HD 
HETATM   15  C   UNL     1     -10.555   9.455  68.752  1.00  0.00    -0.208 C  
HETATM   16  O   UNL     1      -9.637   9.634  69.549  1.00  0.00    -0.174 OA 
BRANCH  15  17
HETATM   17  C   UNL     1     -10.411   8.486  67.624  1.00  0.00    -0.317 C  
HETATM   18  C   UNL     1      -9.220   8.428  67.000  1.00  0.00    -0.186 C  
BRANCH  18  19
HETATM   19  C   UNL     1      -8.895   7.663  65.748  1.00  0.00    -0.100 C  
BRANCH  19  20
HETATM   20  N   UNL     1      -8.267   6.347  65.946  1.00  0.00    -0.124 NA 
HETATM   21  C   UNL     1      -5.520   6.449  64.809  1.00  0.00    -0.021 C  
HETATM   22  C   UNL     1      -7.948   5.719  64.647  1.00  0.00    -0.122 C  
HETATM   23  C   UNL     1      -5.863   7.053  66.165  1.00  0.00    -0.035 C  
HETATM   24  C   UNL     1      -6.754   6.351  63.915  1.00  0.00    -0.037 C  
HETATM   25  C   UNL     1      -7.063   6.342  66.792  1.00  0.00    -0.073 C  
ENDBRANCH  19  20
ENDBRANCH  18  19
ENDBRANCH  15  17
ENDBRANCH   4  13
BRANCH  12  26
HETATM   26  N   UNL     1     -10.573  15.360  68.931  1.00  0.00    -0.235 NA 
HETATM   27  H   UNL     1     -10.095  14.563  68.511  1.00  0.00     0.000 HD 
BRANCH  26  28
HETATM   28  C   UNL     1     -10.182  16.614  68.413  1.00  0.00    -0.284 A  
HETATM   29  C   UNL     1      -8.949  17.150  68.824  1.00  0.00    -0.233 A  
HETATM   30  C   UNL     1      -8.596  18.468  68.508  1.00  0.00    -0.324 A  
HETATM   31  C   UNL     1     -10.668  18.750  67.321  1.00  0.00    -0.490 A  
HETATM   32  C   UNL     1     -11.017  17.435  67.639  1.00  0.00    -0.125 A  
HETATM   33  C   UNL     1      -9.466  19.267  67.774  1.00  0.00    -0.317 A  
HETATM   34  F   UNL     1      -9.169  20.546  67.504  1.00  0.00    -0.440 F  
HETATM   35 CL   UNL     1      -7.094  19.098  69.067  1.00  0.00    -0.372 Cl 
ENDBRANCH  26  28
ENDBRANCH  12  26
ENDBRANCH   2   3
TORSDOF 7
ENDMDL
MODEL       52
REMARK 921   NORMALIZED FREE ENERGY PREDICTED BY IDOCK:   -6.49 KCAL/MOL
REMARK 922        TOTAL FREE ENERGY PREDICTED BY IDOCK:  -10.06 KCAL/MOL
REMARK 923 INTER-LIGAND FREE ENERGY PREDICTED BY IDOCK:   -8.84 KCAL/MOL
REMARK 924 INTRA-LIGAND FREE ENERGY PREDICTED BY IDOCK:   -1.22 KCAL/MOL
REMARK 927      BINDING AFFINITY PREDICTED BY RF-SCORE:    0.00 PKD
ROOT
HETATM    1  C   UNL     1     -13.650   9.963  72.130  1.00  0.00    -0.298 C  
HETATM    2  O   UNL     1     -12.852  10.803  71.298  1.00  0.00    -0.378 OA 
ENDROOT
BRANCH   2   3
HETATM    3  C   UNL     1     -11.765  10.208  70.706  1.00  0.00    -0.357 A  
HETATM    4  C   UNL     1     -10.956  11.021  69.908  1.00  0.00    -0.150 A  
HETATM    5  N   UNL     1      -9.980   7.061  70.641  1.00  0.00    -0.187 NA 
HETATM    6  C   UNL     1      -9.839  10.463  69.264  1.00  0.00    -0.243 A  
HETATM    7  C   UNL     1     -10.254   8.330  70.334  1.00  0.00    -0.201 A  
HETATM    8  C   UNL     1      -8.909   6.530  70.061  1.00  0.00    -0.144 A  
HETATM    9  C   UNL     1      -9.471   9.107  69.469  1.00  0.00    -0.170 A  
HETATM   10  C   UNL     1     -11.377   8.883  70.923  1.00  0.00    -0.336 A  
HETATM   11  N   UNL     1      -8.106   7.148  69.197  1.00  0.00    -0.119 NA 
HETATM   12  C   UNL     1      -8.376   8.431  68.879  1.00  0.00    -0.119 A  
BRANCH   4  13
HETATM   13  N   UNL     1     -11.276  12.398  69.789  1.00  0.00    -0.488 N  
HETATM   14  H   UNL     1     -11.105  13.011  70.587  1.00  0.00     0.000 HD 
HETATM   15  C   UNL     1     -11.810  12.941  68.639  1.00  0.00    -0.312 C  
HETATM   16  O   UNL     1     -12.123  12.300  67.639  1.00  0.00    -0.502 OA 
BRANCH  15  17
HETATM   17  C   UNL     1     -11.879  14.434  68.643  1.00  0.00    -0.366 C  
HETATM   18  C   UNL     1     -10.752  15.111  68.359  1.00  0.00    -0.248 C  
BRANCH  18  19
HETATM   19  C   UNL     1     -10.540  16.594  68.467  1.00  0.00    -0.338 C  
BRANCH  19  20
HETATM   20  N   UNL     1      -9.589  17.178  67.508  1.00  0.00    -0.251 NA 
HETATM   21  C   UNL     1      -9.669  20.137  67.808  1.00  0.00    -0.529 C  
HETATM   22  C   UNL     1     -10.293  18.033  66.528  1.00  0.00    -0.373 C  
HETATM   23  C   UNL     1      -8.915  19.239  68.782  1.00  0.00    -0.399 C  
HETATM   24  C   UNL     1     -10.783  19.374  67.097  1.00  0.00    -0.593 C  
HETATM   25  C   UNL     1      -8.480  17.940  68.102  1.00  0.00    -0.267 C  
ENDBRANCH  19  20
ENDBRANCH  18  19
ENDBRANCH  15  17
ENDBRANCH   4  13
BRANCH  12  26
HETATM   26  N   UNL     1      -7.630   9.043  67.847  1.00  0.00    -0.092 NA 
HETATM   27  H   UNL     1      -6.850   9.614  68.173  1.00  0.00     0.000 HD 
BRANCH  26  28
HETATM   28  C   UNL     1      -7.778   9.003  66.444  1.00  0.00    -0.099 A  
HETATM   29  C   UNL     1      -8.663   9.913  65.840  1.00  0.00    -0.154 A  
HETATM   30  C   UNL     1      -9.004   9.795  64.487  1.00  0.00    -0.238 A  
HETATM   31  C   UNL     1      -7.559   7.884  64.277  1.00  0.00    -0.118 A  
HETATM   32  C   UNL     1      -7.221   8.005  65.627  1.00  0.00    -0.071 A  
HETATM   33  C   UNL     1      -8.466   8.770  63.718  1.00  0.00    -0.099 A  
HETATM   34  F   UNL     1      -8.818   8.609  62.434  1.00  0.00    -0.216 F  
HETATM   35 CL   UNL     1     -10.125  10.906  63.798  1.00  0.00    -0.391 Cl 
ENDBRANCH  26  28
ENDBRANCH  12  26
ENDBRANCH   2   3
TORSDOF 7
ENDMDL
MODEL       53
REMARK 921   NORMALIZED FREE ENERGY PREDICTED BY IDOCK:   -6.45 KCAL/MOL
REMARK 922        TOTAL FREE ENERGY PREDICTED BY IDOCK:  -10.00 KCAL/MOL
REMARK 923 INTER-LIGAND FREE ENERGY PREDICTED BY IDOCK:   -9.29 KCAL/MOL
REMARK 924 INTRA-LIGAND FREE ENERGY PREDICTED BY IDOCK:   -0.71 KCAL/MOL
REMARK 927      BINDING AFFINITY PREDICTED BY RF-SCORE:    0.00 PKD
ROOT
HETATM    1  C   UNL     1     -10.982  17.626  67.912  1.00  0.00    -0.107 C  
HETATM    2  O   UNL     1     -10.696  17.250  69.258  1.00  0.00    -0.260 OA 
ENDROOT
BRANCH   2   3
HETATM    3  C   UNL     1     -11.160  16.018  69.651  1.00  0.00    -0.331 A  
HETATM    4  C   UNL     1     -10.627  14.904  68.996  1.00  0.00    -0.245 A  
HETATM    5  N   UNL     1     -13.301  14.488  72.135  1.00  0.00    -0.349 NA 
HETATM    6  C   UNL     1     -11.075  13.620  69.344  1.00  0.00    -0.193 A  
HETATM    7  C   UNL     1     -12.467  14.550  71.095  1.00  0.00    -0.341 A  
HETATM    8  C   UNL     1     -13.710  13.275  72.492  1.00  0.00    -0.508 A  
HETATM    9  C   UNL     1     -12.003  13.424  70.401  1.00  0.00    -0.358 A  
HETATM   10  C   UNL     1     -12.050  15.812  70.708  1.00  0.00    -0.448 A  
HETATM   11  N   UNL     1     -13.373  12.133  71.896  1.00  0.00    -0.418 NA 
HETATM   12  C   UNL     1     -12.531  12.186  70.843  1.00  0.00    -0.279 A  
BRANCH   4  13
HETATM   13  N   UNL     1      -9.627  15.105  68.010  1.00  0.00    -0.202 N  
HETATM   14  H   UNL     1      -9.916  15.255  67.043  1.00  0.00     0.000 HD 
HETATM   15  C   UNL     1      -8.279  15.105  68.306  1.00  0.00    -0.144 C  
HETATM   16  O   UNL     1      -7.804  14.870  69.414  1.00  0.00    -0.179 OA 
BRANCH  15  17
HETATM   17  C   UNL     1      -7.405  15.540  67.175  1.00  0.00    -0.226 C  
HETATM   18  C   UNL     1      -6.954  16.807  67.187  1.00  0.00    -0.226 C  
BRANCH  18  19
HETATM   19  C   UNL     1      -6.211  17.510  66.087  1.00  0.00    -0.206 C  
BRANCH  19  20
HETATM   20  N   UNL     1      -6.972  18.530  65.348  1.00  0.00    -0.539 NA 
HETATM   21  C   UNL     1      -6.478  21.167  66.634  1.00  0.00    -0.349 C  
HETATM   22  C   UNL     1      -7.983  19.163  66.221  1.00  0.00    -0.300 C  
HETATM   23  C   UNL     1      -5.467  20.515  65.697  1.00  0.00    -0.220 C  
HETATM   24  C   UNL     1      -7.401  20.129  67.265  1.00  0.00    -0.312 C  
HETATM   25  C   UNL     1      -6.164  19.580  64.708  1.00  0.00    -0.270 C  
ENDBRANCH  19  20
ENDBRANCH  18  19
ENDBRANCH  15  17
ENDBRANCH   4  13
BRANCH  12  26
HETATM   26  N   UNL     1     -12.294  11.005  70.105  1.00  0.00    -0.317 NA 
HETATM   27  H   UNL     1     -12.976  10.825  69.368  1.00  0.00     0.000 HD 
BRANCH  26  28
HETATM   28  C   UNL     1     -11.279  10.030  70.212  1.00  0.00    -0.313 A  
HETATM   29  C   UNL     1     -11.168   9.311  71.415  1.00  0.00    -0.433 A  
HETATM   30  C   UNL     1     -10.069   8.479  71.658  1.00  0.00    -0.268 A  
HETATM   31  C   UNL     1      -9.169   9.017  69.494  1.00  0.00    -0.152 A  
HETATM   32  C   UNL     1     -10.268   9.846  69.255  1.00  0.00    -0.222 A  
HETATM   33  C   UNL     1      -9.065   8.352  70.705  1.00  0.00    -0.156 A  
HETATM   34  F   UNL     1      -7.979   7.601  70.938  1.00  0.00    -0.089 F  
HETATM   35 CL   UNL     1      -9.953   7.649  73.162  1.00  0.00    -0.333 Cl 
ENDBRANCH  26  28
ENDBRANCH  12  26
ENDBRANCH   2   3
TORSDOF 7
ENDMDL
MODEL       54
REMARK 921   NORMALIZED FREE ENERGY PREDICTED BY IDOCK:   -6.45 KCAL/MOL
REMARK 922        TOTAL FREE ENERGY PREDICTED BY IDOCK:  -10.00 KCAL/MOL
REMARK 923 INTER-LIGAND FREE ENERGY PREDICTED BY IDOCK:   -8.76 KCAL/MOL
REMARK 924 INTRA-LIGAND FREE ENERGY PREDICTED BY IDOCK:   -1.24 KCAL/MOL
REMARK 927      BINDING AFFINITY PREDICTED BY RF-SCORE:    0.00 PKD
ROOT
HETATM    1  C   UNL     1     -10.057   8.404  66.477  1.00  0.00    -0.247 C  
HETATM    2  O   UNL     1     -10.705   9.144  67.511  1.00  0.00    -0.273 OA 
ENDROOT
BRANCH   2   3
HETATM    3  C   UNL     1     -10.788  10.502  67.319  1.00  0.00    -0.279 A  
HETATM    4  C   UNL     1     -10.334  11.316  68.360  1.00  0.00    -0.192 A  
HETATM    5  N   UNL     1     -11.644  12.928  64.774  1.00  0.00    -0.317 NA 
HETATM    6  C   UNL     1     -10.409  12.712  68.227  1.00  0.00    -0.246 A  
HETATM    7  C   UNL     1     -11.246  12.478  65.966  1.00  0.00    -0.315 A  
HETATM    8  C   UNL     1     -11.693  14.248  64.626  1.00  0.00    -0.430 A  
HETATM    9  C   UNL     1     -10.866  13.315  67.025  1.00  0.00    -0.278 A  
HETATM   10  C   UNL     1     -11.209  11.105  66.131  1.00  0.00    -0.059 A  
HETATM   11  N   UNL     1     -11.393  15.147  65.561  1.00  0.00    -0.314 NA 
HETATM   12  C   UNL     1     -10.990  14.702  66.770  1.00  0.00    -0.323 A  
BRANCH   4  13
HETATM   13  N   UNL     1      -9.787  10.704  69.517  1.00  0.00    -0.413 N  
HETATM   14  H   UNL     1     -10.377  10.601  70.342  1.00  0.00     0.000 HD 
HETATM   15  C   UNL     1      -8.488  10.243  69.570  1.00  0.00    -0.142 C  
HETATM   16  O   UNL     1      -7.660  10.368  68.671  1.00  0.00    -0.083 OA 
BRANCH  15  17
HETATM   17  C   UNL     1      -8.171   9.448  70.795  1.00  0.00    -0.173 C  
HETATM   18  C   UNL     1      -9.175   8.758  71.367  1.00  0.00    -0.325 C  
BRANCH  18  19
HETATM   19  C   UNL     1      -9.135   8.034  72.683  1.00  0.00    -0.227 C  
BRANCH  19  20
HETATM   20  N   UNL     1      -8.804   6.602  72.617  1.00  0.00    -0.124 NA 
HETATM   21  C   UNL     1     -11.237   5.052  73.347  1.00  0.00    -0.391 C  
HETATM   22  C   UNL     1      -8.945   5.970  73.946  1.00  0.00    -0.127 C  
HETATM   23  C   UNL     1     -11.052   5.677  71.969  1.00  0.00    -0.291 C  
HETATM   24  C   UNL     1     -10.399   5.772  74.401  1.00  0.00    -0.271 C  
HETATM   25  C   UNL     1      -9.567   5.822  71.630  1.00  0.00    -0.153 C  
ENDBRANCH  19  20
ENDBRANCH  18  19
ENDBRANCH  15  17
ENDBRANCH   4  13
BRANCH  12  26
HETATM   26  N   UNL     1     -10.826  15.638  67.815  1.00  0.00    -0.301 NA 
HETATM   27  H   UNL     1     -11.447  15.493  68.612  1.00  0.00     0.000 HD 
BRANCH  26  28
HETATM   28  C   UNL     1      -9.952  16.739  67.949  1.00  0.00    -0.268 A  
HETATM   29  C   UNL     1      -8.657  16.506  68.442  1.00  0.00    -0.213 A  
HETATM   30  C   UNL     1      -7.815  17.570  68.785  1.00  0.00    -0.242 A  
HETATM   31  C   UNL     1      -9.508  19.141  68.115  1.00  0.00    -0.400 A  
HETATM   32  C   UNL     1     -10.346  18.075  67.774  1.00  0.00    -0.403 A  
HETATM   33  C   UNL     1      -8.252  18.882  68.638  1.00  0.00    -0.345 A  
HETATM   34  F   UNL     1      -7.481  19.915  69.007  1.00  0.00    -0.359 F  
HETATM   35 CL   UNL     1      -6.251  17.239  69.425  1.00  0.00    -0.235 Cl 
ENDBRANCH  26  28
ENDBRANCH  12  26
ENDBRANCH   2   3
TORSDOF 7
ENDMDL
MODEL       55
REMARK 921   NORMALIZED FREE ENERGY PREDICTED BY IDOCK:   -6.44 KCAL/MOL
REMARK 922        TOTAL FREE ENERGY PREDICTED BY IDOCK:  -10.00 KCAL/MOL
REMARK 923 INTER-LIGAND FREE ENERGY PREDICTED BY IDOCK:   -8.73 KCAL/MOL
REMARK 924 INTRA-LIGAND FREE ENERGY PREDICTED BY IDOCK:   -1.27 KCAL/MOL
REMARK 927      BINDING AFFINITY PREDICTED BY RF-SCORE:    0.00 PKD
ROOT
HETATM    1  C   UNL     1      -7.313   9.736  63.046  1.00  0.00    -0.118 C  
HETATM    2  O   UNL     1      -7.648  10.111  64.382  1.00  0.00    -0.144 OA 
ENDROOT
BRANCH   2   3
HETATM    3  C   UNL     1      -8.348   9.181  65.111  1.00  0.00    -0.154 A  
HETATM    4  C   UNL     1      -9.355   9.666  65.952  1.00  0.00    -0.218 A  
HETATM    5  N   UNL     1      -8.685   5.600  65.508  1.00  0.00    -0.154 NA 
HETATM    6  C   UNL     1     -10.094   8.764  66.733  1.00  0.00    -0.359 A  
HETATM    7  C   UNL     1      -8.929   6.894  65.726  1.00  0.00    -0.009 A  
HETATM    8  C   UNL     1      -9.398   4.735  66.221  1.00  0.00    -0.149 A  
HETATM    9  C   UNL     1      -9.892   7.362  66.631  1.00  0.00    -0.263 A  
HETATM   10  C   UNL     1      -8.178   7.799  64.997  1.00  0.00    -0.123 A  
HETATM   11  N   UNL     1     -10.314   5.050  67.135  1.00  0.00    -0.190 NA 
HETATM   12  C   UNL     1     -10.567   6.355  67.364  1.00  0.00    -0.295 A  
BRANCH   4  13
HETATM   13  N   UNL     1      -9.616  11.060  65.972  1.00  0.00    -0.206 N  
HETATM   14  H   UNL     1      -9.188  11.628  66.703  1.00  0.00     0.000 HD 
HETATM   15  C   UNL     1     -10.425  11.679  65.041  1.00  0.00    -0.285 C  
HETATM   16  O   UNL     1     -11.048  11.098  64.156  1.00  0.00    -0.317 OA 
BRANCH  15  17
HETATM   17  C   UNL     1     -10.404  13.171  65.109  1.00  0.00    -0.326 C  
HETATM   18  C   UNL     1     -10.865  13.751  66.233  1.00  0.00    -0.283 C  
BRANCH  18  19
HETATM   19  C   UNL     1     -11.096  15.218  66.460  1.00  0.00    -0.271 C  
BRANCH  19  20
HETATM   20  N   UNL     1     -10.367  15.814  67.591  1.00  0.00    -0.275 NA 
HETATM   21  C   UNL     1      -8.765  18.100  66.561  1.00  0.00    -0.286 C  
HETATM   22  C   UNL     1      -8.907  15.702  67.390  1.00  0.00    -0.191 C  
HETATM   23  C   UNL     1     -10.265  18.204  66.815  1.00  0.00    -0.379 C  
HETATM   24  C   UNL     1      -8.341  16.653  66.323  1.00  0.00    -0.360 C  
HETATM   25  C   UNL     1     -10.706  17.214  67.893  1.00  0.00    -0.355 C  
ENDBRANCH  19  20
ENDBRANCH  18  19
ENDBRANCH  15  17
ENDBRANCH   4  13
BRANCH  12  26
HETATM   26  N   UNL     1     -11.416   6.702  68.438  1.00  0.00    -0.545 NA 
HETATM   27  H   UNL     1     -12.403   6.775  68.190  1.00  0.00     0.000 HD 
BRANCH  26  28
HETATM   28  C   UNL     1     -11.135   6.966  69.797  1.00  0.00    -0.271 A  
HETATM   29  C   UNL     1     -11.121   5.886  70.696  1.00  0.00    -0.335 A  
HETATM   30  C   UNL     1     -11.047   6.101  72.078  1.00  0.00    -0.274 A  
HETATM   31  C   UNL     1     -10.957   8.477  71.715  1.00  0.00    -0.376 A  
HETATM   32  C   UNL     1     -11.030   8.258  70.337  1.00  0.00    -0.244 A  
HETATM   33  C   UNL     1     -10.986   7.396  72.581  1.00  0.00    -0.317 A  
HETATM   34  F   UNL     1     -10.966   7.626  73.901  1.00  0.00    -0.294 F  
HETATM   35 CL   UNL     1     -11.075   4.752  73.147  1.00  0.00    -0.365 Cl 
ENDBRANCH  26  28
ENDBRANCH  12  26
ENDBRANCH   2   3
TORSDOF 7
ENDMDL
MODEL       56
REMARK 921   NORMALIZED FREE ENERGY PREDICTED BY IDOCK:   -6.42 KCAL/MOL
REMARK 922        TOTAL FREE ENERGY PREDICTED BY IDOCK:   -9.97 KCAL/MOL
REMARK 923 INTER-LIGAND FREE ENERGY PREDICTED BY IDOCK:   -8.69 KCAL/MOL
REMARK 924 INTRA-LIGAND FREE ENERGY PREDICTED BY IDOCK:   -1.28 KCAL/MOL
REMARK 927      BINDING AFFINITY PREDICTED BY RF-SCORE:    0.00 PKD
ROOT
HETATM    1  C   UNL     1     -10.731   9.481  68.129  1.00  0.00    -0.197 C  
HETATM    2  O   UNL     1     -11.470  10.578  67.594  1.00  0.00    -0.444 OA 
ENDROOT
BRANCH   2   3
HETATM    3  C   UNL     1     -11.234  11.802  68.172  1.00  0.00    -0.260 A  
HETATM    4  C   UNL     1     -10.418  12.689  67.463  1.00  0.00    -0.221 A  
HETATM    5  N   UNL     1     -12.226  13.795  71.024  1.00  0.00    -0.352 NA 
HETATM    6  C   UNL     1     -10.129  13.948  68.012  1.00  0.00    -0.244 A  
HETATM    7  C   UNL     1     -11.585  13.492  69.894  1.00  0.00    -0.201 A  
HETATM    8  C   UNL     1     -11.983  14.996  71.539  1.00  0.00    -0.357 A  
HETATM    9  C   UNL     1     -10.710  14.370  69.237  1.00  0.00    -0.225 A  
HETATM   10  C   UNL     1     -11.822  12.237  69.362  1.00  0.00    -0.370 A  
HETATM   11  N   UNL     1     -11.151  15.904  71.034  1.00  0.00    -0.300 NA 
HETATM   12  C   UNL     1     -10.496  15.607  69.892  1.00  0.00    -0.320 A  
BRANCH   4  13
HETATM   13  N   UNL     1      -9.924  12.296  66.192  1.00  0.00    -0.238 N  
HETATM   14  H   UNL     1      -9.023  11.821  66.143  1.00  0.00     0.000 HD 
HETATM   15  C   UNL     1     -10.614  12.530  65.021  1.00  0.00    -0.300 C  
HETATM   16  O   UNL     1     -11.673  13.148  64.941  1.00  0.00    -0.317 OA 
BRANCH  15  17
HETATM   17  C   UNL     1     -10.029  11.858  63.822  1.00  0.00    -0.379 C  
HETATM   18  C   UNL     1      -9.522  10.622  63.985  1.00  0.00    -0.329 C  
BRANCH  18  19
HETATM   19  C   UNL     1      -8.741   9.828  62.977  1.00  0.00    -0.227 C  
BRANCH  19  20
HETATM   20  N   UNL     1      -7.436   9.323  63.432  1.00  0.00    -0.096 NA 
HETATM   21  C   UNL     1      -7.666   6.382  63.825  1.00  0.00    -0.111 C  
HETATM   22  C   UNL     1      -7.545   8.732  64.782  1.00  0.00    -0.107 C  
HETATM   23  C   UNL     1      -7.512   7.011  62.444  1.00  0.00    -0.086 C  
HETATM   24  C   UNL     1      -8.260   7.373  64.823  1.00  0.00    -0.060 C  
HETATM   25  C   UNL     1      -6.786   8.354  62.534  1.00  0.00    -0.091 C  
ENDBRANCH  19  20
ENDBRANCH  18  19
ENDBRANCH  15  17
ENDBRANCH   4  13
BRANCH  12  26
HETATM   26  N   UNL     1      -9.494  16.492  69.436  1.00  0.00    -0.141 NA 
HETATM   27  H   UNL     1      -8.572  16.331  69.842  1.00  0.00     0.000 HD 
BRANCH  26  28
HETATM   28  C   UNL     1      -9.547  17.562  68.516  1.00  0.00    -0.305 A  
HETATM   29  C   UNL     1      -8.447  18.434  68.444  1.00  0.00    -0.345 A  
HETATM   30  C   UNL     1      -8.516  19.620  67.703  1.00  0.00    -0.319 A  
HETATM   31  C   UNL     1     -10.768  19.090  67.044  1.00  0.00    -0.516 A  
HETATM   32  C   UNL     1     -10.694  17.908  67.784  1.00  0.00    -0.339 A  
HETATM   33  C   UNL     1      -9.683  19.952  67.024  1.00  0.00    -0.401 A  
HETATM   34  F   UNL     1      -9.788  21.106  66.350  1.00  0.00    -0.122 F  
HETATM   35 CL   UNL     1      -7.160  20.680  67.675  1.00  0.00    -0.365 Cl 
ENDBRANCH  26  28
ENDBRANCH  12  26
ENDBRANCH   2   3
TORSDOF 7
ENDMDL
MODEL       57
REMARK 921   NORMALIZED FREE ENERGY PREDICTED BY IDOCK:   -6.42 KCAL/MOL
REMARK 922        TOTAL FREE ENERGY PREDICTED BY IDOCK:   -9.97 KCAL/MOL
REMARK 923 INTER-LIGAND FREE ENERGY PREDICTED BY IDOCK:   -9.30 KCAL/MOL
REMARK 924 INTRA-LIGAND FREE ENERGY PREDICTED BY IDOCK:   -0.67 KCAL/MOL
REMARK 927      BINDING AFFINITY PREDICTED BY RF-SCORE:    0.00 PKD
ROOT
HETATM    1  C   UNL     1      -9.900  11.759  63.155  1.00  0.00    -0.336 C  
HETATM    2  O   UNL     1     -11.072  12.280  63.780  1.00  0.00    -0.367 OA 
ENDROOT
BRANCH   2   3
HETATM    3  C   UNL     1     -10.864  13.188  64.789  1.00  0.00    -0.352 A  
HETATM    4  C   UNL     1     -10.531  12.672  66.045  1.00  0.00    -0.268 A  
HETATM    5  N   UNL     1     -10.646  16.756  65.351  1.00  0.00    -0.596 NA 
HETATM    6  C   UNL     1     -10.322  13.552  67.119  1.00  0.00    -0.250 A  
HETATM    7  C   UNL     1     -10.627  15.457  65.652  1.00  0.00    -0.364 A  
HETATM    8  C   UNL     1     -10.421  17.599  66.353  1.00  0.00    -0.286 A  
HETATM    9  C   UNL     1     -10.366  14.960  66.938  1.00  0.00    -0.264 A  
HETATM   10  C   UNL     1     -10.876  14.575  64.616  1.00  0.00    -0.351 A  
HETATM   11  N   UNL     1     -10.197  17.258  67.621  1.00  0.00    -0.320 NA 
HETATM   12  C   UNL     1     -10.177  15.947  67.936  1.00  0.00    -0.251 A  
BRANCH   4  13
HETATM   13  N   UNL     1     -10.392  11.268  66.191  1.00  0.00    -0.244 N  
HETATM   14  H   UNL     1      -9.758  10.771  65.565  1.00  0.00     0.000 HD 
HETATM   15  C   UNL     1     -11.079  10.548  67.147  1.00  0.00    -0.160 C  
HETATM   16  O   UNL     1     -11.917  11.018  67.913  1.00  0.00    -0.620 OA 
BRANCH  15  17
HETATM   17  C   UNL     1     -10.638   9.126  67.275  1.00  0.00    -0.303 C  
HETATM   18  C   UNL     1      -9.543   8.877  68.016  1.00  0.00    -0.167 C  
BRANCH  18  19
HETATM   19  C   UNL     1      -8.824   7.565  68.148  1.00  0.00    -0.127 C  
BRANCH  19  20
HETATM   20  N   UNL     1      -7.773   7.307  67.151  1.00  0.00    -0.110 NA 
HETATM   21  C   UNL     1      -7.961   4.455  66.322  1.00  0.00    -0.099 C  
HETATM   22  C   UNL     1      -6.817   6.295  67.648  1.00  0.00    -0.069 C  
HETATM   23  C   UNL     1      -8.910   5.523  65.790  1.00  0.00    -0.154 C  
HETATM   24  C   UNL     1      -7.367   4.860  67.669  1.00  0.00    -0.078 C  
HETATM   25  C   UNL     1      -8.252   6.902  65.819  1.00  0.00    -0.132 C  
ENDBRANCH  19  20
ENDBRANCH  18  19
ENDBRANCH  15  17
ENDBRANCH   4  13
BRANCH  12  26
HETATM   26  N   UNL     1     -10.101  15.579  69.298  1.00  0.00    -0.239 NA 
HETATM   27  H   UNL     1      -9.165  15.639  69.699  1.00  0.00     0.000 HD 
BRANCH  26  28
HETATM   28  C   UNL     1     -11.095  15.142  70.200  1.00  0.00    -0.274 A  
HETATM   29  C   UNL     1     -11.392  13.769  70.251  1.00  0.00     0.039 A  
HETATM   30  C   UNL     1     -12.496  13.297  70.972  1.00  0.00    -0.336 A  
HETATM   31  C   UNL     1     -13.024  15.542  71.654  1.00  0.00    -0.540 A  
HETATM   32  C   UNL     1     -11.922  16.008  70.933  1.00  0.00    -0.376 A  
HETATM   33  C   UNL     1     -13.318  14.188  71.653  1.00  0.00    -0.364 A  
HETATM   34  F   UNL     1     -14.408  13.764  72.307  1.00  0.00    -0.553 F  
HETATM   35 CL   UNL     1     -12.847  11.611  70.974  1.00  0.00    -0.386 Cl 
ENDBRANCH  26  28
ENDBRANCH  12  26
ENDBRANCH   2   3
TORSDOF 7
ENDMDL
MODEL       58
REMARK 921   NORMALIZED FREE ENERGY PREDICTED BY IDOCK:   -6.36 KCAL/MOL
REMARK 922        TOTAL FREE ENERGY PREDICTED BY IDOCK:   -9.88 KCAL/MOL
REMARK 923 INTER-LIGAND FREE ENERGY PREDICTED BY IDOCK:   -8.60 KCAL/MOL
REMARK 924 INTRA-LIGAND FREE ENERGY PREDICTED BY IDOCK:   -1.28 KCAL/MOL
REMARK 927      BINDING AFFINITY PREDICTED BY RF-SCORE:    0.00 PKD
ROOT
HETATM    1  C   UNL     1     -13.439  12.880  72.383  1.00  0.00    -0.471 C  
HETATM    2  O   UNL     1     -13.404  12.184  71.138  1.00  0.00    -0.004 OA 
ENDROOT
BRANCH   2   3
HETATM    3  C   UNL     1     -12.543  11.116  71.069  1.00  0.00    -0.403 A  
HETATM    4  C   UNL     1     -11.479  11.218  70.168  1.00  0.00    -0.247 A  
HETATM    5  N   UNL     1     -11.872   7.946  72.681  1.00  0.00    -0.336 NA 
HETATM    6  C   UNL     1     -10.576  10.150  70.043  1.00  0.00    -0.338 A  
HETATM    7  C   UNL     1     -11.707   8.951  71.819  1.00  0.00    -0.362 A  
HETATM    8  C   UNL     1     -11.006   6.942  72.591  1.00  0.00    -0.268 A  
HETATM    9  C   UNL     1     -10.676   9.000  70.869  1.00  0.00    -0.319 A  
HETATM   10  C   UNL     1     -12.615   9.991  71.896  1.00  0.00    -0.454 A  
HETATM   11  N   UNL     1     -10.009   6.851  71.714  1.00  0.00    -0.174 NA 
HETATM   12  C   UNL     1      -9.834   7.861  70.837  1.00  0.00    -0.178 A  
BRANCH   4  13
HETATM   13  N   UNL     1     -11.331  12.414  69.419  1.00  0.00    -0.401 N  
HETATM   14  H   UNL     1     -11.023  13.258  69.901  1.00  0.00     0.000 HD 
HETATM   15  C   UNL     1     -11.588  12.480  68.065  1.00  0.00    -0.342 C  
HETATM   16  O   UNL     1     -12.027  11.554  67.387  1.00  0.00    -0.623 OA 
BRANCH  15  17
HETATM   17  C   UNL     1     -11.173  13.766  67.427  1.00  0.00    -0.330 C  
HETATM   18  C   UNL     1     -10.921  14.811  68.236  1.00  0.00    -0.264 C  
BRANCH  18  19
HETATM   19  C   UNL     1     -10.657  16.230  67.819  1.00  0.00    -0.314 C  
BRANCH  19  20
HETATM   20  N   UNL     1      -9.932  17.060  68.794  1.00  0.00    -0.278 NA 
HETATM   21  C   UNL     1      -7.539  18.201  67.443  1.00  0.00    -0.220 C  
HETATM   22  C   UNL     1      -8.579  16.519  69.039  1.00  0.00    -0.208 C  
HETATM   23  C   UNL     1      -8.939  18.768  67.238  1.00  0.00    -0.287 C  
HETATM   24  C   UNL     1      -7.591  16.740  67.882  1.00  0.00    -0.177 C  
HETATM   25  C   UNL     1      -9.825  18.488  68.452  1.00  0.00    -0.372 C  
ENDBRANCH  19  20
ENDBRANCH  18  19
ENDBRANCH  15  17
ENDBRANCH   4  13
BRANCH  12  26
HETATM   26  N   UNL     1      -8.886   7.703  69.802  1.00  0.00    -0.140 NA 
HETATM   27  H   UNL     1      -8.024   8.233  69.936  1.00  0.00     0.000 HD 
BRANCH  26  28
HETATM   28  C   UNL     1      -8.924   6.941  68.615  1.00  0.00    -0.129 A  
HETATM   29  C   UNL     1      -7.789   6.941  67.786  1.00  0.00    -0.113 A  
HETATM   30  C   UNL     1      -7.831   6.372  66.507  1.00  0.00    -0.104 A  
HETATM   31  C   UNL     1     -10.127   5.742  66.851  1.00  0.00    -0.231 A  
HETATM   32  C   UNL     1     -10.080   6.311  68.126  1.00  0.00    -0.173 A  
HETATM   33  C   UNL     1      -9.006   5.794  66.039  1.00  0.00    -0.151 A  
HETATM   34  F   UNL     1      -9.082   5.288  64.799  1.00  0.00    -0.153 F  
HETATM   35 CL   UNL     1      -6.430   6.431  65.508  1.00  0.00    -0.038 Cl 
ENDBRANCH  26  28
ENDBRANCH  12  26
ENDBRANCH   2   3
TORSDOF 7
ENDMDL
MODEL       59
REMARK 921   NORMALIZED FREE ENERGY PREDICTED BY IDOCK:   -6.35 KCAL/MOL
REMARK 922        TOTAL FREE ENERGY PREDICTED BY IDOCK:   -9.87 KCAL/MOL
REMARK 923 INTER-LIGAND FREE ENERGY PREDICTED BY IDOCK:   -8.94 KCAL/MOL
REMARK 924 INTRA-LIGAND FREE ENERGY PREDICTED BY IDOCK:   -0.93 KCAL/MOL
REMARK 927      BINDING AFFINITY PREDICTED BY RF-SCORE:    0.00 PKD
ROOT
HETATM    1  C   UNL     1      -5.211  11.282  66.956  1.00  0.00    -0.073 C  
HETATM    2  O   UNL     1      -5.829  11.854  68.108  1.00  0.00    -0.049 OA 
ENDROOT
BRANCH   2   3
HETATM    3  C   UNL     1      -7.005  11.271  68.513  1.00  0.00    -0.078 A  
HETATM    4  C   UNL     1      -8.190  11.913  68.141  1.00  0.00    -0.158 A  
HETATM    5  N   UNL     1      -8.238   8.296  70.163  1.00  0.00    -0.115 NA 
HETATM    6  C   UNL     1      -9.422  11.371  68.541  1.00  0.00    -0.183 A  
HETATM    7  C   UNL     1      -8.295   9.477  69.546  1.00  0.00    -0.145 A  
HETATM    8  C   UNL     1      -9.400   7.759  70.521  1.00  0.00    -0.163 A  
HETATM    9  C   UNL     1      -9.493  10.143  69.249  1.00  0.00    -0.231 A  
HETATM   10  C   UNL     1      -7.087  10.048  69.185  1.00  0.00    -0.069 A  
HETATM   11  N   UNL     1     -10.599   8.303  70.330  1.00  0.00    -0.219 NA 
HETATM   12  C   UNL     1     -10.668   9.499  69.708  1.00  0.00    -0.239 A  
BRANCH   4  13
HETATM   13  N   UNL     1      -8.111  13.086  67.348  1.00  0.00    -0.178 N  
HETATM   14  H   UNL     1      -7.890  12.993  66.357  1.00  0.00     0.000 HD 
HETATM   15  C   UNL     1      -8.322  14.349  67.864  1.00  0.00    -0.162 C  
HETATM   16  O   UNL     1      -8.529  14.597  69.049  1.00  0.00    -0.157 OA 
BRANCH  15  17
HETATM   17  C   UNL     1      -8.401  15.425  66.832  1.00  0.00    -0.290 C  
HETATM   18  C   UNL     1      -7.677  16.541  67.038  1.00  0.00    -0.244 C  
BRANCH  18  19
HETATM   19  C   UNL     1      -7.728  17.809  66.234  1.00  0.00    -0.273 C  
BRANCH  19  20
HETATM   20  N   UNL     1      -7.968  19.044  66.998  1.00  0.00    -0.251 NA 
HETATM   21  C   UNL     1     -10.886  19.240  67.548  1.00  0.00    -0.524 C  
HETATM   22  C   UNL     1      -8.835  19.969  66.239  1.00  0.00    -0.292 C  
HETATM   23  C   UNL     1      -9.966  18.323  68.346  1.00  0.00    -0.401 C  
HETATM   24  C   UNL     1     -10.309  19.541  66.167  1.00  0.00    -0.614 C  
HETATM   25  C   UNL     1      -8.532  18.853  68.345  1.00  0.00    -0.350 C  
ENDBRANCH  19  20
ENDBRANCH  18  19
ENDBRANCH  15  17
ENDBRANCH   4  13
BRANCH  12  26
HETATM   26  N   UNL     1     -11.915  10.159  69.644  1.00  0.00    -0.485 NA 
HETATM   27  H   UNL     1     -12.574   9.751  68.980  1.00  0.00     0.000 HD 
BRANCH  26  28
HETATM   28  C   UNL     1     -12.408  11.284  70.339  1.00  0.00    -0.329 A  
HETATM   29  C   UNL     1     -12.068  12.563  69.864  1.00  0.00    -0.322 A  
HETATM   30  C   UNL     1     -12.356  13.709  70.615  1.00  0.00    -0.368 A  
HETATM   31  C   UNL     1     -13.370  12.352  72.322  1.00  0.00    -0.427 A  
HETATM   32  C   UNL     1     -13.082  11.210  71.569  1.00  0.00    -0.489 A  
HETATM   33  C   UNL     1     -12.987  13.596  71.849  1.00  0.00    -0.341 A  
HETATM   34  F   UNL     1     -13.226  14.676  72.606  1.00  0.00    -0.384 F  
HETATM   35 CL   UNL     1     -11.885  15.253  70.015  1.00  0.00    -0.334 Cl 
ENDBRANCH  26  28
ENDBRANCH  12  26
ENDBRANCH   2   3
TORSDOF 7
ENDMDL
MODEL       60
REMARK 921   NORMALIZED FREE ENERGY PREDICTED BY IDOCK:   -6.34 KCAL/MOL
REMARK 922        TOTAL FREE ENERGY PREDICTED BY IDOCK:   -9.86 KCAL/MOL
REMARK 923 INTER-LIGAND FREE ENERGY PREDICTED BY IDOCK:   -9.11 KCAL/MOL
REMARK 924 INTRA-LIGAND FREE ENERGY PREDICTED BY IDOCK:   -0.75 KCAL/MOL
REMARK 927      BINDING AFFINITY PREDICTED BY RF-SCORE:    0.00 PKD
ROOT
HETATM    1  C   UNL     1      -5.576  12.724  70.468  1.00  0.00    -0.173 C  
HETATM    2  O   UNL     1      -6.384  12.216  69.408  1.00  0.00    -0.098 OA 
ENDROOT
BRANCH   2   3
HETATM    3  C   UNL     1      -7.022  13.153  68.633  1.00  0.00    -0.102 A  
HETATM    4  C   UNL     1      -8.384  12.953  68.392  1.00  0.00    -0.116 A  
HETATM    5  N   UNL     1      -6.426  16.342  67.028  1.00  0.00    -0.259 NA 
HETATM    6  C   UNL     1      -9.085  13.871  67.593  1.00  0.00    -0.197 A  
HETATM    7  C   UNL     1      -7.108  15.258  67.405  1.00  0.00    -0.191 A  
HETATM    8  C   UNL     1      -7.087  17.232  66.296  1.00  0.00    -0.276 A  
HETATM    9  C   UNL     1      -8.457  15.039  67.088  1.00  0.00    -0.244 A  
HETATM   10  C   UNL     1      -6.421  14.321  68.155  1.00  0.00    -0.135 A  
HETATM   11  N   UNL     1      -8.353  17.126  65.899  1.00  0.00    -0.530 NA 
HETATM   12  C   UNL     1      -9.051  16.033  66.273  1.00  0.00    -0.344 A  
BRANCH   4  13
HETATM   13  N   UNL     1      -9.026  11.835  68.984  1.00  0.00    -0.371 N  
HETATM   14  H   UNL     1      -9.313  11.896  69.961  1.00  0.00     0.000 HD 
HETATM   15  C   UNL     1      -9.277  10.668  68.291  1.00  0.00    -0.153 C  
HETATM   16  O   UNL     1      -8.922  10.448  67.136  1.00  0.00    -0.139 OA 
BRANCH  15  17
HETATM   17  C   UNL     1     -10.142   9.696  69.025  1.00  0.00    -0.193 C  
HETATM   18  C   UNL     1     -10.476   9.993  70.294  1.00  0.00    -0.331 C  
BRANCH  18  19
HETATM   19  C   UNL     1     -11.186   9.100  71.271  1.00  0.00    -0.337 C  
BRANCH  19  20
HETATM   20  N   UNL     1     -10.333   8.436  72.269  1.00  0.00    -0.314 NA 
HETATM   21  C   UNL     1     -10.337   5.516  71.696  1.00  0.00    -0.277 C  
HETATM   22  C   UNL     1     -11.123   7.491  73.087  1.00  0.00    -0.326 C  
HETATM   23  C   UNL     1      -9.499   6.503  70.892  1.00  0.00    -0.179 C  
HETATM   24  C   UNL     1     -11.531   6.205  72.351  1.00  0.00    -0.349 C  
HETATM   25  C   UNL     1      -9.156   7.737  71.729  1.00  0.00    -0.137 C  
ENDBRANCH  19  20
ENDBRANCH  18  19
ENDBRANCH  15  17
ENDBRANCH   4  13
BRANCH  12  26
HETATM   26  N   UNL     1     -10.338  15.833  65.727  1.00  0.00    -0.345 NA 
HETATM   27  H   UNL     1     -10.880  16.688  65.600  1.00  0.00     0.000 HD 
BRANCH  26  28
HETATM   28  C   UNL     1     -11.005  14.654  65.326  1.00  0.00    -0.367 A  
HETATM   29  C   UNL     1     -10.313  13.741  64.512  1.00  0.00    -0.311 A  
HETATM   30  C   UNL     1     -10.976  12.659  63.920  1.00  0.00    -0.424 A  
HETATM   31  C   UNL     1     -13.035  13.333  64.966  1.00  0.00    -0.228 A  
HETATM   32  C   UNL     1     -12.369  14.411  65.554  1.00  0.00    -0.352 A  
HETATM   33  C   UNL     1     -12.337  12.472  64.134  1.00  0.00    -0.462 A  
HETATM   34  F   UNL     1     -13.001  11.472  63.537  1.00  0.00    -0.554 F  
HETATM   35 CL   UNL     1     -10.099  11.587  62.896  1.00  0.00    -0.293 Cl 
ENDBRANCH  26  28
ENDBRANCH  12  26
ENDBRANCH   2   3
TORSDOF 7
ENDMDL
MODEL       61
REMARK 921   NORMALIZED FREE ENERGY PREDICTED BY IDOCK:   -6.34 KCAL/MOL
REMARK 922        TOTAL FREE ENERGY PREDICTED BY IDOCK:   -9.86 KCAL/MOL
REMARK 923 INTER-LIGAND FREE ENERGY PREDICTED BY IDOCK:   -8.84 KCAL/MOL
REMARK 924 INTRA-LIGAND FREE ENERGY PREDICTED BY IDOCK:   -1.02 KCAL/MOL
REMARK 927      BINDING AFFINITY PREDICTED BY RF-SCORE:    0.00 PKD
ROOT
HETATM    1  C   UNL     1     -12.330  12.498  63.122  1.00  0.00    -0.196 C  
HETATM    2  O   UNL     1     -11.016  12.706  63.637  1.00  0.00    -0.426 OA 
ENDROOT
BRANCH   2   3
HETATM    3  C   UNL     1     -10.336  11.578  64.026  1.00  0.00    -0.355 A  
HETATM    4  C   UNL     1     -10.393  11.241  65.381  1.00  0.00    -0.272 A  
HETATM    5  N   UNL     1      -8.457   8.816  62.634  1.00  0.00    -0.201 NA 
HETATM    6  C   UNL     1      -9.703  10.107  65.839  1.00  0.00    -0.292 A  
HETATM    7  C   UNL     1      -9.030   9.569  63.576  1.00  0.00    -0.173 A  
HETATM    8  C   UNL     1      -7.825   7.725  63.052  1.00  0.00    -0.136 A  
HETATM    9  C   UNL     1      -9.011   9.252  64.942  1.00  0.00    -0.229 A  
HETATM   10  C   UNL     1      -9.675  10.715  63.148  1.00  0.00    -0.375 A  
HETATM   11  N   UNL     1      -7.705   7.333  64.319  1.00  0.00    -0.119 NA 
HETATM   12  C   UNL     1      -8.279   8.088  65.279  1.00  0.00    -0.146 A  
BRANCH   4  13
HETATM   13  N   UNL     1     -11.170  12.046  66.253  1.00  0.00    -0.328 N  
HETATM   14  H   UNL     1     -12.133  11.770  66.447  1.00  0.00     0.000 HD 
HETATM   15  C   UNL     1     -10.675  13.188  66.849  1.00  0.00    -0.263 C  
HETATM   16  O   UNL     1      -9.560  13.660  66.645  1.00  0.00    -0.268 OA 
BRANCH  15  17
HETATM   17  C   UNL     1     -11.575  13.774  67.889  1.00  0.00    -0.376 C  
HETATM   18  C   UNL     1     -11.332  13.457  69.174  1.00  0.00    -0.333 C  
BRANCH  18  19
HETATM   19  C   UNL     1     -12.193  13.785  70.361  1.00  0.00    -0.363 C  
BRANCH  19  20
HETATM   20  N   UNL     1     -12.598  15.194  70.489  1.00  0.00    -0.369 NA 
HETATM   21  C   UNL     1     -12.991  15.785  73.379  1.00  0.00    -0.696 C  
HETATM   22  C   UNL     1     -13.950  15.298  71.077  1.00  0.00    -0.282 C  
HETATM   23  C   UNL     1     -11.608  15.713  72.743  1.00  0.00    -0.446 C  
HETATM   24  C   UNL     1     -14.013  14.981  72.579  1.00  0.00    -0.551 C  
HETATM   25  C   UNL     1     -11.674  16.049  71.252  1.00  0.00    -0.461 C  
ENDBRANCH  19  20
ENDBRANCH  18  19
ENDBRANCH  15  17
ENDBRANCH   4  13
BRANCH  12  26
HETATM   26  N   UNL     1      -8.023   7.772  66.632  1.00  0.00    -0.105 NA 
HETATM   27  H   UNL     1      -7.334   8.375  67.082  1.00  0.00     0.000 HD 
BRANCH  26  28
HETATM   28  C   UNL     1      -8.555   6.768  67.469  1.00  0.00    -0.120 A  
HETATM   29  C   UNL     1      -7.667   6.023  68.264  1.00  0.00    -0.102 A  
HETATM   30  C   UNL     1      -8.103   4.889  68.960  1.00  0.00    -0.079 A  
HETATM   31  C   UNL     1     -10.335   5.223  68.132  1.00  0.00    -0.181 A  
HETATM   32  C   UNL     1      -9.897   6.354  67.438  1.00  0.00    -0.158 A  
HETATM   33  C   UNL     1      -9.430   4.483  68.874  1.00  0.00    -0.160 A  
HETATM   34  F   UNL     1      -9.856   3.372  69.492  1.00  0.00    -0.241 F  
HETATM   35 CL   UNL     1      -6.972   3.981  69.889  1.00  0.00    -0.041 Cl 
ENDBRANCH  26  28
ENDBRANCH  12  26
ENDBRANCH   2   3
TORSDOF 7
ENDMDL
MODEL       62
REMARK 921   NORMALIZED FREE ENERGY PREDICTED BY IDOCK:   -6.34 KCAL/MOL
REMARK 922        TOTAL FREE ENERGY PREDICTED BY IDOCK:   -9.85 KCAL/MOL
REMARK 923 INTER-LIGAND FREE ENERGY PREDICTED BY IDOCK:   -8.66 KCAL/MOL
REMARK 924 INTRA-LIGAND FREE ENERGY PREDICTED BY IDOCK:   -1.19 KCAL/MOL
REMARK 927      BINDING AFFINITY PREDICTED BY RF-SCORE:    0.00 PKD
ROOT
HETATM    1  C   UNL     1     -11.341   5.798  72.596  1.00  0.00    -0.300 C  
HETATM    2  O   UNL     1     -11.315   6.131  71.209  1.00  0.00    -0.292 OA 
ENDROOT
BRANCH   2   3
HETATM    3  C   UNL     1     -11.371   7.470  70.910  1.00  0.00    -0.277 A  
HETATM    4  C   UNL     1     -10.632   7.903  69.805  1.00  0.00    -0.242 A  
HETATM    5  N   UNL     1     -13.064  10.503  71.926  1.00  0.00    -0.479 NA 
HETATM    6  C   UNL     1     -10.639   9.264  69.461  1.00  0.00    -0.236 A  
HETATM    7  C   UNL     1     -12.234   9.730  71.223  1.00  0.00    -0.374 A  
HETATM    8  C   UNL     1     -13.100  11.788  71.591  1.00  0.00    -0.338 A  
HETATM    9  C   UNL     1     -11.442  10.199  70.165  1.00  0.00    -0.368 A  
HETATM   10  C   UNL     1     -12.180   8.394  71.578  1.00  0.00    -0.340 A  
HETATM   11  N   UNL     1     -12.375  12.364  70.634  1.00  0.00    -0.333 NA 
HETATM   12  C   UNL     1     -11.532  11.590  69.918  1.00  0.00    -0.260 A  
BRANCH   4  13
HETATM   13  N   UNL     1      -9.912   6.944  69.047  1.00  0.00    -0.155 N  
HETATM   14  H   UNL     1      -9.015   6.612  69.402  1.00  0.00     0.000 HD 
HETATM   15  C   UNL     1     -10.377   6.441  67.849  1.00  0.00    -0.190 C  
HETATM   16  O   UNL     1     -11.405   6.807  67.286  1.00  0.00    -0.300 OA 
BRANCH  15  17
HETATM   17  C   UNL     1      -9.579   5.296  67.317  1.00  0.00    -0.147 C  
HETATM   18  C   UNL     1     -10.018   4.699  66.193  1.00  0.00    -0.266 C  
BRANCH  18  19
HETATM   19  C   UNL     1      -9.483   3.439  65.574  1.00  0.00    -0.127 C  
BRANCH  19  20
HETATM   20  N   UNL     1      -9.441   3.415  64.103  1.00  0.00    -0.131 NA 
HETATM   21  C   UNL     1      -6.590   3.494  63.255  1.00  0.00    -0.030 C  
HETATM   22  C   UNL     1      -8.828   4.653  63.576  1.00  0.00    -0.129 C  
HETATM   23  C   UNL     1      -7.254   2.220  63.762  1.00  0.00    -0.052 C  
HETATM   24  C   UNL     1      -7.306   4.739  63.773  1.00  0.00    -0.054 C  
HETATM   25  C   UNL     1      -8.762   2.252  63.509  1.00  0.00    -0.085 C  
ENDBRANCH  19  20
ENDBRANCH  18  19
ENDBRANCH  15  17
ENDBRANCH   4  13
BRANCH  12  26
HETATM   26  N   UNL     1     -10.644  12.214  69.014  1.00  0.00    -0.399 NA 
HETATM   27  H   UNL     1      -9.697  12.337  69.371  1.00  0.00     0.000 HD 
BRANCH  26  28
HETATM   28  C   UNL     1     -10.841  12.697  67.702  1.00  0.00    -0.221 A  
HETATM   29  C   UNL     1     -10.216  13.901  67.334  1.00  0.00    -0.252 A  
HETATM   30  C   UNL     1     -10.527  14.533  66.124  1.00  0.00    -0.298 A  
HETATM   31  C   UNL     1     -12.065  12.765  65.583  1.00  0.00    -0.514 A  
HETATM   32  C   UNL     1     -11.751  12.137  66.791  1.00  0.00    -0.377 A  
HETATM   33  C   UNL     1     -11.465  13.972  65.264  1.00  0.00    -0.322 A  
HETATM   34  F   UNL     1     -11.815  14.586  64.125  1.00  0.00    -0.409 F  
HETATM   35 CL   UNL     1      -9.769  16.028  65.731  1.00  0.00    -0.362 Cl 
ENDBRANCH  26  28
ENDBRANCH  12  26
ENDBRANCH   2   3
TORSDOF 7
ENDMDL
MODEL       63
REMARK 921   NORMALIZED FREE ENERGY PREDICTED BY IDOCK:   -6.29 KCAL/MOL
REMARK 922        TOTAL FREE ENERGY PREDICTED BY IDOCK:   -9.78 KCAL/MOL
REMARK 923 INTER-LIGAND FREE ENERGY PREDICTED BY IDOCK:   -8.56 KCAL/MOL
REMARK 924 INTRA-LIGAND FREE ENERGY PREDICTED BY IDOCK:   -1.22 KCAL/MOL
REMARK 927      BINDING AFFINITY PREDICTED BY RF-SCORE:    0.00 PKD
ROOT
HETATM    1  C   UNL     1     -11.013  15.138  66.452  1.00  0.00    -0.329 C  
HETATM    2  O   UNL     1     -10.777  13.734  66.533  1.00  0.00    -0.282 OA 
ENDROOT
BRANCH   2   3
HETATM    3  C   UNL     1     -11.287  13.099  67.638  1.00  0.00    -0.298 A  
HETATM    4  C   UNL     1     -11.255  11.701  67.636  1.00  0.00    -0.281 A  
HETATM    5  N   UNL     1     -12.609  13.823  70.928  1.00  0.00    -0.353 NA 
HETATM    6  C   UNL     1     -11.777  10.998  68.733  1.00  0.00    -0.383 A  
HETATM    7  C   UNL     1     -12.222  13.079  69.891  1.00  0.00    -0.202 A  
HETATM    8  C   UNL     1     -13.079  13.168  71.984  1.00  0.00    -0.376 A  
HETATM    9  C   UNL     1     -12.268  11.677  69.879  1.00  0.00    -0.310 A  
HETATM   10  C   UNL     1     -11.746  13.757  68.783  1.00  0.00    -0.391 A  
HETATM   11  N   UNL     1     -13.208  11.846  72.085  1.00  0.00    -0.423 NA 
HETATM   12  C   UNL     1     -12.821  11.085  71.041  1.00  0.00    -0.346 A  
BRANCH   4  13
HETATM   13  N   UNL     1     -10.670  11.033  66.529  1.00  0.00    -0.259 N  
HETATM   14  H   UNL     1     -11.245  10.857  65.705  1.00  0.00     0.000 HD 
HETATM   15  C   UNL     1      -9.356  10.613  66.523  1.00  0.00    -0.167 C  
HETATM   16  O   UNL     1      -8.584  10.707  67.475  1.00  0.00    -0.122 OA 
BRANCH  15  17
HETATM   17  C   UNL     1      -8.878  10.123  65.196  1.00  0.00    -0.207 C  
HETATM   18  C   UNL     1      -8.614   8.809  65.074  1.00  0.00    -0.196 C  
BRANCH  18  19
HETATM   19  C   UNL     1      -7.970   8.124  63.903  1.00  0.00    -0.138 C  
BRANCH  19  20
HETATM   20  N   UNL     1      -7.056   7.017  64.230  1.00  0.00    -0.055 NA 
HETATM   21  C   UNL     1      -8.587   4.471  64.065  1.00  0.00    -0.133 C  
HETATM   22  C   UNL     1      -7.506   6.309  65.447  1.00  0.00    -0.083 C  
HETATM   23  C   UNL     1      -8.077   5.197  62.825  1.00  0.00    -0.094 C  
HETATM   24  C   UNL     1      -8.749   5.428  65.243  1.00  0.00    -0.145 C  
HETATM   25  C   UNL     1      -6.842   6.037  63.154  1.00  0.00    -0.044 C  
ENDBRANCH  19  20
ENDBRANCH  18  19
ENDBRANCH  15  17
ENDBRANCH   4  13
BRANCH  12  26
HETATM   26  N   UNL     1     -13.100   9.700  71.072  1.00  0.00    -0.533 NA 
HETATM   27  H   UNL     1     -13.983   9.439  70.631  1.00  0.00     0.000 HD 
BRANCH  26  28
HETATM   28  C   UNL     1     -12.371   8.616  71.607  1.00  0.00    -0.333 A  
HETATM   29  C   UNL     1     -11.065   8.855  72.069  1.00  0.00    -0.421 A  
HETATM   30  C   UNL     1     -10.222   7.795  72.424  1.00  0.00    -0.247 A  
HETATM   31  C   UNL     1     -11.967   6.221  71.912  1.00  0.00    -0.342 A  
HETATM   32  C   UNL     1     -12.805   7.282  71.559  1.00  0.00    -0.430 A  
HETATM   33  C   UNL     1     -10.671   6.482  72.325  1.00  0.00    -0.223 A  
HETATM   34  F   UNL     1      -9.864   5.451  72.611  1.00  0.00    -0.166 F  
HETATM   35 CL   UNL     1      -8.616   8.130  72.946  1.00  0.00    -0.248 Cl 
ENDBRANCH  26  28
ENDBRANCH  12  26
ENDBRANCH   2   3
TORSDOF 7
ENDMDL
MODEL       64
REMARK 921   NORMALIZED FREE ENERGY PREDICTED BY IDOCK:   -6.26 KCAL/MOL
REMARK 922        TOTAL FREE ENERGY PREDICTED BY IDOCK:   -9.74 KCAL/MOL
REMARK 923 INTER-LIGAND FREE ENERGY PREDICTED BY IDOCK:   -8.62 KCAL/MOL
REMARK 924 INTRA-LIGAND FREE ENERGY PREDICTED BY IDOCK:   -1.12 KCAL/MOL
REMARK 927      BINDING AFFINITY PREDICTED BY RF-SCORE:    0.00 PKD
ROOT
HETATM    1  C   UNL     1      -6.710  16.502  69.304  1.00  0.00    -0.218 C  
HETATM    2  O   UNL     1      -6.954  15.162  68.878  1.00  0.00    -0.111 OA 
ENDROOT
BRANCH   2   3
HETATM    3  C   UNL     1      -7.962  14.996  67.961  1.00  0.00    -0.130 A  
HETATM    4  C   UNL     1      -8.537  13.724  67.876  1.00  0.00    -0.183 A  
HETATM    5  N   UNL     1      -9.977  16.895  65.630  1.00  0.00    -0.583 NA 
HETATM    6  C   UNL     1      -9.561  13.490  66.945  1.00  0.00    -0.258 A  
HETATM    7  C   UNL     1      -9.539  15.824  66.294  1.00  0.00    -0.313 A  
HETATM    8  C   UNL     1     -10.965  16.692  64.766  1.00  0.00    -0.109 A  
HETATM    9  C   UNL     1     -10.079  14.539  66.140  1.00  0.00    -0.319 A  
HETATM   10  C   UNL     1      -8.499  16.026  67.184  1.00  0.00    -0.223 A  
HETATM   11  N   UNL     1     -11.538  15.520  64.501  1.00  0.00    -0.355 NA 
HETATM   12  C   UNL     1     -11.102  14.430  65.167  1.00  0.00    -0.362 A  
BRANCH   4  13
HETATM   13  N   UNL     1      -8.080  12.708  68.755  1.00  0.00    -0.334 N  
HETATM   14  H   UNL     1      -8.208  12.836  69.759  1.00  0.00     0.000 HD 
HETATM   15  C   UNL     1      -7.468  11.556  68.306  1.00  0.00    -0.103 C  
HETATM   16  O   UNL     1      -7.197  11.316  67.132  1.00  0.00    -0.109 OA 
BRANCH  15  17
HETATM   17  C   UNL     1      -7.253  10.526  69.367  1.00  0.00    -0.117 C  
HETATM   18  C   UNL     1      -8.328   9.842  69.800  1.00  0.00    -0.189 C  
BRANCH  18  19
HETATM   19  C   UNL     1      -8.383   8.891  70.961  1.00  0.00    -0.191 C  
BRANCH  19  20
HETATM   20  N   UNL     1      -9.294   7.745  70.809  1.00  0.00    -0.160 NA 
HETATM   21  C   UNL     1     -11.706   8.251  72.476  1.00  0.00    -0.451 C  
HETATM   22  C   UNL     1      -9.493   7.060  72.104  1.00  0.00    -0.137 C  
HETATM   23  C   UNL     1     -11.499   8.915  71.120  1.00  0.00    -0.364 C  
HETATM   24  C   UNL     1     -10.377   7.830  73.098  1.00  0.00    -0.403 C  
HETATM   25  C   UNL     1     -10.607   8.056  70.222  1.00  0.00    -0.231 C  
ENDBRANCH  19  20
ENDBRANCH  18  19
ENDBRANCH  15  17
ENDBRANCH   4  13
BRANCH  12  26
HETATM   26  N   UNL     1     -11.589  13.161  64.781  1.00  0.00    -0.320 NA 
HETATM   27  H   UNL     1     -12.606  13.095  64.738  1.00  0.00     0.000 HD 
BRANCH  26  28
HETATM   28  C   UNL     1     -10.911  11.969  64.445  1.00  0.00    -0.333 A  
HETATM   29  C   UNL     1     -10.735  10.997  65.445  1.00  0.00    -0.222 A  
HETATM   30  C   UNL     1      -9.906   9.889  65.234  1.00  0.00    -0.303 A  
HETATM   31  C   UNL     1      -9.431  10.654  63.004  1.00  0.00    -0.363 A  
HETATM   32  C   UNL     1     -10.259  11.759  63.219  1.00  0.00    -0.452 A  
HETATM   33  C   UNL     1      -9.242   9.734  64.022  1.00  0.00    -0.215 A  
HETATM   34  F   UNL     1      -8.404   8.708  63.818  1.00  0.00    -0.159 F  
HETATM   35 CL   UNL     1      -9.685   8.745  66.502  1.00  0.00    -0.303 Cl 
ENDBRANCH  26  28
ENDBRANCH  12  26
ENDBRANCH   2   3
TORSDOF 7
ENDMDL
MODEL       65
REMARK 921   NORMALIZED FREE ENERGY PREDICTED BY IDOCK:   -6.24 KCAL/MOL
REMARK 922        TOTAL FREE ENERGY PREDICTED BY IDOCK:   -9.71 KCAL/MOL
REMARK 923 INTER-LIGAND FREE ENERGY PREDICTED BY IDOCK:   -8.80 KCAL/MOL
REMARK 924 INTRA-LIGAND FREE ENERGY PREDICTED BY IDOCK:   -0.91 KCAL/MOL
REMARK 927      BINDING AFFINITY PREDICTED BY RF-SCORE:    0.00 PKD
ROOT
HETATM    1  C   UNL     1     -10.593   6.320  69.513  1.00  0.00    -0.271 C  
HETATM    2  O   UNL     1     -10.342   7.599  70.092  1.00  0.00    -0.208 OA 
ENDROOT
BRANCH   2   3
HETATM    3  C   UNL     1      -9.691   8.506  69.292  1.00  0.00    -0.173 A  
HETATM    4  C   UNL     1      -9.964   9.858  69.517  1.00  0.00    -0.222 A  
HETATM    5  N   UNL     1      -7.144   8.662  66.726  1.00  0.00    -0.077 NA 
HETATM    6  C   UNL     1      -9.340  10.830  68.719  1.00  0.00    -0.186 A  
HETATM    7  C   UNL     1      -8.064   9.114  67.580  1.00  0.00    -0.104 A  
HETATM    8  C   UNL     1      -6.526   9.575  65.984  1.00  0.00    -0.073 A  
HETATM    9  C   UNL     1      -8.378  10.472  67.737  1.00  0.00    -0.111 A  
HETATM   10  C   UNL     1      -8.723   8.167  68.343  1.00  0.00    -0.134 A  
HETATM   11  N   UNL     1      -6.757  10.886  66.012  1.00  0.00    -0.107 NA 
HETATM   12  C   UNL     1      -7.686  11.353  66.871  1.00  0.00    -0.155 A  
BRANCH   4  13
HETATM   13  N   UNL     1     -10.850  10.211  70.568  1.00  0.00    -0.355 N  
HETATM   14  H   UNL     1     -10.551  10.063  71.531  1.00  0.00     0.000 HD 
HETATM   15  C   UNL     1     -12.102  10.745  70.337  1.00  0.00    -0.354 C  
HETATM   16  O   UNL     1     -12.602  10.908  69.226  1.00  0.00    -0.356 OA 
BRANCH  15  17
HETATM   17  C   UNL     1     -12.791  11.239  71.566  1.00  0.00    -0.519 C  
HETATM   18  C   UNL     1     -13.083  12.551  71.633  1.00  0.00    -0.414 C  
BRANCH  18  19
HETATM   19  C   UNL     1     -13.614  13.297  72.824  1.00  0.00    -0.140 C  
BRANCH  19  20
HETATM   20  N   UNL     1     -14.041  14.683  72.575  1.00  0.00    -0.495 NA 
HETATM   21  C   UNL     1     -11.723  16.179  71.459  1.00  0.00    -0.533 C  
HETATM   22  C   UNL     1     -13.262  15.627  73.404  1.00  0.00    -0.514 C  
HETATM   23  C   UNL     1     -12.566  15.232  70.613  1.00  0.00    -0.471 C  
HETATM   24  C   UNL     1     -11.810  15.826  72.942  1.00  0.00    -0.568 C  
HETATM   25  C   UNL     1     -13.985  15.118  71.170  1.00  0.00    -0.404 C  
ENDBRANCH  19  20
ENDBRANCH  18  19
ENDBRANCH  15  17
ENDBRANCH   4  13
BRANCH  12  26
HETATM   26  N   UNL     1      -8.053  12.715  66.797  1.00  0.00    -0.403 NA 
HETATM   27  H   UNL     1      -8.597  12.961  65.970  1.00  0.00     0.000 HD 
BRANCH  26  28
HETATM   28  C   UNL     1      -7.797  13.796  67.669  1.00  0.00    -0.178 A  
HETATM   29  C   UNL     1      -8.399  15.035  67.390  1.00  0.00    -0.210 A  
HETATM   30  C   UNL     1      -8.032  16.189  68.093  1.00  0.00    -0.148 A  
HETATM   31  C   UNL     1      -6.481  14.906  69.410  1.00  0.00    -0.131 A  
HETATM   32  C   UNL     1      -6.850  13.757  68.705  1.00  0.00    -0.106 A  
HETATM   33  C   UNL     1      -7.060  16.122  69.086  1.00  0.00    -0.209 A  
HETATM   34  F   UNL     1      -6.658  17.223  69.736  1.00  0.00    -0.244 F  
HETATM   35 CL   UNL     1      -8.765  17.694  67.690  1.00  0.00    -0.230 Cl 
ENDBRANCH  26  28
ENDBRANCH  12  26
ENDBRANCH   2   3
TORSDOF 7
ENDMDL
MODEL       66
REMARK 921   NORMALIZED FREE ENERGY PREDICTED BY IDOCK:   -6.23 KCAL/MOL
REMARK 922        TOTAL FREE ENERGY PREDICTED BY IDOCK:   -9.70 KCAL/MOL
REMARK 923 INTER-LIGAND FREE ENERGY PREDICTED BY IDOCK:   -8.81 KCAL/MOL
REMARK 924 INTRA-LIGAND FREE ENERGY PREDICTED BY IDOCK:   -0.88 KCAL/MOL
REMARK 927      BINDING AFFINITY PREDICTED BY RF-SCORE:    0.00 PKD
ROOT
HETATM    1  C   UNL     1     -12.349   6.988  70.882  1.00  0.00    -0.314 C  
HETATM    2  O   UNL     1     -11.183   7.802  70.766  1.00  0.00    -0.265 OA 
ENDROOT
BRANCH   2   3
HETATM    3  C   UNL     1     -11.400   9.154  70.657  1.00  0.00    -0.273 A  
HETATM    4  C   UNL     1     -10.765   9.813  69.600  1.00  0.00    -0.242 A  
HETATM    5  N   UNL     1     -13.365  11.807  72.137  1.00  0.00    -0.406 NA 
HETATM    6  C   UNL     1     -10.938  11.198  69.448  1.00  0.00    -0.298 A  
HETATM    7  C   UNL     1     -12.490  11.236  71.308  1.00  0.00    -0.336 A  
HETATM    8  C   UNL     1     -13.559  13.113  71.985  1.00  0.00    -0.465 A  
HETATM    9  C   UNL     1     -11.805  11.931  70.301  1.00  0.00    -0.368 A  
HETATM   10  C   UNL     1     -12.273   9.880  71.472  1.00  0.00    -0.505 A  
HETATM   11  N   UNL     1     -12.947  13.891  71.094  1.00  0.00    -0.331 NA 
HETATM   12  C   UNL     1     -12.059  13.323  70.252  1.00  0.00    -0.335 A  
BRANCH   4  13
HETATM   13  N   UNL     1      -9.981   9.053  68.694  1.00  0.00    -0.167 N  
HETATM   14  H   UNL     1      -9.275   8.420  69.070  1.00  0.00     0.000 HD 
HETATM   15  C   UNL     1     -10.134   9.138  67.326  1.00  0.00    -0.233 C  
HETATM   16  O   UNL     1     -10.899   9.909  66.751  1.00  0.00    -0.140 OA 
BRANCH  15  17
HETATM   17  C   UNL     1      -9.365   8.112  66.560  1.00  0.00    -0.262 C  
HETATM   18  C   UNL     1      -9.823   6.846  66.580  1.00  0.00    -0.168 C  
BRANCH  18  19
HETATM   19  C   UNL     1      -9.132   5.630  66.032  1.00  0.00    -0.156 C  
BRANCH  19  20
HETATM   20  N   UNL     1      -9.646   4.334  66.503  1.00  0.00    -0.185 NA 
HETATM   21  C   UNL     1      -7.443   2.922  67.920  1.00  0.00    -0.057 C  
HETATM   22  C   UNL     1      -8.913   3.218  65.869  1.00  0.00    -0.143 C  
HETATM   23  C   UNL     1      -8.240   4.048  68.569  1.00  0.00    -0.082 C  
HETATM   24  C   UNL     1      -7.483   3.019  66.397  1.00  0.00    -0.076 C  
HETATM   25  C   UNL     1      -9.641   4.145  67.963  1.00  0.00    -0.142 C  
ENDBRANCH  19  20
ENDBRANCH  18  19
ENDBRANCH  15  17
ENDBRANCH   4  13
BRANCH  12  26
HETATM   26  N   UNL     1     -11.288  14.161  69.415  1.00  0.00    -0.264 NA 
HETATM   27  H   UNL     1     -10.845  14.944  69.896  1.00  0.00     0.000 HD 
BRANCH  26  28
HETATM   28  C   UNL     1     -11.026  14.102  68.030  1.00  0.00    -0.255 A  
HETATM   29  C   UNL     1     -12.029  13.604  67.181  1.00  0.00    -0.434 A  
HETATM   30  C   UNL     1     -11.764  13.334  65.833  1.00  0.00    -0.365 A  
HETATM   31  C   UNL     1      -9.499  14.090  66.116  1.00  0.00    -0.210 A  
HETATM   32  C   UNL     1      -9.768  14.357  67.460  1.00  0.00    -0.215 A  
HETATM   33  C   UNL     1     -10.495  13.560  65.312  1.00  0.00    -0.336 A  
HETATM   34  F   UNL     1     -10.206  13.261  64.038  1.00  0.00    -0.441 F  
HETATM   35 CL   UNL     1     -13.012  12.685  64.839  1.00  0.00    -0.346 Cl 
ENDBRANCH  26  28
ENDBRANCH  12  26
ENDBRANCH   2   3
TORSDOF 7
ENDMDL
MODEL       67
REMARK 921   NORMALIZED FREE ENERGY PREDICTED BY IDOCK:   -6.19 KCAL/MOL
REMARK 922        TOTAL FREE ENERGY PREDICTED BY IDOCK:   -9.65 KCAL/MOL
REMARK 923 INTER-LIGAND FREE ENERGY PREDICTED BY IDOCK:   -8.86 KCAL/MOL
REMARK 924 INTRA-LIGAND FREE ENERGY PREDICTED BY IDOCK:   -0.79 KCAL/MOL
REMARK 927      BINDING AFFINITY PREDICTED BY RF-SCORE:    0.00 PKD
ROOT
HETATM    1  C   UNL     1      -9.897  11.890  63.032  1.00  0.00    -0.126 C  
HETATM    2  O   UNL     1     -10.458  11.653  64.322  1.00  0.00    -0.281 OA 
ENDROOT
BRANCH   2   3
HETATM    3  C   UNL     1     -10.411  12.706  65.202  1.00  0.00    -0.292 A  
HETATM    4  C   UNL     1     -10.161  12.398  66.543  1.00  0.00    -0.227 A  
HETATM    5  N   UNL     1     -10.504  16.323  65.257  1.00  0.00    -0.604 NA 
HETATM    6  C   UNL     1     -10.118  13.432  67.491  1.00  0.00    -0.227 A  
HETATM    7  C   UNL     1     -10.421  15.083  65.745  1.00  0.00    -0.337 A  
HETATM    8  C   UNL     1     -10.436  17.312  66.142  1.00  0.00    -0.278 A  
HETATM    9  C   UNL     1     -10.246  14.793  67.105  1.00  0.00    -0.245 A  
HETATM   10  C   UNL     1     -10.507  14.049  64.830  1.00  0.00    -0.445 A  
HETATM   11  N   UNL     1     -10.307  17.169  67.459  1.00  0.00    -0.331 NA 
HETATM   12  C   UNL     1     -10.223  15.920  67.962  1.00  0.00    -0.238 A  
BRANCH   4  13
HETATM   13  N   UNL     1      -9.935  11.044  66.903  1.00  0.00    -0.191 N  
HETATM   14  H   UNL     1      -9.060  10.603  66.622  1.00  0.00     0.000 HD 
HETATM   15  C   UNL     1     -10.853  10.301  67.617  1.00  0.00    -0.307 C  
HETATM   16  O   UNL     1     -11.967  10.696  67.953  1.00  0.00    -0.420 OA 
BRANCH  15  17
HETATM   17  C   UNL     1     -10.342   8.974  68.073  1.00  0.00    -0.275 C  
HETATM   18  C   UNL     1      -9.162   8.948  68.719  1.00  0.00    -0.140 C  
BRANCH  18  19
HETATM   19  C   UNL     1      -8.378   7.730  69.116  1.00  0.00    -0.134 C  
BRANCH  19  20
HETATM   20  N   UNL     1      -6.916   7.890  69.149  1.00  0.00    -0.056 NA 
HETATM   21  C   UNL     1      -6.146   8.818  71.869  1.00  0.00    -0.072 C  
HETATM   22  C   UNL     1      -6.550   9.298  69.407  1.00  0.00    -0.044 C  
HETATM   23  C   UNL     1      -6.488   7.362  71.570  1.00  0.00    -0.039 C  
HETATM   24  C   UNL     1      -6.789   9.759  70.854  1.00  0.00    -0.014 C  
HETATM   25  C   UNL     1      -6.207   7.025  70.105  1.00  0.00    -0.027 C  
ENDBRANCH  19  20
ENDBRANCH  18  19
ENDBRANCH  15  17
ENDBRANCH   4  13
BRANCH  12  26
HETATM   26  N   UNL     1     -10.249  15.751  69.364  1.00  0.00    -0.243 NA 
HETATM   27  H   UNL     1      -9.396  16.049  69.840  1.00  0.00     0.000 HD 
BRANCH  26  28
HETATM   28  C   UNL     1     -11.248  15.242  70.222  1.00  0.00    -0.297 A  
HETATM   29  C   UNL     1     -11.627  16.013  71.335  1.00  0.00    -0.520 A  
HETATM   30  C   UNL     1     -12.462  15.483  72.326  1.00  0.00    -0.393 A  
HETATM   31  C   UNL     1     -12.606  13.411  71.114  1.00  0.00    -0.430 A  
HETATM   32  C   UNL     1     -11.774  13.944  70.126  1.00  0.00    -0.314 A  
HETATM   33  C   UNL     1     -12.930  14.178  72.221  1.00  0.00    -0.382 A  
HETATM   34  F   UNL     1     -13.688  13.634  73.183  1.00  0.00    -0.400 F  
HETATM   35 CL   UNL     1     -12.868  16.447  73.694  1.00  0.00    -0.528 Cl 
ENDBRANCH  26  28
ENDBRANCH  12  26
ENDBRANCH   2   3
TORSDOF 7
ENDMDL
MODEL       68
REMARK 921   NORMALIZED FREE ENERGY PREDICTED BY IDOCK:   -6.16 KCAL/MOL
REMARK 922        TOTAL FREE ENERGY PREDICTED BY IDOCK:   -9.61 KCAL/MOL
REMARK 923 INTER-LIGAND FREE ENERGY PREDICTED BY IDOCK:   -8.18 KCAL/MOL
REMARK 924 INTRA-LIGAND FREE ENERGY PREDICTED BY IDOCK:   -1.42 KCAL/MOL
REMARK 927      BINDING AFFINITY PREDICTED BY RF-SCORE:    0.00 PKD
ROOT
HETATM    1  C   UNL     1     -14.268   9.159  72.112  1.00  0.00    -0.279 C  
HETATM    2  O   UNL     1     -13.101   9.966  71.964  1.00  0.00    -0.423 OA 
ENDROOT
BRANCH   2   3
HETATM    3  C   UNL     1     -11.935   9.295  71.689  1.00  0.00    -0.378 A  
HETATM    4  C   UNL     1     -11.015   9.941  70.857  1.00  0.00    -0.322 A  
HETATM    5  N   UNL     1     -10.152   6.280  72.596  1.00  0.00    -0.176 NA 
HETATM    6  C   UNL     1      -9.812   9.297  70.528  1.00  0.00    -0.310 A  
HETATM    7  C   UNL     1     -10.380   7.439  71.975  1.00  0.00    -0.193 A  
HETATM    8  C   UNL     1      -9.004   5.674  72.315  1.00  0.00    -0.139 A  
HETATM    9  C   UNL     1      -9.475   8.034  71.084  1.00  0.00    -0.181 A  
HETATM   10  C   UNL     1     -11.581   8.066  72.252  1.00  0.00    -0.424 A  
HETATM   11  N   UNL     1      -8.080   6.114  71.464  1.00  0.00    -0.113 NA 
HETATM   12  C   UNL     1      -8.301   7.285  70.829  1.00  0.00    -0.124 A  
BRANCH   4  13
HETATM   13  N   UNL     1     -11.317  11.246  70.388  1.00  0.00    -0.470 N  
HETATM   14  H   UNL     1     -11.228  12.031  71.032  1.00  0.00     0.000 HD 
HETATM   15  C   UNL     1     -11.726  11.494  69.093  1.00  0.00    -0.329 C  
HETATM   16  O   UNL     1     -11.934  10.630  68.245  1.00  0.00    -0.462 OA 
BRANCH  15  17
HETATM   17  C   UNL     1     -11.791  12.944  68.741  1.00  0.00    -0.353 C  
HETATM   18  C   UNL     1     -11.808  13.268  67.435  1.00  0.00    -0.413 C  
BRANCH  18  19
HETATM   19  C   UNL     1     -11.702  14.646  66.847  1.00  0.00    -0.350 C  
BRANCH  19  20
HETATM   20  N   UNL     1     -10.658  14.829  65.826  1.00  0.00    -0.309 NA 
HETATM   21  C   UNL     1      -8.935  17.108  66.660  1.00  0.00    -0.278 C  
HETATM   22  C   UNL     1     -10.776  16.158  65.189  1.00  0.00    -0.371 C  
HETATM   23  C   UNL     1      -8.803  15.719  67.274  1.00  0.00    -0.212 C  
HETATM   24  C   UNL     1     -10.330  17.329  66.079  1.00  0.00    -0.312 C  
HETATM   25  C   UNL     1      -9.276  14.643  66.296  1.00  0.00    -0.222 C  
ENDBRANCH  19  20
ENDBRANCH  18  19
ENDBRANCH  15  17
ENDBRANCH   4  13
BRANCH  12  26
HETATM   26  N   UNL     1      -7.408   7.681  69.809  1.00  0.00    -0.079 NA 
HETATM   27  H   UNL     1      -6.466   7.899  70.134  1.00  0.00     0.000 HD 
BRANCH  26  28
HETATM   28  C   UNL     1      -7.594   7.829  68.417  1.00  0.00    -0.109 A  
HETATM   29  C   UNL     1      -7.405   9.102  67.851  1.00  0.00    -0.084 A  
HETATM   30  C   UNL     1      -7.764   9.358  66.522  1.00  0.00    -0.094 A  
HETATM   31  C   UNL     1      -8.472   7.075  66.260  1.00  0.00    -0.134 A  
HETATM   32  C   UNL     1      -8.112   6.823  67.586  1.00  0.00    -0.116 A  
HETATM   33  C   UNL     1      -8.314   8.349  65.740  1.00  0.00    -0.146 A  
HETATM   34  F   UNL     1      -8.711   8.587  64.481  1.00  0.00    -0.175 F  
HETATM   35 CL   UNL     1      -7.555  10.943  65.880  1.00  0.00    -0.105 Cl 
ENDBRANCH  26  28
ENDBRANCH  12  26
ENDBRANCH   2   3
TORSDOF 7
ENDMDL
MODEL       69
REMARK 921   NORMALIZED FREE ENERGY PREDICTED BY IDOCK:   -6.11 KCAL/MOL
REMARK 922        TOTAL FREE ENERGY PREDICTED BY IDOCK:   -9.53 KCAL/MOL
REMARK 923 INTER-LIGAND FREE ENERGY PREDICTED BY IDOCK:   -8.09 KCAL/MOL
REMARK 924 INTRA-LIGAND FREE ENERGY PREDICTED BY IDOCK:   -1.43 KCAL/MOL
REMARK 927      BINDING AFFINITY PREDICTED BY RF-SCORE:    0.00 PKD
ROOT
HETATM    1  C   UNL     1      -6.746   9.400  70.780  1.00  0.00    -0.105 C  
HETATM    2  O   UNL     1      -7.756   8.591  70.179  1.00  0.00    -0.080 OA 
ENDROOT
BRANCH   2   3
HETATM    3  C   UNL     1      -8.064   8.884  68.873  1.00  0.00    -0.112 A  
HETATM    4  C   UNL     1      -9.253   9.584  68.646  1.00  0.00    -0.135 A  
HETATM    5  N   UNL     1      -6.673   8.649  65.541  1.00  0.00    -0.063 NA 
HETATM    6  C   UNL     1      -9.628   9.897  67.330  1.00  0.00    -0.185 A  
HETATM    7  C   UNL     1      -7.565   8.949  66.487  1.00  0.00    -0.092 A  
HETATM    8  C   UNL     1      -7.004   8.967  64.294  1.00  0.00    -0.089 A  
HETATM    9  C   UNL     1      -8.788   9.584  66.230  1.00  0.00    -0.172 A  
HETATM   10  C   UNL     1      -7.232   8.606  67.786  1.00  0.00    -0.088 A  
HETATM   11  N   UNL     1      -8.145   9.538  63.914  1.00  0.00    -0.141 NA 
HETATM   12  C   UNL     1      -9.054   9.843  64.863  1.00  0.00    -0.224 A  
BRANCH   4  13
HETATM   13  N   UNL     1     -10.036   9.979  69.761  1.00  0.00    -0.239 N  
HETATM   14  H   UNL     1      -9.875  10.899  70.172  1.00  0.00     0.000 HD 
HETATM   15  C   UNL     1     -11.007   9.168  70.313  1.00  0.00    -0.245 C  
HETATM   16  O   UNL     1     -11.250   8.019  69.953  1.00  0.00    -0.177 OA 
BRANCH  15  17
HETATM   17  C   UNL     1     -11.858   9.844  71.338  1.00  0.00    -0.476 C  
HETATM   18  C   UNL     1     -12.548  10.934  70.956  1.00  0.00    -0.517 C  
BRANCH  18  19
HETATM   19  C   UNL     1     -13.325  11.865  71.843  1.00  0.00    -0.300 C  
BRANCH  19  20
HETATM   20  N   UNL     1     -12.608  13.067  72.296  1.00  0.00     0.102 NA 
HETATM   21  C   UNL     1     -13.632  15.396  70.753  1.00  0.00    -0.263 C  
HETATM   22  C   UNL     1     -11.829  13.660  71.189  1.00  0.00     0.237 C  
HETATM   23  C   UNL     1     -14.399  14.794  71.925  1.00  0.00    -0.657 C  
HETATM   24  C   UNL     1     -12.680  14.378  70.130  1.00  0.00    -0.259 C  
HETATM   25  C   UNL     1     -13.447  14.111  72.907  1.00  0.00    -0.359 C  
ENDBRANCH  19  20
ENDBRANCH  18  19
ENDBRANCH  15  17
ENDBRANCH   4  13
BRANCH  12  26
HETATM   26  N   UNL     1     -10.328  10.299  64.458  1.00  0.00    -0.322 NA 
HETATM   27  H   UNL     1     -11.022   9.560  64.337  1.00  0.00     0.000 HD 
BRANCH  26  28
HETATM   28  C   UNL     1     -10.809  11.600  64.191  1.00  0.00    -0.372 A  
HETATM   29  C   UNL     1     -10.171  12.687  64.813  1.00  0.00    -0.307 A  
HETATM   30  C   UNL     1     -10.717  13.974  64.750  1.00  0.00    -0.427 A  
HETATM   31  C   UNL     1     -12.533  13.150  63.406  1.00  0.00    -0.328 A  
HETATM   32  C   UNL     1     -11.985  11.867  63.472  1.00  0.00    -0.567 A  
HETATM   33  C   UNL     1     -11.906  14.196  64.063  1.00  0.00    -0.271 A  
HETATM   34  F   UNL     1     -12.472  15.410  64.033  1.00  0.00    -0.474 F  
HETATM   35 CL   UNL     1      -9.925  15.270  65.562  1.00  0.00    -0.382 Cl 
ENDBRANCH  26  28
ENDBRANCH  12  26
ENDBRANCH   2   3
TORSDOF 7
ENDMDL
MODEL       70
REMARK 921   NORMALIZED FREE ENERGY PREDICTED BY IDOCK:   -6.09 KCAL/MOL
REMARK 922        TOTAL FREE ENERGY PREDICTED BY IDOCK:   -9.51 KCAL/MOL
REMARK 923 INTER-LIGAND FREE ENERGY PREDICTED BY IDOCK:   -8.26 KCAL/MOL
REMARK 924 INTRA-LIGAND FREE ENERGY PREDICTED BY IDOCK:   -1.25 KCAL/MOL
REMARK 927      BINDING AFFINITY PREDICTED BY RF-SCORE:    0.00 PKD
ROOT
HETATM    1  C   UNL     1     -10.421   8.323  67.363  1.00  0.00    -0.283 C  
HETATM    2  O   UNL     1      -9.414   9.328  67.257  1.00  0.00    -0.138 OA 
ENDROOT
BRANCH   2   3
HETATM    3  C   UNL     1      -9.841  10.567  66.847  1.00  0.00    -0.193 A  
HETATM    4  C   UNL     1      -9.428  11.662  67.612  1.00  0.00    -0.177 A  
HETATM    5  N   UNL     1     -11.636  12.163  64.141  1.00  0.00    -0.365 NA 
HETATM    6  C   UNL     1      -9.847  12.953  67.250  1.00  0.00    -0.218 A  
HETATM    7  C   UNL     1     -10.958  12.072  65.286  1.00  0.00    -0.308 A  
HETATM    8  C   UNL     1     -12.014  13.383  63.773  1.00  0.00    -0.461 A  
HETATM    9  C   UNL     1     -10.618  13.177  66.079  1.00  0.00    -0.291 A  
HETATM   10  C   UNL     1     -10.576  10.802  65.682  1.00  0.00    -0.199 A  
HETATM   11  N   UNL     1     -11.786  14.505  64.452  1.00  0.00    -0.423 NA 
HETATM   12  C   UNL     1     -11.102  14.423  65.612  1.00  0.00    -0.321 A  
BRANCH   4  13
HETATM   13  N   UNL     1      -8.575  11.437  68.723  1.00  0.00    -0.311 N  
HETATM   14  H   UNL     1      -8.992  11.176  69.616  1.00  0.00     0.000 HD 
HETATM   15  C   UNL     1      -7.203  11.557  68.643  1.00  0.00    -0.102 C  
HETATM   16  O   UNL     1      -6.587  11.927  67.646  1.00  0.00    -0.078 OA 
BRANCH  15  17
HETATM   17  C   UNL     1      -6.476  11.077  69.856  1.00  0.00    -0.144 C  
HETATM   18  C   UNL     1      -6.714   9.818  70.269  1.00  0.00    -0.111 C  
BRANCH  18  19
HETATM   19  C   UNL     1      -6.235   9.182  71.543  1.00  0.00    -0.069 C  
BRANCH  19  20
HETATM   20  N   UNL     1      -6.639   7.782  71.752  1.00  0.00    -0.042 NA 
HETATM   21  C   UNL     1      -8.865   7.744  73.726  1.00  0.00    -0.326 C  
HETATM   22  C   UNL     1      -6.416   7.377  73.156  1.00  0.00    -0.064 C  
HETATM   23  C   UNL     1      -9.079   8.118  72.264  1.00  0.00    -0.263 C  
HETATM   24  C   UNL     1      -7.419   7.978  74.154  1.00  0.00    -0.223 C  
HETATM   25  C   UNL     1      -8.024   7.461  71.372  1.00  0.00    -0.096 C  
ENDBRANCH  19  20
ENDBRANCH  18  19
ENDBRANCH  15  17
ENDBRANCH   4  13
BRANCH  12  26
HETATM   26  N   UNL     1     -10.995  15.578  66.418  1.00  0.00    -0.283 NA 
HETATM   27  H   UNL     1     -11.813  15.765  66.998  1.00  0.00     0.000 HD 
BRANCH  26  28
HETATM   28  C   UNL     1      -9.952  16.519  66.560  1.00  0.00    -0.285 A  
HETATM   29  C   UNL     1     -10.290  17.847  66.873  1.00  0.00    -0.358 A  
HETATM   30  C   UNL     1      -9.329  18.864  66.832  1.00  0.00    -0.309 A  
HETATM   31  C   UNL     1      -7.646  17.263  66.207  1.00  0.00    -0.360 A  
HETATM   32  C   UNL     1      -8.609  16.251  66.250  1.00  0.00    -0.374 A  
HETATM   33  C   UNL     1      -8.016  18.570  66.480  1.00  0.00    -0.274 A  
HETATM   34  F   UNL     1      -7.091  19.536  66.385  1.00  0.00    -0.202 F  
HETATM   35 CL   UNL     1      -9.795  20.484  67.183  1.00  0.00    -0.606 Cl 
ENDBRANCH  26  28
ENDBRANCH  12  26
ENDBRANCH   2   3
TORSDOF 7
ENDMDL
MODEL       71
REMARK 921   NORMALIZED FREE ENERGY PREDICTED BY IDOCK:   -6.08 KCAL/MOL
REMARK 922        TOTAL FREE ENERGY PREDICTED BY IDOCK:   -9.48 KCAL/MOL
REMARK 923 INTER-LIGAND FREE ENERGY PREDICTED BY IDOCK:   -8.37 KCAL/MOL
REMARK 924 INTRA-LIGAND FREE ENERGY PREDICTED BY IDOCK:   -1.11 KCAL/MOL
REMARK 927      BINDING AFFINITY PREDICTED BY RF-SCORE:    0.00 PKD
ROOT
HETATM    1  C   UNL     1     -13.337   9.734  72.192  1.00  0.00    -0.431 C  
HETATM    2  O   UNL     1     -11.940   9.639  71.919  1.00  0.00    -0.370 OA 
ENDROOT
BRANCH   2   3
HETATM    3  C   UNL     1     -11.453   8.374  71.701  1.00  0.00    -0.287 A  
HETATM    4  C   UNL     1     -11.049   8.068  70.398  1.00  0.00    -0.238 A  
HETATM    5  N   UNL     1     -10.573   5.358  73.497  1.00  0.00    -0.249 NA 
HETATM    6  C   UNL     1     -10.558   6.784  70.111  1.00  0.00    -0.254 A  
HETATM    7  C   UNL     1     -10.731   6.167  72.448  1.00  0.00    -0.231 A  
HETATM    8  C   UNL     1     -10.082   4.150  73.243  1.00  0.00    -0.142 A  
HETATM    9  C   UNL     1     -10.391   5.813  71.134  1.00  0.00    -0.286 A  
HETATM   10  C   UNL     1     -11.257   7.421  72.704  1.00  0.00    -0.379 A  
HETATM   11  N   UNL     1      -9.753   3.681  72.041  1.00  0.00    -0.158 NA 
HETATM   12  C   UNL     1      -9.911   4.491  70.973  1.00  0.00    -0.187 A  
BRANCH   4  13
HETATM   13  N   UNL     1     -11.128   9.077  69.404  1.00  0.00    -0.434 N  
HETATM   14  H   UNL     1     -11.979   9.151  68.847  1.00  0.00     0.000 HD 
HETATM   15  C   UNL     1     -10.098   9.963  69.161  1.00  0.00    -0.200 C  
HETATM   16  O   UNL     1      -9.002   9.935  69.715  1.00  0.00    -0.207 OA 
BRANCH  15  17
HETATM   17  C   UNL     1     -10.455  11.073  68.227  1.00  0.00    -0.212 C  
HETATM   18  C   UNL     1     -10.736  10.749  66.951  1.00  0.00    -0.309 C  
BRANCH  18  19
HETATM   19  C   UNL     1     -10.953  11.698  65.807  1.00  0.00    -0.274 C  
BRANCH  19  20
HETATM   20  N   UNL     1     -12.271  12.349  65.755  1.00  0.00    -0.638 NA 
HETATM   21  C   UNL     1     -12.018  14.826  64.126  1.00  0.00    -0.282 C  
HETATM   22  C   UNL     1     -12.221  13.685  66.387  1.00  0.00    -0.423 C  
HETATM   23  C   UNL     1     -12.114  13.441  63.495  1.00  0.00    -0.497 C  
HETATM   24  C   UNL     1     -11.488  14.750  65.555  1.00  0.00    -0.329 C  
HETATM   25  C   UNL     1     -12.862  12.473  64.413  1.00  0.00    -0.275 C  
ENDBRANCH  19  20
ENDBRANCH  18  19
ENDBRANCH  15  17
ENDBRANCH   4  13
BRANCH  12  26
HETATM   26  N   UNL     1      -9.720   3.953  69.681  1.00  0.00    -0.189 NA 
HETATM   27  H   UNL     1     -10.186   3.059  69.523  1.00  0.00     0.000 HD 
BRANCH  26  28
HETATM   28  C   UNL     1      -8.996   4.438  68.570  1.00  0.00    -0.115 A  
HETATM   29  C   UNL     1      -9.560   4.291  67.291  1.00  0.00    -0.224 A  
HETATM   30  C   UNL     1      -8.813   4.567  66.139  1.00  0.00    -0.118 A  
HETATM   31  C   UNL     1      -6.927   5.187  67.496  1.00  0.00    -0.065 A  
HETATM   32  C   UNL     1      -7.676   4.911  68.643  1.00  0.00    -0.077 A  
HETATM   33  C   UNL     1      -7.494   4.994  66.248  1.00  0.00    -0.086 A  
HETATM   34  F   UNL     1      -6.746   5.215  65.157  1.00  0.00    -0.043 F  
HETATM   35 CL   UNL     1      -9.530   4.333  64.591  1.00  0.00    -0.161 Cl 
ENDBRANCH  26  28
ENDBRANCH  12  26
ENDBRANCH   2   3
TORSDOF 7
ENDMDL
MODEL       72
REMARK 921   NORMALIZED FREE ENERGY PREDICTED BY IDOCK:   -6.07 KCAL/MOL
REMARK 922        TOTAL FREE ENERGY PREDICTED BY IDOCK:   -9.48 KCAL/MOL
REMARK 923 INTER-LIGAND FREE ENERGY PREDICTED BY IDOCK:   -8.44 KCAL/MOL
REMARK 924 INTRA-LIGAND FREE ENERGY PREDICTED BY IDOCK:   -1.04 KCAL/MOL
REMARK 927      BINDING AFFINITY PREDICTED BY RF-SCORE:    0.00 PKD
ROOT
HETATM    1  C   UNL     1     -11.507  11.927  63.432  1.00  0.00    -0.376 C  
HETATM    2  O   UNL     1     -10.362  12.266  64.213  1.00  0.00    -0.309 OA 
ENDROOT
BRANCH   2   3
HETATM    3  C   UNL     1      -9.867  11.272  65.021  1.00  0.00    -0.261 A  
HETATM    4  C   UNL     1      -9.896  11.504  66.399  1.00  0.00    -0.205 A  
HETATM    5  N   UNL     1      -8.597   7.887  64.847  1.00  0.00    -0.020 NA 
HETATM    6  C   UNL     1      -9.389  10.529  67.273  1.00  0.00    -0.164 A  
HETATM    7  C   UNL     1      -8.967   9.039  65.411  1.00  0.00    -0.200 A  
HETATM    8  C   UNL     1      -8.142   6.947  65.667  1.00  0.00    -0.129 A  
HETATM    9  C   UNL     1      -8.917   9.280  66.791  1.00  0.00    -0.154 A  
HETATM   10  C   UNL     1      -9.427  10.028  64.560  1.00  0.00    -0.359 A  
HETATM   11  N   UNL     1      -8.012   7.062  66.987  1.00  0.00    -0.114 NA 
HETATM   12  C   UNL     1      -8.381   8.223  67.567  1.00  0.00    -0.130 A  
BRANCH   4  13
HETATM   13  N   UNL     1     -10.462  12.714  66.876  1.00  0.00    -0.232 N  
HETATM   14  H   UNL     1     -11.475  12.779  66.967  1.00  0.00     0.000 HD 
HETATM   15  C   UNL     1      -9.694  13.808  67.222  1.00  0.00    -0.242 C  
HETATM   16  O   UNL     1      -8.475  13.878  67.096  1.00  0.00    -0.203 OA 
BRANCH  15  17
HETATM   17  C   UNL     1     -10.458  14.901  67.895  1.00  0.00    -0.250 C  
HETATM   18  C   UNL     1     -10.350  16.142  67.385  1.00  0.00    -0.294 C  
BRANCH  18  19
HETATM   19  C   UNL     1     -10.883  17.412  67.986  1.00  0.00    -0.281 C  
BRANCH  19  20
HETATM   20  N   UNL     1      -9.908  18.231  68.723  1.00  0.00    -0.366 NA 
HETATM   21  C   UNL     1      -8.456  19.934  66.763  1.00  0.00    -0.377 C  
HETATM   22  C   UNL     1      -8.529  17.912  68.299  1.00  0.00    -0.278 C  
HETATM   23  C   UNL     1      -9.863  20.267  67.246  1.00  0.00    -0.593 C  
HETATM   24  C   UNL     1      -8.156  18.445  66.906  1.00  0.00    -0.257 C  
HETATM   25  C   UNL     1     -10.113  19.686  68.639  1.00  0.00    -0.447 C  
ENDBRANCH  19  20
ENDBRANCH  18  19
ENDBRANCH  15  17
ENDBRANCH   4  13
BRANCH  12  26
HETATM   26  N   UNL     1      -8.098   8.415  68.937  1.00  0.00    -0.112 NA 
HETATM   27  H   UNL     1      -7.198   8.857  69.124  1.00  0.00     0.000 HD 
BRANCH  26  28
HETATM   28  C   UNL     1      -8.845   8.101  70.093  1.00  0.00    -0.145 A  
HETATM   29  C   UNL     1     -10.141   7.580  69.929  1.00  0.00    -0.193 A  
HETATM   30  C   UNL     1     -11.003   7.435  71.023  1.00  0.00    -0.251 A  
HETATM   31  C   UNL     1      -9.299   8.284  72.492  1.00  0.00    -0.350 A  
HETATM   32  C   UNL     1      -8.441   8.427  71.398  1.00  0.00    -0.195 A  
HETATM   33  C   UNL     1     -10.584   7.807  72.296  1.00  0.00    -0.259 A  
HETATM   34  F   UNL     1     -11.410   7.725  73.348  1.00  0.00    -0.426 F  
HETATM   35 CL   UNL     1     -12.595   6.832  70.770  1.00  0.00    -0.269 Cl 
ENDBRANCH  26  28
ENDBRANCH  12  26
ENDBRANCH   2   3
TORSDOF 7
ENDMDL
MODEL       73
REMARK 921   NORMALIZED FREE ENERGY PREDICTED BY IDOCK:   -6.07 KCAL/MOL
REMARK 922        TOTAL FREE ENERGY PREDICTED BY IDOCK:   -9.47 KCAL/MOL
REMARK 923 INTER-LIGAND FREE ENERGY PREDICTED BY IDOCK:   -8.76 KCAL/MOL
REMARK 924 INTRA-LIGAND FREE ENERGY PREDICTED BY IDOCK:   -0.70 KCAL/MOL
REMARK 927      BINDING AFFINITY PREDICTED BY RF-SCORE:    0.00 PKD
ROOT
HETATM    1  C   UNL     1      -8.226   4.698  65.984  1.00  0.00    -0.110 C  
HETATM    2  O   UNL     1      -9.571   4.676  66.459  1.00  0.00    -0.150 OA 
ENDROOT
BRANCH   2   3
HETATM    3  C   UNL     1      -9.728   4.649  67.823  1.00  0.00    -0.155 A  
HETATM    4  C   UNL     1     -10.287   5.785  68.417  1.00  0.00    -0.213 A  
HETATM    5  N   UNL     1      -9.372   2.411  70.644  1.00  0.00    -0.132 NA 
HETATM    6  C   UNL     1     -10.457   5.820  69.811  1.00  0.00    -0.363 A  
HETATM    7  C   UNL     1      -9.655   3.542  69.994  1.00  0.00    -0.156 A  
HETATM    8  C   UNL     1      -9.556   2.423  71.960  1.00  0.00    -0.130 A  
HETATM    9  C   UNL     1     -10.144   4.697  70.621  1.00  0.00    -0.261 A  
HETATM   10  C   UNL     1      -9.450   3.540  68.626  1.00  0.00    -0.209 A  
HETATM   11  N   UNL     1      -9.979   3.462  72.676  1.00  0.00    -0.146 NA 
HETATM   12  C   UNL     1     -10.267   4.611  72.029  1.00  0.00    -0.190 A  
BRANCH   4  13
HETATM   13  N   UNL     1     -10.689   6.863  67.587  1.00  0.00    -0.312 N  
HETATM   14  H   UNL     1     -11.549   6.771  67.048  1.00  0.00     0.000 HD 
HETATM   15  C   UNL     1      -9.962   8.030  67.481  1.00  0.00    -0.194 C  
HETATM   16  O   UNL     1      -8.880   8.236  68.026  1.00  0.00    -0.134 OA 
BRANCH  15  17
HETATM   17  C   UNL     1     -10.656   9.116  66.726  1.00  0.00    -0.207 C  
HETATM   18  C   UNL     1     -10.502  10.379  67.165  1.00  0.00    -0.311 C  
BRANCH  18  19
HETATM   19  C   UNL     1     -11.229  11.598  66.675  1.00  0.00    -0.299 C  
BRANCH  19  20
HETATM   20  N   UNL     1     -10.487  12.453  65.735  1.00  0.00    -0.253 NA 
HETATM   21  C   UNL     1     -12.326  13.213  63.522  1.00  0.00    -0.478 C  
HETATM   22  C   UNL     1     -10.397  11.815  64.405  1.00  0.00    -0.307 C  
HETATM   23  C   UNL     1     -12.373  13.887  64.889  1.00  0.00    -0.445 C  
HETATM   24  C   UNL     1     -11.713  11.818  63.611  1.00  0.00    -0.517 C  
HETATM   25  C   UNL     1     -11.009  13.820  65.578  1.00  0.00    -0.299 C  
ENDBRANCH  19  20
ENDBRANCH  18  19
ENDBRANCH  15  17
ENDBRANCH   4  13
BRANCH  12  26
HETATM   26  N   UNL     1     -10.561   5.763  72.792  1.00  0.00    -0.213 NA 
HETATM   27  H   UNL     1     -10.705   5.584  73.786  1.00  0.00     0.000 HD 
BRANCH  26  28
HETATM   28  C   UNL     1     -10.690   7.118  72.418  1.00  0.00    -0.241 A  
HETATM   29  C   UNL     1     -11.983   7.645  72.257  1.00  0.00    -0.329 A  
HETATM   30  C   UNL     1     -12.179   8.913  71.699  1.00  0.00    -0.343 A  
HETATM   31  C   UNL     1      -9.801   9.197  71.478  1.00  0.00    -0.335 A  
HETATM   32  C   UNL     1      -9.610   7.930  72.037  1.00  0.00    -0.242 A  
HETATM   33  C   UNL     1     -11.088   9.674  71.294  1.00  0.00    -0.355 A  
HETATM   34  F   UNL     1     -11.256  10.870  70.710  1.00  0.00    -0.351 F  
HETATM   35 CL   UNL     1     -13.783   9.503  71.482  1.00  0.00    -0.380 Cl 
ENDBRANCH  26  28
ENDBRANCH  12  26
ENDBRANCH   2   3
TORSDOF 7
ENDMDL
MODEL       74
REMARK 921   NORMALIZED FREE ENERGY PREDICTED BY IDOCK:   -6.05 KCAL/MOL
REMARK 922        TOTAL FREE ENERGY PREDICTED BY IDOCK:   -9.44 KCAL/MOL
REMARK 923 INTER-LIGAND FREE ENERGY PREDICTED BY IDOCK:   -8.21 KCAL/MOL
REMARK 924 INTRA-LIGAND FREE ENERGY PREDICTED BY IDOCK:   -1.23 KCAL/MOL
REMARK 927      BINDING AFFINITY PREDICTED BY RF-SCORE:    0.00 PKD
ROOT
HETATM    1  C   UNL     1     -10.532  11.820  63.206  1.00  0.00    -0.388 C  
HETATM    2  O   UNL     1      -9.667  11.570  64.313  1.00  0.00    -0.234 OA 
ENDROOT
BRANCH   2   3
HETATM    3  C   UNL     1     -10.250  11.614  65.555  1.00  0.00    -0.260 A  
HETATM    4  C   UNL     1     -10.343  10.406  66.253  1.00  0.00    -0.203 A  
HETATM    5  N   UNL     1     -11.558  13.982  67.959  1.00  0.00    -0.317 NA 
HETATM    6  C   UNL     1     -10.945  10.387  67.521  1.00  0.00    -0.358 A  
HETATM    7  C   UNL     1     -11.221  12.792  67.457  1.00  0.00    -0.289 A  
HETATM    8  C   UNL     1     -12.102  13.980  69.171  1.00  0.00    -0.337 A  
HETATM    9  C   UNL     1     -11.392  11.582  68.143  1.00  0.00    -0.367 A  
HETATM   10  C   UNL     1     -10.669  12.787  66.188  1.00  0.00    -0.297 A  
HETATM   11  N   UNL     1     -12.350  12.901  69.910  1.00  0.00    -0.155 NA 
HETATM   12  C   UNL     1     -12.015  11.693  69.411  1.00  0.00    -0.316 A  
BRANCH   4  13
HETATM   13  N   UNL     1      -9.802   9.234  65.664  1.00  0.00    -0.441 N  
HETATM   14  H   UNL     1     -10.372   8.713  64.998  1.00  0.00     0.000 HD 
HETATM   15  C   UNL     1      -8.535   8.771  65.957  1.00  0.00    -0.135 C  
HETATM   16  O   UNL     1      -7.780   9.270  66.787  1.00  0.00    -0.093 OA 
BRANCH  15  17
HETATM   17  C   UNL     1      -8.077   7.650  65.082  1.00  0.00    -0.134 C  
HETATM   18  C   UNL     1      -8.463   6.404  65.412  1.00  0.00    -0.126 C  
BRANCH  18  19
HETATM   19  C   UNL     1      -7.992   5.121  64.789  1.00  0.00    -0.104 C  
BRANCH  19  20
HETATM   20  N   UNL     1      -8.794   3.926  65.099  1.00  0.00    -0.122 NA 
HETATM   21  C   UNL     1      -9.478   2.578  62.536  1.00  0.00    -0.089 C  
HETATM   22  C   UNL     1     -10.144   4.034  64.508  1.00  0.00    -0.200 C  
HETATM   23  C   UNL     1      -8.105   2.447  63.184  1.00  0.00    -0.069 C  
HETATM   24  C   UNL     1     -10.184   3.855  62.982  1.00  0.00    -0.176 C  
HETATM   25  C   UNL     1      -8.195   2.643  64.698  1.00  0.00    -0.086 C  
ENDBRANCH  19  20
ENDBRANCH  18  19
ENDBRANCH  15  17
ENDBRANCH   4  13
BRANCH  12  26
HETATM   26  N   UNL     1     -12.418  10.535  70.112  1.00  0.00    -0.479 NA 
HETATM   27  H   UNL     1     -13.355  10.206  69.879  1.00  0.00     0.000 HD 
BRANCH  26  28
HETATM   28  C   UNL     1     -11.748   9.754  71.079  1.00  0.00    -0.370 A  
HETATM   29  C   UNL     1     -10.348   9.658  71.006  1.00  0.00    -0.292 A  
HETATM   30  C   UNL     1      -9.646   8.748  71.805  1.00  0.00    -0.301 A  
HETATM   31  C   UNL     1     -11.706   8.025  72.812  1.00  0.00    -0.352 A  
HETATM   32  C   UNL     1     -12.403   8.935  72.013  1.00  0.00    -0.460 A  
HETATM   33  C   UNL     1     -10.331   7.922  72.690  1.00  0.00    -0.308 A  
HETATM   34  F   UNL     1      -9.683   7.009  73.427  1.00  0.00    -0.176 F  
HETATM   35 CL   UNL     1      -7.934   8.634  71.653  1.00  0.00    -0.173 Cl 
ENDBRANCH  26  28
ENDBRANCH  12  26
ENDBRANCH   2   3
TORSDOF 7
ENDMDL
MODEL       75
REMARK 921   NORMALIZED FREE ENERGY PREDICTED BY IDOCK:   -6.00 KCAL/MOL
REMARK 922        TOTAL FREE ENERGY PREDICTED BY IDOCK:   -9.37 KCAL/MOL
REMARK 923 INTER-LIGAND FREE ENERGY PREDICTED BY IDOCK:   -9.58 KCAL/MOL
REMARK 924 INTRA-LIGAND FREE ENERGY PREDICTED BY IDOCK:    0.21 KCAL/MOL
REMARK 927      BINDING AFFINITY PREDICTED BY RF-SCORE:    0.00 PKD
ROOT
HETATM    1  C   UNL     1      -9.677  11.896  63.821  1.00  0.00    -0.209 C  
HETATM    2  O   UNL     1     -10.771  12.795  64.003  1.00  0.00    -0.387 OA 
ENDROOT
BRANCH   2   3
HETATM    3  C   UNL     1     -10.653  13.685  65.041  1.00  0.00    -0.383 A  
HETATM    4  C   UNL     1     -10.276  13.163  66.282  1.00  0.00    -0.293 A  
HETATM    5  N   UNL     1     -10.779  17.238  65.719  1.00  0.00    -0.357 NA 
HETATM    6  C   UNL     1     -10.155  14.023  67.385  1.00  0.00    -0.244 A  
HETATM    7  C   UNL     1     -10.637  15.936  65.979  1.00  0.00    -0.323 A  
HETATM    8  C   UNL     1     -10.638  18.065  66.749  1.00  0.00    -0.270 A  
HETATM    9  C   UNL     1     -10.333  15.425  67.249  1.00  0.00    -0.271 A  
HETATM   10  C   UNL     1     -10.798  15.069  64.913  1.00  0.00    -0.430 A  
HETATM   11  N   UNL     1     -10.386  17.706  68.006  1.00  0.00    -0.357 NA 
HETATM   12  C   UNL     1     -10.242  16.392  68.280  1.00  0.00    -0.255 A  
BRANCH   4  13
HETATM   13  N   UNL     1     -10.003  11.774  66.384  1.00  0.00    -0.206 N  
HETATM   14  H   UNL     1      -9.167  11.405  65.933  1.00  0.00     0.000 HD 
HETATM   15  C   UNL     1     -10.825  10.903  67.070  1.00  0.00    -0.266 C  
HETATM   16  O   UNL     1     -11.891  11.212  67.597  1.00  0.00    -0.612 OA 
BRANCH  15  17
HETATM   17  C   UNL     1     -10.258   9.531  67.237  1.00  0.00    -0.295 C  
HETATM   18  C   UNL     1     -10.842   8.721  68.139  1.00  0.00    -0.038 C  
BRANCH  18  19
HETATM   19  C   UNL     1     -10.348   7.377  68.595  1.00  0.00    -0.198 C  
BRANCH  19  20
HETATM   20  N   UNL     1      -9.915   7.295  69.999  1.00  0.00    -0.183 NA 
HETATM   21  C   UNL     1      -7.390   8.844  70.282  1.00  0.00    -0.067 C  
HETATM   22  C   UNL     1      -8.605   6.620  70.104  1.00  0.00    -0.140 C  
HETATM   23  C   UNL     1      -8.756   9.517  70.213  1.00  0.00    -0.270 C  
HETATM   24  C   UNL     1      -7.416   7.466  69.625  1.00  0.00    -0.093 C  
HETATM   25  C   UNL     1      -9.854   8.579  70.717  1.00  0.00    -0.182 C  
ENDBRANCH  19  20
ENDBRANCH  18  19
ENDBRANCH  15  17
ENDBRANCH   4  13
BRANCH  12  26
HETATM   26  N   UNL     1     -10.134  15.989  69.629  1.00  0.00    -0.262 NA 
HETATM   27  H   UNL     1      -9.202  16.096  70.028  1.00  0.00     0.000 HD 
BRANCH  26  28
HETATM   28  C   UNL     1     -11.094  15.464  70.522  1.00  0.00    -0.335 A  
HETATM   29  C   UNL     1     -11.411  14.098  70.431  1.00  0.00    -0.149 A  
HETATM   30  C   UNL     1     -12.489  13.560  71.145  1.00  0.00    -0.339 A  
HETATM   31  C   UNL     1     -12.947  15.719  72.101  1.00  0.00    -0.513 A  
HETATM   32  C   UNL     1     -11.871  16.251  71.387  1.00  0.00    -0.394 A  
HETATM   33  C   UNL     1     -13.264  14.378  71.961  1.00  0.00    -0.369 A  
HETATM   34  F   UNL     1     -14.330  13.894  72.614  1.00  0.00    -0.540 F  
HETATM   35 CL   UNL     1     -12.869  11.890  70.973  1.00  0.00    -0.348 Cl 
ENDBRANCH  26  28
ENDBRANCH  12  26
ENDBRANCH   2   3
TORSDOF 7
ENDMDL
MODEL       76
REMARK 921   NORMALIZED FREE ENERGY PREDICTED BY IDOCK:   -5.99 KCAL/MOL
REMARK 922        TOTAL FREE ENERGY PREDICTED BY IDOCK:   -9.36 KCAL/MOL
REMARK 923 INTER-LIGAND FREE ENERGY PREDICTED BY IDOCK:   -8.55 KCAL/MOL
REMARK 924 INTRA-LIGAND FREE ENERGY PREDICTED BY IDOCK:   -0.82 KCAL/MOL
REMARK 927      BINDING AFFINITY PREDICTED BY RF-SCORE:    0.00 PKD
ROOT
HETATM    1  C   UNL     1     -11.140   6.049  69.661  1.00  0.00    -0.404 C  
HETATM    2  O   UNL     1     -10.283   6.966  70.338  1.00  0.00    -0.190 OA 
ENDROOT
BRANCH   2   3
HETATM    3  C   UNL     1     -10.638   8.290  70.265  1.00  0.00    -0.227 A  
HETATM    4  C   UNL     1     -10.133   9.022  69.186  1.00  0.00    -0.195 A  
HETATM    5  N   UNL     1     -12.770  10.717  71.896  1.00  0.00    -0.376 NA 
HETATM    6  C   UNL     1     -10.450  10.384  69.068  1.00  0.00    -0.240 A  
HETATM    7  C   UNL     1     -11.891  10.246  71.011  1.00  0.00    -0.377 A  
HETATM    8  C   UNL     1     -13.100  11.998  71.778  1.00  0.00    -0.355 A  
HETATM    9  C   UNL     1     -11.336  11.017  69.980  1.00  0.00    -0.358 A  
HETATM   10  C   UNL     1     -11.531   8.916  71.139  1.00  0.00    -0.364 A  
HETATM   11  N   UNL     1     -12.620  12.844  70.869  1.00  0.00    -0.320 NA 
HETATM   12  C   UNL     1     -11.729  12.378  69.969  1.00  0.00    -0.230 A  
BRANCH   4  13
HETATM   13  N   UNL     1      -9.329   8.355  68.225  1.00  0.00    -0.135 N  
HETATM   14  H   UNL     1      -8.478   7.888  68.538  1.00  0.00     0.000 HD 
HETATM   15  C   UNL     1      -9.653   8.314  66.885  1.00  0.00    -0.207 C  
HETATM   16  O   UNL     1     -10.611   8.891  66.376  1.00  0.00    -0.139 OA 
BRANCH  15  17
HETATM   17  C   UNL     1      -8.798   7.392  66.078  1.00  0.00    -0.173 C  
HETATM   18  C   UNL     1      -8.895   6.074  66.327  1.00  0.00    -0.144 C  
BRANCH  18  19
HETATM   19  C   UNL     1      -8.023   4.985  65.768  1.00  0.00    -0.107 C  
BRANCH  19  20
HETATM   20  N   UNL     1      -7.341   4.137  66.759  1.00  0.00    -0.072 NA 
HETATM   21  C   UNL     1      -9.158   1.887  67.461  1.00  0.00    -0.182 C  
HETATM   22  C   UNL     1      -8.088   4.119  68.035  1.00  0.00    -0.089 C  
HETATM   23  C   UNL     1      -8.347   1.908  66.171  1.00  0.00    -0.095 C  
HETATM   24  C   UNL     1      -9.387   3.299  67.997  1.00  0.00    -0.245 C  
HETATM   25  C   UNL     1      -7.083   2.752  66.334  1.00  0.00    -0.053 C  
ENDBRANCH  19  20
ENDBRANCH  18  19
ENDBRANCH  15  17
ENDBRANCH   4  13
BRANCH  12  26
HETATM   26  N   UNL     1     -11.094  13.298  69.106  1.00  0.00    -0.372 NA 
HETATM   27  H   UNL     1     -10.375  13.867  69.552  1.00  0.00     0.000 HD 
BRANCH  26  28
HETATM   28  C   UNL     1     -11.282  13.566  67.732  1.00  0.00    -0.282 A  
HETATM   29  C   UNL     1     -10.787  14.776  67.215  1.00  0.00    -0.309 A  
HETATM   30  C   UNL     1     -11.111  15.191  65.918  1.00  0.00    -0.319 A  
HETATM   31  C   UNL     1     -12.400  13.187  65.587  1.00  0.00    -0.519 A  
HETATM   32  C   UNL     1     -12.073  12.777  66.883  1.00  0.00    -0.267 A  
HETATM   33  C   UNL     1     -11.932  14.403  65.118  1.00  0.00    -0.391 A  
HETATM   34  F   UNL     1     -12.296  14.806  63.892  1.00  0.00    -0.494 F  
HETATM   35 CL   UNL     1     -10.517  16.700  65.340  1.00  0.00    -0.314 Cl 
ENDBRANCH  26  28
ENDBRANCH  12  26
ENDBRANCH   2   3
TORSDOF 7
ENDMDL
MODEL       77
REMARK 921   NORMALIZED FREE ENERGY PREDICTED BY IDOCK:   -5.99 KCAL/MOL
REMARK 922        TOTAL FREE ENERGY PREDICTED BY IDOCK:   -9.36 KCAL/MOL
REMARK 923 INTER-LIGAND FREE ENERGY PREDICTED BY IDOCK:   -8.34 KCAL/MOL
REMARK 924 INTRA-LIGAND FREE ENERGY PREDICTED BY IDOCK:   -1.01 KCAL/MOL
REMARK 927      BINDING AFFINITY PREDICTED BY RF-SCORE:    0.00 PKD
ROOT
HETATM    1  C   UNL     1      -5.146  15.634  70.727  1.00  0.00    -0.169 C  
HETATM    2  O   UNL     1      -6.344  14.926  70.407  1.00  0.00    -0.163 OA 
ENDROOT
BRANCH   2   3
HETATM    3  C   UNL     1      -7.121  15.475  69.417  1.00  0.00    -0.194 A  
HETATM    4  C   UNL     1      -7.801  14.585  68.580  1.00  0.00    -0.140 A  
HETATM    5  N   UNL     1      -8.302  18.684  68.232  1.00  0.00    -0.314 NA 
HETATM    6  C   UNL     1      -8.598  15.089  67.540  1.00  0.00    -0.192 A  
HETATM    7  C   UNL     1      -8.158  17.358  68.265  1.00  0.00    -0.249 A  
HETATM    8  C   UNL     1      -9.078  19.171  67.269  1.00  0.00    -0.295 A  
HETATM    9  C   UNL     1      -8.790  16.485  67.367  1.00  0.00    -0.201 A  
HETATM   10  C   UNL     1      -7.339  16.846  69.255  1.00  0.00    -0.150 A  
HETATM   11  N   UNL     1      -9.703  18.455  66.337  1.00  0.00    -0.362 NA 
HETATM   12  C   UNL     1      -9.563  17.113  66.361  1.00  0.00    -0.278 A  
BRANCH   4  13
HETATM   13  N   UNL     1      -7.682  13.192  68.824  1.00  0.00    -0.292 N  
HETATM   14  H   UNL     1      -8.197  12.786  69.605  1.00  0.00     0.000 HD 
HETATM   15  C   UNL     1      -6.897  12.366  68.046  1.00  0.00    -0.089 C  
HETATM   16  O   UNL     1      -6.180  12.743  67.123  1.00  0.00    -0.263 OA 
BRANCH  15  17
HETATM   17  C   UNL     1      -7.070  10.911  68.335  1.00  0.00    -0.073 C  
HETATM   18  C   UNL     1      -8.175  10.308  67.860  1.00  0.00    -0.109 C  
BRANCH  18  19
HETATM   19  C   UNL     1      -8.641   8.912  68.163  1.00  0.00    -0.130 C  
BRANCH  19  20
HETATM   20  N   UNL     1     -10.098   8.703  68.141  1.00  0.00    -0.189 NA 
HETATM   21  C   UNL     1     -11.360  10.792  69.843  1.00  0.00    -0.385 C  
HETATM   22  C   UNL     1     -10.603   8.392  69.495  1.00  0.00    -0.213 C  
HETATM   23  C   UNL     1     -10.870  11.080  68.428  1.00  0.00    -0.264 C  
HETATM   24  C   UNL     1     -10.633   9.595  70.451  1.00  0.00    -0.354 C  
HETATM   25  C   UNL     1     -10.886   9.810  67.576  1.00  0.00    -0.220 C  
ENDBRANCH  19  20
ENDBRANCH  18  19
ENDBRANCH  15  17
ENDBRANCH   4  13
BRANCH  12  26
HETATM   26  N   UNL     1     -10.087  16.359  65.287  1.00  0.00    -0.535 NA 
HETATM   27  H   UNL     1      -9.908  16.757  64.365  1.00  0.00     0.000 HD 
BRANCH  26  28
HETATM   28  C   UNL     1     -10.815  15.150  65.270  1.00  0.00    -0.400 A  
HETATM   29  C   UNL     1     -10.266  14.051  64.586  1.00  0.00    -0.242 A  
HETATM   30  C   UNL     1     -11.020  12.892  64.362  1.00  0.00    -0.371 A  
HETATM   31  C   UNL     1     -12.884  13.866  65.530  1.00  0.00    -0.471 A  
HETATM   32  C   UNL     1     -12.127  15.020  65.752  1.00  0.00     0.130 A  
HETATM   33  C   UNL     1     -12.332  12.814  64.817  1.00  0.00    -0.478 A  
HETATM   34  F   UNL     1     -13.087  11.735  64.569  1.00  0.00    -0.253 F  
HETATM   35 CL   UNL     1     -10.322  11.586  63.484  1.00  0.00    -0.435 Cl 
ENDBRANCH  26  28
ENDBRANCH  12  26
ENDBRANCH   2   3
TORSDOF 7
ENDMDL
MODEL       78
REMARK 921   NORMALIZED FREE ENERGY PREDICTED BY IDOCK:   -5.98 KCAL/MOL
REMARK 922        TOTAL FREE ENERGY PREDICTED BY IDOCK:   -9.34 KCAL/MOL
REMARK 923 INTER-LIGAND FREE ENERGY PREDICTED BY IDOCK:   -8.29 KCAL/MOL
REMARK 924 INTRA-LIGAND FREE ENERGY PREDICTED BY IDOCK:   -1.06 KCAL/MOL
REMARK 927      BINDING AFFINITY PREDICTED BY RF-SCORE:    0.00 PKD
ROOT
HETATM    1  C   UNL     1      -9.196  10.838  62.516  1.00  0.00    -0.303 C  
HETATM    2  O   UNL     1     -10.035  10.609  63.647  1.00  0.00    -0.319 OA 
ENDROOT
BRANCH   2   3
HETATM    3  C   UNL     1     -10.146  11.650  64.536  1.00  0.00    -0.278 A  
HETATM    4  C   UNL     1      -9.832  11.377  65.871  1.00  0.00    -0.226 A  
HETATM    5  N   UNL     1     -10.819  15.204  64.625  1.00  0.00    -0.337 NA 
HETATM    6  C   UNL     1      -9.942  12.399  66.828  1.00  0.00    -0.234 A  
HETATM    7  C   UNL     1     -10.530  13.991  65.100  1.00  0.00    -0.397 A  
HETATM    8  C   UNL     1     -10.898  16.186  65.517  1.00  0.00    -0.270 A  
HETATM    9  C   UNL     1     -10.293  13.723  66.455  1.00  0.00    -0.286 A  
HETATM   10  C   UNL     1     -10.462  12.963  64.177  1.00  0.00    -0.429 A  
HETATM   11  N   UNL     1     -10.730  16.057  66.832  1.00  0.00    -0.298 NA 
HETATM   12  C   UNL     1     -10.440  14.834  67.322  1.00  0.00    -0.264 A  
BRANCH   4  13
HETATM   13  N   UNL     1      -9.387  10.075  66.216  1.00  0.00    -0.161 N  
HETATM   14  H   UNL     1      -8.474   9.765  65.881  1.00  0.00     0.000 HD 
HETATM   15  C   UNL     1     -10.139   9.211  66.985  1.00  0.00    -0.249 C  
HETATM   16  O   UNL     1     -11.276   9.440  67.390  1.00  0.00     0.017 OA 
BRANCH  15  17
HETATM   17  C   UNL     1      -9.410   7.978  67.408  1.00  0.00    -0.173 C  
HETATM   18  C   UNL     1      -8.967   7.152  66.442  1.00  0.00    -0.178 C  
BRANCH  18  19
HETATM   19  C   UNL     1      -8.366   5.788  66.628  1.00  0.00    -0.109 C  
BRANCH  19  20
HETATM   20  N   UNL     1      -8.955   4.968  67.698  1.00  0.00    -0.110 NA 
HETATM   21  C   UNL     1      -6.896   3.027  68.618  1.00  0.00    -0.044 C  
HETATM   22  C   UNL     1      -9.005   3.546  67.300  1.00  0.00    -0.146 C  
HETATM   23  C   UNL     1      -6.888   4.489  69.049  1.00  0.00    -0.050 C  
HETATM   24  C   UNL     1      -7.640   2.840  67.298  1.00  0.00    -0.069 C  
HETATM   25  C   UNL     1      -8.299   5.078  69.011  1.00  0.00    -0.086 C  
ENDBRANCH  19  20
ENDBRANCH  18  19
ENDBRANCH  15  17
ENDBRANCH   4  13
BRANCH  12  26
HETATM   26  N   UNL     1     -10.419  14.654  68.723  1.00  0.00    -0.241 NA 
HETATM   27  H   UNL     1      -9.517  14.848  69.159  1.00  0.00     0.000 HD 
BRANCH  26  28
HETATM   28  C   UNL     1     -11.428  14.251  69.624  1.00  0.00    -0.282 A  
HETATM   29  C   UNL     1     -11.927  15.200  70.534  1.00  0.00    -0.371 A  
HETATM   30  C   UNL     1     -12.778  14.818  71.578  1.00  0.00    -0.330 A  
HETATM   31  C   UNL     1     -12.703  12.537  70.820  1.00  0.00    -0.209 A  
HETATM   32  C   UNL     1     -11.853  12.922  69.780  1.00  0.00    -0.380 A  
HETATM   33  C   UNL     1     -13.146  13.485  71.727  1.00  0.00    -0.387 A  
HETATM   34  F   UNL     1     -13.919  13.091  72.749  1.00  0.00    -0.583 F  
HETATM   35 CL   UNL     1     -13.332  16.006  72.695  1.00  0.00    -0.506 Cl 
ENDBRANCH  26  28
ENDBRANCH  12  26
ENDBRANCH   2   3
TORSDOF 7
ENDMDL
MODEL       79
REMARK 921   NORMALIZED FREE ENERGY PREDICTED BY IDOCK:   -5.98 KCAL/MOL
REMARK 922        TOTAL FREE ENERGY PREDICTED BY IDOCK:   -9.34 KCAL/MOL
REMARK 923 INTER-LIGAND FREE ENERGY PREDICTED BY IDOCK:   -7.99 KCAL/MOL
REMARK 924 INTRA-LIGAND FREE ENERGY PREDICTED BY IDOCK:   -1.36 KCAL/MOL
REMARK 927      BINDING AFFINITY PREDICTED BY RF-SCORE:    0.00 PKD
ROOT
HETATM    1  C   UNL     1     -10.905  13.910  64.880  1.00  0.00    -0.405 C  
HETATM    2  O   UNL     1     -11.517  12.655  64.587  1.00  0.00    -0.307 OA 
ENDROOT
BRANCH   2   3
HETATM    3  C   UNL     1     -10.684  11.563  64.593  1.00  0.00    -0.319 A  
HETATM    4  C   UNL     1     -10.662  10.791  65.759  1.00  0.00    -0.070 A  
HETATM    5  N   UNL     1      -8.494   9.692  62.402  1.00  0.00    -0.153 NA 
HETATM    6  C   UNL     1      -9.818   9.672  65.829  1.00  0.00    -0.373 A  
HETATM    7  C   UNL     1      -9.137  10.007  63.528  1.00  0.00    -0.272 A  
HETATM    8  C   UNL     1      -7.714   8.618  62.448  1.00  0.00    -0.120 A  
HETATM    9  C   UNL     1      -9.042   9.262  64.712  1.00  0.00    -0.201 A  
HETATM   10  C   UNL     1      -9.939  11.134  63.491  1.00  0.00    -0.425 A  
HETATM   11  N   UNL     1      -7.511   7.848  63.515  1.00  0.00    -0.111 NA 
HETATM   12  C   UNL     1      -8.155   8.160  64.659  1.00  0.00    -0.148 A  
BRANCH   4  13
HETATM   13  N   UNL     1     -11.516  11.152  66.833  1.00  0.00    -0.101 N  
HETATM   14  H   UNL     1     -12.500  10.887  66.786  1.00  0.00     0.000 HD 
HETATM   15  C   UNL     1     -11.069  11.848  67.937  1.00  0.00    -0.242 C  
HETATM   16  O   UNL     1      -9.928  12.280  68.080  1.00  0.00    -0.190 OA 
BRANCH  15  17
HETATM   17  C   UNL     1     -12.068  11.946  69.043  1.00  0.00    -0.245 C  
HETATM   18  C   UNL     1     -11.994  11.036  70.032  1.00  0.00    -0.430 C  
BRANCH  18  19
HETATM   19  C   UNL     1     -12.981  10.835  71.147  1.00  0.00    -0.371 C  
BRANCH  19  20
HETATM   20  N   UNL     1     -12.574   9.893  72.202  1.00  0.00    -0.308 NA 
HETATM   21  C   UNL     1     -12.767   7.133  71.107  1.00  0.00    -0.363 C  
HETATM   22  C   UNL     1     -13.693   8.997  72.564  1.00  0.00    -0.436 C  
HETATM   23  C   UNL     1     -11.602   8.060  70.780  1.00  0.00    -0.251 C  
HETATM   24  C   UNL     1     -14.009   7.923  71.511  1.00  0.00    -0.450 C  
HETATM   25  C   UNL     1     -11.385   9.081  71.899  1.00  0.00    -0.368 C  
ENDBRANCH  19  20
ENDBRANCH  18  19
ENDBRANCH  15  17
ENDBRANCH   4  13
BRANCH  12  26
HETATM   26  N   UNL     1      -7.825   7.451  65.836  1.00  0.00    -0.099 NA 
HETATM   27  H   UNL     1      -6.956   7.750  66.278  1.00  0.00     0.000 HD 
BRANCH  26  28
HETATM   28  C   UNL     1      -8.490   6.401  66.506  1.00  0.00    -0.118 A  
HETATM   29  C   UNL     1      -8.552   6.439  67.909  1.00  0.00    -0.116 A  
HETATM   30  C   UNL     1      -9.017   5.338  68.639  1.00  0.00    -0.107 A  
HETATM   31  C   UNL     1      -9.417   4.137  66.595  1.00  0.00    -0.206 A  
HETATM   32  C   UNL     1      -8.953   5.237  65.870  1.00  0.00    -0.148 A  
HETATM   33  C   UNL     1      -9.428   4.186  67.979  1.00  0.00    -0.160 A  
HETATM   34  F   UNL     1      -9.829   3.103  68.661  1.00  0.00    -0.211 F  
HETATM   35 CL   UNL     1      -9.036   5.412  70.360  1.00  0.00    -0.160 Cl 
ENDBRANCH  26  28
ENDBRANCH  12  26
ENDBRANCH   2   3
TORSDOF 7
ENDMDL
MODEL       80
REMARK 921   NORMALIZED FREE ENERGY PREDICTED BY IDOCK:   -5.98 KCAL/MOL
REMARK 922        TOTAL FREE ENERGY PREDICTED BY IDOCK:   -9.34 KCAL/MOL
REMARK 923 INTER-LIGAND FREE ENERGY PREDICTED BY IDOCK:   -8.33 KCAL/MOL
REMARK 924 INTRA-LIGAND FREE ENERGY PREDICTED BY IDOCK:   -1.02 KCAL/MOL
REMARK 927      BINDING AFFINITY PREDICTED BY RF-SCORE:    0.00 PKD
ROOT
HETATM    1  C   UNL     1      -6.566  10.079  64.146  1.00  0.00    -0.130 C  
HETATM    2  O   UNL     1      -7.055  10.224  65.479  1.00  0.00    -0.132 OA 
ENDROOT
BRANCH   2   3
HETATM    3  C   UNL     1      -7.929   9.256  65.908  1.00  0.00    -0.106 A  
HETATM    4  C   UNL     1      -8.889   9.643  66.848  1.00  0.00    -0.131 A  
HETATM    5  N   UNL     1      -8.843   5.815  65.262  1.00  0.00    -0.101 NA 
HETATM    6  C   UNL     1      -9.799   8.692  67.336  1.00  0.00    -0.249 A  
HETATM    7  C   UNL     1      -8.892   7.016  65.840  1.00  0.00    -0.103 A  
HETATM    8  C   UNL     1      -9.719   4.914  65.695  1.00  0.00    -0.145 A  
HETATM    9  C   UNL     1      -9.815   7.363  66.837  1.00  0.00    -0.284 A  
HETATM   10  C   UNL     1      -7.972   7.953  65.404  1.00  0.00    -0.123 A  
HETATM   11  N   UNL     1     -10.620   5.105  66.656  1.00  0.00    -0.275 NA 
HETATM   12  C   UNL     1     -10.676   6.316  67.248  1.00  0.00    -0.349 A  
BRANCH   4  13
HETATM   13  N   UNL     1      -8.928  10.999  67.265  1.00  0.00    -0.138 N  
HETATM   14  H   UNL     1      -8.130  11.378  67.775  1.00  0.00     0.000 HD 
HETATM   15  C   UNL     1     -10.004  11.824  67.010  1.00  0.00    -0.204 C  
HETATM   16  O   UNL     1     -11.047  11.471  66.467  1.00  0.00    -0.293 OA 
BRANCH  15  17
HETATM   17  C   UNL     1      -9.764  13.261  67.344  1.00  0.00    -0.221 C  
HETATM   18  C   UNL     1      -9.855  14.157  66.344  1.00  0.00    -0.308 C  
BRANCH  18  19
HETATM   19  C   UNL     1      -9.494  15.614  66.406  1.00  0.00    -0.292 C  
BRANCH  19  20
HETATM   20  N   UNL     1     -10.618  16.545  66.597  1.00  0.00    -0.262 NA 
HETATM   21  C   UNL     1      -9.603  18.936  68.049  1.00  0.00    -0.368 C  
HETATM   22  C   UNL     1     -10.891  16.747  68.036  1.00  0.00    -0.341 C  
HETATM   23  C   UNL     1      -9.368  18.728  66.557  1.00  0.00    -0.345 C  
HETATM   24  C   UNL     1      -9.848  17.610  68.763  1.00  0.00    -0.334 C  
HETATM   25  C   UNL     1     -10.468  17.857  65.948  1.00  0.00    -0.253 C  
ENDBRANCH  19  20
ENDBRANCH  18  19
ENDBRANCH  15  17
ENDBRANCH   4  13
BRANCH  12  26
HETATM   26  N   UNL     1     -11.514   6.482  68.374  1.00  0.00    -0.527 NA 
HETATM   27  H   UNL     1     -12.453   6.816  68.155  1.00  0.00     0.000 HD 
BRANCH  26  28
HETATM   28  C   UNL     1     -11.277   6.265  69.749  1.00  0.00    -0.430 A  
HETATM   29  C   UNL     1     -10.223   5.410  70.117  1.00  0.00    -0.342 A  
HETATM   30  C   UNL     1     -10.061   4.998  71.445  1.00  0.00    -0.199 A  
HETATM   31  C   UNL     1     -11.970   6.308  72.096  1.00  0.00    -0.338 A  
HETATM   32  C   UNL     1     -12.128   6.717  70.770  1.00  0.00    -0.402 A  
HETATM   33  C   UNL     1     -10.947   5.433  72.424  1.00  0.00    -0.240 A  
HETATM   34  F   UNL     1     -10.841   5.010  73.692  1.00  0.00    -0.249 F  
HETATM   35 CL   UNL     1      -8.781   3.918  71.845  1.00  0.00    -0.112 Cl 
ENDBRANCH  26  28
ENDBRANCH  12  26
ENDBRANCH   2   3
TORSDOF 7
ENDMDL
MODEL       81
REMARK 921   NORMALIZED FREE ENERGY PREDICTED BY IDOCK:   -5.97 KCAL/MOL
REMARK 922        TOTAL FREE ENERGY PREDICTED BY IDOCK:   -9.33 KCAL/MOL
REMARK 923 INTER-LIGAND FREE ENERGY PREDICTED BY IDOCK:   -8.39 KCAL/MOL
REMARK 924 INTRA-LIGAND FREE ENERGY PREDICTED BY IDOCK:   -0.94 KCAL/MOL
REMARK 927      BINDING AFFINITY PREDICTED BY RF-SCORE:    0.00 PKD
ROOT
HETATM    1  C   UNL     1      -5.268  13.890  67.874  1.00  0.00    -0.066 C  
HETATM    2  O   UNL     1      -6.390  13.764  68.747  1.00  0.00    -0.082 OA 
ENDROOT
BRANCH   2   3
HETATM    3  C   UNL     1      -6.867  12.490  68.935  1.00  0.00    -0.098 A  
HETATM    4  C   UNL     1      -8.144  12.214  68.437  1.00  0.00    -0.149 A  
HETATM    5  N   UNL     1      -5.823   9.259  70.185  1.00  0.00    -0.030 NA 
HETATM    6  C   UNL     1      -8.691  10.933  68.614  1.00  0.00    -0.154 A  
HETATM    7  C   UNL     1      -6.637  10.169  69.646  1.00  0.00    -0.069 A  
HETATM    8  C   UNL     1      -6.320   8.035  70.332  1.00  0.00    -0.036 A  
HETATM    9  C   UNL     1      -7.944   9.890  69.221  1.00  0.00    -0.121 A  
HETATM   10  C   UNL     1      -6.131  11.449  69.505  1.00  0.00    -0.093 A  
HETATM   11  N   UNL     1      -7.551   7.651  70.003  1.00  0.00    -0.085 NA 
HETATM   12  C   UNL     1      -8.382   8.564  69.459  1.00  0.00    -0.118 A  
BRANCH   4  13
HETATM   13  N   UNL     1      -8.843  13.236  67.743  1.00  0.00    -0.185 N  
HETATM   14  H   UNL     1      -8.914  14.158  68.172  1.00  0.00     0.000 HD 
HETATM   15  C   UNL     1      -9.429  13.031  66.511  1.00  0.00    -0.245 C  
HETATM   16  O   UNL     1      -9.471  11.953  65.923  1.00  0.00    -0.232 OA 
BRANCH  15  17
HETATM   17  C   UNL     1      -9.930  14.278  65.859  1.00  0.00    -0.340 C  
HETATM   18  C   UNL     1      -9.639  15.451  66.449  1.00  0.00    -0.319 C  
BRANCH  18  19
HETATM   19  C   UNL     1     -10.171  16.805  66.074  1.00  0.00    -0.346 C  
BRANCH  19  20
HETATM   20  N   UNL     1      -9.214  17.920  66.172  1.00  0.00    -0.501 NA 
HETATM   21  C   UNL     1     -10.015  19.631  68.470  1.00  0.00    -0.542 C  
HETATM   22  C   UNL     1      -9.896  19.215  65.967  1.00  0.00    -0.258 C  
HETATM   23  C   UNL     1      -9.274  18.312  68.656  1.00  0.00    -0.309 C  
HETATM   24  C   UNL     1     -10.775  19.661  67.146  1.00  0.00    -0.587 C  
HETATM   25  C   UNL     1      -8.437  17.977  67.420  1.00  0.00    -0.240 C  
ENDBRANCH  19  20
ENDBRANCH  18  19
ENDBRANCH  15  17
ENDBRANCH   4  13
BRANCH  12  26
HETATM   26  N   UNL     1      -9.735   8.213  69.256  1.00  0.00    -0.168 NA 
HETATM   27  H   UNL     1      -9.934   7.816  68.337  1.00  0.00     0.000 HD 
BRANCH  26  28
HETATM   28  C   UNL     1     -10.860   8.315  70.103  1.00  0.00    -0.237 A  
HETATM   29  C   UNL     1     -11.375   9.595  70.375  1.00  0.00    -0.337 A  
HETATM   30  C   UNL     1     -12.355   9.782  71.357  1.00  0.00    -0.388 A  
HETATM   31  C   UNL     1     -12.376   7.419  71.804  1.00  0.00    -0.365 A  
HETATM   32  C   UNL     1     -11.398   7.236  70.823  1.00  0.00    -0.312 A  
HETATM   33  C   UNL     1     -12.836   8.696  72.080  1.00  0.00    -0.391 A  
HETATM   34  F   UNL     1     -13.737   8.860  73.059  1.00  0.00    -0.428 F  
HETATM   35 CL   UNL     1     -12.929  11.372  71.687  1.00  0.00    -0.558 Cl 
ENDBRANCH  26  28
ENDBRANCH  12  26
ENDBRANCH   2   3
TORSDOF 7
ENDMDL
MODEL       82
REMARK 921   NORMALIZED FREE ENERGY PREDICTED BY IDOCK:   -5.97 KCAL/MOL
REMARK 922        TOTAL FREE ENERGY PREDICTED BY IDOCK:   -9.33 KCAL/MOL
REMARK 923 INTER-LIGAND FREE ENERGY PREDICTED BY IDOCK:   -8.03 KCAL/MOL
REMARK 924 INTRA-LIGAND FREE ENERGY PREDICTED BY IDOCK:   -1.30 KCAL/MOL
REMARK 927      BINDING AFFINITY PREDICTED BY RF-SCORE:    0.00 PKD
ROOT
HETATM    1  C   UNL     1      -5.458  15.555  70.541  1.00  0.00    -0.138 C  
HETATM    2  O   UNL     1      -6.704  14.900  70.305  1.00  0.00    -0.161 OA 
ENDROOT
BRANCH   2   3
HETATM    3  C   UNL     1      -7.447  15.380  69.255  1.00  0.00    -0.207 A  
HETATM    4  C   UNL     1      -8.009  14.432  68.393  1.00  0.00    -0.141 A  
HETATM    5  N   UNL     1      -8.755  18.482  67.929  1.00  0.00    -0.279 NA 
HETATM    6  C   UNL     1      -8.766  14.864  67.293  1.00  0.00    -0.224 A  
HETATM    7  C   UNL     1      -8.527  17.170  67.998  1.00  0.00    -0.219 A  
HETATM    8  C   UNL     1      -9.495  18.901  66.907  1.00  0.00    -0.317 A  
HETATM    9  C   UNL     1      -9.037  16.242  67.079  1.00  0.00    -0.226 A  
HETATM   10  C   UNL     1      -7.744  16.730  69.051  1.00  0.00    -0.213 A  
HETATM   11  N   UNL     1     -10.007  18.130  65.951  1.00  0.00    -0.564 NA 
HETATM   12  C   UNL     1      -9.780  16.801  66.011  1.00  0.00    -0.259 A  
BRANCH   4  13
HETATM   13  N   UNL     1      -7.815  13.055  68.673  1.00  0.00    -0.278 N  
HETATM   14  H   UNL     1      -8.396  12.613  69.385  1.00  0.00     0.000 HD 
HETATM   15  C   UNL     1      -6.871  12.290  68.019  1.00  0.00    -0.082 C  
HETATM   16  O   UNL     1      -6.070  12.718  67.192  1.00  0.00    -0.289 OA 
BRANCH  15  17
HETATM   17  C   UNL     1      -6.967  10.826  68.305  1.00  0.00    -0.069 C  
HETATM   18  C   UNL     1      -8.109  10.199  67.970  1.00  0.00    -0.112 C  
BRANCH  18  19
HETATM   19  C   UNL     1      -8.495   8.787  68.311  1.00  0.00    -0.130 C  
BRANCH  19  20
HETATM   20  N   UNL     1      -9.917   8.567  68.619  1.00  0.00    -0.178 NA 
HETATM   21  C   UNL     1     -10.548   5.707  68.094  1.00  0.00    -0.256 C  
HETATM   22  C   UNL     1     -10.656   8.151  67.409  1.00  0.00    -0.255 C  
HETATM   23  C   UNL     1      -9.823   6.164  69.355  1.00  0.00    -0.191 C  
HETATM   24  C   UNL     1     -10.371   6.710  66.957  1.00  0.00    -0.330 C  
HETATM   25  C   UNL     1     -10.187   7.608  69.701  1.00  0.00    -0.204 C  
ENDBRANCH  19  20
ENDBRANCH  18  19
ENDBRANCH  15  17
ENDBRANCH   4  13
BRANCH  12  26
HETATM   26  N   UNL     1     -10.180  15.996  64.921  1.00  0.00    -0.475 NA 
HETATM   27  H   UNL     1      -9.831  16.309  64.015  1.00  0.00     0.000 HD 
BRANCH  26  28
HETATM   28  C   UNL     1     -10.979  14.833  64.868  1.00  0.00    -0.412 A  
HETATM   29  C   UNL     1     -10.440  13.680  64.270  1.00  0.00    -0.180 A  
HETATM   30  C   UNL     1     -11.243  12.563  64.008  1.00  0.00    -0.403 A  
HETATM   31  C   UNL     1     -13.140  13.687  64.968  1.00  0.00    -0.061 A  
HETATM   32  C   UNL     1     -12.336  14.799  65.228  1.00  0.00    -0.120 A  
HETATM   33  C   UNL     1     -12.593  12.580  64.340  1.00  0.00    -0.410 A  
HETATM   34  F   UNL     1     -13.390  11.541  64.052  1.00  0.00    -0.294 F  
HETATM   35 CL   UNL     1     -10.552  11.188  63.236  1.00  0.00    -0.354 Cl 
ENDBRANCH  26  28
ENDBRANCH  12  26
ENDBRANCH   2   3
TORSDOF 7
ENDMDL
MODEL       83
REMARK 921   NORMALIZED FREE ENERGY PREDICTED BY IDOCK:   -5.96 KCAL/MOL
REMARK 922        TOTAL FREE ENERGY PREDICTED BY IDOCK:   -9.32 KCAL/MOL
REMARK 923 INTER-LIGAND FREE ENERGY PREDICTED BY IDOCK:   -7.84 KCAL/MOL
REMARK 924 INTRA-LIGAND FREE ENERGY PREDICTED BY IDOCK:   -1.48 KCAL/MOL
REMARK 927      BINDING AFFINITY PREDICTED BY RF-SCORE:    0.00 PKD
ROOT
HETATM    1  C   UNL     1      -6.717  16.688  68.683  1.00  0.00    -0.163 C  
HETATM    2  O   UNL     1      -6.541  15.410  68.075  1.00  0.00    -0.121 OA 
ENDROOT
BRANCH   2   3
HETATM    3  C   UNL     1      -7.690  14.759  67.698  1.00  0.00    -0.182 A  
HETATM    4  C   UNL     1      -7.972  13.550  68.341  1.00  0.00    -0.142 A  
HETATM    5  N   UNL     1     -10.604  15.201  65.598  1.00  0.00    -0.331 NA 
HETATM    6  C   UNL     1      -9.125  12.832  67.984  1.00  0.00    -0.207 A  
HETATM    7  C   UNL     1      -9.785  14.596  66.461  1.00  0.00    -0.280 A  
HETATM    8  C   UNL     1     -11.712  14.545  65.274  1.00  0.00    -0.361 A  
HETATM    9  C   UNL     1     -10.051  13.346  67.038  1.00  0.00    -0.247 A  
HETATM   10  C   UNL     1      -8.621  15.269  66.789  1.00  0.00    -0.300 A  
HETATM   11  N   UNL     1     -12.062  13.341  65.723  1.00  0.00    -0.416 NA 
HETATM   12  C   UNL     1     -11.241  12.720  66.595  1.00  0.00    -0.301 A  
BRANCH   4  13
HETATM   13  N   UNL     1      -7.092  13.095  69.356  1.00  0.00    -0.321 N  
HETATM   14  H   UNL     1      -7.071  13.593  70.246  1.00  0.00     0.000 HD 
HETATM   15  C   UNL     1      -6.264  12.004  69.188  1.00  0.00    -0.087 C  
HETATM   16  O   UNL     1      -6.148  11.364  68.146  1.00  0.00    -0.046 OA 
BRANCH  15  17
HETATM   17  C   UNL     1      -5.574  11.563  70.437  1.00  0.00    -0.144 C  
HETATM   18  C   UNL     1      -5.708  10.274  70.802  1.00  0.00    -0.094 C  
BRANCH  18  19
HETATM   19  C   UNL     1      -5.253   9.650  72.090  1.00  0.00    -0.068 C  
BRANCH  19  20
HETATM   20  N   UNL     1      -5.561   8.220  72.254  1.00  0.00    -0.039 NA 
HETATM   21  C   UNL     1      -8.057   7.987  73.856  1.00  0.00    -0.288 C  
HETATM   22  C   UNL     1      -5.527   7.838  73.681  1.00  0.00    -0.045 C  
HETATM   23  C   UNL     1      -8.070   8.340  72.373  1.00  0.00    -0.204 C  
HETATM   24  C   UNL     1      -6.722   8.349  74.502  1.00  0.00    -0.186 C  
HETATM   25  C   UNL     1      -6.836   7.778  71.667  1.00  0.00    -0.058 C  
ENDBRANCH  19  20
ENDBRANCH  18  19
ENDBRANCH  15  17
ENDBRANCH   4  13
BRANCH  12  26
HETATM   26  N   UNL     1     -11.519  11.382  66.952  1.00  0.00    -0.466 NA 
HETATM   27  H   UNL     1     -11.754  10.776  66.165  1.00  0.00     0.000 HD 
BRANCH  26  28
HETATM   28  C   UNL     1     -11.529  10.738  68.208  1.00  0.00    -0.280 A  
HETATM   29  C   UNL     1     -12.260  11.327  69.254  1.00  0.00    -0.290 A  
HETATM   30  C   UNL     1     -12.150  10.852  70.566  1.00  0.00    -0.371 A  
HETATM   31  C   UNL     1     -10.612   9.154  69.834  1.00  0.00    -0.246 A  
HETATM   32  C   UNL     1     -10.725   9.632  68.526  1.00  0.00    -0.239 A  
HETATM   33  C   UNL     1     -11.312   9.781  70.853  1.00  0.00    -0.365 A  
HETATM   34  F   UNL     1     -11.153   9.342  72.110  1.00  0.00    -0.422 F  
HETATM   35 CL   UNL     1     -13.032  11.630  71.824  1.00  0.00    -0.529 Cl 
ENDBRANCH  26  28
ENDBRANCH  12  26
ENDBRANCH   2   3
TORSDOF 7
ENDMDL
MODEL       84
REMARK 921   NORMALIZED FREE ENERGY PREDICTED BY IDOCK:   -5.93 KCAL/MOL
REMARK 922        TOTAL FREE ENERGY PREDICTED BY IDOCK:   -9.28 KCAL/MOL
REMARK 923 INTER-LIGAND FREE ENERGY PREDICTED BY IDOCK:   -8.19 KCAL/MOL
REMARK 924 INTRA-LIGAND FREE ENERGY PREDICTED BY IDOCK:   -1.09 KCAL/MOL
REMARK 927      BINDING AFFINITY PREDICTED BY RF-SCORE:    0.00 PKD
ROOT
HETATM    1  C   UNL     1     -11.722  12.319  63.599  1.00  0.00    -0.504 C  
HETATM    2  O   UNL     1     -10.540  12.549  64.364  1.00  0.00    -0.307 OA 
ENDROOT
BRANCH   2   3
HETATM    3  C   UNL     1     -10.285  11.644  65.365  1.00  0.00    -0.263 A  
HETATM    4  C   UNL     1     -10.282  12.134  66.674  1.00  0.00    -0.201 A  
HETATM    5  N   UNL     1      -9.781   8.098  65.879  1.00  0.00     0.018 NA 
HETATM    6  C   UNL     1     -10.011  11.258  67.737  1.00  0.00    -0.193 A  
HETATM    7  C   UNL     1      -9.898   9.387  66.203  1.00  0.00    -0.285 A  
HETATM    8  C   UNL     1      -9.553   7.254  66.880  1.00  0.00    -0.174 A  
HETATM    9  C   UNL     1      -9.816   9.869  67.517  1.00  0.00    -0.209 A  
HETATM   10  C   UNL     1     -10.120  10.271  65.162  1.00  0.00    -0.355 A  
HETATM   11  N   UNL     1      -9.419   7.588  68.162  1.00  0.00    -0.143 NA 
HETATM   12  C   UNL     1      -9.534   8.889  68.500  1.00  0.00    -0.147 A  
BRANCH   4  13
HETATM   13  N   UNL     1     -10.576  13.505  66.891  1.00  0.00    -0.269 N  
HETATM   14  H   UNL     1     -11.544  13.776  67.066  1.00  0.00     0.000 HD 
HETATM   15  C   UNL     1      -9.606  14.485  66.876  1.00  0.00    -0.250 C  
HETATM   16  O   UNL     1      -8.421  14.297  66.612  1.00  0.00    -0.100 OA 
BRANCH  15  17
HETATM   17  C   UNL     1     -10.084  15.825  67.331  1.00  0.00    -0.246 C  
HETATM   18  C   UNL     1     -10.210  16.791  66.402  1.00  0.00    -0.329 C  
BRANCH  18  19
HETATM   19  C   UNL     1     -10.508  18.243  66.646  1.00  0.00    -0.360 C  
BRANCH  19  20
HETATM   20  N   UNL     1      -9.573  19.201  66.034  1.00  0.00    -0.457 NA 
HETATM   21  C   UNL     1      -7.744  20.198  68.160  1.00  0.00    -0.223 C  
HETATM   22  C   UNL     1      -9.740  20.545  66.625  1.00  0.00    -0.267 C  
HETATM   23  C   UNL     1      -7.567  18.832  67.507  1.00  0.00    -0.243 C  
HETATM   24  C   UNL     1      -9.189  20.682  68.054  1.00  0.00    -0.022 C  
HETATM   25  C   UNL     1      -8.152  18.822  66.094  1.00  0.00    -0.199 C  
ENDBRANCH  19  20
ENDBRANCH  18  19
ENDBRANCH  15  17
ENDBRANCH   4  13
BRANCH  12  26
HETATM   26  N   UNL     1      -9.236   9.273  69.826  1.00  0.00    -0.168 NA 
HETATM   27  H   UNL     1      -8.577  10.049  69.902  1.00  0.00     0.000 HD 
BRANCH  26  28
HETATM   28  C   UNL     1      -9.690   8.770  71.065  1.00  0.00    -0.230 A  
HETATM   29  C   UNL     1      -8.741   8.523  72.072  1.00  0.00    -0.265 A  
HETATM   30  C   UNL     1      -9.095   7.843  73.243  1.00  0.00    -0.278 A  
HETATM   31  C   UNL     1     -11.365   7.667  72.468  1.00  0.00    -0.409 A  
HETATM   32  C   UNL     1     -11.007   8.347  71.301  1.00  0.00    -0.305 A  
HETATM   33  C   UNL     1     -10.401   7.400  73.426  1.00  0.00    -0.360 A  
HETATM   34  F   UNL     1     -10.749   6.703  74.517  1.00  0.00    -0.266 F  
HETATM   35 CL   UNL     1      -7.892   7.524  74.433  1.00  0.00    -0.184 Cl 
ENDBRANCH  26  28
ENDBRANCH  12  26
ENDBRANCH   2   3
TORSDOF 7
ENDMDL
MODEL       85
REMARK 921   NORMALIZED FREE ENERGY PREDICTED BY IDOCK:   -5.93 KCAL/MOL
REMARK 922        TOTAL FREE ENERGY PREDICTED BY IDOCK:   -9.27 KCAL/MOL
REMARK 923 INTER-LIGAND FREE ENERGY PREDICTED BY IDOCK:   -8.28 KCAL/MOL
REMARK 924 INTRA-LIGAND FREE ENERGY PREDICTED BY IDOCK:   -0.99 KCAL/MOL
REMARK 927      BINDING AFFINITY PREDICTED BY RF-SCORE:    0.00 PKD
ROOT
HETATM    1  C   UNL     1     -10.788   9.474  67.567  1.00  0.00    -0.170 C  
HETATM    2  O   UNL     1     -11.182  10.670  68.238  1.00  0.00    -0.267 OA 
ENDROOT
BRANCH   2   3
HETATM    3  C   UNL     1     -10.979  11.841  67.550  1.00  0.00    -0.256 A  
HETATM    4  C   UNL     1      -9.809  12.550  67.840  1.00  0.00    -0.207 A  
HETATM    5  N   UNL     1     -12.417  13.808  64.875  1.00  0.00    -0.576 NA 
HETATM    6  C   UNL     1      -9.557  13.763  67.179  1.00  0.00    -0.244 A  
HETATM    7  C   UNL     1     -11.555  13.481  65.840  1.00  0.00    -0.335 A  
HETATM    8  C   UNL     1     -12.173  14.940  64.223  1.00  0.00    -0.344 A  
HETATM    9  C   UNL     1     -10.427  14.246  66.167  1.00  0.00    -0.294 A  
HETATM   10  C   UNL     1     -11.813  12.312  66.533  1.00  0.00    -0.378 A  
HETATM   11  N   UNL     1     -11.160  15.771  64.460  1.00  0.00    -0.453 NA 
HETATM   12  C   UNL     1     -10.284  15.450  65.434  1.00  0.00    -0.377 A  
BRANCH   4  13
HETATM   13  N   UNL     1      -8.897  12.007  68.781  1.00  0.00    -0.381 N  
HETATM   14  H   UNL     1      -9.122  12.071  69.774  1.00  0.00     0.000 HD 
HETATM   15  C   UNL     1      -7.718  11.396  68.406  1.00  0.00    -0.127 C  
HETATM   16  O   UNL     1      -7.304  11.315  67.253  1.00  0.00    -0.107 OA 
BRANCH  15  17
HETATM   17  C   UNL     1      -7.004  10.709  69.525  1.00  0.00    -0.121 C  
HETATM   18  C   UNL     1      -7.665   9.740  70.184  1.00  0.00    -0.188 C  
BRANCH  18  19
HETATM   19  C   UNL     1      -7.219   9.036  71.435  1.00  0.00    -0.041 C  
BRANCH  19  20
HETATM   20  N   UNL     1      -7.996   7.844  71.811  1.00  0.00    -0.097 NA 
HETATM   21  C   UNL     1      -7.138   5.590  70.068  1.00  0.00    -0.066 C  
HETATM   22  C   UNL     1      -8.829   7.384  70.681  1.00  0.00    -0.150 C  
HETATM   23  C   UNL     1      -6.315   6.055  71.264  1.00  0.00    -0.044 C  
HETATM   24  C   UNL     1      -8.042   6.705  69.549  1.00  0.00    -0.126 C  
HETATM   25  C   UNL     1      -7.206   6.711  72.319  1.00  0.00    -0.084 C  
ENDBRANCH  19  20
ENDBRANCH  18  19
ENDBRANCH  15  17
ENDBRANCH   4  13
BRANCH  12  26
HETATM   26  N   UNL     1      -9.303  16.397  65.802  1.00  0.00    -0.491 NA 
HETATM   27  H   UNL     1      -8.383  16.231  65.395  1.00  0.00     0.000 HD 
BRANCH  26  28
HETATM   28  C   UNL     1      -9.375  17.535  66.635  1.00  0.00    -0.262 A  
HETATM   29  C   UNL     1      -8.243  17.879  67.393  1.00  0.00    -0.224 A  
HETATM   30  C   UNL     1      -8.311  18.868  68.381  1.00  0.00    -0.347 A  
HETATM   31  C   UNL     1     -10.631  19.239  67.866  1.00  0.00    -0.478 A  
HETATM   32  C   UNL     1     -10.558  18.251  66.880  1.00  0.00    -0.356 A  
HETATM   33  C   UNL     1      -9.510  19.529  68.626  1.00  0.00    -0.397 A  
HETATM   34  F   UNL     1      -9.610  20.443  69.601  1.00  0.00     0.070 F  
HETATM   35 CL   UNL     1      -6.910  19.229  69.315  1.00  0.00    -0.359 Cl 
ENDBRANCH  26  28
ENDBRANCH  12  26
ENDBRANCH   2   3
TORSDOF 7
ENDMDL
MODEL       86
REMARK 921   NORMALIZED FREE ENERGY PREDICTED BY IDOCK:   -5.92 KCAL/MOL
REMARK 922        TOTAL FREE ENERGY PREDICTED BY IDOCK:   -9.27 KCAL/MOL
REMARK 923 INTER-LIGAND FREE ENERGY PREDICTED BY IDOCK:   -7.99 KCAL/MOL
REMARK 924 INTRA-LIGAND FREE ENERGY PREDICTED BY IDOCK:   -1.27 KCAL/MOL
REMARK 927      BINDING AFFINITY PREDICTED BY RF-SCORE:    0.00 PKD
ROOT
HETATM    1  C   UNL     1     -10.348   6.955  67.055  1.00  0.00    -0.278 C  
HETATM    2  O   UNL     1      -9.282   7.887  67.236  1.00  0.00    -0.137 OA 
ENDROOT
BRANCH   2   3
HETATM    3  C   UNL     1      -9.538   9.178  66.845  1.00  0.00    -0.178 A  
HETATM    4  C   UNL     1      -9.600  10.143  67.855  1.00  0.00    -0.148 A  
HETATM    5  N   UNL     1      -9.937  11.178  63.856  1.00  0.00    -0.296 NA 
HETATM    6  C   UNL     1      -9.874  11.478  67.516  1.00  0.00    -0.203 A  
HETATM    7  C   UNL     1      -9.874  10.910  65.162  1.00  0.00    -0.275 A  
HETATM    8  C   UNL     1     -10.168  12.443  63.522  1.00  0.00    -0.305 A  
HETATM    9  C   UNL     1     -10.015  11.882  66.162  1.00  0.00    -0.254 A  
HETATM   10  C   UNL     1      -9.650   9.591  65.515  1.00  0.00    -0.349 A  
HETATM   11  N   UNL     1     -10.354  13.450  64.373  1.00  0.00    -0.403 NA 
HETATM   12  C   UNL     1     -10.294  13.189  65.695  1.00  0.00    -0.284 A  
BRANCH   4  13
HETATM   13  N   UNL     1      -9.359   9.746  69.195  1.00  0.00    -0.172 N  
HETATM   14  H   UNL     1     -10.137   9.380  69.745  1.00  0.00     0.000 HD 
HETATM   15  C   UNL     1      -8.115   9.835  69.785  1.00  0.00    -0.167 C  
HETATM   16  O   UNL     1      -7.118  10.318  69.254  1.00  0.00    -0.064 OA 
BRANCH  15  17
HETATM   17  C   UNL     1      -8.025   9.176  71.123  1.00  0.00    -0.122 C  
HETATM   18  C   UNL     1      -8.398   7.886  71.209  1.00  0.00    -0.120 C  
BRANCH  18  19
HETATM   19  C   UNL     1      -8.551   7.074  72.463  1.00  0.00    -0.120 C  
BRANCH  19  20
HETATM   20  N   UNL     1      -9.797   7.288  73.217  1.00  0.00    -0.227 NA 
HETATM   21  C   UNL     1     -11.528   4.896  72.844  1.00  0.00    -0.266 C  
HETATM   22  C   UNL     1     -10.961   7.314  72.307  1.00  0.00    -0.249 C  
HETATM   23  C   UNL     1     -10.347   4.905  73.808  1.00  0.00    -0.273 C  
HETATM   24  C   UNL     1     -11.355   5.939  71.743  1.00  0.00    -0.289 C  
HETATM   25  C   UNL     1     -10.054   6.324  74.299  1.00  0.00    -0.335 C  
ENDBRANCH  19  20
ENDBRANCH  18  19
ENDBRANCH  15  17
ENDBRANCH   4  13
BRANCH  12  26
HETATM   26  N   UNL     1     -10.648  14.212  66.604  1.00  0.00    -0.276 NA 
HETATM   27  H   UNL     1     -11.518  14.044  67.108  1.00  0.00     0.000 HD 
BRANCH  26  28
HETATM   28  C   UNL     1     -10.006  15.425  66.934  1.00  0.00    -0.243 A  
HETATM   29  C   UNL     1     -10.587  16.628  66.496  1.00  0.00    -0.203 A  
HETATM   30  C   UNL     1      -9.903  17.843  66.616  1.00  0.00    -0.342 A  
HETATM   31  C   UNL     1      -8.052  16.712  67.654  1.00  0.00    -0.184 A  
HETATM   32  C   UNL     1      -8.738  15.501  67.533  1.00  0.00    -0.183 A  
HETATM   33  C   UNL     1      -8.631  17.876  67.176  1.00  0.00    -0.235 A  
HETATM   34  F   UNL     1      -7.938  19.021  67.255  1.00  0.00    -0.251 F  
HETATM   35 CL   UNL     1     -10.634  19.287  66.028  1.00  0.00    -0.562 Cl 
ENDBRANCH  26  28
ENDBRANCH  12  26
ENDBRANCH   2   3
TORSDOF 7
ENDMDL
MODEL       87
REMARK 921   NORMALIZED FREE ENERGY PREDICTED BY IDOCK:   -5.88 KCAL/MOL
REMARK 922        TOTAL FREE ENERGY PREDICTED BY IDOCK:   -9.20 KCAL/MOL
REMARK 923 INTER-LIGAND FREE ENERGY PREDICTED BY IDOCK:   -7.92 KCAL/MOL
REMARK 924 INTRA-LIGAND FREE ENERGY PREDICTED BY IDOCK:   -1.28 KCAL/MOL
REMARK 927      BINDING AFFINITY PREDICTED BY RF-SCORE:    0.00 PKD
ROOT
HETATM    1  C   UNL     1      -8.912  14.243  67.186  1.00  0.00    -0.225 C  
HETATM    2  O   UNL     1      -9.147  13.181  68.110  1.00  0.00    -0.193 OA 
ENDROOT
BRANCH   2   3
HETATM    3  C   UNL     1      -8.508  11.996  67.840  1.00  0.00    -0.160 A  
HETATM    4  C   UNL     1      -8.921  10.875  68.567  1.00  0.00    -0.157 A  
HETATM    5  N   UNL     1      -6.071  10.574  65.573  1.00  0.00    -0.127 NA 
HETATM    6  C   UNL     1      -8.293   9.639  68.345  1.00  0.00    -0.117 A  
HETATM    7  C   UNL     1      -6.954  10.607  66.574  1.00  0.00    -0.125 A  
HETATM    8  C   UNL     1      -5.491   9.403  65.335  1.00  0.00    -0.044 A  
HETATM    9  C   UNL     1      -7.300   9.486  67.343  1.00  0.00    -0.087 A  
HETATM   10  C   UNL     1      -7.550  11.827  66.837  1.00  0.00    -0.119 A  
HETATM   11  N   UNL     1      -5.704   8.277  66.013  1.00  0.00    -0.042 NA 
HETATM   12  C   UNL     1      -6.594   8.300  67.027  1.00  0.00    -0.058 A  
BRANCH   4  13
HETATM   13  N   UNL     1      -9.984  11.018  69.496  1.00  0.00    -0.435 N  
HETATM   14  H   UNL     1      -9.762  11.267  70.460  1.00  0.00     0.000 HD 
HETATM   15  C   UNL     1     -11.306  10.833  69.147  1.00  0.00    -0.282 C  
HETATM   16  O   UNL     1     -11.697  10.468  68.041  1.00  0.00    -0.450 OA 
BRANCH  15  17
HETATM   17  C   UNL     1     -12.279  11.233  70.208  1.00  0.00    -0.428 C  
HETATM   18  C   UNL     1     -12.384  12.543  70.497  1.00  0.00    -0.345 C  
BRANCH  18  19
HETATM   19  C   UNL     1     -13.160  13.157  71.628  1.00  0.00    -0.353 C  
BRANCH  19  20
HETATM   20  N   UNL     1     -13.696  14.505  71.380  1.00  0.00    -0.383 NA 
HETATM   21  C   UNL     1     -11.969  16.465  72.803  1.00  0.00    -0.585 C  
HETATM   22  C   UNL     1     -14.129  15.137  72.644  1.00  0.00    -0.341 C  
HETATM   23  C   UNL     1     -11.562  15.832  71.477  1.00  0.00    -0.531 C  
HETATM   24  C   UNL     1     -12.975  15.593  73.550  1.00  0.00    -0.679 C  
HETATM   25  C   UNL     1     -12.793  15.422  70.667  1.00  0.00    -0.430 C  
ENDBRANCH  19  20
ENDBRANCH  18  19
ENDBRANCH  15  17
ENDBRANCH   4  13
BRANCH  12  26
HETATM   26  N   UNL     1      -6.709   7.159  67.852  1.00  0.00    -0.059 NA 
HETATM   27  H   UNL     1      -6.027   7.117  68.610  1.00  0.00     0.000 HD 
BRANCH  26  28
HETATM   28  C   UNL     1      -7.604   6.068  67.811  1.00  0.00    -0.096 A  
HETATM   29  C   UNL     1      -8.374   5.793  68.954  1.00  0.00    -0.101 A  
HETATM   30  C   UNL     1      -9.127   4.617  69.049  1.00  0.00    -0.118 A  
HETATM   31  C   UNL     1      -8.408   3.965  66.849  1.00  0.00    -0.100 A  
HETATM   32  C   UNL     1      -7.658   5.140  66.758  1.00  0.00    -0.088 A  
HETATM   33  C   UNL     1      -9.124   3.699  68.004  1.00  0.00    -0.154 A  
HETATM   34  F   UNL     1      -9.798   2.544  68.095  1.00  0.00    -0.245 F  
HETATM   35 CL   UNL     1     -10.023   4.300  70.485  1.00  0.00    -0.265 Cl 
ENDBRANCH  26  28
ENDBRANCH  12  26
ENDBRANCH   2   3
TORSDOF 7
ENDMDL
MODEL       88
REMARK 921   NORMALIZED FREE ENERGY PREDICTED BY IDOCK:   -5.86 KCAL/MOL
REMARK 922        TOTAL FREE ENERGY PREDICTED BY IDOCK:   -9.18 KCAL/MOL
REMARK 923 INTER-LIGAND FREE ENERGY PREDICTED BY IDOCK:   -7.95 KCAL/MOL
REMARK 924 INTRA-LIGAND FREE ENERGY PREDICTED BY IDOCK:   -1.23 KCAL/MOL
REMARK 927      BINDING AFFINITY PREDICTED BY RF-SCORE:    0.00 PKD
ROOT
HETATM    1  C   UNL     1     -13.921   9.178  72.293  1.00  0.00    -0.420 C  
HETATM    2  O   UNL     1     -12.944   9.090  71.257  1.00  0.00    -0.306 OA 
ENDROOT
BRANCH   2   3
HETATM    3  C   UNL     1     -11.866   8.279  71.513  1.00  0.00    -0.293 A  
HETATM    4  C   UNL     1     -10.985   8.044  70.453  1.00  0.00    -0.248 A  
HETATM    5  N   UNL     1     -10.239   6.553  74.247  1.00  0.00    -0.359 NA 
HETATM    6  C   UNL     1      -9.873   7.210  70.651  1.00  0.00    -0.184 A  
HETATM    7  C   UNL     1     -10.437   6.970  72.995  1.00  0.00    -0.277 A  
HETATM    8  C   UNL     1      -9.175   5.786  74.453  1.00  0.00    -0.130 A  
HETATM    9  C   UNL     1      -9.582   6.661  71.927  1.00  0.00    -0.152 A  
HETATM   10  C   UNL     1     -11.554   7.756  72.771  1.00  0.00    -0.368 A  
HETATM   11  N   UNL     1      -8.308   5.392  73.523  1.00  0.00    -0.113 NA 
HETATM   12  C   UNL     1      -8.500   5.807  72.253  1.00  0.00    -0.122 A  
BRANCH   4  13
HETATM   13  N   UNL     1     -11.231   8.679  69.208  1.00  0.00    -0.417 N  
HETATM   14  H   UNL     1     -11.833   8.211  68.530  1.00  0.00     0.000 HD 
HETATM   15  C   UNL     1     -10.688   9.903  68.877  1.00  0.00    -0.221 C  
HETATM   16  O   UNL     1      -9.899  10.534  69.576  1.00  0.00    -0.213 OA 
BRANCH  15  17
HETATM   17  C   UNL     1     -11.232  10.493  67.617  1.00  0.00    -0.338 C  
HETATM   18  C   UNL     1     -10.580  11.544  67.087  1.00  0.00    -0.273 C  
BRANCH  18  19
HETATM   19  C   UNL     1     -11.030  12.396  65.935  1.00  0.00    -0.288 C  
BRANCH  19  20
HETATM   20  N   UNL     1     -12.004  13.450  66.259  1.00  0.00    -0.393 NA 
HETATM   21  C   UNL     1     -10.587  16.067  66.211  1.00  0.00    -0.288 C  
HETATM   22  C   UNL     1     -11.627  14.145  67.508  1.00  0.00    -0.367 C  
HETATM   23  C   UNL     1     -11.022  15.352  64.937  1.00  0.00    -0.453 C  
HETATM   24  C   UNL     1     -10.420  15.086  67.369  1.00  0.00    -0.257 C  
HETATM   25  C   UNL     1     -12.228  14.449  65.201  1.00  0.00    -0.393 C  
ENDBRANCH  19  20
ENDBRANCH  18  19
ENDBRANCH  15  17
ENDBRANCH   4  13
BRANCH  12  26
HETATM   26  N   UNL     1      -7.684   5.268  71.233  1.00  0.00    -0.099 NA 
HETATM   27  H   UNL     1      -6.691   5.478  71.333  1.00  0.00     0.000 HD 
BRANCH  26  28
HETATM   28  C   UNL     1      -8.005   4.489  70.100  1.00  0.00    -0.063 A  
HETATM   29  C   UNL     1      -7.518   4.902  68.848  1.00  0.00    -0.065 A  
HETATM   30  C   UNL     1      -7.961   4.293  67.667  1.00  0.00    -0.091 A  
HETATM   31  C   UNL     1      -9.359   2.810  68.943  1.00  0.00    -0.220 A  
HETATM   32  C   UNL     1      -8.915   3.420  70.119  1.00  0.00    -0.172 A  
HETATM   33  C   UNL     1      -8.894   3.264  67.720  1.00  0.00    -0.131 A  
HETATM   34  F   UNL     1      -9.369   2.702  66.599  1.00  0.00    -0.163 F  
HETATM   35 CL   UNL     1      -7.369   4.858  66.152  1.00  0.00    -0.077 Cl 
ENDBRANCH  26  28
ENDBRANCH  12  26
ENDBRANCH   2   3
TORSDOF 7
ENDMDL
MODEL       89
REMARK 921   NORMALIZED FREE ENERGY PREDICTED BY IDOCK:   -5.82 KCAL/MOL
REMARK 922        TOTAL FREE ENERGY PREDICTED BY IDOCK:   -9.12 KCAL/MOL
REMARK 923 INTER-LIGAND FREE ENERGY PREDICTED BY IDOCK:   -8.21 KCAL/MOL
REMARK 924 INTRA-LIGAND FREE ENERGY PREDICTED BY IDOCK:   -0.91 KCAL/MOL
REMARK 927      BINDING AFFINITY PREDICTED BY RF-SCORE:    0.00 PKD
ROOT
HETATM    1  C   UNL     1      -9.771   4.276  66.489  1.00  0.00    -0.219 C  
HETATM    2  O   UNL     1      -9.364   5.331  67.359  1.00  0.00    -0.112 OA 
ENDROOT
BRANCH   2   3
HETATM    3  C   UNL     1      -9.482   6.605  66.858  1.00  0.00    -0.154 A  
HETATM    4  C   UNL     1     -10.451   7.426  67.443  1.00  0.00    -0.296 A  
HETATM    5  N   UNL     1      -7.903   8.851  64.501  1.00  0.00    -0.119 NA 
HETATM    6  C   UNL     1     -10.629   8.733  66.961  1.00  0.00    -0.283 A  
HETATM    7  C   UNL     1      -8.779   8.447  65.424  1.00  0.00    -0.141 A  
HETATM    8  C   UNL     1      -8.043  10.096  64.058  1.00  0.00    -0.158 A  
HETATM    9  C   UNL     1      -9.793   9.264  65.944  1.00  0.00    -0.335 A  
HETATM   10  C   UNL     1      -8.647   7.147  65.877  1.00  0.00    -0.157 A  
HETATM   11  N   UNL     1      -8.983  10.957  64.443  1.00  0.00    -0.152 NA 
HETATM   12  C   UNL     1      -9.874  10.558  65.374  1.00  0.00    -0.274 A  
BRANCH   4  13
HETATM   13  N   UNL     1     -11.213   6.918  68.526  1.00  0.00    -0.518 N  
HETATM   14  H   UNL     1     -12.025   6.335  68.323  1.00  0.00     0.000 HD 
HETATM   15  C   UNL     1     -10.901   7.182  69.844  1.00  0.00    -0.254 C  
HETATM   16  O   UNL     1      -9.993   7.922  70.215  1.00  0.00    -0.188 OA 
BRANCH  15  17
HETATM   17  C   UNL     1     -11.694   6.390  70.831  1.00  0.00    -0.366 C  
HETATM   18  C   UNL     1     -11.084   6.028  71.974  1.00  0.00    -0.325 C  
BRANCH  18  19
HETATM   19  C   UNL     1     -11.620   5.098  73.026  1.00  0.00    -0.223 C  
BRANCH  19  20
HETATM   20  N   UNL     1     -10.663   4.685  74.064  1.00  0.00    -0.286 NA 
HETATM   21  C   UNL     1      -8.597   2.964  72.791  1.00  0.00    -0.078 C  
HETATM   22  C   UNL     1     -10.673   3.217  74.232  1.00  0.00    -0.145 C  
HETATM   23  C   UNL     1      -8.582   4.483  72.666  1.00  0.00    -0.114 C  
HETATM   24  C   UNL     1     -10.001   2.444  73.086  1.00  0.00    -0.182 C  
HETATM   25  C   UNL     1      -9.277   5.136  73.861  1.00  0.00    -0.124 C  
ENDBRANCH  19  20
ENDBRANCH  18  19
ENDBRANCH  15  17
ENDBRANCH   4  13
BRANCH  12  26
HETATM   26  N   UNL     1     -10.967  11.402  65.671  1.00  0.00    -0.235 NA 
HETATM   27  H   UNL     1     -11.847  11.118  65.241  1.00  0.00     0.000 HD 
BRANCH  26  28
HETATM   28  C   UNL     1     -11.052  12.570  66.459  1.00  0.00    -0.287 A  
HETATM   29  C   UNL     1     -11.432  12.440  67.806  1.00  0.00    -0.383 A  
HETATM   30  C   UNL     1     -11.727  13.566  68.583  1.00  0.00    -0.354 A  
HETATM   31  C   UNL     1     -11.234  14.998  66.715  1.00  0.00    -0.322 A  
HETATM   32  C   UNL     1     -10.940  13.871  65.943  1.00  0.00    -0.284 A  
HETATM   33  C   UNL     1     -11.646  14.838  68.028  1.00  0.00    -0.343 A  
HETATM   34  F   UNL     1     -11.973  15.926  68.739  1.00  0.00    -0.382 F  
HETATM   35 CL   UNL     1     -12.229  13.358  70.217  1.00  0.00    -0.416 Cl 
ENDBRANCH  26  28
ENDBRANCH  12  26
ENDBRANCH   2   3
TORSDOF 7
ENDMDL
MODEL       90
REMARK 921   NORMALIZED FREE ENERGY PREDICTED BY IDOCK:   -5.82 KCAL/MOL
REMARK 922        TOTAL FREE ENERGY PREDICTED BY IDOCK:   -9.12 KCAL/MOL
REMARK 923 INTER-LIGAND FREE ENERGY PREDICTED BY IDOCK:   -8.36 KCAL/MOL
REMARK 924 INTRA-LIGAND FREE ENERGY PREDICTED BY IDOCK:   -0.75 KCAL/MOL
REMARK 927      BINDING AFFINITY PREDICTED BY RF-SCORE:    0.00 PKD
ROOT
HETATM    1  C   UNL     1      -9.283   9.687  62.389  1.00  0.00    -0.223 C  
HETATM    2  O   UNL     1      -8.966   9.393  63.749  1.00  0.00    -0.213 OA 
ENDROOT
BRANCH   2   3
HETATM    3  C   UNL     1      -9.552  10.202  64.692  1.00  0.00    -0.315 A  
HETATM    4  C   UNL     1      -9.307   9.889  66.033  1.00  0.00    -0.188 A  
HETATM    5  N   UNL     1     -11.501  13.238  64.964  1.00  0.00    -0.299 NA 
HETATM    6  C   UNL     1      -9.893  10.671  67.041  1.00  0.00    -0.222 A  
HETATM    7  C   UNL     1     -10.837  12.158  65.378  1.00  0.00    -0.294 A  
HETATM    8  C   UNL     1     -12.036  14.002  65.910  1.00  0.00    -0.428 A  
HETATM    9  C   UNL     1     -10.667  11.819  66.728  1.00  0.00    -0.289 A  
HETATM   10  C   UNL     1     -10.291  11.350  64.396  1.00  0.00    -0.375 A  
HETATM   11  N   UNL     1     -11.978  13.773  67.220  1.00  0.00    -0.401 NA 
HETATM   12  C   UNL     1     -11.309  12.682  67.649  1.00  0.00    -0.310 A  
BRANCH   4  13
HETATM   13  N   UNL     1      -8.451   8.799  66.335  1.00  0.00    -0.118 N  
HETATM   14  H   UNL     1      -7.446   8.966  66.388  1.00  0.00     0.000 HD 
HETATM   15  C   UNL     1      -8.923   7.522  66.559  1.00  0.00    -0.162 C  
HETATM   16  O   UNL     1     -10.099   7.181  66.459  1.00  0.00    -0.180 OA 
BRANCH  15  17
HETATM   17  C   UNL     1      -7.890   6.569  67.065  1.00  0.00    -0.108 C  
HETATM   18  C   UNL     1      -8.281   5.643  67.960  1.00  0.00    -0.100 C  
BRANCH  18  19
HETATM   19  C   UNL     1      -7.396   4.700  68.725  1.00  0.00    -0.060 C  
BRANCH  19  20
HETATM   20  N   UNL     1      -8.046   3.481  69.233  1.00  0.00    -0.053 NA 
HETATM   21  C   UNL     1      -8.623   3.874  72.125  1.00  0.00    -0.110 C  
HETATM   22  C   UNL     1      -7.218   2.843  70.277  1.00  0.00    -0.037 C  
HETATM   23  C   UNL     1      -9.488   4.489  71.030  1.00  0.00    -0.229 C  
HETATM   24  C   UNL     1      -7.211   3.587  71.622  1.00  0.00    -0.039 C  
HETATM   25  C   UNL     1      -9.413   3.661  69.746  1.00  0.00    -0.184 C  
ENDBRANCH  19  20
ENDBRANCH  18  19
ENDBRANCH  15  17
ENDBRANCH   4  13
BRANCH  12  26
HETATM   26  N   UNL     1     -11.376  12.342  69.019  1.00  0.00    -0.266 NA 
HETATM   27  H   UNL     1     -10.865  11.496  69.268  1.00  0.00     0.000 HD 
BRANCH  26  28
HETATM   28  C   UNL     1     -12.028  12.971  70.102  1.00  0.00    -0.303 A  
HETATM   29  C   UNL     1     -11.693  14.304  70.398  1.00  0.00    -0.329 A  
HETATM   30  C   UNL     1     -12.151  14.917  71.571  1.00  0.00    -0.348 A  
HETATM   31  C   UNL     1     -13.328  12.909  72.175  1.00  0.00    -0.615 A  
HETATM   32  C   UNL     1     -12.870  12.301  71.004  1.00  0.00    -0.251 A  
HETATM   33  C   UNL     1     -12.950  14.210  72.463  1.00  0.00    -0.408 A  
HETATM   34  F   UNL     1     -13.357  14.761  73.615  1.00  0.00    -0.473 F  
HETATM   35 CL   UNL     1     -11.683  16.538  71.915  1.00  0.00    -0.433 Cl 
ENDBRANCH  26  28
ENDBRANCH  12  26
ENDBRANCH   2   3
TORSDOF 7
ENDMDL
MODEL       91
REMARK 921   NORMALIZED FREE ENERGY PREDICTED BY IDOCK:   -5.82 KCAL/MOL
REMARK 922        TOTAL FREE ENERGY PREDICTED BY IDOCK:   -9.11 KCAL/MOL
REMARK 923 INTER-LIGAND FREE ENERGY PREDICTED BY IDOCK:   -8.02 KCAL/MOL
REMARK 924 INTRA-LIGAND FREE ENERGY PREDICTED BY IDOCK:   -1.10 KCAL/MOL
REMARK 927      BINDING AFFINITY PREDICTED BY RF-SCORE:    0.00 PKD
ROOT
HETATM    1  C   UNL     1      -5.989  14.528  68.074  1.00  0.00    -0.151 C  
HETATM    2  O   UNL     1      -6.936  14.085  67.103  1.00  0.00    -0.135 OA 
ENDROOT
BRANCH   2   3
HETATM    3  C   UNL     1      -7.525  12.869  67.347  1.00  0.00    -0.132 A  
HETATM    4  C   UNL     1      -8.920  12.851  67.443  1.00  0.00    -0.199 A  
HETATM    5  N   UNL     1      -6.697   9.360  67.650  1.00  0.00    -0.067 NA 
HETATM    6  C   UNL     1      -9.577  11.639  67.708  1.00  0.00    -0.178 A  
HETATM    7  C   UNL     1      -7.470  10.448  67.630  1.00  0.00    -0.089 A  
HETATM    8  C   UNL     1      -7.311   8.202  67.871  1.00  0.00    -0.096 A  
HETATM    9  C   UNL     1      -8.861  10.417  67.804  1.00  0.00    -0.128 A  
HETATM   10  C   UNL     1      -6.833  11.657  67.415  1.00  0.00    -0.114 A  
HETATM   11  N   UNL     1      -8.615   8.043  68.086  1.00  0.00    -0.126 NA 
HETATM   12  C   UNL     1      -9.405   9.137  68.070  1.00  0.00    -0.137 A  
BRANCH   4  13
HETATM   13  N   UNL     1      -9.634  14.061  67.247  1.00  0.00    -0.232 N  
HETATM   14  H   UNL     1      -9.610  14.769  67.980  1.00  0.00     0.000 HD 
HETATM   15  C   UNL     1     -10.361  14.318  66.102  1.00  0.00    -0.299 C  
HETATM   16  O   UNL     1     -10.522  13.523  65.179  1.00  0.00    -0.327 OA 
BRANCH  15  17
HETATM   17  C   UNL     1     -10.862  15.722  65.999  1.00  0.00    -0.256 C  
HETATM   18  C   UNL     1      -9.950  16.711  65.991  1.00  0.00    -0.346 C  
BRANCH  18  19
HETATM   19  C   UNL     1     -10.221  18.187  66.064  1.00  0.00    -0.320 C  
BRANCH  19  20
HETATM   20  N   UNL     1     -10.488  18.724  67.408  1.00  0.00    -0.410 NA 
HETATM   21  C   UNL     1      -7.905  19.629  68.575  1.00  0.00    -0.358 C  
HETATM   22  C   UNL     1      -9.787  17.928  68.438  1.00  0.00    -0.355 C  
HETATM   23  C   UNL     1      -8.666  20.452  67.542  1.00  0.00    -0.370 C  
HETATM   24  C   UNL     1      -8.267  18.149  68.483  1.00  0.00    -0.320 C  
HETATM   25  C   UNL     1     -10.163  20.147  67.596  1.00  0.00    -0.376 C  
ENDBRANCH  19  20
ENDBRANCH  18  19
ENDBRANCH  15  17
ENDBRANCH   4  13
BRANCH  12  26
HETATM   26  N   UNL     1     -10.757   9.002  68.454  1.00  0.00    -0.410 NA 
HETATM   27  H   UNL     1     -11.408   8.894  67.676  1.00  0.00     0.000 HD 
BRANCH  26  28
HETATM   28  C   UNL     1     -11.365   8.991  69.729  1.00  0.00     0.062 A  
HETATM   29  C   UNL     1     -11.405   7.778  70.438  1.00  0.00    -0.219 A  
HETATM   30  C   UNL     1     -12.161   7.654  71.610  1.00  0.00    -0.317 A  
HETATM   31  C   UNL     1     -12.833   9.957  71.434  1.00  0.00    -0.505 A  
HETATM   32  C   UNL     1     -12.076  10.077  70.265  1.00  0.00    -0.226 A  
HETATM   33  C   UNL     1     -12.887   8.738  72.090  1.00  0.00    -0.400 A  
HETATM   34  F   UNL     1     -13.658   8.627  73.181  1.00  0.00    -0.254 F  
HETATM   35 CL   UNL     1     -12.216   6.138  72.424  1.00  0.00    -0.227 Cl 
ENDBRANCH  26  28
ENDBRANCH  12  26
ENDBRANCH   2   3
TORSDOF 7
ENDMDL
MODEL       92
REMARK 921   NORMALIZED FREE ENERGY PREDICTED BY IDOCK:   -5.80 KCAL/MOL
REMARK 922        TOTAL FREE ENERGY PREDICTED BY IDOCK:   -9.10 KCAL/MOL
REMARK 923 INTER-LIGAND FREE ENERGY PREDICTED BY IDOCK:   -9.22 KCAL/MOL
REMARK 924 INTRA-LIGAND FREE ENERGY PREDICTED BY IDOCK:    0.12 KCAL/MOL
REMARK 927      BINDING AFFINITY PREDICTED BY RF-SCORE:    0.00 PKD
ROOT
HETATM    1  C   UNL     1     -10.631  17.357  67.785  1.00  0.00    -0.371 C  
HETATM    2  O   UNL     1     -11.155  16.051  67.551  1.00  0.00    -0.300 OA 
ENDROOT
BRANCH   2   3
HETATM    3  C   UNL     1     -11.630  15.386  68.655  1.00  0.00    -0.359 A  
HETATM    4  C   UNL     1     -11.893  14.021  68.505  1.00  0.00    -0.364 A  
HETATM    5  N   UNL     1     -12.303  15.909  72.172  1.00  0.00    -0.443 NA 
HETATM    6  C   UNL     1     -12.396  13.292  69.595  1.00  0.00    -0.154 A  
HETATM    7  C   UNL     1     -12.228  15.248  71.015  1.00  0.00    -0.350 A  
HETATM    8  C   UNL     1     -12.750  15.222  73.218  1.00  0.00    -0.511 A  
HETATM    9  C   UNL     1     -12.570  13.896  70.869  1.00  0.00    -0.431 A  
HETATM   10  C   UNL     1     -11.778  15.962  69.919  1.00  0.00    -0.327 A  
HETATM   11  N   UNL     1     -13.139  13.949  73.203  1.00  0.00    -0.477 NA 
HETATM   12  C   UNL     1     -13.069  13.272  72.038  1.00  0.00    -0.377 A  
BRANCH   4  13
HETATM   13  N   UNL     1     -11.622  13.405  67.256  1.00  0.00    -0.339 N  
HETATM   14  H   UNL     1     -11.773  13.943  66.403  1.00  0.00     0.000 HD 
HETATM   15  C   UNL     1     -11.161  12.109  67.151  1.00  0.00    -0.314 C  
HETATM   16  O   UNL     1     -11.004  11.340  68.096  1.00  0.00    -0.198 OA 
BRANCH  15  17
HETATM   17  C   UNL     1     -10.739  11.721  65.771  1.00  0.00    -0.328 C  
HETATM   18  C   UNL     1     -10.172  10.512  65.609  1.00  0.00    -0.315 C  
BRANCH  18  19
HETATM   19  C   UNL     1      -9.524   9.980  64.362  1.00  0.00    -0.286 C  
BRANCH  19  20
HETATM   20  N   UNL     1      -8.529   8.914  64.561  1.00  0.00    -0.174 NA 
HETATM   21  C   UNL     1      -7.869   8.791  67.460  1.00  0.00    -0.102 C  
HETATM   22  C   UNL     1      -7.265   9.470  65.088  1.00  0.00    -0.108 C  
HETATM   23  C   UNL     1      -9.147   8.188  66.889  1.00  0.00    -0.185 C  
HETATM   24  C   UNL     1      -7.328   9.901  66.562  1.00  0.00    -0.099 C  
HETATM   25  C   UNL     1      -8.960   7.801  65.421  1.00  0.00     0.138 C  
ENDBRANCH  19  20
ENDBRANCH  18  19
ENDBRANCH  15  17
ENDBRANCH   4  13
BRANCH  12  26
HETATM   26  N   UNL     1     -13.627  11.976  71.973  1.00  0.00    -0.324 NA 
HETATM   27  H   UNL     1     -14.641  11.959  71.867  1.00  0.00     0.000 HD 
BRANCH  26  28
HETATM   28  C   UNL     1     -13.025  10.701  72.031  1.00  0.00    -0.361 A  
HETATM   29  C   UNL     1     -11.677  10.582  71.650  1.00  0.00     0.262 A  
HETATM   30  C   UNL     1     -11.081   9.325  71.494  1.00  0.00    -0.373 A  
HETATM   31  C   UNL     1     -13.138   8.257  72.134  1.00  0.00    -0.312 A  
HETATM   32  C   UNL     1     -13.729   9.514  72.288  1.00  0.00    -0.444 A  
HETATM   33  C   UNL     1     -11.820   8.169  71.717  1.00  0.00    -0.300 A  
HETATM   34  F   UNL     1     -11.284   6.956  71.525  1.00  0.00    -0.256 F  
HETATM   35 CL   UNL     1      -9.438   9.225  70.985  1.00  0.00    -0.335 Cl 
ENDBRANCH  26  28
ENDBRANCH  12  26
ENDBRANCH   2   3
TORSDOF 7
ENDMDL
MODEL       93
REMARK 921   NORMALIZED FREE ENERGY PREDICTED BY IDOCK:   -5.78 KCAL/MOL
REMARK 922        TOTAL FREE ENERGY PREDICTED BY IDOCK:   -9.06 KCAL/MOL
REMARK 923 INTER-LIGAND FREE ENERGY PREDICTED BY IDOCK:   -8.49 KCAL/MOL
REMARK 924 INTRA-LIGAND FREE ENERGY PREDICTED BY IDOCK:   -0.57 KCAL/MOL
REMARK 927      BINDING AFFINITY PREDICTED BY RF-SCORE:    0.00 PKD
ROOT
HETATM    1  C   UNL     1      -9.385  11.071  62.798  1.00  0.00    -0.346 C  
HETATM    2  O   UNL     1      -8.826  10.653  64.043  1.00  0.00    -0.183 OA 
ENDROOT
BRANCH   2   3
HETATM    3  C   UNL     1      -9.555  10.962  65.164  1.00  0.00    -0.243 A  
HETATM    4  C   UNL     1     -10.004   9.890  65.942  1.00  0.00    -0.277 A  
HETATM    5  N   UNL     1     -10.645  13.816  67.104  1.00  0.00    -0.275 NA 
HETATM    6  C   UNL     1     -10.768  10.145  67.092  1.00  0.00    -0.286 A  
HETATM    7  C   UNL     1     -10.506  12.532  66.771  1.00  0.00    -0.225 A  
HETATM    8  C   UNL     1     -11.342  14.069  68.206  1.00  0.00    -0.288 A  
HETATM    9  C   UNL     1     -11.030  11.472  67.524  1.00  0.00    -0.308 A  
HETATM   10  C   UNL     1      -9.795  12.263  65.615  1.00  0.00    -0.247 A  
HETATM   11  N   UNL     1     -11.919  13.159  68.988  1.00  0.00    -0.308 NA 
HETATM   12  C   UNL     1     -11.786  11.857  68.658  1.00  0.00    -0.308 A  
BRANCH   4  13
HETATM   13  N   UNL     1      -9.652   8.571  65.555  1.00  0.00    -0.415 N  
HETATM   14  H   UNL     1     -10.164   8.133  64.790  1.00  0.00     0.000 HD 
HETATM   15  C   UNL     1      -8.646   7.859  66.174  1.00  0.00    -0.150 C  
HETATM   16  O   UNL     1      -8.004   8.249  67.146  1.00  0.00    -0.103 OA 
BRANCH  15  17
HETATM   17  C   UNL     1      -8.292   6.580  65.487  1.00  0.00    -0.146 C  
HETATM   18  C   UNL     1      -9.002   5.483  65.809  1.00  0.00    -0.158 C  
BRANCH  18  19
HETATM   19  C   UNL     1      -8.721   4.070  65.381  1.00  0.00    -0.120 C  
BRANCH  19  20
HETATM   20  N   UNL     1      -8.720   3.063  66.454  1.00  0.00    -0.125 NA 
HETATM   21  C   UNL     1      -7.767   4.370  68.952  1.00  0.00    -0.066 C  
HETATM   22  C   UNL     1      -7.351   2.843  66.964  1.00  0.00    -0.062 C  
HETATM   23  C   UNL     1      -9.188   4.549  68.429  1.00  0.00    -0.178 C  
HETATM   24  C   UNL     1      -6.805   3.990  67.828  1.00  0.00    -0.051 C  
HETATM   25  C   UNL     1      -9.616   3.346  67.587  1.00  0.00    -0.107 C  
ENDBRANCH  19  20
ENDBRANCH  18  19
ENDBRANCH  15  17
ENDBRANCH   4  13
BRANCH  12  26
HETATM   26  N   UNL     1     -12.525  10.896  69.384  1.00  0.00    -0.591 NA 
HETATM   27  H   UNL     1     -13.460  10.720  69.019  1.00  0.00     0.000 HD 
BRANCH  26  28
HETATM   28  C   UNL     1     -12.192  10.138  70.528  1.00  0.00    -0.264 A  
HETATM   29  C   UNL     1     -10.846   9.784  70.725  1.00  0.00    -0.403 A  
HETATM   30  C   UNL     1     -10.480   8.873  71.723  1.00  0.00    -0.360 A  
HETATM   31  C   UNL     1     -12.780   8.666  72.394  1.00  0.00    -0.423 A  
HETATM   32  C   UNL     1     -13.141   9.576  71.397  1.00  0.00    -0.449 A  
HETATM   33  C   UNL     1     -11.451   8.303  72.539  1.00  0.00    -0.384 A  
HETATM   34  F   UNL     1     -11.129   7.391  73.466  1.00  0.00    -0.399 F  
HETATM   35 CL   UNL     1      -8.824   8.435  71.902  1.00  0.00    -0.245 Cl 
ENDBRANCH  26  28
ENDBRANCH  12  26
ENDBRANCH   2   3
TORSDOF 7
ENDMDL
MODEL       94
REMARK 921   NORMALIZED FREE ENERGY PREDICTED BY IDOCK:   -5.74 KCAL/MOL
REMARK 922        TOTAL FREE ENERGY PREDICTED BY IDOCK:   -9.01 KCAL/MOL
REMARK 923 INTER-LIGAND FREE ENERGY PREDICTED BY IDOCK:   -8.26 KCAL/MOL
REMARK 924 INTRA-LIGAND FREE ENERGY PREDICTED BY IDOCK:   -0.75 KCAL/MOL
REMARK 927      BINDING AFFINITY PREDICTED BY RF-SCORE:    0.00 PKD
ROOT
HETATM    1  C   UNL     1     -10.412  19.959  66.792  1.00  0.00    -0.451 C  
HETATM    2  O   UNL     1      -9.036  19.806  66.445  1.00  0.00    -0.352 OA 
ENDROOT
BRANCH   2   3
HETATM    3  C   UNL     1      -8.268  19.087  67.328  1.00  0.00    -0.274 A  
HETATM    4  C   UNL     1      -8.240  17.700  67.157  1.00  0.00    -0.214 A  
HETATM    5  N   UNL     1      -5.925  19.566  70.043  1.00  0.00    -0.270 NA 
HETATM    6  C   UNL     1      -7.485  16.912  68.040  1.00  0.00    -0.177 A  
HETATM    7  C   UNL     1      -6.671  18.899  69.161  1.00  0.00    -0.297 A  
HETATM    8  C   UNL     1      -5.183  18.832  70.866  1.00  0.00    -0.267 A  
HETATM    9  C   UNL     1      -6.687  17.501  69.056  1.00  0.00    -0.247 A  
HETATM   10  C   UNL     1      -7.458  19.658  68.313  1.00  0.00    -0.349 A  
HETATM   11  N   UNL     1      -5.136  17.502  70.892  1.00  0.00    -0.325 NA 
HETATM   12  C   UNL     1      -5.888  16.818  70.005  1.00  0.00    -0.210 A  
BRANCH   4  13
HETATM   13  N   UNL     1      -8.962  17.130  66.077  1.00  0.00    -0.169 N  
HETATM   14  H   UNL     1      -8.608  17.259  65.129  1.00  0.00     0.000 HD 
HETATM   15  C   UNL     1     -10.124  16.408  66.257  1.00  0.00    -0.331 C  
HETATM   16  O   UNL     1     -10.685  16.239  67.337  1.00  0.00    -0.319 OA 
BRANCH  15  17
HETATM   17  C   UNL     1     -10.612  15.719  65.025  1.00  0.00    -0.397 C  
HETATM   18  C   UNL     1     -11.664  14.889  65.150  1.00  0.00    -0.295 C  
BRANCH  18  19
HETATM   19  C   UNL     1     -12.217  13.970  64.098  1.00  0.00    -0.396 C  
BRANCH  19  20
HETATM   20  N   UNL     1     -12.555  12.610  64.548  1.00  0.00    -0.649 NA 
HETATM   21  C   UNL     1     -10.066  10.981  64.529  1.00  0.00    -0.380 C  
HETATM   22  C   UNL     1     -12.289  11.624  63.480  1.00  0.00    -0.238 C  
HETATM   23  C   UNL     1     -10.381  11.974  65.641  1.00  0.00    -0.288 C  
HETATM   24  C   UNL     1     -10.798  11.341  63.238  1.00  0.00    -0.222 C  
HETATM   25  C   UNL     1     -11.891  12.171  65.785  1.00  0.00    -0.274 C  
ENDBRANCH  19  20
ENDBRANCH  18  19
ENDBRANCH  15  17
ENDBRANCH   4  13
BRANCH  12  26
HETATM   26  N   UNL     1      -5.970  15.413  70.129  1.00  0.00    -0.148 NA 
HETATM   27  H   UNL     1      -5.876  15.068  71.084  1.00  0.00     0.000 HD 
BRANCH  26  28
HETATM   28  C   UNL     1      -6.159  14.404  69.159  1.00  0.00    -0.094 A  
HETATM   29  C   UNL     1      -7.357  13.669  69.187  1.00  0.00     0.047 A  
HETATM   30  C   UNL     1      -7.522  12.531  68.388  1.00  0.00    -0.127 A  
HETATM   31  C   UNL     1      -5.321  12.843  67.470  1.00  0.00    -0.057 A  
HETATM   32  C   UNL     1      -5.160  13.978  68.269  1.00  0.00    -0.111 A  
HETATM   33  C   UNL     1      -6.495  12.113  67.548  1.00  0.00    -0.134 A  
HETATM   34  F   UNL     1      -6.613  10.999  66.812  1.00  0.00    -0.086 F  
HETATM   35 CL   UNL     1      -8.989  11.636  68.484  1.00  0.00    -0.164 Cl 
ENDBRANCH  26  28
ENDBRANCH  12  26
ENDBRANCH   2   3
TORSDOF 7
ENDMDL
MODEL       95
REMARK 921   NORMALIZED FREE ENERGY PREDICTED BY IDOCK:   -5.73 KCAL/MOL
REMARK 922        TOTAL FREE ENERGY PREDICTED BY IDOCK:   -8.99 KCAL/MOL
REMARK 923 INTER-LIGAND FREE ENERGY PREDICTED BY IDOCK:   -7.79 KCAL/MOL
REMARK 924 INTRA-LIGAND FREE ENERGY PREDICTED BY IDOCK:   -1.21 KCAL/MOL
REMARK 927      BINDING AFFINITY PREDICTED BY RF-SCORE:    0.00 PKD
ROOT
HETATM    1  C   UNL     1     -10.186  12.714  64.335  1.00  0.00    -0.318 C  
HETATM    2  O   UNL     1     -10.894  11.723  65.080  1.00  0.00    -0.282 OA 
ENDROOT
BRANCH   2   3
HETATM    3  C   UNL     1     -10.198  10.575  65.367  1.00  0.00    -0.270 A  
HETATM    4  C   UNL     1     -10.440   9.984  66.611  1.00  0.00    -0.174 A  
HETATM    5  N   UNL     1      -7.920   8.216  63.836  1.00  0.00    -0.146 NA 
HETATM    6  C   UNL     1      -9.745   8.816  66.967  1.00  0.00    -0.258 A  
HETATM    7  C   UNL     1      -8.688   8.749  64.788  1.00  0.00    -0.097 A  
HETATM    8  C   UNL     1      -7.280   7.096  64.150  1.00  0.00    -0.069 A  
HETATM    9  C   UNL     1      -8.858   8.180  66.058  1.00  0.00    -0.206 A  
HETATM   10  C   UNL     1      -9.345   9.925  64.471  1.00  0.00    -0.336 A  
HETATM   11  N   UNL     1      -7.329   6.476  65.328  1.00  0.00    -0.073 NA 
HETATM   12  C   UNL     1      -8.101   7.008  66.298  1.00  0.00    -0.115 A  
BRANCH   4  13
HETATM   13  N   UNL     1     -11.402  10.572  67.471  1.00  0.00    -0.303 N  
HETATM   14  H   UNL     1     -12.385  10.330  67.345  1.00  0.00     0.000 HD 
HETATM   15  C   UNL     1     -11.062  11.459  68.472  1.00  0.00    -0.235 C  
HETATM   16  O   UNL     1      -9.927  11.880  68.681  1.00  0.00    -0.207 OA 
BRANCH  15  17
HETATM   17  C   UNL     1     -12.186  11.800  69.395  1.00  0.00    -0.219 C  
HETATM   18  C   UNL     1     -11.999  12.818  70.256  1.00  0.00    -0.358 C  
BRANCH  18  19
HETATM   19  C   UNL     1     -12.911  13.227  71.377  1.00  0.00    -0.322 C  
BRANCH  19  20
HETATM   20  N   UNL     1     -13.553  14.543  71.234  1.00  0.00    -0.372 NA 
HETATM   21  C   UNL     1     -12.019  16.506  72.861  1.00  0.00    -0.486 C  
HETATM   22  C   UNL     1     -14.058  15.025  72.537  1.00  0.00    -0.407 C  
HETATM   23  C   UNL     1     -11.539  16.027  71.496  1.00  0.00    -0.529 C  
HETATM   24  C   UNL     1     -12.961  15.493  73.506  1.00  0.00    -0.669 C  
HETATM   25  C   UNL     1     -12.718  15.591  70.625  1.00  0.00    -0.436 C  
ENDBRANCH  19  20
ENDBRANCH  18  19
ENDBRANCH  15  17
ENDBRANCH   4  13
BRANCH  12  26
HETATM   26  N   UNL     1      -8.036   6.453  67.596  1.00  0.00    -0.113 NA 
HETATM   27  H   UNL     1      -8.391   5.500  67.664  1.00  0.00     0.000 HD 
BRANCH  26  28
HETATM   28  C   UNL     1      -7.564   6.990  68.813  1.00  0.00    -0.105 A  
HETATM   29  C   UNL     1      -8.485   7.186  69.857  1.00  0.00    -0.140 A  
HETATM   30  C   UNL     1      -8.126   7.894  71.010  1.00  0.00    -0.098 A  
HETATM   31  C   UNL     1      -5.903   8.198  70.146  1.00  0.00    -0.022 A  
HETATM   32  C   UNL     1      -6.265   7.491  68.996  1.00  0.00    -0.035 A  
HETATM   33  C   UNL     1      -6.843   8.413  71.140  1.00  0.00    -0.058 A  
HETATM   34  F   UNL     1      -6.493   9.136  72.213  1.00  0.00    -0.064 F  
HETATM   35 CL   UNL     1      -9.298   8.148  72.246  1.00  0.00    -0.262 Cl 
ENDBRANCH  26  28
ENDBRANCH  12  26
ENDBRANCH   2   3
TORSDOF 7
ENDMDL
MODEL       96
REMARK 921   NORMALIZED FREE ENERGY PREDICTED BY IDOCK:   -5.72 KCAL/MOL
REMARK 922        TOTAL FREE ENERGY PREDICTED BY IDOCK:   -8.98 KCAL/MOL
REMARK 923 INTER-LIGAND FREE ENERGY PREDICTED BY IDOCK:   -8.23 KCAL/MOL
REMARK 924 INTRA-LIGAND FREE ENERGY PREDICTED BY IDOCK:   -0.75 KCAL/MOL
REMARK 927      BINDING AFFINITY PREDICTED BY RF-SCORE:    0.00 PKD
ROOT
HETATM    1  C   UNL     1      -5.753  14.232  71.881  1.00  0.00    -0.109 C  
HETATM    2  O   UNL     1      -5.271  14.428  70.552  1.00  0.00    -0.099 OA 
ENDROOT
BRANCH   2   3
HETATM    3  C   UNL     1      -6.040  15.231  69.745  1.00  0.00    -0.144 A  
HETATM    4  C   UNL     1      -6.975  14.593  68.924  1.00  0.00    -0.112 A  
HETATM    5  N   UNL     1      -6.709  18.726  69.085  1.00  0.00    -0.283 NA 
HETATM    6  C   UNL     1      -7.777  15.362  68.066  1.00  0.00    -0.132 A  
HETATM    7  C   UNL     1      -6.822  17.402  68.957  1.00  0.00    -0.244 A  
HETATM    8  C   UNL     1      -7.484  19.465  68.298  1.00  0.00    -0.306 A  
HETATM    9  C   UNL     1      -7.713  16.780  68.071  1.00  0.00    -0.174 A  
HETATM   10  C   UNL     1      -6.006  16.628  69.762  1.00  0.00    -0.222 A  
HETATM   11  N   UNL     1      -8.343  18.999  67.394  1.00  0.00    -0.274 NA 
HETATM   12  C   UNL     1      -8.464  17.662  67.256  1.00  0.00    -0.216 A  
BRANCH   4  13
HETATM   13  N   UNL     1      -7.100  13.182  69.000  1.00  0.00    -0.226 N  
HETATM   14  H   UNL     1      -7.591  12.776  69.797  1.00  0.00     0.000 HD 
HETATM   15  C   UNL     1      -6.584  12.337  68.039  1.00  0.00    -0.076 C  
HETATM   16  O   UNL     1      -5.917  12.697  67.072  1.00  0.00    -0.301 OA 
BRANCH  15  17
HETATM   17  C   UNL     1      -7.000  10.910  68.193  1.00  0.00    -0.069 C  
HETATM   18  C   UNL     1      -8.212  10.669  68.726  1.00  0.00    -0.142 C  
BRANCH  18  19
HETATM   19  C   UNL     1      -8.769   9.333  69.128  1.00  0.00    -0.139 C  
BRANCH  19  20
HETATM   20  N   UNL     1     -10.217   9.156  68.931  1.00  0.00    -0.201 NA 
HETATM   21  C   UNL     1     -10.631   6.812  67.146  1.00  0.00    -0.401 C  
HETATM   22  C   UNL     1     -10.576   9.326  67.508  1.00  0.00    -0.262 C  
HETATM   23  C   UNL     1     -10.301   6.661  68.627  1.00  0.00    -0.208 C  
HETATM   24  C   UNL     1     -10.153   8.157  66.604  1.00  0.00    -0.344 C  
HETATM   25  C   UNL     1     -10.770   7.883  69.418  1.00  0.00    -0.168 C  
ENDBRANCH  19  20
ENDBRANCH  18  19
ENDBRANCH  15  17
ENDBRANCH   4  13
BRANCH  12  26
HETATM   26  N   UNL     1      -9.248  17.160  66.194  1.00  0.00    -0.459 NA 
HETATM   27  H   UNL     1      -9.074  17.606  65.293  1.00  0.00     0.000 HD 
BRANCH  26  28
HETATM   28  C   UNL     1     -10.232  16.148  66.163  1.00  0.00    -0.336 A  
HETATM   29  C   UNL     1     -10.802  15.735  67.380  1.00  0.00    -0.306 A  
HETATM   30  C   UNL     1     -11.631  14.608  67.441  1.00  0.00    -0.389 A  
HETATM   31  C   UNL     1     -11.387  14.286  65.070  1.00  0.00    -0.365 A  
HETATM   32  C   UNL     1     -10.562  15.412  65.013  1.00  0.00    -0.445 A  
HETATM   33  C   UNL     1     -11.902  13.878  66.289  1.00  0.00    -0.408 A  
HETATM   34  F   UNL     1     -12.651  12.767  66.334  1.00  0.00    -0.331 F  
HETATM   35 CL   UNL     1     -12.275  14.113  68.959  1.00  0.00    -0.338 Cl 
ENDBRANCH  26  28
ENDBRANCH  12  26
ENDBRANCH   2   3
TORSDOF 7
ENDMDL
MODEL       97
REMARK 921   NORMALIZED FREE ENERGY PREDICTED BY IDOCK:   -5.71 KCAL/MOL
REMARK 922        TOTAL FREE ENERGY PREDICTED BY IDOCK:   -8.97 KCAL/MOL
REMARK 923 INTER-LIGAND FREE ENERGY PREDICTED BY IDOCK:   -7.66 KCAL/MOL
REMARK 924 INTRA-LIGAND FREE ENERGY PREDICTED BY IDOCK:   -1.31 KCAL/MOL
REMARK 927      BINDING AFFINITY PREDICTED BY RF-SCORE:    0.00 PKD
ROOT
HETATM    1  C   UNL     1      -9.846   4.462  69.494  1.00  0.00    -0.188 C  
HETATM    2  O   UNL     1      -9.186   5.537  70.161  1.00  0.00    -0.136 OA 
ENDROOT
BRANCH   2   3
HETATM    3  C   UNL     1      -9.949   6.650  70.411  1.00  0.00    -0.175 A  
HETATM    4  C   UNL     1      -9.467   7.869  69.924  1.00  0.00    -0.160 A  
HETATM    5  N   UNL     1     -13.143   7.605  71.820  1.00  0.00    -0.337 NA 
HETATM    6  C   UNL     1     -10.197   9.044  70.163  1.00  0.00    -0.224 A  
HETATM    7  C   UNL     1     -11.954   7.767  71.236  1.00  0.00    -0.302 A  
HETATM    8  C   UNL     1     -13.856   8.706  72.026  1.00  0.00    -0.440 A  
HETATM    9  C   UNL     1     -11.454   9.010  70.822  1.00  0.00    -0.331 A  
HETATM   10  C   UNL     1     -11.200   6.625  71.033  1.00  0.00    -0.349 A  
HETATM   11  N   UNL     1     -13.481   9.945  71.715  1.00  0.00    -0.375 NA 
HETATM   12  C   UNL     1     -12.280  10.120  71.124  1.00  0.00    -0.389 A  
BRANCH   4  13
HETATM   13  N   UNL     1      -8.259   7.878  69.179  1.00  0.00    -0.130 N  
HETATM   14  H   UNL     1      -8.252   7.451  68.253  1.00  0.00     0.000 HD 
HETATM   15  C   UNL     1      -7.094   8.441  69.659  1.00  0.00    -0.052 C  
HETATM   16  O   UNL     1      -6.957   8.924  70.780  1.00  0.00    -0.057 OA 
BRANCH  15  17
HETATM   17  C   UNL     1      -5.999   8.534  68.647  1.00  0.00    -0.045 C  
HETATM   18  C   UNL     1      -6.343   8.837  67.382  1.00  0.00    -0.057 C  
BRANCH  18  19
HETATM   19  C   UNL     1      -5.448   8.820  66.176  1.00  0.00    -0.037 C  
BRANCH  19  20
HETATM   20  N   UNL     1      -5.978   8.122  64.994  1.00  0.00    -0.045 NA 
HETATM   21  C   UNL     1      -7.467  10.099  63.341  1.00  0.00    -0.139 C  
HETATM   22  C   UNL     1      -7.456   8.159  64.983  1.00  0.00    -0.087 C  
HETATM   23  C   UNL     1      -5.945  10.014  63.337  1.00  0.00    -0.127 C  
HETATM   24  C   UNL     1      -8.051   9.532  64.633  1.00  0.00    -0.136 C  
HETATM   25  C   UNL     1      -5.475   8.604  63.697  1.00  0.00    -0.062 C  
ENDBRANCH  19  20
ENDBRANCH  18  19
ENDBRANCH  15  17
ENDBRANCH   4  13
BRANCH  12  26
HETATM   26  N   UNL     1     -11.804  11.437  70.936  1.00  0.00    -0.351 NA 
HETATM   27  H   UNL     1     -11.269  11.807  71.722  1.00  0.00     0.000 HD 
BRANCH  26  28
HETATM   28  C   UNL     1     -11.940  12.329  69.850  1.00  0.00    -0.306 A  
HETATM   29  C   UNL     1     -11.846  11.811  68.547  1.00  0.00    -0.365 A  
HETATM   30  C   UNL     1     -11.774  12.663  67.438  1.00  0.00    -0.369 A  
HETATM   31  C   UNL     1     -11.929  14.578  68.884  1.00  0.00    -0.326 A  
HETATM   32  C   UNL     1     -12.002  13.725  69.988  1.00  0.00    -0.407 A  
HETATM   33  C   UNL     1     -11.795  14.042  67.614  1.00  0.00    -0.395 A  
HETATM   34  F   UNL     1     -11.676  14.875  66.570  1.00  0.00    -0.356 F  
HETATM   35 CL   UNL     1     -11.617  11.987  65.862  1.00  0.00    -0.405 Cl 
ENDBRANCH  26  28
ENDBRANCH  12  26
ENDBRANCH   2   3
TORSDOF 7
ENDMDL
MODEL       98
REMARK 921   NORMALIZED FREE ENERGY PREDICTED BY IDOCK:   -5.71 KCAL/MOL
REMARK 922        TOTAL FREE ENERGY PREDICTED BY IDOCK:   -8.96 KCAL/MOL
REMARK 923 INTER-LIGAND FREE ENERGY PREDICTED BY IDOCK:   -7.70 KCAL/MOL
REMARK 924 INTRA-LIGAND FREE ENERGY PREDICTED BY IDOCK:   -1.26 KCAL/MOL
REMARK 927      BINDING AFFINITY PREDICTED BY RF-SCORE:    0.00 PKD
ROOT
HETATM    1  C   UNL     1     -10.578   9.105  67.723  1.00  0.00    -0.227 C  
HETATM    2  O   UNL     1      -9.525  10.061  67.605  1.00  0.00    -0.143 OA 
ENDROOT
BRANCH   2   3
HETATM    3  C   UNL     1      -9.904  11.381  67.631  1.00  0.00    -0.176 A  
HETATM    4  C   UNL     1      -9.557  12.160  66.523  1.00  0.00    -0.228 A  
HETATM    5  N   UNL     1     -11.829  13.708  69.624  1.00  0.00    -0.317 NA 
HETATM    6  C   UNL     1      -9.904  13.520  66.501  1.00  0.00    -0.292 A  
HETATM    7  C   UNL     1     -11.070  13.285  68.612  1.00  0.00    -0.268 A  
HETATM    8  C   UNL     1     -12.188  14.987  69.600  1.00  0.00    -0.258 A  
HETATM    9  C   UNL     1     -10.668  14.103  67.546  1.00  0.00    -0.270 A  
HETATM   10  C   UNL     1     -10.680  11.958  68.640  1.00  0.00    -0.266 A  
HETATM   11  N   UNL     1     -11.845  15.874  68.668  1.00  0.00    -0.338 NA 
HETATM   12  C   UNL     1     -11.076  15.456  67.641  1.00  0.00    -0.316 A  
BRANCH   4  13
HETATM   13  N   UNL     1      -8.880  11.543  65.439  1.00  0.00    -0.400 N  
HETATM   14  H   UNL     1      -7.861  11.508  65.454  1.00  0.00     0.000 HD 
HETATM   15  C   UNL     1      -9.547  10.990  64.365  1.00  0.00    -0.259 C  
HETATM   16  O   UNL     1     -10.763  11.027  64.198  1.00  0.00    -0.378 OA 
BRANCH  15  17
HETATM   17  C   UNL     1      -8.671  10.210  63.439  1.00  0.00    -0.216 C  
HETATM   18  C   UNL     1      -8.642   8.873  63.587  1.00  0.00    -0.103 C  
BRANCH  18  19
HETATM   19  C   UNL     1      -7.721   7.910  62.893  1.00  0.00    -0.132 C  
BRANCH  19  20
HETATM   20  N   UNL     1      -6.764   7.202  63.759  1.00  0.00    -0.043 NA 
HETATM   21  C   UNL     1      -7.578   4.343  63.899  1.00  0.00    -0.070 C  
HETATM   22  C   UNL     1      -7.443   6.652  64.951  1.00  0.00    -0.093 C  
HETATM   23  C   UNL     1      -6.840   4.923  62.697  1.00  0.00    -0.030 C  
HETATM   24  C   UNL     1      -8.329   5.429  64.666  1.00  0.00    -0.141 C  
HETATM   25  C   UNL     1      -5.995   6.130  63.106  1.00  0.00    -0.022 C  
ENDBRANCH  19  20
ENDBRANCH  18  19
ENDBRANCH  15  17
ENDBRANCH   4  13
BRANCH  12  26
HETATM   26  N   UNL     1     -10.574  16.418  66.737  1.00  0.00    -0.277 NA 
HETATM   27  H   UNL     1     -10.819  16.249  65.761  1.00  0.00     0.000 HD 
BRANCH  26  28
HETATM   28  C   UNL     1      -9.791  17.574  66.949  1.00  0.00    -0.302 A  
HETATM   29  C   UNL     1      -8.670  17.474  67.793  1.00  0.00    -0.230 A  
HETATM   30  C   UNL     1      -7.973  18.618  68.201  1.00  0.00    -0.289 A  
HETATM   31  C   UNL     1      -9.457  19.999  66.907  1.00  0.00    -0.529 A  
HETATM   32  C   UNL     1     -10.150  18.855  66.502  1.00  0.00    -0.447 A  
HETATM   33  C   UNL     1      -8.382  19.876  67.772  1.00  0.00    -0.303 A  
HETATM   34  F   UNL     1      -7.760  20.986  68.191  1.00  0.00    -0.065 F  
HETATM   35 CL   UNL     1      -6.632  18.454  69.268  1.00  0.00    -0.271 Cl 
ENDBRANCH  26  28
ENDBRANCH  12  26
ENDBRANCH   2   3
TORSDOF 7
ENDMDL
MODEL       99
REMARK 921   NORMALIZED FREE ENERGY PREDICTED BY IDOCK:   -5.68 KCAL/MOL
REMARK 922        TOTAL FREE ENERGY PREDICTED BY IDOCK:   -8.92 KCAL/MOL
REMARK 923 INTER-LIGAND FREE ENERGY PREDICTED BY IDOCK:   -8.63 KCAL/MOL
REMARK 924 INTRA-LIGAND FREE ENERGY PREDICTED BY IDOCK:   -0.30 KCAL/MOL
REMARK 927      BINDING AFFINITY PREDICTED BY RF-SCORE:    0.00 PKD
ROOT
HETATM    1  C   UNL     1     -12.350   6.988  70.881  1.00  0.00    -0.314 C  
HETATM    2  O   UNL     1     -11.187   7.806  70.764  1.00  0.00    -0.265 OA 
ENDROOT
BRANCH   2   3
HETATM    3  C   UNL     1     -11.409   9.157  70.651  1.00  0.00    -0.273 A  
HETATM    4  C   UNL     1     -10.773   9.815  69.594  1.00  0.00    -0.242 A  
HETATM    5  N   UNL     1     -13.390  11.807  72.116  1.00  0.00    -0.406 NA 
HETATM    6  C   UNL     1     -10.950  11.199  69.438  1.00  0.00    -0.298 A  
HETATM    7  C   UNL     1     -12.509  11.237  71.292  1.00  0.00    -0.336 A  
HETATM    8  C   UNL     1     -13.588  13.111  71.960  1.00  0.00    -0.465 A  
HETATM    9  C   UNL     1     -11.823  11.931  70.285  1.00  0.00    -0.368 A  
HETATM   10  C   UNL     1     -12.287   9.882  71.461  1.00  0.00    -0.504 A  
HETATM   11  N   UNL     1     -12.976  13.889  71.069  1.00  0.00    -0.312 NA 
HETATM   12  C   UNL     1     -12.083  13.323  70.232  1.00  0.00    -0.335 A  
BRANCH   4  13
HETATM   13  N   UNL     1      -9.982   9.057  68.694  1.00  0.00    -0.167 N  
HETATM   14  H   UNL     1      -9.275   8.427  69.074  1.00  0.00     0.000 HD 
HETATM   15  C   UNL     1     -10.131   9.136  67.324  1.00  0.00    -0.233 C  
HETATM   16  O   UNL     1     -10.897   9.902  66.745  1.00  0.00    -0.140 OA 
BRANCH  15  17
HETATM   17  C   UNL     1      -9.355   8.110  66.565  1.00  0.00    -0.262 C  
HETATM   18  C   UNL     1      -9.807   6.843  66.588  1.00  0.00    -0.217 C  
BRANCH  18  19
HETATM   19  C   UNL     1      -9.109   5.628  66.046  1.00  0.00    -0.156 C  
BRANCH  19  20
HETATM   20  N   UNL     1      -7.674   5.785  65.763  1.00  0.00    -0.093 NA 
HETATM   21  C   UNL     1      -7.241   5.298  62.860  1.00  0.00    -0.043 C  
HETATM   22  C   UNL     1      -7.094   4.517  65.273  1.00  0.00    -0.063 C  
HETATM   23  C   UNL     1      -7.798   6.614  63.392  1.00  0.00    -0.106 C  
HETATM   24  C   UNL     1      -7.496   4.152  63.835  1.00  0.00    -0.062 C  
HETATM   25  C   UNL     1      -7.329   6.866  64.825  1.00  0.00    -0.088 C  
ENDBRANCH  19  20
ENDBRANCH  18  19
ENDBRANCH  15  17
ENDBRANCH   4  13
BRANCH  12  26
HETATM   26  N   UNL     1     -11.312  14.161  69.396  1.00  0.00    -0.264 NA 
HETATM   27  H   UNL     1     -10.874  14.947  69.876  1.00  0.00     0.000 HD 
BRANCH  26  28
HETATM   28  C   UNL     1     -11.045  14.100  68.011  1.00  0.00    -0.267 A  
HETATM   29  C   UNL     1     -12.044  13.595  67.160  1.00  0.00    -0.404 A  
HETATM   30  C   UNL     1     -11.773  13.323  65.814  1.00  0.00    -0.359 A  
HETATM   31  C   UNL     1      -9.511  14.087  66.102  1.00  0.00    -0.210 A  
HETATM   32  C   UNL     1      -9.785  14.358  67.445  1.00  0.00    -0.220 A  
HETATM   33  C   UNL     1     -10.503  13.552  65.297  1.00  0.00    -0.336 A  
HETATM   34  F   UNL     1     -10.209  13.251  64.024  1.00  0.00    -0.441 F  
HETATM   35 CL   UNL     1     -13.015  12.667  64.817  1.00  0.00    -0.379 Cl 
ENDBRANCH  26  28
ENDBRANCH  12  26
ENDBRANCH   2   3
TORSDOF 7
ENDMDL
MODEL      100
REMARK 921   NORMALIZED FREE ENERGY PREDICTED BY IDOCK:   -5.66 KCAL/MOL
REMARK 922        TOTAL FREE ENERGY PREDICTED BY IDOCK:   -8.89 KCAL/MOL
REMARK 923 INTER-LIGAND FREE ENERGY PREDICTED BY IDOCK:   -7.74 KCAL/MOL
REMARK 924 INTRA-LIGAND FREE ENERGY PREDICTED BY IDOCK:   -1.15 KCAL/MOL
REMARK 927      BINDING AFFINITY PREDICTED BY RF-SCORE:    0.00 PKD
ROOT
HETATM    1  C   UNL     1      -9.420   9.161  65.739  1.00  0.00    -0.254 C  
HETATM    2  O   UNL     1     -10.626   9.745  66.228  1.00  0.00    -0.133 OA 
ENDROOT
BRANCH   2   3
HETATM    3  C   UNL     1     -10.562  11.078  66.554  1.00  0.00    -0.254 A  
HETATM    4  C   UNL     1     -10.355  11.390  67.901  1.00  0.00    -0.182 A  
HETATM    5  N   UNL     1     -10.524  14.346  65.001  1.00  0.00    -0.414 NA 
HETATM    6  C   UNL     1     -10.296  12.736  68.295  1.00  0.00    -0.248 A  
HETATM    7  C   UNL     1     -10.497  13.449  65.988  1.00  0.00    -0.294 A  
HETATM    8  C   UNL     1     -10.441  15.623  65.359  1.00  0.00    -0.411 A  
HETATM    9  C   UNL     1     -10.365  13.787  67.343  1.00  0.00    -0.252 A  
HETATM   10  C   UNL     1     -10.600  12.119  65.622  1.00  0.00    -0.297 A  
HETATM   11  N   UNL     1     -10.348  16.076  66.607  1.00  0.00    -0.293 NA 
HETATM   12  C   UNL     1     -10.322  15.177  67.613  1.00  0.00    -0.248 A  
BRANCH   4  13
HETATM   13  N   UNL     1     -10.187  10.331  68.830  1.00  0.00    -0.181 N  
HETATM   14  H   UNL     1     -11.017   9.878  69.210  1.00  0.00     0.000 HD 
HETATM   15  C   UNL     1      -8.945   9.890  69.238  1.00  0.00    -0.178 C  
HETATM   16  O   UNL     1      -7.876  10.396  68.905  1.00  0.00    -0.098 OA 
BRANCH  15  17
HETATM   17  C   UNL     1      -8.978   8.638  70.052  1.00  0.00    -0.148 C  
HETATM   18  C   UNL     1      -9.478   8.718  71.299  1.00  0.00    -0.320 C  
BRANCH  18  19
HETATM   19  C   UNL     1      -9.459   7.642  72.348  1.00  0.00    -0.165 C  
BRANCH  19  20
HETATM   20  N   UNL     1      -8.477   6.565  72.143  1.00  0.00    -0.114 NA 
HETATM   21  C   UNL     1      -9.065   4.394  74.091  1.00  0.00    -0.109 C  
HETATM   22  C   UNL     1      -7.652   6.373  73.354  1.00  0.00    -0.093 C  
HETATM   23  C   UNL     1      -9.876   4.586  72.815  1.00  0.00    -0.191 C  
HETATM   24  C   UNL     1      -8.387   5.693  74.520  1.00  0.00    -0.105 C  
HETATM   25  C   UNL     1      -9.038   5.269  71.733  1.00  0.00    -0.138 C  
ENDBRANCH  19  20
ENDBRANCH  18  19
ENDBRANCH  15  17
ENDBRANCH   4  13
BRANCH  12  26
HETATM   26  N   UNL     1     -10.386  15.648  68.944  1.00  0.00    -0.209 NA 
HETATM   27  H   UNL     1      -9.503  16.007  69.306  1.00  0.00     0.000 HD 
BRANCH  26  28
HETATM   28  C   UNL     1     -11.460  15.706  69.858  1.00  0.00    -0.338 A  
HETATM   29  C   UNL     1     -11.204  16.178  71.157  1.00  0.00    -0.257 A  
HETATM   30  C   UNL     1     -12.172  16.076  72.164  1.00  0.00    -0.516 A  
HETATM   31  C   UNL     1     -13.701  15.066  70.606  1.00  0.00    -0.048 A  
HETATM   32  C   UNL     1     -12.733  15.171  69.605  1.00  0.00     0.017 A  
HETATM   33  C   UNL     1     -13.408  15.501  71.888  1.00  0.00    -0.477 A  
HETATM   34  F   UNL     1     -14.330  15.347  72.849  1.00  0.00    -0.478 F  
HETATM   35 CL   UNL     1     -11.802  16.629  73.752  1.00  0.00    -0.310 Cl 
ENDBRANCH  26  28
ENDBRANCH  12  26
ENDBRANCH   2   3
TORSDOF 7
ENDMDL
MODEL      101
REMARK 921   NORMALIZED FREE ENERGY PREDICTED BY IDOCK:   -5.65 KCAL/MOL
REMARK 922        TOTAL FREE ENERGY PREDICTED BY IDOCK:   -8.88 KCAL/MOL
REMARK 923 INTER-LIGAND FREE ENERGY PREDICTED BY IDOCK:   -8.00 KCAL/MOL
REMARK 924 INTRA-LIGAND FREE ENERGY PREDICTED BY IDOCK:   -0.88 KCAL/MOL
REMARK 927      BINDING AFFINITY PREDICTED BY RF-SCORE:    0.00 PKD
ROOT
HETATM    1  C   UNL     1      -5.173  15.268  70.986  1.00  0.00    -0.132 C  
HETATM    2  O   UNL     1      -5.555  14.862  69.672  1.00  0.00    -0.093 OA 
ENDROOT
BRANCH   2   3
HETATM    3  C   UNL     1      -6.708  15.422  69.180  1.00  0.00    -0.138 A  
HETATM    4  C   UNL     1      -7.774  14.553  68.927  1.00  0.00    -0.132 A  
HETATM    5  N   UNL     1      -8.167  18.650  68.440  1.00  0.00    -0.325 NA 
HETATM    6  C   UNL     1      -8.974  15.067  68.408  1.00  0.00    -0.179 A  
HETATM    7  C   UNL     1      -8.097  17.321  68.540  1.00  0.00    -0.262 A  
HETATM    8  C   UNL     1      -9.307  19.150  67.978  1.00  0.00    -0.324 A  
HETATM    9  C   UNL     1      -9.154  16.461  68.208  1.00  0.00    -0.207 A  
HETATM   10  C   UNL     1      -6.906  16.794  69.006  1.00  0.00    -0.218 A  
HETATM   11  N   UNL     1     -10.368  18.443  67.596  1.00  0.00    -0.386 NA 
HETATM   12  C   UNL     1     -10.308  17.098  67.691  1.00  0.00    -0.344 A  
BRANCH   4  13
HETATM   13  N   UNL     1      -7.618  13.175  69.225  1.00  0.00    -0.301 N  
HETATM   14  H   UNL     1      -7.556  12.889  70.202  1.00  0.00     0.000 HD 
HETATM   15  C   UNL     1      -7.546  12.206  68.245  1.00  0.00    -0.132 C  
HETATM   16  O   UNL     1      -7.542  12.428  67.037  1.00  0.00    -0.132 OA 
BRANCH  15  17
HETATM   17  C   UNL     1      -7.593  10.807  68.766  1.00  0.00    -0.113 C  
HETATM   18  C   UNL     1      -8.804  10.266  68.994  1.00  0.00    -0.170 C  
BRANCH  18  19
HETATM   19  C   UNL     1      -9.093   8.954  69.667  1.00  0.00    -0.151 C  
BRANCH  19  20
HETATM   20  N   UNL     1     -10.438   8.815  70.248  1.00  0.00    -0.201 NA 
HETATM   21  C   UNL     1     -10.360   6.610  72.245  1.00  0.00    -0.219 C  
HETATM   22  C   UNL     1     -11.003   7.483  69.947  1.00  0.00    -0.211 C  
HETATM   23  C   UNL     1      -9.821   8.004  72.548  1.00  0.00    -0.330 C  
HETATM   24  C   UNL     1     -10.369   6.332  70.744  1.00  0.00    -0.256 C  
HETATM   25  C   UNL     1     -10.528   9.059  71.697  1.00  0.00    -0.355 C  
ENDBRANCH  19  20
ENDBRANCH  18  19
ENDBRANCH  15  17
ENDBRANCH   4  13
BRANCH  12  26
HETATM   26  N   UNL     1     -11.360  16.332  67.141  1.00  0.00     0.102 NA 
HETATM   27  H   UNL     1     -12.285  16.749  67.249  1.00  0.00     0.000 HD 
BRANCH  26  28
HETATM   28  C   UNL     1     -11.353  15.091  66.468  1.00  0.00    -0.280 A  
HETATM   29  C   UNL     1     -11.639  13.930  67.208  1.00  0.00    -0.393 A  
HETATM   30  C   UNL     1     -11.455  12.659  66.652  1.00  0.00    -0.351 A  
HETATM   31  C   UNL     1     -10.736  13.655  64.584  1.00  0.00    -0.433 A  
HETATM   32  C   UNL     1     -10.921  14.922  65.143  1.00  0.00    -0.410 A  
HETATM   33  C   UNL     1     -10.985  12.528  65.350  1.00  0.00    -0.294 A  
HETATM   34  F   UNL     1     -10.754  11.320  64.815  1.00  0.00    -0.341 F  
HETATM   35 CL   UNL     1     -11.778  11.263  67.607  1.00  0.00    -0.290 Cl 
ENDBRANCH  26  28
ENDBRANCH  12  26
ENDBRANCH   2   3
TORSDOF 7
ENDMDL
MODEL      102
REMARK 921   NORMALIZED FREE ENERGY PREDICTED BY IDOCK:   -5.64 KCAL/MOL
REMARK 922        TOTAL FREE ENERGY PREDICTED BY IDOCK:   -8.87 KCAL/MOL
REMARK 923 INTER-LIGAND FREE ENERGY PREDICTED BY IDOCK:   -7.67 KCAL/MOL
REMARK 924 INTRA-LIGAND FREE ENERGY PREDICTED BY IDOCK:   -1.20 KCAL/MOL
REMARK 927      BINDING AFFINITY PREDICTED BY RF-SCORE:    0.00 PKD
ROOT
HETATM    1  C   UNL     1      -9.605  11.372  62.933  1.00  0.00    -0.339 C  
HETATM    2  O   UNL     1     -10.211  10.832  64.106  1.00  0.00    -0.336 OA 
ENDROOT
BRANCH   2   3
HETATM    3  C   UNL     1      -9.447   9.947  64.827  1.00  0.00    -0.291 A  
HETATM    4  C   UNL     1      -9.663   9.904  66.208  1.00  0.00    -0.222 A  
HETATM    5  N   UNL     1      -7.009   7.315  64.357  1.00  0.00    -0.050 NA 
HETATM    6  C   UNL     1      -8.899   9.031  66.998  1.00  0.00    -0.131 A  
HETATM    7  C   UNL     1      -7.818   8.142  65.020  1.00  0.00    -0.128 A  
HETATM    8  C   UNL     1      -6.302   6.464  65.092  1.00  0.00    -0.034 A  
HETATM    9  C   UNL     1      -7.965   8.135  66.415  1.00  0.00    -0.104 A  
HETATM   10  C   UNL     1      -8.545   9.042  64.261  1.00  0.00    -0.171 A  
HETATM   11  N   UNL     1      -6.322   6.379  66.420  1.00  0.00    -0.040 NA 
HETATM   12  C   UNL     1      -7.137   7.213  67.101  1.00  0.00    -0.087 A  
BRANCH   4  13
HETATM   13  N   UNL     1     -10.669  10.733  66.768  1.00  0.00    -0.251 N  
HETATM   14  H   UNL     1     -11.645  10.455  66.666  1.00  0.00     0.000 HD 
HETATM   15  C   UNL     1     -10.380  11.900  67.445  1.00  0.00    -0.207 C  
HETATM   16  O   UNL     1      -9.255  12.375  67.576  1.00  0.00    -0.172 OA 
BRANCH  15  17
HETATM   17  C   UNL     1     -11.555  12.513  68.134  1.00  0.00    -0.390 C  
HETATM   18  C   UNL     1     -11.382  12.943  69.397  1.00  0.00    -0.265 C  
BRANCH  18  19
HETATM   19  C   UNL     1     -12.448  13.432  70.336  1.00  0.00    -0.252 C  
BRANCH  19  20
HETATM   20  N   UNL     1     -12.633  14.891  70.393  1.00  0.00    -0.349 NA 
HETATM   21  C   UNL     1     -13.042  15.664  73.237  1.00  0.00    -0.675 C  
HETATM   22  C   UNL     1     -13.974  15.229  70.914  1.00  0.00    -0.167 C  
HETATM   23  C   UNL     1     -11.663  15.351  72.668  1.00  0.00    -0.556 C  
HETATM   24  C   UNL     1     -14.145  14.992  72.423  1.00  0.00    -0.574 C  
HETATM   25  C   UNL     1     -11.618  15.626  71.164  1.00  0.00    -0.412 C  
ENDBRANCH  19  20
ENDBRANCH  18  19
ENDBRANCH  15  17
ENDBRANCH   4  13
BRANCH  12  26
HETATM   26  N   UNL     1      -7.049   7.244  68.511  1.00  0.00    -0.082 NA 
HETATM   27  H   UNL     1      -6.187   7.655  68.870  1.00  0.00     0.000 HD 
BRANCH  26  28
HETATM   28  C   UNL     1      -7.946   6.804  69.508  1.00  0.00    -0.125 A  
HETATM   29  C   UNL     1      -8.241   5.432  69.581  1.00  0.00    -0.100 A  
HETATM   30  C   UNL     1      -9.266   4.959  70.410  1.00  0.00    -0.134 A  
HETATM   31  C   UNL     1      -9.713   7.201  71.155  1.00  0.00    -0.168 A  
HETATM   32  C   UNL     1      -8.689   7.669  70.328  1.00  0.00    -0.144 A  
HETATM   33  C   UNL     1     -10.010   5.848  71.177  1.00  0.00    -0.189 A  
HETATM   34  F   UNL     1     -11.028   5.423  71.938  1.00  0.00    -0.285 F  
HETATM   35 CL   UNL     1      -9.621   3.274  70.438  1.00  0.00    -0.242 Cl 
ENDBRANCH  26  28
ENDBRANCH  12  26
ENDBRANCH   2   3
TORSDOF 7
ENDMDL
MODEL      103
REMARK 921   NORMALIZED FREE ENERGY PREDICTED BY IDOCK:   -5.64 KCAL/MOL
REMARK 922        TOTAL FREE ENERGY PREDICTED BY IDOCK:   -8.86 KCAL/MOL
REMARK 923 INTER-LIGAND FREE ENERGY PREDICTED BY IDOCK:   -7.95 KCAL/MOL
REMARK 924 INTRA-LIGAND FREE ENERGY PREDICTED BY IDOCK:   -0.91 KCAL/MOL
REMARK 927      BINDING AFFINITY PREDICTED BY RF-SCORE:    0.00 PKD
ROOT
HETATM    1  C   UNL     1     -10.189   6.427  73.814  1.00  0.00    -0.290 C  
HETATM    2  O   UNL     1     -10.414   6.337  72.408  1.00  0.00    -0.189 OA 
ENDROOT
BRANCH   2   3
HETATM    3  C   UNL     1     -10.731   7.512  71.771  1.00  0.00    -0.211 A  
HETATM    4  C   UNL     1     -10.174   7.715  70.505  1.00  0.00    -0.201 A  
HETATM    5  N   UNL     1     -12.842  10.427  72.150  1.00  0.00    -0.333 NA 
HETATM    6  C   UNL     1     -10.449   8.905  69.814  1.00  0.00    -0.217 A  
HETATM    7  C   UNL     1     -11.949   9.615  71.578  1.00  0.00    -0.406 A  
HETATM    8  C   UNL     1     -13.132  11.543  71.491  1.00  0.00    -0.326 A  
HETATM    9  C   UNL     1     -11.344   9.874  70.340  1.00  0.00    -0.376 A  
HETATM   10  C   UNL     1     -11.631   8.458  72.267  1.00  0.00    -0.453 A  
HETATM   11  N   UNL     1     -12.602  11.922  70.330  1.00  0.00    -0.083 NA 
HETATM   12  C   UNL     1     -11.698  11.109  69.744  1.00  0.00    -0.345 A  
BRANCH   4  13
HETATM   13  N   UNL     1      -9.361   6.696  69.945  1.00  0.00    -0.153 N  
HETATM   14  H   UNL     1      -9.782   5.789  69.744  1.00  0.00     0.000 HD 
HETATM   15  C   UNL     1      -8.024   6.883  69.661  1.00  0.00    -0.125 C  
HETATM   16  O   UNL     1      -7.387   7.902  69.917  1.00  0.00    -0.071 OA 
BRANCH  15  17
HETATM   17  C   UNL     1      -7.401   5.767  68.887  1.00  0.00    -0.083 C  
HETATM   18  C   UNL     1      -8.160   5.151  67.962  1.00  0.00    -0.098 C  
BRANCH  18  19
HETATM   19  C   UNL     1      -7.810   3.910  67.191  1.00  0.00    -0.088 C  
BRANCH  19  20
HETATM   20  N   UNL     1      -8.945   3.166  66.623  1.00  0.00    -0.147 NA 
HETATM   21  C   UNL     1      -8.883   3.493  63.666  1.00  0.00    -0.094 C  
HETATM   22  C   UNL     1      -9.876   4.081  65.929  1.00  0.00    -0.171 C  
HETATM   23  C   UNL     1      -7.961   2.525  64.399  1.00  0.00    -0.078 C  
HETATM   24  C   UNL     1      -9.355   4.616  64.586  1.00  0.00    -0.090 C  
HETATM   25  C   UNL     1      -8.588   2.064  65.715  1.00  0.00    -0.111 C  
ENDBRANCH  19  20
ENDBRANCH  18  19
ENDBRANCH  15  17
ENDBRANCH   4  13
BRANCH  12  26
HETATM   26  N   UNL     1     -11.013  11.572  68.599  1.00  0.00    -0.207 NA 
HETATM   27  H   UNL     1     -10.135  11.088  68.409  1.00  0.00     0.000 HD 
BRANCH  26  28
HETATM   28  C   UNL     1     -11.331  12.589  67.673  1.00  0.00    -0.306 A  
HETATM   29  C   UNL     1     -11.536  12.227  66.330  1.00  0.00    -0.445 A  
HETATM   30  C   UNL     1     -11.657  13.202  65.333  1.00  0.00    -0.333 A  
HETATM   31  C   UNL     1     -11.417  14.936  66.982  1.00  0.00    -0.333 A  
HETATM   32  C   UNL     1     -11.297  13.960  67.974  1.00  0.00    -0.317 A  
HETATM   33  C   UNL     1     -11.577  14.551  65.661  1.00  0.00    -0.344 A  
HETATM   34  F   UNL     1     -11.639  15.498  64.715  1.00  0.00    -0.371 F  
HETATM   35 CL   UNL     1     -11.866  12.714  63.694  1.00  0.00    -0.559 Cl 
ENDBRANCH  26  28
ENDBRANCH  12  26
ENDBRANCH   2   3
TORSDOF 7
ENDMDL
MODEL      104
REMARK 921   NORMALIZED FREE ENERGY PREDICTED BY IDOCK:   -5.55 KCAL/MOL
REMARK 922        TOTAL FREE ENERGY PREDICTED BY IDOCK:   -8.74 KCAL/MOL
REMARK 923 INTER-LIGAND FREE ENERGY PREDICTED BY IDOCK:   -7.79 KCAL/MOL
REMARK 924 INTRA-LIGAND FREE ENERGY PREDICTED BY IDOCK:   -0.95 KCAL/MOL
REMARK 927      BINDING AFFINITY PREDICTED BY RF-SCORE:    0.00 PKD
ROOT
HETATM    1  C   UNL     1     -11.045  17.261  68.687  1.00  0.00     0.037 C  
HETATM    2  O   UNL     1     -10.333  16.371  69.545  1.00  0.00    -0.280 OA 
ENDROOT
BRANCH   2   3
HETATM    3  C   UNL     1     -10.788  15.076  69.580  1.00  0.00    -0.271 A  
HETATM    4  C   UNL     1     -10.268  14.197  68.625  1.00  0.00    -0.238 A  
HETATM    5  N   UNL     1     -12.877  12.888  71.567  1.00  0.00    -0.336 NA 
HETATM    6  C   UNL     1     -10.707  12.864  68.602  1.00  0.00    -0.273 A  
HETATM    7  C   UNL     1     -12.064  13.249  70.572  1.00  0.00    -0.314 A  
HETATM    8  C   UNL     1     -13.277  11.621  71.572  1.00  0.00    -0.201 A  
HETATM    9  C   UNL     1     -11.613  12.370  69.577  1.00  0.00    -0.353 A  
HETATM   10  C   UNL     1     -11.656  14.571  70.552  1.00  0.00    -0.295 A  
HETATM   11  N   UNL     1     -12.951  10.698  70.670  1.00  0.00    -0.319 NA 
HETATM   12  C   UNL     1     -12.131  11.054  69.659  1.00  0.00    -0.340 A  
BRANCH   4  13
HETATM   13  N   UNL     1      -9.288  14.677  67.718  1.00  0.00    -0.194 N  
HETATM   14  H   UNL     1      -9.597  15.095  66.840  1.00  0.00     0.000 HD 
HETATM   15  C   UNL     1      -7.935  14.601  67.976  1.00  0.00    -0.136 C  
HETATM   16  O   UNL     1      -7.437  14.064  68.961  1.00  0.00    -0.119 OA 
BRANCH  15  17
HETATM   17  C   UNL     1      -7.084  15.346  66.999  1.00  0.00    -0.001 C  
HETATM   18  C   UNL     1      -6.903  16.663  67.206  1.00  0.00    -0.212 C  
BRANCH  18  19
HETATM   19  C   UNL     1      -6.237  17.638  66.277  1.00  0.00    -0.236 C  
BRANCH  19  20
HETATM   20  N   UNL     1      -7.134  18.569  65.575  1.00  0.00    -0.532 NA 
HETATM   21  C   UNL     1      -7.189  21.127  67.094  1.00  0.00    -0.262 C  
HETATM   22  C   UNL     1      -8.284  18.933  66.429  1.00  0.00    -0.294 C  
HETATM   23  C   UNL     1      -6.033  20.750  66.175  1.00  0.00    -0.269 C  
HETATM   24  C   UNL     1      -7.939  19.890  67.581  1.00  0.00    -0.328 C  
HETATM   25  C   UNL     1      -6.500  19.799  65.072  1.00  0.00    -0.276 C  
ENDBRANCH  19  20
ENDBRANCH  18  19
ENDBRANCH  15  17
ENDBRANCH   4  13
BRANCH  12  26
HETATM   26  N   UNL     1     -11.908  10.133  68.612  1.00  0.00    -0.605 NA 
HETATM   27  H   UNL     1     -12.701  10.011  67.982  1.00  0.00     0.000 HD 
BRANCH  26  28
HETATM   28  C   UNL     1     -10.779   9.351  68.286  1.00  0.00    -0.171 A  
HETATM   29  C   UNL     1      -9.872   9.852  67.337  1.00  0.00    -0.223 A  
HETATM   30  C   UNL     1      -8.846   9.048  66.825  1.00  0.00    -0.127 A  
HETATM   31  C   UNL     1      -9.564   7.226  68.221  1.00  0.00    -0.150 A  
HETATM   32  C   UNL     1     -10.586   8.032  68.729  1.00  0.00    -0.145 A  
HETATM   33  C   UNL     1      -8.710   7.732  67.256  1.00  0.00    -0.128 A  
HETATM   34  F   UNL     1      -7.767   6.930  66.742  1.00  0.00    -0.093 F  
HETATM   35 CL   UNL     1      -7.783   9.689  65.632  1.00  0.00    -0.104 Cl 
ENDBRANCH  26  28
ENDBRANCH  12  26
ENDBRANCH   2   3
TORSDOF 7
ENDMDL
MODEL      105
REMARK 921   NORMALIZED FREE ENERGY PREDICTED BY IDOCK:   -5.53 KCAL/MOL
REMARK 922        TOTAL FREE ENERGY PREDICTED BY IDOCK:   -8.71 KCAL/MOL
REMARK 923 INTER-LIGAND FREE ENERGY PREDICTED BY IDOCK:   -7.91 KCAL/MOL
REMARK 924 INTRA-LIGAND FREE ENERGY PREDICTED BY IDOCK:   -0.80 KCAL/MOL
REMARK 927      BINDING AFFINITY PREDICTED BY RF-SCORE:    0.00 PKD
ROOT
HETATM    1  C   UNL     1      -9.158   5.087  69.187  1.00  0.00    -0.100 C  
HETATM    2  O   UNL     1      -8.869   5.999  70.246  1.00  0.00    -0.140 OA 
ENDROOT
BRANCH   2   3
HETATM    3  C   UNL     1      -9.915   6.780  70.671  1.00  0.00    -0.187 A  
HETATM    4  C   UNL     1      -9.688   8.158  70.739  1.00  0.00    -0.170 A  
HETATM    5  N   UNL     1     -13.417   6.541  71.553  1.00  0.00     0.111 NA 
HETATM    6  C   UNL     1     -10.717   9.005  71.181  1.00  0.00    -0.358 A  
HETATM    7  C   UNL     1     -12.235   7.123  71.341  1.00  0.00    -0.362 A  
HETATM    8  C   UNL     1     -14.406   7.337  71.945  1.00  0.00    -0.354 A  
HETATM    9  C   UNL     1     -12.008   8.499  71.489  1.00  0.00    -0.354 A  
HETATM   10  C   UNL     1     -11.197   6.297  70.948  1.00  0.00    -0.386 A  
HETATM   11  N   UNL     1     -14.312   8.648  72.156  1.00  0.00    -0.451 NA 
HETATM   12  C   UNL     1     -13.121   9.246  71.946  1.00  0.00    -0.415 A  
BRANCH   4  13
HETATM   13  N   UNL     1      -8.426   8.663  70.334  1.00  0.00    -0.129 N  
HETATM   14  H   UNL     1      -8.208   8.695  69.338  1.00  0.00     0.000 HD 
HETATM   15  C   UNL     1      -7.482   9.112  71.234  1.00  0.00    -0.021 C  
HETATM   16  O   UNL     1      -7.597   9.064  72.456  1.00  0.00    -0.339 OA 
BRANCH  15  17
HETATM   17  C   UNL     1      -6.312   9.795  70.603  1.00  0.00    -0.105 C  
HETATM   18  C   UNL     1      -6.528  10.985  70.014  1.00  0.00    -0.144 C  
BRANCH  18  19
HETATM   19  C   UNL     1      -5.554  11.767  69.179  1.00  0.00    -0.052 C  
BRANCH  19  20
HETATM   20  N   UNL     1      -6.084  12.315  67.920  1.00  0.00    -0.071 NA 
HETATM   21  C   UNL     1      -7.471  10.121  66.465  1.00  0.00    -0.109 C  
HETATM   22  C   UNL     1      -5.462  11.649  66.757  1.00  0.00    -0.125 C  
HETATM   23  C   UNL     1      -8.110  10.851  67.642  1.00  0.00    -0.115 C  
HETATM   24  C   UNL     1      -5.948  10.211  66.516  1.00  0.00    -0.062 C  
HETATM   25  C   UNL     1      -7.548  12.267  67.777  1.00  0.00    -0.131 C  
ENDBRANCH  19  20
ENDBRANCH  18  19
ENDBRANCH  15  17
ENDBRANCH   4  13
BRANCH  12  26
HETATM   26  N   UNL     1     -12.968  10.600  72.318  1.00  0.00    -0.423 NA 
HETATM   27  H   UNL     1     -12.924  10.758  73.325  1.00  0.00     0.000 HD 
BRANCH  26  28
HETATM   28  C   UNL     1     -12.865  11.773  71.539  1.00  0.00    -0.345 A  
HETATM   29  C   UNL     1     -12.260  11.682  70.273  1.00  0.00    -0.401 A  
HETATM   30  C   UNL     1     -11.949  12.832  69.539  1.00  0.00    -0.276 A  
HETATM   31  C   UNL     1     -12.872  14.208  71.283  1.00  0.00    -0.429 A  
HETATM   32  C   UNL     1     -13.181  13.056  72.012  1.00  0.00    -0.543 A  
HETATM   33  C   UNL     1     -12.239  14.090  70.057  1.00  0.00    -0.352 A  
HETATM   34  F   UNL     1     -11.904  15.206  69.393  1.00  0.00    -0.288 F  
HETATM   35 CL   UNL     1     -11.171  12.676  68.011  1.00  0.00    -0.283 Cl 
ENDBRANCH  26  28
ENDBRANCH  12  26
ENDBRANCH   2   3
TORSDOF 7
ENDMDL
MODEL      106
REMARK 921   NORMALIZED FREE ENERGY PREDICTED BY IDOCK:   -5.49 KCAL/MOL
REMARK 922        TOTAL FREE ENERGY PREDICTED BY IDOCK:   -8.66 KCAL/MOL
REMARK 923 INTER-LIGAND FREE ENERGY PREDICTED BY IDOCK:   -8.62 KCAL/MOL
REMARK 924 INTRA-LIGAND FREE ENERGY PREDICTED BY IDOCK:   -0.04 KCAL/MOL
REMARK 927      BINDING AFFINITY PREDICTED BY RF-SCORE:    0.00 PKD
ROOT
HETATM    1  C   UNL     1     -10.771  17.795  67.585  1.00  0.00    -0.322 C  
HETATM    2  O   UNL     1     -10.509  17.503  68.957  1.00  0.00    -0.350 OA 
ENDROOT
BRANCH   2   3
HETATM    3  C   UNL     1     -11.000  16.308  69.422  1.00  0.00    -0.337 A  
HETATM    4  C   UNL     1     -10.386  15.145  68.948  1.00  0.00    -0.243 A  
HETATM    5  N   UNL     1     -13.384  14.991  71.805  1.00  0.00    -0.353 NA 
HETATM    6  C   UNL     1     -10.856  13.893  69.377  1.00  0.00    -0.109 A  
HETATM    7  C   UNL     1     -12.442  14.966  70.861  1.00  0.00    -0.330 A  
HETATM    8  C   UNL     1     -13.817  13.813  72.240  1.00  0.00    -0.580 A  
HETATM    9  C   UNL     1     -11.892  13.785  70.342  1.00  0.00    -0.323 A  
HETATM   10  C   UNL     1     -11.999  16.191  70.393  1.00  0.00    -0.106 A  
HETATM   11  N   UNL     1     -13.404  12.624  71.806  1.00  0.00    -0.387 NA 
HETATM   12  C   UNL     1     -12.452  12.588  70.850  1.00  0.00    -0.269 A  
BRANCH   4  13
HETATM   13  N   UNL     1      -9.286  15.266  68.060  1.00  0.00    -0.195 N  
HETATM   14  H   UNL     1      -9.469  15.487  67.081  1.00  0.00     0.000 HD 
HETATM   15  C   UNL     1      -7.979  15.097  68.468  1.00  0.00    -0.142 C  
HETATM   16  O   UNL     1      -7.634  14.764  69.599  1.00  0.00    -0.143 OA 
BRANCH  15  17
HETATM   17  C   UNL     1      -6.964  15.471  67.437  1.00  0.00    -0.232 C  
HETATM   18  C   UNL     1      -6.192  16.545  67.683  1.00  0.00    -0.167 C  
BRANCH  18  19
HETATM   19  C   UNL     1      -5.233  17.202  66.732  1.00  0.00    -0.161 C  
BRANCH  19  20
HETATM   20  N   UNL     1      -5.144  18.668  66.822  1.00  0.00    -0.127 NA 
HETATM   21  C   UNL     1      -7.663  19.818  65.730  1.00  0.00    -0.268 C  
HETATM   22  C   UNL     1      -5.193  19.279  65.476  1.00  0.00    -0.152 C  
HETATM   23  C   UNL     1      -7.579  19.220  67.130  1.00  0.00    -0.250 C  
HETATM   24  C   UNL     1      -6.581  19.247  64.817  1.00  0.00     0.005 C  
HETATM   25  C   UNL     1      -6.154  19.311  67.678  1.00  0.00    -0.206 C  
ENDBRANCH  19  20
ENDBRANCH  18  19
ENDBRANCH  15  17
ENDBRANCH   4  13
BRANCH  12  26
HETATM   26  N   UNL     1     -12.123  11.343  70.269  1.00  0.00    -0.358 NA 
HETATM   27  H   UNL     1     -11.866  11.393  69.283  1.00  0.00     0.000 HD 
BRANCH  26  28
HETATM   28  C   UNL     1     -12.088  10.042  70.816  1.00  0.00    -0.327 A  
HETATM   29  C   UNL     1     -11.170   9.120  70.285  1.00  0.00    -0.249 A  
HETATM   30  C   UNL     1     -11.219   7.767  70.642  1.00  0.00    -0.268 A  
HETATM   31  C   UNL     1     -13.075   8.211  72.107  1.00  0.00    -0.267 A  
HETATM   32  C   UNL     1     -13.021   9.560  71.748  1.00  0.00    -0.502 A  
HETATM   33  C   UNL     1     -12.184   7.316  71.536  1.00  0.00    -0.352 A  
HETATM   34  F   UNL     1     -12.282   6.017  71.853  1.00  0.00    -0.359 F  
HETATM   35 CL   UNL     1     -10.102   6.664  69.935  1.00  0.00    -0.189 Cl 
ENDBRANCH  26  28
ENDBRANCH  12  26
ENDBRANCH   2   3
TORSDOF 7
ENDMDL
MODEL      107
REMARK 921   NORMALIZED FREE ENERGY PREDICTED BY IDOCK:   -5.41 KCAL/MOL
REMARK 922        TOTAL FREE ENERGY PREDICTED BY IDOCK:   -8.54 KCAL/MOL
REMARK 923 INTER-LIGAND FREE ENERGY PREDICTED BY IDOCK:   -7.60 KCAL/MOL
REMARK 924 INTRA-LIGAND FREE ENERGY PREDICTED BY IDOCK:   -0.94 KCAL/MOL
REMARK 927      BINDING AFFINITY PREDICTED BY RF-SCORE:    0.00 PKD
ROOT
HETATM    1  C   UNL     1      -6.538  10.054  63.643  1.00  0.00    -0.130 C  
HETATM    2  O   UNL     1      -7.324  10.630  64.685  1.00  0.00     0.005 OA 
ENDROOT
BRANCH   2   3
HETATM    3  C   UNL     1      -7.882   9.748  65.577  1.00  0.00    -0.120 A  
HETATM    4  C   UNL     1      -8.378  10.284  66.770  1.00  0.00    -0.124 A  
HETATM    5  N   UNL     1      -8.793   6.259  65.875  1.00  0.00    -0.156 NA 
HETATM    6  C   UNL     1      -8.945   9.428  67.727  1.00  0.00    -0.127 A  
HETATM    7  C   UNL     1      -8.660   7.535  66.242  1.00  0.00    -0.145 A  
HETATM    8  C   UNL     1      -9.355   5.444  66.761  1.00  0.00    -0.134 A  
HETATM    9  C   UNL     1      -9.096   8.038  67.476  1.00  0.00    -0.146 A  
HETATM   10  C   UNL     1      -8.061   8.385  65.329  1.00  0.00    -0.140 A  
HETATM   11  N   UNL     1      -9.778   5.788  67.976  1.00  0.00    -0.119 NA 
HETATM   12  C   UNL     1      -9.646   7.076  68.357  1.00  0.00    -0.135 A  
BRANCH   4  13
HETATM   13  N   UNL     1      -8.312  11.687  66.968  1.00  0.00    -0.163 N  
HETATM   14  H   UNL     1      -9.128  12.253  66.734  1.00  0.00     0.000 HD 
HETATM   15  C   UNL     1      -7.188  12.316  67.463  1.00  0.00    -0.139 C  
HETATM   16  O   UNL     1      -6.125  11.757  67.718  1.00  0.00    -0.050 OA 
BRANCH  15  17
HETATM   17  C   UNL     1      -7.392  13.759  67.793  1.00  0.00    -0.170 C  
HETATM   18  C   UNL     1      -8.657  14.193  67.938  1.00  0.00    -0.178 C  
BRANCH  18  19
HETATM   19  C   UNL     1      -9.109  15.617  68.100  1.00  0.00    -0.181 C  
BRANCH  19  20
HETATM   20  N   UNL     1     -10.528  15.877  67.811  1.00  0.00    -0.279 NA 
HETATM   21  C   UNL     1     -12.141  13.720  69.074  1.00  0.00    -0.359 C  
HETATM   22  C   UNL     1     -11.108  14.779  67.009  1.00  0.00    -0.333 C  
HETATM   23  C   UNL     1     -11.568  14.884  69.875  1.00  0.00    -0.328 C  
HETATM   24  C   UNL     1     -11.345  13.479  67.794  1.00  0.00    -0.327 C  
HETATM   25  C   UNL     1     -11.379  16.115  68.988  1.00  0.00    -0.340 C  
ENDBRANCH  19  20
ENDBRANCH  18  19
ENDBRANCH  15  17
ENDBRANCH   4  13
BRANCH  12  26
HETATM   26  N   UNL     1      -9.941   7.419  69.696  1.00  0.00    -0.179 NA 
HETATM   27  H   UNL     1      -9.132   7.424  70.317  1.00  0.00     0.000 HD 
BRANCH  26  28
HETATM   28  C   UNL     1     -11.160   7.755  70.322  1.00  0.00    -0.234 A  
HETATM   29  C   UNL     1     -11.445   9.115  70.540  1.00  0.00    -0.271 A  
HETATM   30  C   UNL     1     -12.535   9.505  71.328  1.00  0.00    -0.346 A  
HETATM   31  C   UNL     1     -13.123   7.199  71.677  1.00  0.00    -0.410 A  
HETATM   32  C   UNL     1     -12.034   6.814  70.889  1.00  0.00    -0.437 A  
HETATM   33  C   UNL     1     -13.356   8.544  71.909  1.00  0.00    -0.372 A  
HETATM   34  F   UNL     1     -14.373   8.895  72.708  1.00  0.00    -0.490 F  
HETATM   35 CL   UNL     1     -12.823  11.180  71.602  1.00  0.00    -0.538 Cl 
ENDBRANCH  26  28
ENDBRANCH  12  26
ENDBRANCH   2   3
TORSDOF 7
ENDMDL
MODEL      108
REMARK 921   NORMALIZED FREE ENERGY PREDICTED BY IDOCK:   -5.39 KCAL/MOL
REMARK 922        TOTAL FREE ENERGY PREDICTED BY IDOCK:   -8.52 KCAL/MOL
REMARK 923 INTER-LIGAND FREE ENERGY PREDICTED BY IDOCK:   -7.74 KCAL/MOL
REMARK 924 INTRA-LIGAND FREE ENERGY PREDICTED BY IDOCK:   -0.78 KCAL/MOL
REMARK 927      BINDING AFFINITY PREDICTED BY RF-SCORE:    0.00 PKD
ROOT
HETATM    1  C   UNL     1     -14.169   8.471  72.201  1.00  0.00    -0.434 C  
HETATM    2  O   UNL     1     -13.180   9.087  71.377  1.00  0.00    -0.326 OA 
ENDROOT
BRANCH   2   3
HETATM    3  C   UNL     1     -11.874   8.799  71.686  1.00  0.00    -0.330 A  
HETATM    4  C   UNL     1     -10.890   9.409  70.902  1.00  0.00    -0.322 A  
HETATM    5  N   UNL     1      -9.897   7.037  74.153  1.00  0.00    -0.296 NA 
HETATM    6  C   UNL     1      -9.536   9.139  71.162  1.00  0.00    -0.347 A  
HETATM    7  C   UNL     1     -10.145   7.780  73.072  1.00  0.00    -0.320 A  
HETATM    8  C   UNL     1      -8.618   6.799  74.425  1.00  0.00    -0.161 A  
HETATM    9  C   UNL     1      -9.143   8.321  72.253  1.00  0.00    -0.289 A  
HETATM   10  C   UNL     1     -11.475   8.018  72.775  1.00  0.00    -0.420 A  
HETATM   11  N   UNL     1      -7.579   7.222  73.710  1.00  0.00    -0.103 NA 
HETATM   12  C   UNL     1      -7.819   7.973  72.615  1.00  0.00    -0.126 A  
BRANCH   4  13
HETATM   13  N   UNL     1     -11.290  10.304  69.877  1.00  0.00    -0.271 N  
HETATM   14  H   UNL     1     -11.647  11.222  70.141  1.00  0.00     0.000 HD 
HETATM   15  C   UNL     1     -11.217   9.981  68.537  1.00  0.00    -0.123 C  
HETATM   16  O   UNL     1     -10.869   8.889  68.096  1.00  0.00    -0.136 OA 
BRANCH  15  17
HETATM   17  C   UNL     1     -11.486  11.127  67.618  1.00  0.00    -0.328 C  
HETATM   18  C   UNL     1     -10.427  11.735  67.052  1.00  0.00    -0.252 C  
BRANCH  18  19
HETATM   19  C   UNL     1     -10.441  12.997  66.238  1.00  0.00    -0.276 C  
BRANCH  19  20
HETATM   20  N   UNL     1     -11.442  14.002  66.630  1.00  0.00    -0.348 NA 
HETATM   21  C   UNL     1     -11.567  16.070  64.494  1.00  0.00    -0.205 C  
HETATM   22  C   UNL     1     -10.813  15.328  66.804  1.00  0.00    -0.312 C  
HETATM   23  C   UNL     1     -12.244  14.711  64.354  1.00  0.00    -0.473 C  
HETATM   24  C   UNL     1     -10.411  16.015  65.489  1.00  0.00    -0.415 C  
HETATM   25  C   UNL     1     -12.595  14.132  65.725  1.00  0.00    -0.447 C  
ENDBRANCH  19  20
ENDBRANCH  18  19
ENDBRANCH  15  17
ENDBRANCH   4  13
BRANCH  12  26
HETATM   26  N   UNL     1      -6.739   8.291  71.762  1.00  0.00    -0.063 NA 
HETATM   27  H   UNL     1      -5.818   8.151  72.178  1.00  0.00     0.000 HD 
BRANCH  26  28
HETATM   28  C   UNL     1      -6.713   8.770  70.434  1.00  0.00    -0.043 A  
HETATM   29  C   UNL     1      -6.366  10.115  70.217  1.00  0.00    -0.117 A  
HETATM   30  C   UNL     1      -6.513  10.702  68.954  1.00  0.00    -0.049 A  
HETATM   31  C   UNL     1      -7.318   8.617  68.067  1.00  0.00    -0.092 A  
HETATM   32  C   UNL     1      -7.169   8.035  69.328  1.00  0.00    -0.076 A  
HETATM   33  C   UNL     1      -7.008   9.955  67.890  1.00  0.00    -0.081 A  
HETATM   34  F   UNL     1      -7.204  10.510  66.686  1.00  0.00    -0.096 F  
HETATM   35 CL   UNL     1      -6.115  12.363  68.742  1.00  0.00    -0.065 Cl 
ENDBRANCH  26  28
ENDBRANCH  12  26
ENDBRANCH   2   3
TORSDOF 7
ENDMDL
MODEL      109
REMARK 921   NORMALIZED FREE ENERGY PREDICTED BY IDOCK:   -5.35 KCAL/MOL
REMARK 922        TOTAL FREE ENERGY PREDICTED BY IDOCK:   -8.46 KCAL/MOL
REMARK 923 INTER-LIGAND FREE ENERGY PREDICTED BY IDOCK:   -7.20 KCAL/MOL
REMARK 924 INTRA-LIGAND FREE ENERGY PREDICTED BY IDOCK:   -1.26 KCAL/MOL
REMARK 927      BINDING AFFINITY PREDICTED BY RF-SCORE:    0.00 PKD
ROOT
HETATM    1  C   UNL     1     -10.823   7.680  72.330  1.00  0.00    -0.267 C  
HETATM    2  O   UNL     1     -11.784   7.992  71.322  1.00  0.00    -0.275 OA 
ENDROOT
BRANCH   2   3
HETATM    3  C   UNL     1     -11.919   9.322  71.009  1.00  0.00    -0.300 A  
HETATM    4  C   UNL     1     -11.459   9.725  69.752  1.00  0.00    -0.098 A  
HETATM    5  N   UNL     1     -13.355  12.379  72.309  1.00  0.00    -0.460 NA 
HETATM    6  C   UNL     1     -11.557  11.076  69.382  1.00  0.00    -0.383 A  
HETATM    7  C   UNL     1     -12.704  11.588  71.454  1.00  0.00    -0.364 A  
HETATM    8  C   UNL     1     -13.478  13.654  71.958  1.00  0.00    -0.484 A  
HETATM    9  C   UNL     1     -12.182  12.029  70.229  1.00  0.00    -0.348 A  
HETATM   10  C   UNL     1     -12.558  10.262  71.822  1.00  0.00    -0.488 A  
HETATM   11  N   UNL     1     -12.999  14.204  70.844  1.00  0.00    -0.328 NA 
HETATM   12  C   UNL     1     -12.338  13.413  69.973  1.00  0.00    -0.226 A  
BRANCH   4  13
HETATM   13  N   UNL     1     -10.927   8.746  68.873  1.00  0.00    -0.440 N  
HETATM   14  H   UNL     1     -11.562   8.071  68.449  1.00  0.00     0.000 HD 
HETATM   15  C   UNL     1      -9.583   8.672  68.570  1.00  0.00    -0.154 C  
HETATM   16  O   UNL     1      -8.711   9.382  69.065  1.00  0.00    -0.129 OA 
BRANCH  15  17
HETATM   17  C   UNL     1      -9.256   7.713  67.472  1.00  0.00    -0.145 C  
HETATM   18  C   UNL     1      -8.126   6.992  67.589  1.00  0.00    -0.114 C  
BRANCH  18  19
HETATM   19  C   UNL     1      -7.513   6.102  66.546  1.00  0.00    -0.086 C  
BRANCH  19  20
HETATM   20  N   UNL     1      -7.955   6.337  65.162  1.00  0.00    -0.110 NA 
HETATM   21  C   UNL     1      -6.053   4.960  63.335  1.00  0.00    -0.021 C  
HETATM   22  C   UNL     1      -6.931   7.089  64.407  1.00  0.00    -0.055 C  
HETATM   23  C   UNL     1      -7.143   4.210  64.092  1.00  0.00    -0.047 C  
HETATM   24  C   UNL     1      -5.688   6.267  64.034  1.00  0.00    -0.022 C  
HETATM   25  C   UNL     1      -8.324   5.131  64.403  1.00  0.00    -0.137 C  
ENDBRANCH  19  20
ENDBRANCH  18  19
ENDBRANCH  15  17
ENDBRANCH   4  13
BRANCH  12  26
HETATM   26  N   UNL     1     -11.689  14.013  68.871  1.00  0.00    -0.317 NA 
HETATM   27  H   UNL     1     -12.265  14.087  68.032  1.00  0.00     0.000 HD 
BRANCH  26  28
HETATM   28  C   UNL     1     -10.382  14.527  68.729  1.00  0.00    -0.243 A  
HETATM   29  C   UNL     1      -9.360  13.648  68.328  1.00  0.00    -0.204 A  
HETATM   30  C   UNL     1      -8.018  14.043  68.361  1.00  0.00    -0.143 A  
HETATM   31  C   UNL     1      -8.665  16.219  69.154  1.00  0.00    -0.212 A  
HETATM   32  C   UNL     1     -10.004  15.821  69.119  1.00  0.00    -0.241 A  
HETATM   33  C   UNL     1      -7.676  15.320  68.793  1.00  0.00    -0.147 A  
HETATM   34  F   UNL     1      -6.393  15.701  68.880  1.00  0.00    -0.105 F  
HETATM   35 CL   UNL     1      -6.795  12.921  67.901  1.00  0.00    -0.104 Cl 
ENDBRANCH  26  28
ENDBRANCH  12  26
ENDBRANCH   2   3
TORSDOF 7
ENDMDL
MODEL      110
REMARK 921   NORMALIZED FREE ENERGY PREDICTED BY IDOCK:   -5.34 KCAL/MOL
REMARK 922        TOTAL FREE ENERGY PREDICTED BY IDOCK:   -8.45 KCAL/MOL
REMARK 923 INTER-LIGAND FREE ENERGY PREDICTED BY IDOCK:   -7.25 KCAL/MOL
REMARK 924 INTRA-LIGAND FREE ENERGY PREDICTED BY IDOCK:   -1.20 KCAL/MOL
REMARK 927      BINDING AFFINITY PREDICTED BY RF-SCORE:    0.00 PKD
ROOT
HETATM    1  C   UNL     1      -7.400   8.759  72.804  1.00  0.00     0.186 C  
HETATM    2  O   UNL     1      -7.127   8.316  71.476  1.00  0.00    -0.064 OA 
ENDROOT
BRANCH   2   3
HETATM    3  C   UNL     1      -7.204   9.273  70.494  1.00  0.00    -0.110 A  
HETATM    4  C   UNL     1      -8.321   9.228  69.654  1.00  0.00    -0.140 A  
HETATM    5  N   UNL     1      -5.506  12.253  69.340  1.00  0.00    -0.070 NA 
HETATM    6  C   UNL     1      -8.446  10.172  68.622  1.00  0.00    -0.122 A  
HETATM    7  C   UNL     1      -6.428  11.289  69.361  1.00  0.00    -0.105 A  
HETATM    8  C   UNL     1      -5.629  13.168  68.385  1.00  0.00    -0.082 A  
HETATM    9  C   UNL     1      -7.501  11.218  68.461  1.00  0.00    -0.115 A  
HETATM   10  C   UNL     1      -6.295  10.324  70.344  1.00  0.00    -0.127 A  
HETATM   11  N   UNL     1      -6.577  13.194  67.450  1.00  0.00    -0.197 NA 
HETATM   12  C   UNL     1      -7.514  12.223  67.463  1.00  0.00    -0.149 A  
BRANCH   4  13
HETATM   13  N   UNL     1      -9.311   8.239  69.886  1.00  0.00    -0.158 N  
HETATM   14  H   UNL     1      -9.147   7.292  69.543  1.00  0.00     0.000 HD 
HETATM   15  C   UNL     1     -10.487   8.506  70.558  1.00  0.00    -0.204 C  
HETATM   16  O   UNL     1     -10.829   9.615  70.959  1.00  0.00    -0.313 OA 
BRANCH  15  17
HETATM   17  C   UNL     1     -11.295   7.292  70.880  1.00  0.00    -0.308 C  
HETATM   18  C   UNL     1     -11.089   6.704  72.073  1.00  0.00    -0.289 C  
BRANCH  18  19
HETATM   19  C   UNL     1     -11.654   5.393  72.541  1.00  0.00    -0.159 C  
BRANCH  19  20
HETATM   20  N   UNL     1     -10.978   4.778  73.694  1.00  0.00    -0.306 NA 
HETATM   21  C   UNL     1      -8.624   3.261  72.688  1.00  0.00    -0.090 C  
HETATM   22  C   UNL     1     -10.999   3.304  73.589  1.00  0.00    -0.237 C  
HETATM   23  C   UNL     1      -8.610   4.778  72.844  1.00  0.00    -0.111 C  
HETATM   24  C   UNL     1     -10.047   2.732  72.527  1.00  0.00    -0.235 C  
HETATM   25  C   UNL     1      -9.595   5.224  73.927  1.00  0.00    -0.141 C  
ENDBRANCH  19  20
ENDBRANCH  18  19
ENDBRANCH  15  17
ENDBRANCH   4  13
BRANCH  12  26
HETATM   26  N   UNL     1      -8.426  12.148  66.386  1.00  0.00    -0.396 NA 
HETATM   27  H   UNL     1      -8.046  11.721  65.541  1.00  0.00     0.000 HD 
BRANCH  26  28
HETATM   28  C   UNL     1      -9.771  12.562  66.277  1.00  0.00    -0.254 A  
HETATM   29  C   UNL     1     -10.523  12.104  65.181  1.00  0.00    -0.317 A  
HETATM   30  C   UNL     1     -11.791  12.631  64.907  1.00  0.00    -0.387 A  
HETATM   31  C   UNL     1     -11.626  14.061  66.834  1.00  0.00    -0.407 A  
HETATM   32  C   UNL     1     -10.361  13.532  67.104  1.00  0.00    -0.250 A  
HETATM   33  C   UNL     1     -12.327  13.621  65.724  1.00  0.00    -0.482 A  
HETATM   34  F   UNL     1     -13.517  14.175  65.450  1.00  0.00    -0.436 F  
HETATM   35 CL   UNL     1     -12.660  12.071  63.530  1.00  0.00    -0.678 Cl 
ENDBRANCH  26  28
ENDBRANCH  12  26
ENDBRANCH   2   3
TORSDOF 7
ENDMDL
MODEL      111
REMARK 921   NORMALIZED FREE ENERGY PREDICTED BY IDOCK:   -5.25 KCAL/MOL
REMARK 922        TOTAL FREE ENERGY PREDICTED BY IDOCK:   -8.31 KCAL/MOL
REMARK 923 INTER-LIGAND FREE ENERGY PREDICTED BY IDOCK:   -7.06 KCAL/MOL
REMARK 924 INTRA-LIGAND FREE ENERGY PREDICTED BY IDOCK:   -1.25 KCAL/MOL
REMARK 927      BINDING AFFINITY PREDICTED BY RF-SCORE:    0.00 PKD
ROOT
HETATM    1  C   UNL     1      -7.834  13.186  67.599  1.00  0.00    -0.169 C  
HETATM    2  O   UNL     1      -7.664  11.846  68.060  1.00  0.00    -0.115 OA 
ENDROOT
BRANCH   2   3
HETATM    3  C   UNL     1      -7.711  10.868  67.097  1.00  0.00    -0.123 A  
HETATM    4  C   UNL     1      -8.780   9.969  67.162  1.00  0.00    -0.128 A  
HETATM    5  N   UNL     1      -6.025   9.827  64.069  1.00  0.00    -0.104 NA 
HETATM    6  C   UNL     1      -8.872   8.938  66.214  1.00  0.00    -0.187 A  
HETATM    7  C   UNL     1      -6.924   9.792  65.055  1.00  0.00    -0.119 A  
HETATM    8  C   UNL     1      -6.119   8.872  63.150  1.00  0.00    -0.089 A  
HETATM    9  C   UNL     1      -7.944   8.835  65.144  1.00  0.00    -0.125 A  
HETATM   10  C   UNL     1      -6.821  10.774  66.024  1.00  0.00    -0.107 A  
HETATM   11  N   UNL     1      -7.016   7.889  63.139  1.00  0.00    -0.082 NA 
HETATM   12  C   UNL     1      -7.928   7.844  64.132  1.00  0.00    -0.125 A  
BRANCH   4  13
HETATM   13  N   UNL     1      -9.757  10.141  68.176  1.00  0.00    -0.139 N  
HETATM   14  H   UNL     1      -9.630   9.657  69.065  1.00  0.00     0.000 HD 
HETATM   15  C   UNL     1     -10.872  10.937  68.008  1.00  0.00    -0.245 C  
HETATM   16  O   UNL     1     -11.171  11.515  66.966  1.00  0.00    -0.288 OA 
BRANCH  15  17
HETATM   17  C   UNL     1     -11.663  11.152  69.257  1.00  0.00    -0.401 C  
HETATM   18  C   UNL     1     -11.949  12.420  69.603  1.00  0.00    -0.341 C  
BRANCH  18  19
HETATM   19  C   UNL     1     -12.577  12.884  70.886  1.00  0.00    -0.270 C  
BRANCH  19  20
HETATM   20  N   UNL     1     -13.250  14.192  70.835  1.00  0.00    -0.282 NA 
HETATM   21  C   UNL     1     -11.997  15.960  72.875  1.00  0.00    -0.609 C  
HETATM   22  C   UNL     1     -13.923  14.485  72.118  1.00  0.00    -0.501 C  
HETATM   23  C   UNL     1     -11.341  15.676  71.529  1.00  0.00    -0.454 C  
HETATM   24  C   UNL     1     -12.967  14.847  73.266  1.00  0.00    -0.635 C  
HETATM   25  C   UNL     1     -12.390  15.330  70.471  1.00  0.00    -0.387 C  
ENDBRANCH  19  20
ENDBRANCH  18  19
ENDBRANCH  15  17
ENDBRANCH   4  13
BRANCH  12  26
HETATM   26  N   UNL     1      -8.779   6.720  64.220  1.00  0.00    -0.165 NA 
HETATM   27  H   UNL     1      -9.700   6.855  63.803  1.00  0.00     0.000 HD 
BRANCH  26  28
HETATM   28  C   UNL     1      -8.575   5.442  64.784  1.00  0.00    -0.117 A  
HETATM   29  C   UNL     1      -8.798   4.313  63.977  1.00  0.00    -0.138 A  
HETATM   30  C   UNL     1      -8.808   3.025  64.526  1.00  0.00    -0.108 A  
HETATM   31  C   UNL     1      -8.332   3.937  66.700  1.00  0.00    -0.104 A  
HETATM   32  C   UNL     1      -8.322   5.220  66.147  1.00  0.00    -0.115 A  
HETATM   33  C   UNL     1      -8.594   2.846  65.889  1.00  0.00    -0.118 A  
HETATM   34  F   UNL     1      -8.650   1.627  66.443  1.00  0.00    -0.085 F  
HETATM   35 CL   UNL     1      -9.125   1.674  63.508  1.00  0.00    -0.088 Cl 
ENDBRANCH  26  28
ENDBRANCH  12  26
ENDBRANCH   2   3
TORSDOF 7
ENDMDL
MODEL      112
REMARK 921   NORMALIZED FREE ENERGY PREDICTED BY IDOCK:   -5.19 KCAL/MOL
REMARK 922        TOTAL FREE ENERGY PREDICTED BY IDOCK:   -8.24 KCAL/MOL
REMARK 923 INTER-LIGAND FREE ENERGY PREDICTED BY IDOCK:   -7.37 KCAL/MOL
REMARK 924 INTRA-LIGAND FREE ENERGY PREDICTED BY IDOCK:   -0.87 KCAL/MOL
REMARK 927      BINDING AFFINITY PREDICTED BY RF-SCORE:    0.00 PKD
ROOT
HETATM    1  C   UNL     1     -11.089   9.480  68.719  1.00  0.00    -0.001 C  
HETATM    2  O   UNL     1     -11.707  10.500  67.936  1.00  0.00    -0.453 OA 
ENDROOT
BRANCH   2   3
HETATM    3  C   UNL     1     -11.279  11.783  68.173  1.00  0.00    -0.260 A  
HETATM    4  C   UNL     1     -10.289  12.287  67.324  1.00  0.00    -0.214 A  
HETATM    5  N   UNL     1     -12.017  14.645  70.262  1.00  0.00    -0.288 NA 
HETATM    6  C   UNL     1      -9.802  13.588  67.529  1.00  0.00    -0.227 A  
HETATM    7  C   UNL     1     -11.393  13.931  69.323  1.00  0.00    -0.272 A  
HETATM    8  C   UNL     1     -11.584  15.887  70.445  1.00  0.00    -0.371 A  
HETATM    9  C   UNL     1     -10.348  14.431  68.532  1.00  0.00    -0.248 A  
HETATM   10  C   UNL     1     -11.830  12.631  69.138  1.00  0.00    -0.349 A  
HETATM   11  N   UNL     1     -10.582  16.467  69.788  1.00  0.00    -0.309 NA 
HETATM   12  C   UNL     1      -9.943  15.753  68.837  1.00  0.00    -0.223 A  
BRANCH   4  13
HETATM   13  N   UNL     1      -9.820  11.471  66.262  1.00  0.00    -0.210 N  
HETATM   14  H   UNL     1      -9.094  10.782  66.457  1.00  0.00     0.000 HD 
HETATM   15  C   UNL     1     -10.308  11.573  64.975  1.00  0.00    -0.281 C  
HETATM   16  O   UNL     1     -11.131  12.404  64.600  1.00  0.00    -0.286 OA 
BRANCH  15  17
HETATM   17  C   UNL     1      -9.839  10.492  64.057  1.00  0.00    -0.387 C  
HETATM   18  C   UNL     1      -8.513  10.284  63.964  1.00  0.00    -0.177 C  
BRANCH  18  19
HETATM   19  C   UNL     1      -7.808   9.380  62.993  1.00  0.00    -0.131 C  
BRANCH  19  20
HETATM   20  N   UNL     1      -6.670   8.620  63.534  1.00  0.00    -0.088 NA 
HETATM   21  C   UNL     1      -7.670   5.965  64.431  1.00  0.00    -0.099 C  
HETATM   22  C   UNL     1      -6.876   8.318  64.967  1.00  0.00    -0.067 C  
HETATM   23  C   UNL     1      -7.411   6.285  62.963  1.00  0.00    -0.062 C  
HETATM   24  C   UNL     1      -7.930   7.233  65.240  1.00  0.00    -0.127 C  
HETATM   25  C   UNL     1      -6.346   7.374  62.822  1.00  0.00    -0.054 C  
ENDBRANCH  19  20
ENDBRANCH  18  19
ENDBRANCH  15  17
ENDBRANCH   4  13
BRANCH  12  26
HETATM   26  N   UNL     1      -8.780  16.297  68.248  1.00  0.00    -0.185 NA 
HETATM   27  H   UNL     1      -8.183  15.613  67.784  1.00  0.00     0.000 HD 
BRANCH  26  28
HETATM   28  C   UNL     1      -8.301  17.624  68.191  1.00  0.00    -0.259 A  
HETATM   29  C   UNL     1      -8.086  18.201  66.928  1.00  0.00    -0.254 A  
HETATM   30  C   UNL     1      -7.429  19.431  66.801  1.00  0.00    -0.235 A  
HETATM   31  C   UNL     1      -7.215  19.577  69.192  1.00  0.00    -0.382 A  
HETATM   32  C   UNL     1      -7.871  18.349  69.314  1.00  0.00     0.086 A  
HETATM   33  C   UNL     1      -6.979  20.103  67.933  1.00  0.00    -0.281 A  
HETATM   34  F   UNL     1      -6.303  21.256  67.830  1.00  0.00    -0.367 F  
HETATM   35 CL   UNL     1      -7.148  20.082  65.232  1.00  0.00    -0.310 Cl 
ENDBRANCH  26  28
ENDBRANCH  12  26
ENDBRANCH   2   3
TORSDOF 7
ENDMDL
MODEL      113
REMARK 921   NORMALIZED FREE ENERGY PREDICTED BY IDOCK:   -5.18 KCAL/MOL
REMARK 922        TOTAL FREE ENERGY PREDICTED BY IDOCK:   -8.22 KCAL/MOL
REMARK 923 INTER-LIGAND FREE ENERGY PREDICTED BY IDOCK:   -7.46 KCAL/MOL
REMARK 924 INTRA-LIGAND FREE ENERGY PREDICTED BY IDOCK:   -0.76 KCAL/MOL
REMARK 927      BINDING AFFINITY PREDICTED BY RF-SCORE:    0.00 PKD
ROOT
HETATM    1  C   UNL     1      -9.492  10.269  63.663  1.00  0.00    -0.299 C  
HETATM    2  O   UNL     1      -9.072  10.493  65.008  1.00  0.00    -0.179 OA 
ENDROOT
BRANCH   2   3
HETATM    3  C   UNL     1      -9.150   9.413  65.852  1.00  0.00    -0.195 A  
HETATM    4  C   UNL     1      -9.546   9.667  67.168  1.00  0.00    -0.166 A  
HETATM    5  N   UNL     1      -8.876   5.805  65.823  1.00  0.00    -0.151 NA 
HETATM    6  C   UNL     1      -9.629   8.603  68.081  1.00  0.00    -0.162 A  
HETATM    7  C   UNL     1      -9.071   7.023  66.331  1.00  0.00    -0.160 A  
HETATM    8  C   UNL     1      -8.980   4.787  66.671  1.00  0.00    -0.111 A  
HETATM    9  C   UNL     1      -9.394   7.263  67.675  1.00  0.00    -0.139 A  
HETATM   10  C   UNL     1      -8.948   8.088  65.456  1.00  0.00    -0.046 A  
HETATM   11  N   UNL     1      -9.245   4.882  67.972  1.00  0.00    -0.118 NA 
HETATM   12  C   UNL     1      -9.442   6.110  68.496  1.00  0.00    -0.119 A  
BRANCH   4  13
HETATM   13  N   UNL     1      -9.876  10.996  67.538  1.00  0.00    -0.168 N  
HETATM   14  H   UNL     1     -10.800  11.356  67.297  1.00  0.00     0.000 HD 
HETATM   15  C   UNL     1      -8.998  11.821  68.210  1.00  0.00    -0.180 C  
HETATM   16  O   UNL     1      -7.839  11.528  68.497  1.00  0.00    -0.128 OA 
BRANCH  15  17
HETATM   17  C   UNL     1      -9.605  13.099  68.689  1.00  0.00    -0.034 C  
HETATM   18  C   UNL     1      -9.086  14.249  68.222  1.00  0.00    -0.188 C  
BRANCH  18  19
HETATM   19  C   UNL     1      -9.416  15.640  68.684  1.00  0.00    -0.204 C  
BRANCH  19  20
HETATM   20  N   UNL     1     -10.419  16.361  67.884  1.00  0.00    -0.297 NA 
HETATM   21  C   UNL     1      -9.436  19.135  67.445  1.00  0.00    -0.362 C  
HETATM   22  C   UNL     1     -10.971  17.503  68.643  1.00  0.00     0.076 C  
HETATM   23  C   UNL     1      -8.911  17.948  66.646  1.00  0.00    -0.285 C  
HETATM   24  C   UNL     1     -10.007  18.691  68.790  1.00  0.00    -0.427 C  
HETATM   25  C   UNL     1      -9.957  16.835  66.570  1.00  0.00    -0.298 C  
ENDBRANCH  19  20
ENDBRANCH  18  19
ENDBRANCH  15  17
ENDBRANCH   4  13
BRANCH  12  26
HETATM   26  N   UNL     1      -9.564   6.237  69.898  1.00  0.00    -0.155 NA 
HETATM   27  H   UNL     1      -8.937   5.635  70.431  1.00  0.00     0.000 HD 
BRANCH  26  28
HETATM   28  C   UNL     1     -10.403   7.051  70.688  1.00  0.00    -0.207 A  
HETATM   29  C   UNL     1     -11.760   6.701  70.799  1.00  0.00    -0.445 A  
HETATM   30  C   UNL     1     -12.681   7.569  71.399  1.00  0.00    -0.348 A  
HETATM   31  C   UNL     1     -10.922   9.150  71.838  1.00  0.00    -0.372 A  
HETATM   32  C   UNL     1     -10.007   8.280  71.239  1.00  0.00    -0.243 A  
HETATM   33  C   UNL     1     -12.260   8.797  71.897  1.00  0.00    -0.361 A  
HETATM   34  F   UNL     1     -13.134   9.664  72.429  1.00  0.00    -0.458 F  
HETATM   35 CL   UNL     1     -14.341   7.119  71.477  1.00  0.00    -0.536 Cl 
ENDBRANCH  26  28
ENDBRANCH  12  26
ENDBRANCH   2   3
TORSDOF 7
ENDMDL
MODEL      114
REMARK 921   NORMALIZED FREE ENERGY PREDICTED BY IDOCK:   -5.14 KCAL/MOL
REMARK 922        TOTAL FREE ENERGY PREDICTED BY IDOCK:   -8.17 KCAL/MOL
REMARK 923 INTER-LIGAND FREE ENERGY PREDICTED BY IDOCK:   -7.19 KCAL/MOL
REMARK 924 INTRA-LIGAND FREE ENERGY PREDICTED BY IDOCK:   -0.98 KCAL/MOL
REMARK 927      BINDING AFFINITY PREDICTED BY RF-SCORE:    0.00 PKD
ROOT
HETATM    1  C   UNL     1      -5.136  15.048  71.201  1.00  0.00    -0.144 C  
HETATM    2  O   UNL     1      -5.295  15.262  69.799  1.00  0.00    -0.096 OA 
ENDROOT
BRANCH   2   3
HETATM    3  C   UNL     1      -6.572  15.530  69.372  1.00  0.00    -0.158 A  
HETATM    4  C   UNL     1      -7.436  14.439  69.239  1.00  0.00    -0.060 A  
HETATM    5  N   UNL     1      -8.746  18.318  68.601  1.00  0.00    -0.300 NA 
HETATM    6  C   UNL     1      -8.750  14.650  68.790  1.00  0.00    -0.166 A  
HETATM    7  C   UNL     1      -8.382  17.044  68.754  1.00  0.00    -0.237 A  
HETATM    8  C   UNL     1      -9.996  18.533  68.204  1.00  0.00    -0.361 A  
HETATM    9  C   UNL     1      -9.243  15.958  68.542  1.00  0.00    -0.200 A  
HETATM   10  C   UNL     1      -7.077  16.814  69.152  1.00  0.00    -0.222 A  
HETATM   11  N   UNL     1     -10.899  17.592  67.936  1.00  0.00    -0.331 NA 
HETATM   12  C   UNL     1     -10.540  16.300  68.086  1.00  0.00    -0.307 A  
BRANCH   4  13
HETATM   13  N   UNL     1      -6.963  13.147  69.585  1.00  0.00    -0.329 N  
HETATM   14  H   UNL     1      -6.970  12.869  70.566  1.00  0.00     0.000 HD 
HETATM   15  C   UNL     1      -6.495  12.250  68.646  1.00  0.00    -0.073 C  
HETATM   16  O   UNL     1      -6.374  12.488  67.447  1.00  0.00    -0.143 OA 
BRANCH  15  17
HETATM   17  C   UNL     1      -6.242  10.879  69.184  1.00  0.00    -0.047 C  
HETATM   18  C   UNL     1      -7.276  10.019  69.208  1.00  0.00    -0.078 C  
BRANCH  18  19
HETATM   19  C   UNL     1      -7.303   8.661  69.851  1.00  0.00    -0.052 C  
BRANCH  19  20
HETATM   20  N   UNL     1      -7.586   7.531  68.951  1.00  0.00    -0.103 NA 
HETATM   21  C   UNL     1     -10.496   7.547  68.331  1.00  0.00    -0.212 C  
HETATM   22  C   UNL     1      -8.515   6.575  69.589  1.00  0.00    -0.131 C  
HETATM   23  C   UNL     1      -9.514   8.496  67.655  1.00  0.00    -0.173 C  
HETATM   24  C   UNL     1      -9.968   7.068  69.680  1.00  0.00    -0.177 C  
HETATM   25  C   UNL     1      -8.108   7.896  67.624  1.00  0.00    -0.124 C  
ENDBRANCH  19  20
ENDBRANCH  18  19
ENDBRANCH  15  17
ENDBRANCH   4  13
BRANCH  12  26
HETATM   26  N   UNL     1     -11.432  15.294  67.651  1.00  0.00    -0.316 NA 
HETATM   27  H   UNL     1     -11.908  15.504  66.774  1.00  0.00     0.000 HD 
BRANCH  26  28
HETATM   28  C   UNL     1     -11.779  14.050  68.221  1.00  0.00    -0.357 A  
HETATM   29  C   UNL     1     -12.222  14.028  69.555  1.00  0.00    -0.355 A  
HETATM   30  C   UNL     1     -12.390  12.817  70.238  1.00  0.00    -0.204 A  
HETATM   31  C   UNL     1     -11.722  11.603  68.272  1.00  0.00    -0.374 A  
HETATM   32  C   UNL     1     -11.556  12.814  67.594  1.00  0.00    -0.412 A  
HETATM   33  C   UNL     1     -12.120  11.612  69.599  1.00  0.00    -0.280 A  
HETATM   34  F   UNL     1     -12.226  10.445  70.249  1.00  0.00    -0.313 F  
HETATM   35 CL   UNL     1     -12.894  12.838  71.884  1.00  0.00    -0.353 Cl 
ENDBRANCH  26  28
ENDBRANCH  12  26
ENDBRANCH   2   3
TORSDOF 7
ENDMDL
MODEL      115
REMARK 921   NORMALIZED FREE ENERGY PREDICTED BY IDOCK:   -5.13 KCAL/MOL
REMARK 922        TOTAL FREE ENERGY PREDICTED BY IDOCK:   -8.15 KCAL/MOL
REMARK 923 INTER-LIGAND FREE ENERGY PREDICTED BY IDOCK:   -6.76 KCAL/MOL
REMARK 924 INTRA-LIGAND FREE ENERGY PREDICTED BY IDOCK:   -1.39 KCAL/MOL
REMARK 927      BINDING AFFINITY PREDICTED BY RF-SCORE:    0.00 PKD
ROOT
HETATM    1  C   UNL     1      -9.914  10.801  63.777  1.00  0.00    -0.351 C  
HETATM    2  O   UNL     1      -8.598  10.597  64.290  1.00  0.00    -0.170 OA 
ENDROOT
BRANCH   2   3
HETATM    3  C   UNL     1      -8.436   9.513  65.118  1.00  0.00    -0.149 A  
HETATM    4  C   UNL     1      -8.384   9.769  66.491  1.00  0.00    -0.124 A  
HETATM    5  N   UNL     1      -8.290   5.899  65.011  1.00  0.00    -0.141 NA 
HETATM    6  C   UNL     1      -8.203   8.701  67.385  1.00  0.00    -0.105 A  
HETATM    7  C   UNL     1      -8.278   7.119  65.552  1.00  0.00    -0.139 A  
HETATM    8  C   UNL     1      -8.148   4.878  65.850  1.00  0.00    -0.108 A  
HETATM    9  C   UNL     1      -8.148   7.358  66.928  1.00  0.00    -0.120 A  
HETATM   10  C   UNL     1      -8.409   8.186  64.681  1.00  0.00    -0.089 A  
HETATM   11  N   UNL     1      -7.982   4.972  67.167  1.00  0.00    -0.099 NA 
HETATM   12  C   UNL     1      -7.967   6.201  67.724  1.00  0.00    -0.106 A  
BRANCH   4  13
HETATM   13  N   UNL     1      -8.540  11.104  66.944  1.00  0.00    -0.143 N  
HETATM   14  H   UNL     1      -9.478  11.440  67.164  1.00  0.00     0.000 HD 
HETATM   15  C   UNL     1      -7.474  11.966  67.098  1.00  0.00    -0.146 C  
HETATM   16  O   UNL     1      -6.311  11.704  66.804  1.00  0.00    -0.144 OA 
BRANCH  15  17
HETATM   17  C   UNL     1      -7.820  13.250  67.780  1.00  0.00    -0.157 C  
HETATM   18  C   UNL     1      -9.114  13.467  68.082  1.00  0.00    -0.207 C  
BRANCH  18  19
HETATM   19  C   UNL     1      -9.715  14.739  68.608  1.00  0.00    -0.225 C  
BRANCH  19  20
HETATM   20  N   UNL     1     -11.147  14.935  68.328  1.00  0.00    -0.270 NA 
HETATM   21  C   UNL     1     -12.648  14.561  70.869  1.00  0.00    -0.414 C  
HETATM   22  C   UNL     1     -11.907  13.697  68.598  1.00  0.00    -0.374 C  
HETATM   23  C   UNL     1     -11.891  15.845  70.551  1.00  0.00    -0.374 C  
HETATM   24  C   UNL     1     -12.084  13.376  70.091  1.00  0.00    -0.415 C  
HETATM   25  C   UNL     1     -11.782  16.055  69.040  1.00  0.00    -0.318 C  
ENDBRANCH  19  20
ENDBRANCH  18  19
ENDBRANCH  15  17
ENDBRANCH   4  13
BRANCH  12  26
HETATM   26  N   UNL     1      -7.632   6.321  69.091  1.00  0.00    -0.097 NA 
HETATM   27  H   UNL     1      -6.643   6.179  69.297  1.00  0.00     0.000 HD 
BRANCH  26  28
HETATM   28  C   UNL     1      -8.429   6.602  70.222  1.00  0.00    -0.135 A  
HETATM   29  C   UNL     1      -9.826   6.611  70.068  1.00  0.00    -0.178 A  
HETATM   30  C   UNL     1     -10.660   7.074  71.092  1.00  0.00    -0.217 A  
HETATM   31  C   UNL     1      -8.742   7.496  72.480  1.00  0.00    -0.163 A  
HETATM   32  C   UNL     1      -7.913   7.033  71.455  1.00  0.00    -0.103 A  
HETATM   33  C   UNL     1     -10.113   7.533  72.285  1.00  0.00    -0.199 A  
HETATM   34  F   UNL     1     -10.890   8.028  73.259  1.00  0.00    -0.410 F  
HETATM   35 CL   UNL     1     -12.364   7.107  70.845  1.00  0.00    -0.367 Cl 
ENDBRANCH  26  28
ENDBRANCH  12  26
ENDBRANCH   2   3
TORSDOF 7
ENDMDL
MODEL      116
REMARK 921   NORMALIZED FREE ENERGY PREDICTED BY IDOCK:   -5.12 KCAL/MOL
REMARK 922        TOTAL FREE ENERGY PREDICTED BY IDOCK:   -8.13 KCAL/MOL
REMARK 923 INTER-LIGAND FREE ENERGY PREDICTED BY IDOCK:   -7.62 KCAL/MOL
REMARK 924 INTRA-LIGAND FREE ENERGY PREDICTED BY IDOCK:   -0.51 KCAL/MOL
REMARK 927      BINDING AFFINITY PREDICTED BY RF-SCORE:    0.00 PKD
ROOT
HETATM    1  C   UNL     1     -10.390  11.483  63.258  1.00  0.00    -0.384 C  
HETATM    2  O   UNL     1      -9.473  11.163  64.304  1.00  0.00    -0.226 OA 
ENDROOT
BRANCH   2   3
HETATM    3  C   UNL     1     -10.011  11.039  65.561  1.00  0.00    -0.256 A  
HETATM    4  C   UNL     1     -10.002   9.762  66.129  1.00  0.00    -0.268 A  
HETATM    5  N   UNL     1     -11.374  13.053  68.240  1.00  0.00    -0.268 NA 
HETATM    6  C   UNL     1     -10.554   9.571  67.406  1.00  0.00    -0.337 A  
HETATM    7  C   UNL     1     -10.983  11.947  67.605  1.00  0.00    -0.235 A  
HETATM    8  C   UNL     1     -11.872  12.889  69.461  1.00  0.00    -0.320 A  
HETATM    9  C   UNL     1     -11.052  10.663  68.165  1.00  0.00    -0.343 A  
HETATM   10  C   UNL     1     -10.478  12.110  66.327  1.00  0.00    -0.270 A  
HETATM   11  N   UNL     1     -12.025  11.725  70.089  1.00  0.00    -0.342 NA 
HETATM   12  C   UNL     1     -11.633  10.601  69.455  1.00  0.00    -0.280 A  
BRANCH   4  13
HETATM   13  N   UNL     1      -9.411   8.695  65.404  1.00  0.00    -0.440 N  
HETATM   14  H   UNL     1      -9.339   8.774  64.389  1.00  0.00     0.000 HD 
HETATM   15  C   UNL     1      -8.929   7.557  66.016  1.00  0.00    -0.127 C  
HETATM   16  O   UNL     1      -9.016   7.314  67.217  1.00  0.00    -0.122 OA 
BRANCH  15  17
HETATM   17  C   UNL     1      -8.161   6.653  65.107  1.00  0.00    -0.133 C  
HETATM   18  C   UNL     1      -8.547   5.366  65.035  1.00  0.00    -0.142 C  
BRANCH  18  19
HETATM   19  C   UNL     1      -7.832   4.249  64.330  1.00  0.00    -0.085 C  
BRANCH  19  20
HETATM   20  N   UNL     1      -8.286   2.888  64.658  1.00  0.00    -0.086 NA 
HETATM   21  C   UNL     1      -6.702   1.917  66.982  1.00  0.00    -0.038 C  
HETATM   22  C   UNL     1      -7.188   1.914  64.488  1.00  0.00    -0.056 C  
HETATM   23  C   UNL     1      -7.865   2.890  67.138  1.00  0.00    -0.074 C  
HETATM   24  C   UNL     1      -6.106   1.984  65.578  1.00  0.00    -0.022 C  
HETATM   25  C   UNL     1      -8.872   2.724  65.998  1.00  0.00    -0.136 C  
ENDBRANCH  19  20
ENDBRANCH  18  19
ENDBRANCH  15  17
ENDBRANCH   4  13
BRANCH  12  26
HETATM   26  N   UNL     1     -11.936   9.352  70.042  1.00  0.00    -0.444 NA 
HETATM   27  H   UNL     1     -12.832   8.958  69.755  1.00  0.00     0.000 HD 
BRANCH  26  28
HETATM   28  C   UNL     1     -11.214   8.555  70.956  1.00  0.00    -0.268 A  
HETATM   29  C   UNL     1     -11.771   7.327  71.356  1.00  0.00    -0.317 A  
HETATM   30  C   UNL     1     -11.207   6.588  72.402  1.00  0.00    -0.275 A  
HETATM   31  C   UNL     1      -9.486   8.247  72.663  1.00  0.00    -0.354 A  
HETATM   32  C   UNL     1     -10.051   8.982  71.618  1.00  0.00    -0.405 A  
HETATM   33  C   UNL     1     -10.080   7.061  73.064  1.00  0.00    -0.211 A  
HETATM   34  F   UNL     1      -9.554   6.394  74.101  1.00  0.00    -0.156 F  
HETATM   35 CL   UNL     1     -11.947   5.110  72.887  1.00  0.00    -0.196 Cl 
ENDBRANCH  26  28
ENDBRANCH  12  26
ENDBRANCH   2   3
TORSDOF 7
ENDMDL
MODEL      117
REMARK 921   NORMALIZED FREE ENERGY PREDICTED BY IDOCK:   -5.11 KCAL/MOL
REMARK 922        TOTAL FREE ENERGY PREDICTED BY IDOCK:   -8.13 KCAL/MOL
REMARK 923 INTER-LIGAND FREE ENERGY PREDICTED BY IDOCK:   -7.09 KCAL/MOL
REMARK 924 INTRA-LIGAND FREE ENERGY PREDICTED BY IDOCK:   -1.04 KCAL/MOL
REMARK 927      BINDING AFFINITY PREDICTED BY RF-SCORE:    0.00 PKD
ROOT
HETATM    1  C   UNL     1      -8.450   9.386  65.705  1.00  0.00    -0.136 C  
HETATM    2  O   UNL     1      -9.765   9.808  66.063  1.00  0.00    -0.215 OA 
ENDROOT
BRANCH   2   3
HETATM    3  C   UNL     1      -9.889  11.115  66.466  1.00  0.00    -0.208 A  
HETATM    4  C   UNL     1      -9.667  11.383  67.820  1.00  0.00    -0.175 A  
HETATM    5  N   UNL     1     -10.429  14.428  65.114  1.00  0.00    -0.389 NA 
HETATM    6  C   UNL     1      -9.796  12.699  68.293  1.00  0.00    -0.227 A  
HETATM    7  C   UNL     1     -10.217  13.495  66.044  1.00  0.00    -0.305 A  
HETATM    8  C   UNL     1     -10.525  15.681  65.546  1.00  0.00    -0.404 A  
HETATM    9  C   UNL     1     -10.072  13.776  67.410  1.00  0.00    -0.244 A  
HETATM   10  C   UNL     1     -10.132  12.186  65.602  1.00  0.00    -0.274 A  
HETATM   11  N   UNL     1     -10.442  16.075  66.815  1.00  0.00    -0.307 NA 
HETATM   12  C   UNL     1     -10.228  15.139  67.763  1.00  0.00    -0.236 A  
BRANCH   4  13
HETATM   13  N   UNL     1      -9.294  10.314  68.675  1.00  0.00    -0.154 N  
HETATM   14  H   UNL     1     -10.013   9.661  68.986  1.00  0.00     0.000 HD 
HETATM   15  C   UNL     1      -7.996  10.124  69.104  1.00  0.00    -0.124 C  
HETATM   16  O   UNL     1      -7.057  10.876  68.856  1.00  0.00    -0.074 OA 
BRANCH  15  17
HETATM   17  C   UNL     1      -7.774   8.833  69.822  1.00  0.00    -0.084 C  
HETATM   18  C   UNL     1      -8.533   7.781  69.463  1.00  0.00    -0.131 C  
BRANCH  18  19
HETATM   19  C   UNL     1      -8.605   6.446  70.149  1.00  0.00    -0.135 C  
BRANCH  19  20
HETATM   20  N   UNL     1      -8.841   5.287  69.273  1.00  0.00    -0.099 NA 
HETATM   21  C   UNL     1      -6.202   4.269  68.351  1.00  0.00    -0.032 C  
HETATM   22  C   UNL     1      -8.347   5.555  67.906  1.00  0.00    -0.099 C  
HETATM   23  C   UNL     1      -6.750   3.971  69.742  1.00  0.00    -0.034 C  
HETATM   24  C   UNL     1      -6.816   5.541  67.772  1.00  0.00    -0.064 C  
HETATM   25  C   UNL     1      -8.278   4.013  69.747  1.00  0.00    -0.054 C  
ENDBRANCH  19  20
ENDBRANCH  18  19
ENDBRANCH  15  17
ENDBRANCH   4  13
BRANCH  12  26
HETATM   26  N   UNL     1     -10.299  15.521  69.121  1.00  0.00    -0.223 NA 
HETATM   27  H   UNL     1      -9.405  15.797  69.528  1.00  0.00     0.000 HD 
BRANCH  26  28
HETATM   28  C   UNL     1     -11.392  15.587  70.012  1.00  0.00    -0.321 A  
HETATM   29  C   UNL     1     -11.166  16.086  71.307  1.00  0.00    -0.281 A  
HETATM   30  C   UNL     1     -12.153  15.993  72.296  1.00  0.00    -0.527 A  
HETATM   31  C   UNL     1     -13.642  14.941  70.728  1.00  0.00    -0.221 A  
HETATM   32  C   UNL     1     -12.655  15.035  69.744  1.00  0.00    -0.145 A  
HETATM   33  C   UNL     1     -13.378  15.403  72.007  1.00  0.00    -0.450 A  
HETATM   34  F   UNL     1     -14.318  15.259  72.952  1.00  0.00    -0.445 F  
HETATM   35 CL   UNL     1     -11.820  16.580  73.880  1.00  0.00    -0.270 Cl 
ENDBRANCH  26  28
ENDBRANCH  12  26
ENDBRANCH   2   3
TORSDOF 7
ENDMDL
MODEL      118
REMARK 921   NORMALIZED FREE ENERGY PREDICTED BY IDOCK:   -5.11 KCAL/MOL
REMARK 922        TOTAL FREE ENERGY PREDICTED BY IDOCK:   -8.12 KCAL/MOL
REMARK 923 INTER-LIGAND FREE ENERGY PREDICTED BY IDOCK:   -7.34 KCAL/MOL
REMARK 924 INTRA-LIGAND FREE ENERGY PREDICTED BY IDOCK:   -0.78 KCAL/MOL
REMARK 927      BINDING AFFINITY PREDICTED BY RF-SCORE:    0.00 PKD
ROOT
HETATM    1  C   UNL     1      -9.821   5.267  67.955  1.00  0.00    -0.149 C  
HETATM    2  O   UNL     1     -10.552   6.295  68.623  1.00  0.00    -0.207 OA 
ENDROOT
BRANCH   2   3
HETATM    3  C   UNL     1     -10.278   7.582  68.228  1.00  0.00    -0.186 A  
HETATM    4  C   UNL     1      -9.949   8.495  69.234  1.00  0.00    -0.195 A  
HETATM    5  N   UNL     1      -9.868   9.570  65.232  1.00  0.00    -0.222 NA 
HETATM    6  C   UNL     1      -9.676   9.829  68.891  1.00  0.00    -0.172 A  
HETATM    7  C   UNL     1      -9.911   9.302  66.538  1.00  0.00    -0.263 A  
HETATM    8  C   UNL     1      -9.582  10.822  64.894  1.00  0.00    -0.256 A  
HETATM    9  C   UNL     1      -9.652  10.253  67.536  1.00  0.00    -0.180 A  
HETATM   10  C   UNL     1     -10.223   8.002  66.896  1.00  0.00    -0.385 A  
HETATM   11  N   UNL     1      -9.352  11.823  65.741  1.00  0.00    -0.218 NA 
HETATM   12  C   UNL     1      -9.394  11.563  67.065  1.00  0.00    -0.178 A  
BRANCH   4  13
HETATM   13  N   UNL     1      -9.879   8.039  70.575  1.00  0.00    -0.182 N  
HETATM   14  H   UNL     1      -9.207   7.308  70.809  1.00  0.00     0.000 HD 
HETATM   15  C   UNL     1     -10.684   8.544  71.575  1.00  0.00    -0.261 C  
HETATM   16  O   UNL     1     -11.574   9.374  71.409  1.00  0.00    -0.323 OA 
BRANCH  15  17
HETATM   17  C   UNL     1     -10.313   8.084  72.948  1.00  0.00    -0.397 C  
HETATM   18  C   UNL     1      -9.015   7.827  73.190  1.00  0.00    -0.270 C  
BRANCH  18  19
HETATM   19  C   UNL     1      -8.436   7.201  74.426  1.00  0.00    -0.191 C  
BRANCH  19  20
HETATM   20  N   UNL     1      -7.171   6.472  74.244  1.00  0.00    -0.091 NA 
HETATM   21  C   UNL     1      -7.571   4.439  72.108  1.00  0.00    -0.080 C  
HETATM   22  C   UNL     1      -7.340   5.039  74.566  1.00  0.00    -0.085 C  
HETATM   23  C   UNL     1      -7.353   5.916  71.797  1.00  0.00    -0.093 C  
HETATM   24  C   UNL     1      -8.131   4.244  73.515  1.00  0.00    -0.090 C  
HETATM   25  C   UNL     1      -6.557   6.596  72.912  1.00  0.00    -0.067 C  
ENDBRANCH  19  20
ENDBRANCH  18  19
ENDBRANCH  15  17
ENDBRANCH   4  13
BRANCH  12  26
HETATM   26  N   UNL     1      -9.311  12.644  67.970  1.00  0.00    -0.204 NA 
HETATM   27  H   UNL     1      -8.364  12.867  68.275  1.00  0.00     0.000 HD 
BRANCH  26  28
HETATM   28  C   UNL     1     -10.313  13.468  68.527  1.00  0.00    -0.240 A  
HETATM   29  C   UNL     1     -10.089  14.856  68.566  1.00  0.00    -0.232 A  
HETATM   30  C   UNL     1     -10.945  15.703  69.279  1.00  0.00    -0.267 A  
HETATM   31  C   UNL     1     -12.305  13.821  69.906  1.00  0.00    -0.334 A  
HETATM   32  C   UNL     1     -11.448  12.979  69.193  1.00  0.00    -0.353 A  
HETATM   33  C   UNL     1     -12.037  15.179  69.962  1.00  0.00    -0.345 A  
HETATM   34  F   UNL     1     -12.841  15.966  70.692  1.00  0.00    -0.472 F  
HETATM   35 CL   UNL     1     -10.610  17.392  69.335  1.00  0.00    -0.157 Cl 
ENDBRANCH  26  28
ENDBRANCH  12  26
ENDBRANCH   2   3
TORSDOF 7
ENDMDL
MODEL      119
REMARK 921   NORMALIZED FREE ENERGY PREDICTED BY IDOCK:   -5.11 KCAL/MOL
REMARK 922        TOTAL FREE ENERGY PREDICTED BY IDOCK:   -8.12 KCAL/MOL
REMARK 923 INTER-LIGAND FREE ENERGY PREDICTED BY IDOCK:   -7.11 KCAL/MOL
REMARK 924 INTRA-LIGAND FREE ENERGY PREDICTED BY IDOCK:   -1.01 KCAL/MOL
REMARK 927      BINDING AFFINITY PREDICTED BY RF-SCORE:    0.00 PKD
ROOT
HETATM    1  C   UNL     1     -13.397  11.916  72.015  1.00  0.00    -0.320 C  
HETATM    2  O   UNL     1     -12.676  10.712  71.756  1.00  0.00    -0.420 OA 
ENDROOT
BRANCH   2   3
HETATM    3  C   UNL     1     -12.004  10.658  70.560  1.00  0.00    -0.352 A  
HETATM    4  C   UNL     1     -11.035   9.658  70.424  1.00  0.00    -0.299 A  
HETATM    5  N   UNL     1     -11.991  12.179  67.277  1.00  0.00    -0.578 NA 
HETATM    6  C   UNL     1     -10.304   9.565  69.229  1.00  0.00    -0.219 A  
HETATM    7  C   UNL     1     -11.608  11.360  68.258  1.00  0.00    -0.306 A  
HETATM    8  C   UNL     1     -11.326  12.081  66.131  1.00  0.00    -0.351 A  
HETATM    9  C   UNL     1     -10.581  10.415  68.126  1.00  0.00    -0.246 A  
HETATM   10  C   UNL     1     -12.287  11.470  69.459  1.00  0.00    -0.190 A  
HETATM   11  N   UNL     1     -10.312  11.253  65.889  1.00  0.00    -0.246 NA 
HETATM   12  C   UNL     1      -9.916  10.421  66.876  1.00  0.00    -0.206 A  
BRANCH   4  13
HETATM   13  N   UNL     1     -10.835   8.750  71.496  1.00  0.00    -0.277 N  
HETATM   14  H   UNL     1     -10.155   8.987  72.218  1.00  0.00     0.000 HD 
HETATM   15  C   UNL     1     -11.525   7.560  71.600  1.00  0.00    -0.261 C  
HETATM   16  O   UNL     1     -12.317   7.132  70.765  1.00  0.00    -0.314 OA 
BRANCH  15  17
HETATM   17  C   UNL     1     -11.326   6.850  72.899  1.00  0.00    -0.199 C  
HETATM   18  C   UNL     1     -10.250   6.050  73.015  1.00  0.00    -0.210 C  
BRANCH  18  19
HETATM   19  C   UNL     1      -9.938   5.117  74.150  1.00  0.00    -0.198 C  
BRANCH  19  20
HETATM   20  N   UNL     1      -9.900   3.686  73.811  1.00  0.00    -0.107 NA 
HETATM   21  C   UNL     1      -7.650   3.242  71.916  1.00  0.00    -0.053 C  
HETATM   22  C   UNL     1     -10.138   3.483  72.367  1.00  0.00    -0.162 C  
HETATM   23  C   UNL     1      -7.431   3.412  73.415  1.00  0.00    -0.057 C  
HETATM   24  C   UNL     1      -8.959   3.887  71.468  1.00  0.00    -0.156 C  
HETATM   25  C   UNL     1      -8.670   2.978  74.200  1.00  0.00    -0.076 C  
ENDBRANCH  19  20
ENDBRANCH  18  19
ENDBRANCH  15  17
ENDBRANCH   4  13
BRANCH  12  26
HETATM   26  N   UNL     1      -8.744   9.656  66.687  1.00  0.00    -0.133 NA 
HETATM   27  H   UNL     1      -7.946  10.186  66.337  1.00  0.00     0.000 HD 
BRANCH  26  28
HETATM   28  C   UNL     1      -8.486   8.284  66.898  1.00  0.00    -0.118 A  
HETATM   29  C   UNL     1      -9.412   7.348  66.408  1.00  0.00    -0.194 A  
HETATM   30  C   UNL     1      -9.319   5.994  66.753  1.00  0.00    -0.138 A  
HETATM   31  C   UNL     1      -7.350   6.450  68.056  1.00  0.00    -0.089 A  
HETATM   32  C   UNL     1      -7.446   7.800  67.708  1.00  0.00    -0.104 A  
HETATM   33  C   UNL     1      -8.301   5.556  67.592  1.00  0.00    -0.100 A  
HETATM   34  F   UNL     1      -8.223   4.274  67.975  1.00  0.00    -0.091 F  
HETATM   35 CL   UNL     1     -10.500   4.888  66.163  1.00  0.00    -0.340 Cl 
ENDBRANCH  26  28
ENDBRANCH  12  26
ENDBRANCH   2   3
TORSDOF 7
ENDMDL
MODEL      120
REMARK 921   NORMALIZED FREE ENERGY PREDICTED BY IDOCK:   -5.11 KCAL/MOL
REMARK 922        TOTAL FREE ENERGY PREDICTED BY IDOCK:   -8.12 KCAL/MOL
REMARK 923 INTER-LIGAND FREE ENERGY PREDICTED BY IDOCK:   -7.25 KCAL/MOL
REMARK 924 INTRA-LIGAND FREE ENERGY PREDICTED BY IDOCK:   -0.87 KCAL/MOL
REMARK 927      BINDING AFFINITY PREDICTED BY RF-SCORE:    0.00 PKD
ROOT
HETATM    1  C   UNL     1     -13.256  11.517  72.093  1.00  0.00    -0.210 C  
HETATM    2  O   UNL     1     -12.518  10.334  71.790  1.00  0.00    -0.397 OA 
ENDROOT
BRANCH   2   3
HETATM    3  C   UNL     1     -11.896  10.309  70.566  1.00  0.00    -0.329 A  
HETATM    4  C   UNL     1     -11.024   9.244  70.322  1.00  0.00    -0.247 A  
HETATM    5  N   UNL     1     -11.867  12.055  67.397  1.00  0.00    -0.591 NA 
HETATM    6  C   UNL     1     -10.347   9.174  69.094  1.00  0.00    -0.223 A  
HETATM    7  C   UNL     1     -11.523  11.139  68.303  1.00  0.00    -0.303 A  
HETATM    8  C   UNL     1     -11.254  11.983  66.220  1.00  0.00    -0.342 A  
HETATM    9  C   UNL     1     -10.588  10.122  68.065  1.00  0.00    -0.273 A  
HETATM   10  C   UNL     1     -12.147  11.219  69.536  1.00  0.00    -0.386 A  
HETATM   11  N   UNL     1     -10.326  11.092  65.881  1.00  0.00    -0.255 NA 
HETATM   12  C   UNL     1      -9.969  10.161  66.791  1.00  0.00    -0.211 A  
BRANCH   4  13
HETATM   13  N   UNL     1     -10.866   8.247  71.320  1.00  0.00    -0.230 N  
HETATM   14  H   UNL     1     -10.408   8.500  72.196  1.00  0.00     0.000 HD 
HETATM   15  C   UNL     1     -11.308   6.951  71.153  1.00  0.00    -0.290 C  
HETATM   16  O   UNL     1     -11.812   6.508  70.124  1.00  0.00    -0.416 OA 
BRANCH  15  17
HETATM   17  C   UNL     1     -11.237   6.117  72.391  1.00  0.00    -0.329 C  
HETATM   18  C   UNL     1     -10.040   5.603  72.728  1.00  0.00    -0.205 C  
BRANCH  18  19
HETATM   19  C   UNL     1      -9.762   4.609  73.820  1.00  0.00    -0.136 C  
BRANCH  19  20
HETATM   20  N   UNL     1      -8.687   3.642  73.548  1.00  0.00    -0.082 NA 
HETATM   21  C   UNL     1      -9.786   1.499  71.801  1.00  0.00    -0.196 C  
HETATM   22  C   UNL     1      -9.032   2.310  74.088  1.00  0.00    -0.073 C  
HETATM   23  C   UNL     1      -9.384   2.866  71.260  1.00  0.00    -0.208 C  
HETATM   24  C   UNL     1     -10.115   1.565  73.290  1.00  0.00    -0.151 C  
HETATM   25  C   UNL     1      -8.304   3.504  72.134  1.00  0.00    -0.079 C  
ENDBRANCH  19  20
ENDBRANCH  18  19
ENDBRANCH  15  17
ENDBRANCH   4  13
BRANCH  12  26
HETATM   26  N   UNL     1      -8.876   9.315  66.502  1.00  0.00    -0.130 NA 
HETATM   27  H   UNL     1      -8.094   9.399  67.152  1.00  0.00     0.000 HD 
BRANCH  26  28
HETATM   28  C   UNL     1      -8.677   8.373  65.469  1.00  0.00    -0.162 A  
HETATM   29  C   UNL     1      -8.578   7.015  65.815  1.00  0.00    -0.138 A  
HETATM   30  C   UNL     1      -8.185   6.058  64.871  1.00  0.00    -0.130 A  
HETATM   31  C   UNL     1      -8.016   7.769  63.190  1.00  0.00    -0.117 A  
HETATM   32  C   UNL     1      -8.409   8.721  64.135  1.00  0.00    -0.155 A  
HETATM   33  C   UNL     1      -7.887   6.443  63.569  1.00  0.00    -0.110 A  
HETATM   34  F   UNL     1      -7.460   5.552  62.664  1.00  0.00    -0.045 F  
HETATM   35 CL   UNL     1      -8.036   4.410  65.349  1.00  0.00    -0.101 Cl 
ENDBRANCH  26  28
ENDBRANCH  12  26
ENDBRANCH   2   3
TORSDOF 7
ENDMDL
MODEL      121
REMARK 921   NORMALIZED FREE ENERGY PREDICTED BY IDOCK:   -5.08 KCAL/MOL
REMARK 922        TOTAL FREE ENERGY PREDICTED BY IDOCK:   -8.08 KCAL/MOL
REMARK 923 INTER-LIGAND FREE ENERGY PREDICTED BY IDOCK:   -6.96 KCAL/MOL
REMARK 924 INTRA-LIGAND FREE ENERGY PREDICTED BY IDOCK:   -1.12 KCAL/MOL
REMARK 927      BINDING AFFINITY PREDICTED BY RF-SCORE:    0.00 PKD
ROOT
HETATM    1  C   UNL     1      -9.530  10.221  63.227  1.00  0.00    -0.300 C  
HETATM    2  O   UNL     1      -9.189  10.353  64.607  1.00  0.00    -0.199 OA 
ENDROOT
BRANCH   2   3
HETATM    3  C   UNL     1      -9.532  11.542  65.201  1.00  0.00    -0.168 A  
HETATM    4  C   UNL     1      -9.143  11.719  66.532  1.00  0.00    -0.203 A  
HETATM    5  N   UNL     1     -11.032  14.741  64.416  1.00  0.00    -0.173 NA 
HETATM    6  C   UNL     1      -9.481  12.909  67.197  1.00  0.00    -0.229 A  
HETATM    7  C   UNL     1     -10.456  13.799  65.166  1.00  0.00    -0.384 A  
HETATM    8  C   UNL     1     -11.331  15.882  65.027  1.00  0.00    -0.193 A  
HETATM    9  C   UNL     1     -10.142  13.969  66.522  1.00  0.00    -0.287 A  
HETATM   10  C   UNL     1     -10.158  12.602  64.539  1.00  0.00    -0.271 A  
HETATM   11  N   UNL     1     -11.119  16.155  66.313  1.00  0.00    -0.013 NA 
HETATM   12  C   UNL     1     -10.537  15.209  67.080  1.00  0.00    -0.300 A  
BRANCH   4  13
HETATM   13  N   UNL     1      -8.395  10.694  67.167  1.00  0.00    -0.124 N  
HETATM   14  H   UNL     1      -8.894   9.896  67.560  1.00  0.00     0.000 HD 
HETATM   15  C   UNL     1      -7.020  10.735  67.275  1.00  0.00    -0.086 C  
HETATM   16  O   UNL     1      -6.314  11.670  66.904  1.00  0.00    -0.134 OA 
BRANCH  15  17
HETATM   17  C   UNL     1      -6.410   9.471  67.786  1.00  0.00    -0.057 C  
HETATM   18  C   UNL     1      -7.021   8.856  68.815  1.00  0.00    -0.063 C  
BRANCH  18  19
HETATM   19  C   UNL     1      -6.505   7.680  69.596  1.00  0.00    -0.031 C  
BRANCH  19  20
HETATM   20  N   UNL     1      -7.529   6.827  70.220  1.00  0.00    -0.088 NA 
HETATM   21  C   UNL     1      -7.823   7.659  73.062  1.00  0.00    -0.138 C  
HETATM   22  C   UNL     1      -6.946   6.030  71.320  1.00  0.00    -0.068 C  
HETATM   23  C   UNL     1      -8.451   8.442  71.914  1.00  0.00    -0.237 C  
HETATM   24  C   UNL     1      -6.626   6.839  72.587  1.00  0.00    -0.062 C  
HETATM   25  C   UNL     1      -8.722   7.531  70.716  1.00  0.00    -0.140 C  
ENDBRANCH  19  20
ENDBRANCH  18  19
ENDBRANCH  15  17
ENDBRANCH   4  13
BRANCH  12  26
HETATM   26  N   UNL     1     -10.454  15.424  68.473  1.00  0.00    -0.230 NA 
HETATM   27  H   UNL     1      -9.634  15.953  68.769  1.00  0.00     0.000 HD 
BRANCH  26  28
HETATM   28  C   UNL     1     -11.309  15.034  69.527  1.00  0.00    -0.288 A  
HETATM   29  C   UNL     1     -11.355  13.674  69.879  1.00  0.00    -0.124 A  
HETATM   30  C   UNL     1     -12.320  13.194  70.773  1.00  0.00    -0.321 A  
HETATM   31  C   UNL     1     -13.203  15.416  71.031  1.00  0.00    -0.560 A  
HETATM   32  C   UNL     1     -12.238  15.891  70.139  1.00  0.00    -0.244 A  
HETATM   33  C   UNL     1     -13.251  14.064  71.328  1.00  0.00    -0.303 A  
HETATM   34  F   UNL     1     -14.215  13.617  72.146  1.00  0.00    -0.517 F  
HETATM   35 CL   UNL     1     -12.367  11.513  71.144  1.00  0.00    -0.427 Cl 
ENDBRANCH  26  28
ENDBRANCH  12  26
ENDBRANCH   2   3
TORSDOF 7
ENDMDL
MODEL      122
REMARK 921   NORMALIZED FREE ENERGY PREDICTED BY IDOCK:   -5.08 KCAL/MOL
REMARK 922        TOTAL FREE ENERGY PREDICTED BY IDOCK:   -8.08 KCAL/MOL
REMARK 923 INTER-LIGAND FREE ENERGY PREDICTED BY IDOCK:   -7.15 KCAL/MOL
REMARK 924 INTRA-LIGAND FREE ENERGY PREDICTED BY IDOCK:   -0.93 KCAL/MOL
REMARK 927      BINDING AFFINITY PREDICTED BY RF-SCORE:    0.00 PKD
ROOT
HETATM    1  C   UNL     1     -12.408   8.242  72.406  1.00  0.00    -0.327 C  
HETATM    2  O   UNL     1     -12.338   7.958  71.010  1.00  0.00    -0.267 OA 
ENDROOT
BRANCH   2   3
HETATM    3  C   UNL     1     -11.272   7.193  70.603  1.00  0.00    -0.280 A  
HETATM    4  C   UNL     1     -10.290   7.833  69.841  1.00  0.00    -0.223 A  
HETATM    5  N   UNL     1      -9.879   3.879  71.014  1.00  0.00    -0.177 NA 
HETATM    6  C   UNL     1      -9.185   7.097  69.384  1.00  0.00    -0.148 A  
HETATM    7  C   UNL     1      -9.965   5.135  70.571  1.00  0.00    -0.234 A  
HETATM    8  C   UNL     1      -8.823   3.181  70.611  1.00  0.00    -0.084 A  
HETATM    9  C   UNL     1      -9.005   5.735  69.744  1.00  0.00    -0.137 A  
HETATM   10  C   UNL     1     -11.071   5.861  70.975  1.00  0.00    -0.315 A  
HETATM   11  N   UNL     1      -7.863   3.621  69.801  1.00  0.00    -0.051 NA 
HETATM   12  C   UNL     1      -7.941   4.889  69.346  1.00  0.00    -0.074 A  
BRANCH   4  13
HETATM   13  N   UNL     1     -10.429   9.218  69.571  1.00  0.00    -0.214 N  
HETATM   14  H   UNL     1     -10.447   9.871  70.355  1.00  0.00     0.000 HD 
HETATM   15  C   UNL     1     -10.541   9.718  68.290  1.00  0.00    -0.229 C  
HETATM   16  O   UNL     1     -10.600   9.034  67.271  1.00  0.00    -0.276 OA 
BRANCH  15  17
HETATM   17  C   UNL     1     -10.467  11.208  68.207  1.00  0.00    -0.215 C  
HETATM   18  C   UNL     1     -11.252  11.822  67.303  1.00  0.00    -0.364 C  
BRANCH  18  19
HETATM   19  C   UNL     1     -11.226  13.277  66.926  1.00  0.00    -0.305 C  
BRANCH  19  20
HETATM   20  N   UNL     1     -10.455  13.613  65.719  1.00  0.00    -0.287 NA 
HETATM   21  C   UNL     1     -12.216  13.212  63.354  1.00  0.00    -0.521 C  
HETATM   22  C   UNL     1     -10.312  12.430  64.843  1.00  0.00    -0.293 C  
HETATM   23  C   UNL     1     -12.318  14.443  64.247  1.00  0.00    -0.402 C  
HETATM   24  C   UNL     1     -11.598  12.033  64.101  1.00  0.00    -0.460 C  
HETATM   25  C   UNL     1     -10.980  14.737  64.927  1.00  0.00    -0.412 C  
ENDBRANCH  19  20
ENDBRANCH  18  19
ENDBRANCH  15  17
ENDBRANCH   4  13
BRANCH  12  26
HETATM   26  N   UNL     1      -7.021   5.314  68.362  1.00  0.00    -0.059 NA 
HETATM   27  H   UNL     1      -6.075   5.471  68.710  1.00  0.00     0.000 HD 
BRANCH  26  28
HETATM   28  C   UNL     1      -7.184   5.560  66.981  1.00  0.00    -0.078 A  
HETATM   29  C   UNL     1      -7.441   6.877  66.564  1.00  0.00    -0.074 A  
HETATM   30  C   UNL     1      -7.807   7.155  65.242  1.00  0.00    -0.121 A  
HETATM   31  C   UNL     1      -7.631   4.820  64.691  1.00  0.00    -0.076 A  
HETATM   32  C   UNL     1      -7.266   4.548  66.012  1.00  0.00    -0.076 A  
HETATM   33  C   UNL     1      -7.920   6.122  64.317  1.00  0.00    -0.118 A  
HETATM   34  F   UNL     1      -8.318   6.360  63.059  1.00  0.00    -0.112 F  
HETATM   35 CL   UNL     1      -8.154   8.778  64.783  1.00  0.00    -0.142 Cl 
ENDBRANCH  26  28
ENDBRANCH  12  26
ENDBRANCH   2   3
TORSDOF 7
ENDMDL
MODEL      123
REMARK 921   NORMALIZED FREE ENERGY PREDICTED BY IDOCK:   -5.03 KCAL/MOL
REMARK 922        TOTAL FREE ENERGY PREDICTED BY IDOCK:   -8.00 KCAL/MOL
REMARK 923 INTER-LIGAND FREE ENERGY PREDICTED BY IDOCK:   -7.02 KCAL/MOL
REMARK 924 INTRA-LIGAND FREE ENERGY PREDICTED BY IDOCK:   -0.98 KCAL/MOL
REMARK 927      BINDING AFFINITY PREDICTED BY RF-SCORE:    0.00 PKD
ROOT
HETATM    1  C   UNL     1      -5.481  14.454  70.965  1.00  0.00    -0.167 C  
HETATM    2  O   UNL     1      -5.167  14.926  69.656  1.00  0.00    -0.089 OA 
ENDROOT
BRANCH   2   3
HETATM    3  C   UNL     1      -6.187  15.549  68.979  1.00  0.00    -0.111 A  
HETATM    4  C   UNL     1      -6.850  14.797  68.005  1.00  0.00    -0.140 A  
HETATM    5  N   UNL     1      -8.066  18.641  68.962  1.00  0.00    -0.188 NA 
HETATM    6  C   UNL     1      -7.891  15.386  67.269  1.00  0.00    -0.237 A  
HETATM    7  C   UNL     1      -7.705  17.415  68.579  1.00  0.00    -0.267 A  
HETATM    8  C   UNL     1      -9.069  19.198  68.292  1.00  0.00    -0.338 A  
HETATM    9  C   UNL     1      -8.335  16.705  67.547  1.00  0.00    -0.189 A  
HETATM   10  C   UNL     1      -6.650  16.836  69.263  1.00  0.00    -0.223 A  
HETATM   11  N   UNL     1      -9.725  18.647  67.273  1.00  0.00    -0.296 NA 
HETATM   12  C   UNL     1      -9.366  17.408  66.877  1.00  0.00    -0.263 A  
BRANCH   4  13
HETATM   13  N   UNL     1      -6.464  13.446  67.804  1.00  0.00    -0.150 N  
HETATM   14  H   UNL     1      -5.616  13.253  67.273  1.00  0.00     0.000 HD 
HETATM   15  C   UNL     1      -7.192  12.384  68.300  1.00  0.00    -0.103 C  
HETATM   16  O   UNL     1      -8.262  12.482  68.896  1.00  0.00     0.051 OA 
BRANCH  15  17
HETATM   17  C   UNL     1      -6.512  11.061  68.162  1.00  0.00    -0.057 C  
HETATM   18  C   UNL     1      -7.262  10.010  67.782  1.00  0.00    -0.087 C  
BRANCH  18  19
HETATM   19  C   UNL     1      -6.840   8.569  67.741  1.00  0.00    -0.067 C  
BRANCH  19  20
HETATM   20  N   UNL     1      -7.871   7.611  67.312  1.00  0.00    -0.115 NA 
HETATM   21  C   UNL     1      -6.805   6.077  64.995  1.00  0.00    -0.051 C  
HETATM   22  C   UNL     1      -8.310   7.898  65.931  1.00  0.00    -0.132 C  
HETATM   23  C   UNL     1      -6.398   5.771  66.432  1.00  0.00    -0.039 C  
HETATM   24  C   UNL     1      -7.287   7.519  64.849  1.00  0.00    -0.079 C  
HETATM   25  C   UNL     1      -7.494   6.191  67.412  1.00  0.00    -0.082 C  
ENDBRANCH  19  20
ENDBRANCH  18  19
ENDBRANCH  15  17
ENDBRANCH   4  13
BRANCH  12  26
HETATM   26  N   UNL     1      -9.943  16.880  65.701  1.00  0.00    -0.583 NA 
HETATM   27  H   UNL     1      -9.628  17.327  64.840  1.00  0.00     0.000 HD 
BRANCH  26  28
HETATM   28  C   UNL     1     -10.880  15.841  65.510  1.00  0.00    -0.332 A  
HETATM   29  C   UNL     1     -11.081  14.925  66.557  1.00  0.00    -0.341 A  
HETATM   30  C   UNL     1     -11.841  13.765  66.362  1.00  0.00    -0.404 A  
HETATM   31  C   UNL     1     -12.263  14.411  64.084  1.00  0.00    -0.393 A  
HETATM   32  C   UNL     1     -11.504  15.567  64.283  1.00  0.00    -0.186 A  
HETATM   33  C   UNL     1     -12.411  13.504  65.121  1.00  0.00    -0.451 A  
HETATM   34  F   UNL     1     -13.100  12.376  64.898  1.00  0.00    -0.535 F  
HETATM   35 CL   UNL     1     -12.029  12.649  67.659  1.00  0.00    -0.380 Cl 
ENDBRANCH  26  28
ENDBRANCH  12  26
ENDBRANCH   2   3
TORSDOF 7
ENDMDL
MODEL      124
REMARK 921   NORMALIZED FREE ENERGY PREDICTED BY IDOCK:   -5.01 KCAL/MOL
REMARK 922        TOTAL FREE ENERGY PREDICTED BY IDOCK:   -7.97 KCAL/MOL
REMARK 923 INTER-LIGAND FREE ENERGY PREDICTED BY IDOCK:   -6.85 KCAL/MOL
REMARK 924 INTRA-LIGAND FREE ENERGY PREDICTED BY IDOCK:   -1.12 KCAL/MOL
REMARK 927      BINDING AFFINITY PREDICTED BY RF-SCORE:    0.00 PKD
ROOT
HETATM    1  C   UNL     1      -7.442   5.092  63.891  1.00  0.00    -0.061 C  
HETATM    2  O   UNL     1      -8.803   4.954  64.297  1.00  0.00    -0.148 OA 
ENDROOT
BRANCH   2   3
HETATM    3  C   UNL     1      -9.008   4.642  65.618  1.00  0.00    -0.138 A  
HETATM    4  C   UNL     1      -9.468   5.671  66.446  1.00  0.00    -0.155 A  
HETATM    5  N   UNL     1      -8.980   1.810  67.871  1.00  0.00    -0.121 NA 
HETATM    6  C   UNL     1      -9.681   5.415  67.810  1.00  0.00    -0.160 A  
HETATM    7  C   UNL     1      -9.123   3.080  67.488  1.00  0.00    -0.180 A  
HETATM    8  C   UNL     1      -9.206   1.550  69.154  1.00  0.00    -0.120 A  
HETATM    9  C   UNL     1      -9.512   4.114  68.352  1.00  0.00    -0.212 A  
HETATM   10  C   UNL     1      -8.873   3.359  66.156  1.00  0.00    -0.137 A  
HETATM   11  N   UNL     1      -9.546   2.444  70.080  1.00  0.00    -0.065 NA 
HETATM   12  C   UNL     1      -9.692   3.732  69.704  1.00  0.00    -0.107 A  
BRANCH   4  13
HETATM   13  N   UNL     1      -9.729   6.943  65.874  1.00  0.00    -0.351 N  
HETATM   14  H   UNL     1     -10.438   7.016  65.145  1.00  0.00     0.000 HD 
HETATM   15  C   UNL     1      -9.061   8.085  66.265  1.00  0.00    -0.186 C  
HETATM   16  O   UNL     1      -8.143   8.117  67.081  1.00  0.00    -0.113 OA 
BRANCH  15  17
HETATM   17  C   UNL     1      -9.623   9.347  65.696  1.00  0.00    -0.345 C  
HETATM   18  C   UNL     1      -9.961  10.323  66.559  1.00  0.00    -0.280 C  
BRANCH  18  19
HETATM   19  C   UNL     1     -10.692  11.596  66.237  1.00  0.00    -0.272 C  
BRANCH  19  20
HETATM   20  N   UNL     1     -10.053  12.468  65.238  1.00  0.00    -0.276 NA 
HETATM   21  C   UNL     1     -12.108  14.356  64.207  1.00  0.00    -0.461 C  
HETATM   22  C   UNL     1     -10.672  12.281  63.909  1.00  0.00    -0.420 C  
HETATM   23  C   UNL     1     -11.427  14.551  65.556  1.00  0.00    -0.343 C  
HETATM   24  C   UNL     1     -12.076  12.892  63.773  1.00  0.00    -0.583 C  
HETATM   25  C   UNL     1     -10.042  13.902  65.567  1.00  0.00    -0.298 C  
ENDBRANCH  19  20
ENDBRANCH  18  19
ENDBRANCH  15  17
ENDBRANCH   4  13
BRANCH  12  26
HETATM   26  N   UNL     1      -9.892   4.711  70.702  1.00  0.00    -0.212 NA 
HETATM   27  H   UNL     1     -10.694   4.536  71.308  1.00  0.00     0.000 HD 
BRANCH  26  28
HETATM   28  C   UNL     1      -9.176   5.889  71.006  1.00  0.00    -0.150 A  
HETATM   29  C   UNL     1      -9.834   7.123  70.870  1.00  0.00    -0.182 A  
HETATM   30  C   UNL     1      -9.129   8.329  70.962  1.00  0.00    -0.158 A  
HETATM   31  C   UNL     1      -7.091   7.119  71.372  1.00  0.00    -0.065 A  
HETATM   32  C   UNL     1      -7.799   5.918  71.279  1.00  0.00    -0.112 A  
HETATM   33  C   UNL     1      -7.758   8.320  71.193  1.00  0.00    -0.094 A  
HETATM   34  F   UNL     1      -7.055   9.461  71.234  1.00  0.00    -0.098 F  
HETATM   35 CL   UNL     1      -9.968   9.818  70.748  1.00  0.00    -0.250 Cl 
ENDBRANCH  26  28
ENDBRANCH  12  26
ENDBRANCH   2   3
TORSDOF 7
ENDMDL
MODEL      125
REMARK 921   NORMALIZED FREE ENERGY PREDICTED BY IDOCK:   -4.99 KCAL/MOL
REMARK 922        TOTAL FREE ENERGY PREDICTED BY IDOCK:   -7.95 KCAL/MOL
REMARK 923 INTER-LIGAND FREE ENERGY PREDICTED BY IDOCK:   -7.32 KCAL/MOL
REMARK 924 INTRA-LIGAND FREE ENERGY PREDICTED BY IDOCK:   -0.64 KCAL/MOL
REMARK 927      BINDING AFFINITY PREDICTED BY RF-SCORE:    0.00 PKD
ROOT
HETATM    1  C   UNL     1      -5.141  12.486  68.037  1.00  0.00    -0.077 C  
HETATM    2  O   UNL     1      -6.088  12.881  67.045  1.00  0.00    -0.268 OA 
ENDROOT
BRANCH   2   3
HETATM    3  C   UNL     1      -7.070  13.746  67.460  1.00  0.00    -0.157 A  
HETATM    4  C   UNL     1      -8.291  13.181  67.839  1.00  0.00    -0.170 A  
HETATM    5  N   UNL     1      -7.599  17.253  68.180  1.00  0.00    -0.204 NA 
HETATM    6  C   UNL     1      -9.338  14.019  68.257  1.00  0.00    -0.208 A  
HETATM    7  C   UNL     1      -7.901  15.959  68.061  1.00  0.00    -0.136 A  
HETATM    8  C   UNL     1      -8.573  18.052  68.602  1.00  0.00    -0.264 A  
HETATM    9  C   UNL     1      -9.158  15.422  68.376  1.00  0.00    -0.191 A  
HETATM   10  C   UNL     1      -6.895  15.125  67.607  1.00  0.00    -0.204 A  
HETATM   11  N   UNL     1      -9.815  17.674  68.898  1.00  0.00    -0.315 NA 
HETATM   12  C   UNL     1     -10.131  16.368  68.780  1.00  0.00    -0.247 A  
BRANCH   4  13
HETATM   13  N   UNL     1      -8.429  11.770  67.812  1.00  0.00    -0.140 N  
HETATM   14  H   UNL     1      -8.875  11.336  67.004  1.00  0.00     0.000 HD 
HETATM   15  C   UNL     1      -7.982  10.959  68.836  1.00  0.00    -0.146 C  
HETATM   16  O   UNL     1      -7.490  11.362  69.887  1.00  0.00     0.230 OA 
BRANCH  15  17
HETATM   17  C   UNL     1      -8.030   9.499  68.524  1.00  0.00    -0.093 C  
HETATM   18  C   UNL     1      -8.710   8.703  69.370  1.00  0.00    -0.139 C  
BRANCH  18  19
HETATM   19  C   UNL     1      -8.754   7.201  69.355  1.00  0.00    -0.134 C  
BRANCH  19  20
HETATM   20  N   UNL     1     -10.056   6.601  69.026  1.00  0.00    -0.156 NA 
HETATM   21  C   UNL     1      -9.620   3.727  68.393  1.00  0.00    -0.172 C  
HETATM   22  C   UNL     1     -10.070   6.109  67.633  1.00  0.00    -0.155 C  
HETATM   23  C   UNL     1      -9.651   4.250  69.824  1.00  0.00    -0.279 C  
HETATM   24  C   UNL     1      -9.248   4.830  67.405  1.00  0.00    -0.142 C  
HETATM   25  C   UNL     1     -10.497   5.520  69.923  1.00  0.00    -0.316 C  
ENDBRANCH  19  20
ENDBRANCH  18  19
ENDBRANCH  15  17
ENDBRANCH   4  13
BRANCH  12  26
HETATM   26  N   UNL     1     -11.481  15.981  68.936  1.00  0.00    -0.365 NA 
HETATM   27  H   UNL     1     -12.108  16.344  68.218  1.00  0.00     0.000 HD 
BRANCH  26  28
HETATM   28  C   UNL     1     -12.112  15.181  69.913  1.00  0.00    -0.336 A  
HETATM   29  C   UNL     1     -12.333  15.734  71.186  1.00  0.00    -0.480 A  
HETATM   30  C   UNL     1     -12.769  14.936  72.251  1.00  0.00    -0.332 A  
HETATM   31  C   UNL     1     -12.823  13.015  70.806  1.00  0.00    -0.150 A  
HETATM   32  C   UNL     1     -12.388  13.815  69.745  1.00  0.00    -0.311 A  
HETATM   33  C   UNL     1     -12.992  13.577  72.060  1.00  0.00    -0.324 A  
HETATM   34  F   UNL     1     -13.361  12.786  73.078  1.00  0.00    -0.296 F  
HETATM   35 CL   UNL     1     -12.986  15.646  73.805  1.00  0.00    -0.640 Cl 
ENDBRANCH  26  28
ENDBRANCH  12  26
ENDBRANCH   2   3
TORSDOF 7
ENDMDL
MODEL      126
REMARK 921   NORMALIZED FREE ENERGY PREDICTED BY IDOCK:   -4.98 KCAL/MOL
REMARK 922        TOTAL FREE ENERGY PREDICTED BY IDOCK:   -7.94 KCAL/MOL
REMARK 923 INTER-LIGAND FREE ENERGY PREDICTED BY IDOCK:   -7.55 KCAL/MOL
REMARK 924 INTRA-LIGAND FREE ENERGY PREDICTED BY IDOCK:   -0.39 KCAL/MOL
REMARK 927      BINDING AFFINITY PREDICTED BY RF-SCORE:    0.00 PKD
ROOT
HETATM    1  C   UNL     1      -9.761   4.442  67.444  1.00  0.00    -0.174 C  
HETATM    2  O   UNL     1      -9.083   5.499  68.122  1.00  0.00    -0.108 OA 
ENDROOT
BRANCH   2   3
HETATM    3  C   UNL     1      -8.841   6.631  67.383  1.00  0.00    -0.116 A  
HETATM    4  C   UNL     1      -9.034   7.858  68.026  1.00  0.00    -0.127 A  
HETATM    5  N   UNL     1      -7.572   7.656  64.153  1.00  0.00    -0.106 NA 
HETATM    6  C   UNL     1      -8.817   9.049  67.315  1.00  0.00    -0.126 A  
HETATM    7  C   UNL     1      -8.074   7.794  65.382  1.00  0.00    -0.131 A  
HETATM    8  C   UNL     1      -7.336   8.777  63.481  1.00  0.00    -0.100 A  
HETATM    9  C   UNL     1      -8.332   9.035  65.981  1.00  0.00    -0.126 A  
HETATM   10  C   UNL     1      -8.336   6.629  66.080  1.00  0.00    -0.130 A  
HETATM   11  N   UNL     1      -7.570  10.011  63.921  1.00  0.00    -0.138 NA 
HETATM   12  C   UNL     1      -8.079  10.162  65.162  1.00  0.00    -0.148 A  
BRANCH   4  13
HETATM   13  N   UNL     1      -9.422   7.861  69.390  1.00  0.00    -0.156 N  
HETATM   14  H   UNL     1      -9.642   6.972  69.839  1.00  0.00     0.000 HD 
HETATM   15  C   UNL     1      -9.516   9.019  70.134  1.00  0.00    -0.195 C  
HETATM   16  O   UNL     1      -9.343  10.153  69.693  1.00  0.00    -0.218 OA 
BRANCH  15  17
HETATM   17  C   UNL     1      -9.735   8.791  71.594  1.00  0.00    -0.366 C  
HETATM   18  C   UNL     1      -9.317   7.622  72.112  1.00  0.00    -0.188 C  
BRANCH  18  19
HETATM   19  C   UNL     1      -9.577   7.107  73.499  1.00  0.00    -0.225 C  
BRANCH  19  20
HETATM   20  N   UNL     1     -10.636   6.092  73.618  1.00  0.00    -0.266 NA 
HETATM   21  C   UNL     1      -9.564   3.510  72.598  1.00  0.00    -0.190 C  
HETATM   22  C   UNL     1     -11.015   5.572  72.287  1.00  0.00    -0.239 C  
HETATM   23  C   UNL     1      -9.220   4.045  73.984  1.00  0.00    -0.099 C  
HETATM   24  C   UNL     1      -9.973   4.637  71.653  1.00  0.00    -0.262 C  
HETATM   25  C   UNL     1     -10.329   4.960  74.507  1.00  0.00    -0.285 C  
ENDBRANCH  19  20
ENDBRANCH  18  19
ENDBRANCH  15  17
ENDBRANCH   4  13
BRANCH  12  26
HETATM   26  N   UNL     1      -8.480  11.451  65.577  1.00  0.00    -0.385 NA 
HETATM   27  H   UNL     1      -7.713  12.057  65.871  1.00  0.00     0.000 HD 
BRANCH  26  28
HETATM   28  C   UNL     1      -9.758  12.046  65.657  1.00  0.00    -0.223 A  
HETATM   29  C   UNL     1     -10.700  11.738  64.660  1.00  0.00    -0.363 A  
HETATM   30  C   UNL     1     -11.908  12.441  64.569  1.00  0.00    -0.384 A  
HETATM   31  C   UNL     1     -11.299  13.757  66.488  1.00  0.00    -0.336 A  
HETATM   32  C   UNL     1     -10.096  13.053  66.576  1.00  0.00    -0.270 A  
HETATM   33  C   UNL     1     -12.192  13.460  65.471  1.00  0.00    -0.455 A  
HETATM   34  F   UNL     1     -13.319  14.179  65.370  1.00  0.00    -0.494 F  
HETATM   35 CL   UNL     1     -13.015  12.059  63.308  1.00  0.00    -0.422 Cl 
ENDBRANCH  26  28
ENDBRANCH  12  26
ENDBRANCH   2   3
TORSDOF 7
ENDMDL
MODEL      127
REMARK 921   NORMALIZED FREE ENERGY PREDICTED BY IDOCK:   -4.97 KCAL/MOL
REMARK 922        TOTAL FREE ENERGY PREDICTED BY IDOCK:   -7.92 KCAL/MOL
REMARK 923 INTER-LIGAND FREE ENERGY PREDICTED BY IDOCK:   -6.86 KCAL/MOL
REMARK 924 INTRA-LIGAND FREE ENERGY PREDICTED BY IDOCK:   -1.07 KCAL/MOL
REMARK 927      BINDING AFFINITY PREDICTED BY RF-SCORE:    0.00 PKD
ROOT
HETATM    1  C   UNL     1      -5.396  12.664  71.449  1.00  0.00    -0.077 C  
HETATM    2  O   UNL     1      -5.892  12.233  70.182  1.00  0.00    -0.136 OA 
ENDROOT
BRANCH   2   3
HETATM    3  C   UNL     1      -6.587  13.169  69.457  1.00  0.00    -0.034 A  
HETATM    4  C   UNL     1      -7.429  12.690  68.449  1.00  0.00    -0.127 A  
HETATM    5  N   UNL     1      -7.227  16.729  69.355  1.00  0.00    -0.181 NA 
HETATM    6  C   UNL     1      -8.153  13.602  67.664  1.00  0.00    -0.179 A  
HETATM    7  C   UNL     1      -7.313  15.450  68.987  1.00  0.00    -0.159 A  
HETATM    8  C   UNL     1      -7.930  17.599  68.637  1.00  0.00    -0.275 A  
HETATM    9  C   UNL     1      -8.106  14.998  67.922  1.00  0.00    -0.142 A  
HETATM   10  C   UNL     1      -6.570  14.542  69.721  1.00  0.00    -0.158 A  
HETATM   11  N   UNL     1      -8.691  17.304  67.585  1.00  0.00    -0.217 NA 
HETATM   12  C   UNL     1      -8.783  16.013  67.204  1.00  0.00    -0.190 A  
BRANCH   4  13
HETATM   13  N   UNL     1      -7.545  11.288  68.265  1.00  0.00    -0.107 N  
HETATM   14  H   UNL     1      -8.105  10.752  68.927  1.00  0.00     0.000 HD 
HETATM   15  C   UNL     1      -6.930  10.622  67.225  1.00  0.00    -0.084 C  
HETATM   16  O   UNL     1      -6.179  11.142  66.403  1.00  0.00    -0.128 OA 
BRANCH  15  17
HETATM   17  C   UNL     1      -7.344   9.193  67.085  1.00  0.00    -0.087 C  
HETATM   18  C   UNL     1      -8.492   8.816  67.678  1.00  0.00    -0.125 C  
BRANCH  18  19
HETATM   19  C   UNL     1      -9.016   7.415  67.816  1.00  0.00    -0.127 C  
BRANCH  19  20
HETATM   20  N   UNL     1      -8.119   6.345  67.349  1.00  0.00    -0.115 NA 
HETATM   21  C   UNL     1      -9.236   3.739  68.250  1.00  0.00    -0.215 C  
HETATM   22  C   UNL     1      -7.538   5.613  68.493  1.00  0.00    -0.085 C  
HETATM   23  C   UNL     1      -9.793   4.492  67.047  1.00  0.00    -0.232 C  
HETATM   24  C   UNL     1      -8.525   4.683  69.216  1.00  0.00    -0.090 C  
HETATM   25  C   UNL     1      -8.720   5.380  66.415  1.00  0.00    -0.121 C  
ENDBRANCH  19  20
ENDBRANCH  18  19
ENDBRANCH  15  17
ENDBRANCH   4  13
BRANCH  12  26
HETATM   26  N   UNL     1      -9.454  15.709  65.999  1.00  0.00    -0.338 NA 
HETATM   27  H   UNL     1      -9.211  16.316  65.216  1.00  0.00     0.000 HD 
BRANCH  26  28
HETATM   28  C   UNL     1     -10.403  14.710  65.690  1.00  0.00    -0.351 A  
HETATM   29  C   UNL     1     -10.048  13.718  64.760  1.00  0.00    -0.259 A  
HETATM   30  C   UNL     1     -11.002  12.822  64.263  1.00  0.00    -0.379 A  
HETATM   31  C   UNL     1     -12.692  13.844  65.635  1.00  0.00    -0.534 A  
HETATM   32  C   UNL     1     -11.737  14.736  66.129  1.00  0.00    -0.255 A  
HETATM   33  C   UNL     1     -12.324  12.903  64.688  1.00  0.00    -0.439 A  
HETATM   34  F   UNL     1     -13.263  12.088  64.187  1.00  0.00    -0.520 F  
HETATM   35 CL   UNL     1     -10.533  11.649  63.093  1.00  0.00    -0.393 Cl 
ENDBRANCH  26  28
ENDBRANCH  12  26
ENDBRANCH   2   3
TORSDOF 7
ENDMDL
MODEL      128
REMARK 921   NORMALIZED FREE ENERGY PREDICTED BY IDOCK:   -4.92 KCAL/MOL
REMARK 922        TOTAL FREE ENERGY PREDICTED BY IDOCK:   -7.86 KCAL/MOL
REMARK 923 INTER-LIGAND FREE ENERGY PREDICTED BY IDOCK:   -7.20 KCAL/MOL
REMARK 924 INTRA-LIGAND FREE ENERGY PREDICTED BY IDOCK:   -0.65 KCAL/MOL
REMARK 927      BINDING AFFINITY PREDICTED BY RF-SCORE:    0.00 PKD
ROOT
HETATM    1  C   UNL     1     -10.868  10.040  65.639  1.00  0.00     0.581 C  
HETATM    2  O   UNL     1     -10.756  10.751  66.871  1.00  0.00    -0.256 OA 
ENDROOT
BRANCH   2   3
HETATM    3  C   UNL     1     -10.602  12.112  66.769  1.00  0.00    -0.226 A  
HETATM    4  C   UNL     1      -9.833  12.737  67.756  1.00  0.00    -0.220 A  
HETATM    5  N   UNL     1     -11.368  14.864  64.547  1.00  0.00    -0.339 NA 
HETATM    6  C   UNL     1      -9.654  14.129  67.712  1.00  0.00    -0.219 A  
HETATM    7  C   UNL     1     -10.877  14.248  65.624  1.00  0.00    -0.309 A  
HETATM    8  C   UNL     1     -11.180  16.177  64.480  1.00  0.00    -0.264 A  
HETATM    9  C   UNL     1     -10.173  14.906  66.643  1.00  0.00    -0.264 A  
HETATM   10  C   UNL     1     -11.084  12.882  65.707  1.00  0.00    -0.312 A  
HETATM   11  N   UNL     1     -10.563  16.922  65.394  1.00  0.00    -0.602 NA 
HETATM   12  C   UNL     1     -10.064  16.309  66.488  1.00  0.00    -0.291 A  
BRANCH   4  13
HETATM   13  N   UNL     1      -9.236  11.938  68.764  1.00  0.00    -0.395 N  
HETATM   14  H   UNL     1      -9.689  11.880  69.676  1.00  0.00     0.000 HD 
HETATM   15  C   UNL     1      -8.066  11.235  68.560  1.00  0.00    -0.148 C  
HETATM   16  O   UNL     1      -7.393  11.275  67.534  1.00  0.00    -0.095 OA 
BRANCH  15  17
HETATM   17  C   UNL     1      -7.717  10.295  69.668  1.00  0.00    -0.166 C  
HETATM   18  C   UNL     1      -8.459   9.179  69.796  1.00  0.00    -0.140 C  
BRANCH  18  19
HETATM   19  C   UNL     1      -8.404   8.185  70.921  1.00  0.00    -0.121 C  
BRANCH  19  20
HETATM   20  N   UNL     1      -7.785   6.889  70.602  1.00  0.00    -0.094 NA 
HETATM   21  C   UNL     1      -9.881   5.120  69.447  1.00  0.00    -0.269 C  
HETATM   22  C   UNL     1      -8.401   5.805  71.396  1.00  0.00    -0.127 C  
HETATM   23  C   UNL     1      -9.202   6.218  68.635  1.00  0.00    -0.124 C  
HETATM   24  C   UNL     1      -9.818   5.416  70.944  1.00  0.00    -0.249 C  
HETATM   25  C   UNL     1      -7.804   6.513  69.179  1.00  0.00    -0.110 C  
ENDBRANCH  19  20
ENDBRANCH  18  19
ENDBRANCH  15  17
ENDBRANCH   4  13
BRANCH  12  26
HETATM   26  N   UNL     1      -9.551  17.106  67.536  1.00  0.00    -0.251 NA 
HETATM   27  H   UNL     1      -9.892  16.851  68.464  1.00  0.00     0.000 HD 
BRANCH  26  28
HETATM   28  C   UNL     1      -8.651  18.192  67.523  1.00  0.00    -0.249 A  
HETATM   29  C   UNL     1      -8.017  18.518  66.311  1.00  0.00    -0.273 A  
HETATM   30  C   UNL     1      -6.972  19.449  66.273  1.00  0.00    -0.229 A  
HETATM   31  C   UNL     1      -7.179  19.797  68.644  1.00  0.00    -0.358 A  
HETATM   32  C   UNL     1      -8.222  18.868  68.677  1.00  0.00    -0.380 A  
HETATM   33  C   UNL     1      -6.545  20.068  67.443  1.00  0.00    -0.213 A  
HETATM   34  F   UNL     1      -5.513  20.924  67.436  1.00  0.00    -0.187 F  
HETATM   35 CL   UNL     1      -6.195  19.788  64.774  1.00  0.00    -0.305 Cl 
ENDBRANCH  26  28
ENDBRANCH  12  26
ENDBRANCH   2   3
TORSDOF 7
ENDMDL
MODEL      129
REMARK 921   NORMALIZED FREE ENERGY PREDICTED BY IDOCK:   -4.92 KCAL/MOL
REMARK 922        TOTAL FREE ENERGY PREDICTED BY IDOCK:   -7.85 KCAL/MOL
REMARK 923 INTER-LIGAND FREE ENERGY PREDICTED BY IDOCK:   -7.37 KCAL/MOL
REMARK 924 INTRA-LIGAND FREE ENERGY PREDICTED BY IDOCK:   -0.49 KCAL/MOL
REMARK 927      BINDING AFFINITY PREDICTED BY RF-SCORE:    0.00 PKD
ROOT
HETATM    1  C   UNL     1     -12.538  11.442  69.461  1.00  0.00     0.129 C  
HETATM    2  O   UNL     1     -11.967  11.246  68.168  1.00  0.00    -0.610 OA 
ENDROOT
BRANCH   2   3
HETATM    3  C   UNL     1     -11.309  12.324  67.630  1.00  0.00    -0.311 A  
HETATM    4  C   UNL     1      -9.956  12.464  67.953  1.00  0.00    -0.204 A  
HETATM    5  N   UNL     1     -11.822  15.051  65.307  1.00  0.00    -0.215 NA 
HETATM    6  C   UNL     1      -9.235  13.557  67.445  1.00  0.00    -0.223 A  
HETATM    7  C   UNL     1     -11.170  14.279  66.178  1.00  0.00    -0.331 A  
HETATM    8  C   UNL     1     -11.142  16.072  64.797  1.00  0.00    -0.365 A  
HETATM    9  C   UNL     1      -9.832  14.481  66.548  1.00  0.00    -0.297 A  
HETATM   10  C   UNL     1     -11.878  13.223  66.724  1.00  0.00    -0.448 A  
HETATM   11  N   UNL     1      -9.884  16.393  65.091  1.00  0.00    -0.291 NA 
HETATM   12  C   UNL     1      -9.216  15.619  65.972  1.00  0.00    -0.339 A  
BRANCH   4  13
HETATM   13  N   UNL     1      -9.343  11.480  68.770  1.00  0.00    -0.367 N  
HETATM   14  H   UNL     1      -9.226  11.673  69.765  1.00  0.00     0.000 HD 
HETATM   15  C   UNL     1      -8.900  10.271  68.273  1.00  0.00    -0.126 C  
HETATM   16  O   UNL     1      -8.923   9.948  67.088  1.00  0.00    -0.137 OA 
BRANCH  15  17
HETATM   17  C   UNL     1      -8.479   9.296  69.323  1.00  0.00    -0.137 C  
HETATM   18  C   UNL     1      -8.885   8.020  69.188  1.00  0.00    -0.145 C  
BRANCH  18  19
HETATM   19  C   UNL     1      -8.730   6.914  70.192  1.00  0.00    -0.141 C  
BRANCH  19  20
HETATM   20  N   UNL     1      -9.353   5.629  69.833  1.00  0.00    -0.144 NA 
HETATM   21  C   UNL     1      -7.426   4.101  68.159  1.00  0.00    -0.067 C  
HETATM   22  C   UNL     1      -9.522   5.521  68.369  1.00  0.00    -0.118 C  
HETATM   23  C   UNL     1      -7.295   4.192  69.675  1.00  0.00    -0.050 C  
HETATM   24  C   UNL     1      -8.215   5.281  67.597  1.00  0.00    -0.099 C  
HETATM   25  C   UNL     1      -8.657   4.430  70.327  1.00  0.00    -0.076 C  
ENDBRANCH  19  20
ENDBRANCH  18  19
ENDBRANCH  15  17
ENDBRANCH   4  13
BRANCH  12  26
HETATM   26  N   UNL     1      -7.941  16.039  66.413  1.00  0.00    -0.239 NA 
HETATM   27  H   UNL     1      -7.284  15.279  66.587  1.00  0.00     0.000 HD 
BRANCH  26  28
HETATM   28  C   UNL     1      -7.420  17.329  66.654  1.00  0.00    -0.252 A  
HETATM   29  C   UNL     1      -7.198  17.720  67.986  1.00  0.00    -0.218 A  
HETATM   30  C   UNL     1      -6.874  19.045  68.302  1.00  0.00    -0.246 A  
HETATM   31  C   UNL     1      -6.938  19.630  65.971  1.00  0.00    -0.280 A  
HETATM   32  C   UNL     1      -7.261  18.307  65.659  1.00  0.00    -0.137 A  
HETATM   33  C   UNL     1      -6.765  19.997  67.295  1.00  0.00    -0.218 A  
HETATM   34  F   UNL     1      -6.506  21.281  67.581  1.00  0.00    -0.363 F  
HETATM   35 CL   UNL     1      -6.651  19.490  69.951  1.00  0.00    -0.299 Cl 
ENDBRANCH  26  28
ENDBRANCH  12  26
ENDBRANCH   2   3
TORSDOF 7
ENDMDL
MODEL      130
REMARK 921   NORMALIZED FREE ENERGY PREDICTED BY IDOCK:   -4.92 KCAL/MOL
REMARK 922        TOTAL FREE ENERGY PREDICTED BY IDOCK:   -7.85 KCAL/MOL
REMARK 923 INTER-LIGAND FREE ENERGY PREDICTED BY IDOCK:   -6.81 KCAL/MOL
REMARK 924 INTRA-LIGAND FREE ENERGY PREDICTED BY IDOCK:   -1.04 KCAL/MOL
REMARK 927      BINDING AFFINITY PREDICTED BY RF-SCORE:    0.00 PKD
ROOT
HETATM    1  C   UNL     1      -7.933  13.271  67.476  1.00  0.00    -0.184 C  
HETATM    2  O   UNL     1      -7.704  11.952  67.969  1.00  0.00    -0.115 OA 
ENDROOT
BRANCH   2   3
HETATM    3  C   UNL     1      -7.660  10.955  67.026  1.00  0.00    -0.122 A  
HETATM    4  C   UNL     1      -8.771  10.109  66.947  1.00  0.00    -0.129 A  
HETATM    5  N   UNL     1      -5.605   9.766  64.295  1.00  0.00    -0.076 NA 
HETATM    6  C   UNL     1      -8.775   9.062  66.012  1.00  0.00    -0.184 A  
HETATM    7  C   UNL     1      -6.639   9.797  65.138  1.00  0.00    -0.100 A  
HETATM    8  C   UNL     1      -5.612   8.796  63.386  1.00  0.00    -0.072 A  
HETATM    9  C   UNL     1      -7.708   8.891  65.091  1.00  0.00    -0.102 A  
HETATM   10  C   UNL     1      -6.629  10.795  66.096  1.00  0.00    -0.127 A  
HETATM   11  N   UNL     1      -6.546   7.856  63.259  1.00  0.00    -0.074 NA 
HETATM   12  C   UNL     1      -7.595   7.878  64.108  1.00  0.00    -0.112 A  
BRANCH   4  13
HETATM   13  N   UNL     1      -9.875  10.350  67.805  1.00  0.00    -0.166 N  
HETATM   14  H   UNL     1      -9.867   9.943  68.740  1.00  0.00     0.000 HD 
HETATM   15  C   UNL     1     -10.959  11.115  67.424  1.00  0.00    -0.290 C  
HETATM   16  O   UNL     1     -11.117  11.603  66.308  1.00  0.00    -0.299 OA 
BRANCH  15  17
HETATM   17  C   UNL     1     -11.910  11.421  68.534  1.00  0.00    -0.364 C  
HETATM   18  C   UNL     1     -11.911  10.598  69.599  1.00  0.00    -0.340 C  
BRANCH  18  19
HETATM   19  C   UNL     1     -12.884  10.607  70.744  1.00  0.00    -0.352 C  
BRANCH  19  20
HETATM   20  N   UNL     1     -12.458   9.886  71.954  1.00  0.00    -0.378 NA 
HETATM   21  C   UNL     1     -12.626   6.967  71.400  1.00  0.00    -0.428 C  
HETATM   22  C   UNL     1     -13.563   9.063  72.489  1.00  0.00    -0.435 C  
HETATM   23  C   UNL     1     -11.475   7.828  70.893  1.00  0.00    -0.294 C  
HETATM   24  C   UNL     1     -13.875   7.806  71.660  1.00  0.00    -0.465 C  
HETATM   25  C   UNL     1     -11.262   9.043  71.798  1.00  0.00    -0.378 C  
ENDBRANCH  19  20
ENDBRANCH  18  19
ENDBRANCH  15  17
ENDBRANCH   4  13
BRANCH  12  26
HETATM   26  N   UNL     1      -8.504   6.797  64.088  1.00  0.00    -0.335 NA 
HETATM   27  H   UNL     1      -9.410   7.017  63.673  1.00  0.00     0.000 HD 
BRANCH  26  28
HETATM   28  C   UNL     1      -8.378   5.467  64.544  1.00  0.00    -0.138 A  
HETATM   29  C   UNL     1      -8.957   4.441  63.776  1.00  0.00    -0.143 A  
HETATM   30  C   UNL     1      -9.040   3.133  64.268  1.00  0.00    -0.116 A  
HETATM   31  C   UNL     1      -7.933   3.812  66.292  1.00  0.00    -0.089 A  
HETATM   32  C   UNL     1      -7.852   5.116  65.797  1.00  0.00    -0.095 A  
HETATM   33  C   UNL     1      -8.546   2.830  65.531  1.00  0.00    -0.110 A  
HETATM   34  F   UNL     1      -8.661   1.595  66.042  1.00  0.00    -0.089 F  
HETATM   35 CL   UNL     1      -9.795   1.917  63.311  1.00  0.00    -0.106 Cl 
ENDBRANCH  26  28
ENDBRANCH  12  26
ENDBRANCH   2   3
TORSDOF 7
ENDMDL
MODEL      131
REMARK 921   NORMALIZED FREE ENERGY PREDICTED BY IDOCK:   -4.92 KCAL/MOL
REMARK 922        TOTAL FREE ENERGY PREDICTED BY IDOCK:   -7.85 KCAL/MOL
REMARK 923 INTER-LIGAND FREE ENERGY PREDICTED BY IDOCK:   -6.81 KCAL/MOL
REMARK 924 INTRA-LIGAND FREE ENERGY PREDICTED BY IDOCK:   -1.04 KCAL/MOL
REMARK 927      BINDING AFFINITY PREDICTED BY RF-SCORE:    0.00 PKD
ROOT
HETATM    1  C   UNL     1      -7.744   5.250  63.276  1.00  0.00    -0.075 C  
HETATM    2  O   UNL     1      -8.514   6.059  64.165  1.00  0.00    -0.042 OA 
ENDROOT
BRANCH   2   3
HETATM    3  C   UNL     1      -8.211   5.944  65.499  1.00  0.00    -0.137 A  
HETATM    4  C   UNL     1      -8.741   6.916  66.353  1.00  0.00    -0.142 A  
HETATM    5  N   UNL     1      -6.557   3.714  67.820  1.00  0.00    -0.041 NA 
HETATM    6  C   UNL     1      -8.452   6.859  67.726  1.00  0.00    -0.123 A  
HETATM    7  C   UNL     1      -7.235   4.788  67.412  1.00  0.00    -0.073 A  
HETATM    8  C   UNL     1      -6.301   3.634  69.121  1.00  0.00    -0.029 A  
HETATM    9  C   UNL     1      -7.694   5.792  68.277  1.00  0.00    -0.093 A  
HETATM   10  C   UNL     1      -7.491   4.884  66.056  1.00  0.00    -0.082 A  
HETATM   11  N   UNL     1      -6.649   4.534  70.038  1.00  0.00    -0.032 NA 
HETATM   12  C   UNL     1      -7.334   5.625  69.636  1.00  0.00    -0.066 A  
BRANCH   4  13
HETATM   13  N   UNL     1      -9.579   7.922  65.807  1.00  0.00    -0.394 N  
HETATM   14  H   UNL     1     -10.558   7.699  65.626  1.00  0.00     0.000 HD 
HETATM   15  C   UNL     1      -9.123   9.189  65.510  1.00  0.00    -0.219 C  
HETATM   16  O   UNL     1      -7.957   9.559  65.618  1.00  0.00    -0.104 OA 
BRANCH  15  17
HETATM   17  C   UNL     1     -10.201  10.156  65.143  1.00  0.00    -0.233 C  
HETATM   18  C   UNL     1      -9.847  11.249  64.442  1.00  0.00    -0.316 C  
BRANCH  18  19
HETATM   19  C   UNL     1     -10.716  12.428  64.110  1.00  0.00    -0.379 C  
BRANCH  19  20
HETATM   20  N   UNL     1     -11.460  13.014  65.238  1.00  0.00    -0.301 NA 
HETATM   21  C   UNL     1     -10.711  15.886  65.449  1.00  0.00    -0.415 C  
HETATM   22  C   UNL     1     -10.532  13.493  66.284  1.00  0.00    -0.290 C  
HETATM   23  C   UNL     1     -11.697  15.375  64.405  1.00  0.00    -0.261 C  
HETATM   24  C   UNL     1      -9.772  14.777  65.916  1.00  0.00    -0.355 C  
HETATM   25  C   UNL     1     -12.389  14.099  64.885  1.00  0.00    -0.430 C  
ENDBRANCH  19  20
ENDBRANCH  18  19
ENDBRANCH  15  17
ENDBRANCH   4  13
BRANCH  12  26
HETATM   26  N   UNL     1      -7.567   6.660  70.569  1.00  0.00    -0.096 NA 
HETATM   27  H   UNL     1      -6.768   6.878  71.165  1.00  0.00     0.000 HD 
BRANCH  26  28
HETATM   28  C   UNL     1      -8.713   7.446  70.819  1.00  0.00    -0.145 A  
HETATM   29  C   UNL     1      -9.880   6.800  71.263  1.00  0.00    -0.186 A  
HETATM   30  C   UNL     1     -11.098   7.486  71.338  1.00  0.00    -0.238 A  
HETATM   31  C   UNL     1     -10.026   9.497  70.571  1.00  0.00    -0.335 A  
HETATM   32  C   UNL     1      -8.812   8.809  70.498  1.00  0.00    -0.200 A  
HETATM   33  C   UNL     1     -11.169   8.826  70.972  1.00  0.00    -0.273 A  
HETATM   34  F   UNL     1     -12.335   9.487  70.988  1.00  0.00    -0.327 F  
HETATM   35 CL   UNL     1     -12.512   6.645  71.847  1.00  0.00    -0.376 Cl 
ENDBRANCH  26  28
ENDBRANCH  12  26
ENDBRANCH   2   3
TORSDOF 7
ENDMDL
MODEL      132
REMARK 921   NORMALIZED FREE ENERGY PREDICTED BY IDOCK:   -4.86 KCAL/MOL
REMARK 922        TOTAL FREE ENERGY PREDICTED BY IDOCK:   -7.77 KCAL/MOL
REMARK 923 INTER-LIGAND FREE ENERGY PREDICTED BY IDOCK:   -6.92 KCAL/MOL
REMARK 924 INTRA-LIGAND FREE ENERGY PREDICTED BY IDOCK:   -0.85 KCAL/MOL
REMARK 927      BINDING AFFINITY PREDICTED BY RF-SCORE:    0.00 PKD
ROOT
HETATM    1  C   UNL     1     -11.829   5.966  72.481  1.00  0.00    -0.185 C  
HETATM    2  O   UNL     1     -10.604   6.552  72.043  1.00  0.00    -0.211 OA 
ENDROOT
BRANCH   2   3
HETATM    3  C   UNL     1     -10.708   7.775  71.427  1.00  0.00    -0.222 A  
HETATM    4  C   UNL     1      -9.947   7.968  70.270  1.00  0.00    -0.189 A  
HETATM    5  N   UNL     1     -12.570  10.871  71.635  1.00  0.00    -0.364 NA 
HETATM    6  C   UNL     1     -10.001   9.204  69.607  1.00  0.00    -0.198 A  
HETATM    7  C   UNL     1     -11.681   9.996  71.162  1.00  0.00    -0.387 A  
HETATM    8  C   UNL     1     -12.651  12.035  70.998  1.00  0.00    -0.273 A  
HETATM    9  C   UNL     1     -10.871  10.238  70.043  1.00  0.00    -0.364 A  
HETATM   10  C   UNL     1     -11.581   8.789  71.831  1.00  0.00    -0.432 A  
HETATM   11  N   UNL     1     -11.916  12.400  69.949  1.00  0.00    -0.324 NA 
HETATM   12  C   UNL     1     -11.013  11.523  69.465  1.00  0.00    -0.125 A  
BRANCH   4  13
HETATM   13  N   UNL     1      -9.157   6.893  69.786  1.00  0.00    -0.144 N  
HETATM   14  H   UNL     1      -8.205   6.789  70.136  1.00  0.00     0.000 HD 
HETATM   15  C   UNL     1      -9.626   5.984  68.860  1.00  0.00    -0.126 C  
HETATM   16  O   UNL     1     -10.725   6.039  68.315  1.00  0.00    -0.241 OA 
BRANCH  15  17
HETATM   17  C   UNL     1      -8.721   4.815  68.640  1.00  0.00    -0.111 C  
HETATM   18  C   UNL     1      -8.625   4.328  67.389  1.00  0.00    -0.107 C  
BRANCH  18  19
HETATM   19  C   UNL     1      -7.919   3.072  66.963  1.00  0.00    -0.079 C  
BRANCH  19  20
HETATM   20  N   UNL     1      -6.457   3.070  67.131  1.00  0.00    -0.036 NA 
HETATM   21  C   UNL     1      -5.214   2.986  64.428  1.00  0.00    -0.009 C  
HETATM   22  C   UNL     1      -5.871   1.825  66.591  1.00  0.00    -0.019 C  
HETATM   23  C   UNL     1      -5.788   4.268  65.022  1.00  0.00    -0.022 C  
HETATM   24  C   UNL     1      -5.851   1.749  65.056  1.00  0.00    -0.017 C  
HETATM   25  C   UNL     1      -5.753   4.224  66.551  1.00  0.00    -0.018 C  
ENDBRANCH  19  20
ENDBRANCH  18  19
ENDBRANCH  15  17
ENDBRANCH   4  13
BRANCH  12  26
HETATM   26  N   UNL     1     -10.120  11.956  68.460  1.00  0.00    -0.226 NA 
HETATM   27  H   UNL     1      -9.253  11.420  68.407  1.00  0.00     0.000 HD 
BRANCH  26  28
HETATM   28  C   UNL     1     -10.218  13.002  67.517  1.00  0.00    -0.221 A  
HETATM   29  C   UNL     1     -10.270  14.324  67.991  1.00  0.00    -0.226 A  
HETATM   30  C   UNL     1     -10.566  15.387  67.128  1.00  0.00    -0.305 A  
HETATM   31  C   UNL     1     -10.727  13.857  65.280  1.00  0.00    -0.352 A  
HETATM   32  C   UNL     1     -10.431  12.799  66.144  1.00  0.00    -0.284 A  
HETATM   33  C   UNL     1     -10.813  15.145  65.781  1.00  0.00    -0.353 A  
HETATM   34  F   UNL     1     -11.147  16.141  64.949  1.00  0.00    -0.396 F  
HETATM   35 CL   UNL     1     -10.660  16.986  67.759  1.00  0.00    -0.352 Cl 
ENDBRANCH  26  28
ENDBRANCH  12  26
ENDBRANCH   2   3
TORSDOF 7
ENDMDL
MODEL      133
REMARK 921   NORMALIZED FREE ENERGY PREDICTED BY IDOCK:   -4.82 KCAL/MOL
REMARK 922        TOTAL FREE ENERGY PREDICTED BY IDOCK:   -7.71 KCAL/MOL
REMARK 923 INTER-LIGAND FREE ENERGY PREDICTED BY IDOCK:   -6.72 KCAL/MOL
REMARK 924 INTRA-LIGAND FREE ENERGY PREDICTED BY IDOCK:   -0.99 KCAL/MOL
REMARK 927      BINDING AFFINITY PREDICTED BY RF-SCORE:    0.00 PKD
ROOT
HETATM    1  C   UNL     1     -11.211   6.888  70.985  1.00  0.00    -0.282 C  
HETATM    2  O   UNL     1     -10.057   7.530  70.445  1.00  0.00    -0.194 OA 
ENDROOT
BRANCH   2   3
HETATM    3  C   UNL     1     -10.230   8.823  70.018  1.00  0.00    -0.198 A  
HETATM    4  C   UNL     1      -9.421   9.254  68.962  1.00  0.00    -0.155 A  
HETATM    5  N   UNL     1     -12.366  11.694  70.558  1.00  0.00    -0.341 NA 
HETATM    6  C   UNL     1      -9.543  10.572  68.493  1.00  0.00    -0.164 A  
HETATM    7  C   UNL     1     -11.377  10.976  70.024  1.00  0.00    -0.277 A  
HETATM    8  C   UNL     1     -12.510  12.934  70.103  1.00  0.00    -0.074 A  
HETATM    9  C   UNL     1     -10.525  11.453  69.017  1.00  0.00    -0.196 A  
HETATM   10  C   UNL     1     -11.212   9.690  70.506  1.00  0.00    -0.359 A  
HETATM   11  N   UNL     1     -11.749  13.516  69.179  1.00  0.00    -0.305 NA 
HETATM   12  C   UNL     1     -10.744  12.798  68.633  1.00  0.00    -0.246 A  
BRANCH   4  13
HETATM   13  N   UNL     1      -8.512   8.334  68.379  1.00  0.00    -0.128 N  
HETATM   14  H   UNL     1      -7.561   8.287  68.745  1.00  0.00     0.000 HD 
HETATM   15  C   UNL     1      -8.863   7.501  67.337  1.00  0.00    -0.127 C  
HETATM   16  O   UNL     1      -9.952   7.509  66.767  1.00  0.00    -0.219 OA 
BRANCH  15  17
HETATM   17  C   UNL     1      -7.836   6.468  67.007  1.00  0.00    -0.108 C  
HETATM   18  C   UNL     1      -8.155   5.179  67.226  1.00  0.00    -0.104 C  
BRANCH  18  19
HETATM   19  C   UNL     1      -7.235   3.995  67.131  1.00  0.00    -0.068 C  
BRANCH  19  20
HETATM   20  N   UNL     1      -7.890   2.683  67.006  1.00  0.00    -0.070 NA 
HETATM   21  C   UNL     1      -7.620   1.776  64.185  1.00  0.00    -0.059 C  
HETATM   22  C   UNL     1      -9.026   2.752  66.063  1.00  0.00    -0.142 C  
HETATM   23  C   UNL     1      -6.475   1.676  65.187  1.00  0.00    -0.023 C  
HETATM   24  C   UNL     1      -8.615   2.862  64.586  1.00  0.00    -0.100 C  
HETATM   25  C   UNL     1      -7.008   1.571  66.616  1.00  0.00    -0.042 C  
ENDBRANCH  19  20
ENDBRANCH  18  19
ENDBRANCH  15  17
ENDBRANCH   4  13
BRANCH  12  26
HETATM   26  N   UNL     1      -9.834  13.453  67.774  1.00  0.00    -0.227 NA 
HETATM   27  H   UNL     1      -8.965  12.943  67.613  1.00  0.00     0.000 HD 
BRANCH  26  28
HETATM   28  C   UNL     1      -9.918  14.690  67.099  1.00  0.00    -0.240 A  
HETATM   29  C   UNL     1      -9.555  15.856  67.796  1.00  0.00    -0.218 A  
HETATM   30  C   UNL     1      -9.802  17.124  67.256  1.00  0.00    -0.265 A  
HETATM   31  C   UNL     1     -10.743  16.114  65.286  1.00  0.00    -0.386 A  
HETATM   32  C   UNL     1     -10.494  14.851  65.829  1.00  0.00    -0.345 A  
HETATM   33  C   UNL     1     -10.413  17.246  66.013  1.00  0.00    -0.282 A  
HETATM   34  F   UNL     1     -10.705  18.450  65.501  1.00  0.00    -0.456 F  
HETATM   35 CL   UNL     1      -9.380  18.526  68.163  1.00  0.00    -0.319 Cl 
ENDBRANCH  26  28
ENDBRANCH  12  26
ENDBRANCH   2   3
TORSDOF 7
ENDMDL
MODEL      134
REMARK 921   NORMALIZED FREE ENERGY PREDICTED BY IDOCK:   -4.79 KCAL/MOL
REMARK 922        TOTAL FREE ENERGY PREDICTED BY IDOCK:   -7.67 KCAL/MOL
REMARK 923 INTER-LIGAND FREE ENERGY PREDICTED BY IDOCK:   -6.52 KCAL/MOL
REMARK 924 INTRA-LIGAND FREE ENERGY PREDICTED BY IDOCK:   -1.15 KCAL/MOL
REMARK 927      BINDING AFFINITY PREDICTED BY RF-SCORE:    0.00 PKD
ROOT
HETATM    1  C   UNL     1     -10.822   4.850  73.562  1.00  0.00    -0.305 C  
HETATM    2  O   UNL     1     -10.041   5.496  72.558  1.00  0.00    -0.171 OA 
ENDROOT
BRANCH   2   3
HETATM    3  C   UNL     1     -10.606   6.605  71.977  1.00  0.00    -0.211 A  
HETATM    4  C   UNL     1     -10.250   6.875  70.652  1.00  0.00    -0.195 A  
HETATM    5  N   UNL     1     -13.057   9.182  72.644  1.00  0.00    -0.372 NA 
HETATM    6  C   UNL     1     -10.783   8.004  70.011  1.00  0.00    -0.244 A  
HETATM    7  C   UNL     1     -12.135   8.504  71.957  1.00  0.00    -0.364 A  
HETATM    8  C   UNL     1     -13.591  10.237  72.037  1.00  0.00    -0.186 A  
HETATM    9  C   UNL     1     -11.736   8.836  70.655  1.00  0.00    -0.194 A  
HETATM   10  C   UNL     1     -11.565   7.415  72.591  1.00  0.00    -0.295 A  
HETATM   11  N   UNL     1     -13.274  10.676  70.821  1.00  0.00    -0.212 NA 
HETATM   12  C   UNL     1     -12.342   9.999  70.119  1.00  0.00    -0.000 A  
BRANCH   4  13
HETATM   13  N   UNL     1      -9.374   5.980  69.984  1.00  0.00    -0.151 N  
HETATM   14  H   UNL     1      -9.742   5.088  69.655  1.00  0.00     0.000 HD 
HETATM   15  C   UNL     1      -8.043   6.269  69.764  1.00  0.00    -0.120 C  
HETATM   16  O   UNL     1      -7.466   7.275  70.169  1.00  0.00    -0.084 OA 
BRANCH  15  17
HETATM   17  C   UNL     1      -7.347   5.298  68.867  1.00  0.00    -0.070 C  
HETATM   18  C   UNL     1      -7.656   5.326  67.558  1.00  0.00    -0.088 C  
BRANCH  18  19
HETATM   19  C   UNL     1      -7.217   4.347  66.507  1.00  0.00    -0.079 C  
BRANCH  19  20
HETATM   20  N   UNL     1      -7.611   4.668  65.126  1.00  0.00    -0.076 NA 
HETATM   21  C   UNL     1      -8.446   2.145  63.788  1.00  0.00    -0.082 C  
HETATM   22  C   UNL     1      -6.730   3.982  64.157  1.00  0.00    -0.044 C  
HETATM   23  C   UNL     1      -9.353   2.892  64.759  1.00  0.00    -0.147 C  
HETATM   24  C   UNL     1      -6.975   2.470  64.040  1.00  0.00    -0.040 C  
HETATM   25  C   UNL     1      -9.014   4.383  64.787  1.00  0.00    -0.149 C  
ENDBRANCH  19  20
ENDBRANCH  18  19
ENDBRANCH  15  17
ENDBRANCH   4  13
BRANCH  12  26
HETATM   26  N   UNL     1     -11.883  10.546  68.900  1.00  0.00    -0.619 NA 
HETATM   27  H   UNL     1     -12.174  10.029  68.070  1.00  0.00     0.000 HD 
BRANCH  26  28
HETATM   28  C   UNL     1     -11.091  11.683  68.630  1.00  0.00    -0.234 A  
HETATM   29  C   UNL     1     -11.664  12.953  68.813  1.00  0.00    -0.363 A  
HETATM   30  C   UNL     1     -11.006  14.110  68.378  1.00  0.00    -0.254 A  
HETATM   31  C   UNL     1      -9.160  12.780  67.600  1.00  0.00    -0.193 A  
HETATM   32  C   UNL     1      -9.820  11.628  68.036  1.00  0.00    -0.193 A  
HETATM   33  C   UNL     1      -9.766  14.015  67.756  1.00  0.00    -0.228 A  
HETATM   34  F   UNL     1      -9.142  15.105  67.286  1.00  0.00    -0.177 F  
HETATM   35 CL   UNL     1     -11.763  15.642  68.585  1.00  0.00    -0.384 Cl 
ENDBRANCH  26  28
ENDBRANCH  12  26
ENDBRANCH   2   3
TORSDOF 7
ENDMDL
MODEL      135
REMARK 921   NORMALIZED FREE ENERGY PREDICTED BY IDOCK:   -4.77 KCAL/MOL
REMARK 922        TOTAL FREE ENERGY PREDICTED BY IDOCK:   -7.64 KCAL/MOL
REMARK 923 INTER-LIGAND FREE ENERGY PREDICTED BY IDOCK:   -7.05 KCAL/MOL
REMARK 924 INTRA-LIGAND FREE ENERGY PREDICTED BY IDOCK:   -0.59 KCAL/MOL
REMARK 927      BINDING AFFINITY PREDICTED BY RF-SCORE:    0.00 PKD
ROOT
HETATM    1  C   UNL     1      -5.876  14.548  70.626  1.00  0.00    -0.179 C  
HETATM    2  O   UNL     1      -5.710  14.728  69.220  1.00  0.00    -0.095 OA 
ENDROOT
BRANCH   2   3
HETATM    3  C   UNL     1      -6.791  15.241  68.547  1.00  0.00    -0.112 A  
HETATM    4  C   UNL     1      -7.358  14.435  67.554  1.00  0.00    -0.186 A  
HETATM    5  N   UNL     1      -9.016  18.094  68.572  1.00  0.00    -0.302 NA 
HETATM    6  C   UNL     1      -8.455  14.914  66.821  1.00  0.00    -0.215 A  
HETATM    7  C   UNL     1      -8.513  16.926  68.169  1.00  0.00    -0.217 A  
HETATM    8  C   UNL     1     -10.073  18.544  67.904  1.00  0.00    -0.369 A  
HETATM    9  C   UNL     1      -9.051  16.168  67.119  1.00  0.00    -0.218 A  
HETATM   10  C   UNL     1      -7.403  16.460  68.850  1.00  0.00    -0.214 A  
HETATM   11  N   UNL     1     -10.655  17.941  66.870  1.00  0.00    -0.310 NA 
HETATM   12  C   UNL     1     -10.153  16.759  66.455  1.00  0.00    -0.317 A  
BRANCH   4  13
HETATM   13  N   UNL     1      -6.817  13.143  67.332  1.00  0.00    -0.283 N  
HETATM   14  H   UNL     1      -5.810  13.011  67.426  1.00  0.00     0.000 HD 
HETATM   15  C   UNL     1      -7.599  12.057  66.995  1.00  0.00    -0.111 C  
HETATM   16  O   UNL     1      -8.809  12.101  66.788  1.00  0.00    -0.197 OA 
BRANCH  15  17
HETATM   17  C   UNL     1      -6.872  10.752  67.011  1.00  0.00    -0.094 C  
HETATM   18  C   UNL     1      -7.330   9.774  66.209  1.00  0.00    -0.099 C  
BRANCH  18  19
HETATM   19  C   UNL     1      -6.872   8.343  66.180  1.00  0.00    -0.065 C  
BRANCH  19  20
HETATM   20  N   UNL     1      -6.073   7.949  65.009  1.00  0.00    -0.041 NA 
HETATM   21  C   UNL     1      -7.892   6.664  63.036  1.00  0.00    -0.103 C  
HETATM   22  C   UNL     1      -6.099   6.482  64.827  1.00  0.00    -0.037 C  
HETATM   23  C   UNL     1      -7.818   8.176  63.212  1.00  0.00    -0.149 C  
HETATM   24  C   UNL     1      -7.433   5.934  64.297  1.00  0.00    -0.074 C  
HETATM   25  C   UNL     1      -6.446   8.598  63.742  1.00  0.00    -0.080 C  
ENDBRANCH  19  20
ENDBRANCH  18  19
ENDBRANCH  15  17
ENDBRANCH   4  13
BRANCH  12  26
HETATM   26  N   UNL     1     -10.658  16.190  65.264  1.00  0.00    -0.544 NA 
HETATM   27  H   UNL     1     -10.647  16.817  64.460  1.00  0.00     0.000 HD 
BRANCH  26  28
HETATM   28  C   UNL     1     -11.174  14.904  64.995  1.00  0.00    -0.404 A  
HETATM   29  C   UNL     1     -10.345  13.976  64.342  1.00  0.00     0.009 A  
HETATM   30  C   UNL     1     -10.856  12.761  63.870  1.00  0.00    -0.411 A  
HETATM   31  C   UNL     1     -13.032  13.333  64.721  1.00  0.00    -0.140 A  
HETATM   32  C   UNL     1     -12.517  14.544  65.191  1.00  0.00    -0.286 A  
HETATM   33  C   UNL     1     -12.201  12.454  64.045  1.00  0.00    -0.490 A  
HETATM   34  F   UNL     1     -12.722  11.319  63.557  1.00  0.00    -0.325 F  
HETATM   35 CL   UNL     1      -9.814  11.670  63.039  1.00  0.00    -0.393 Cl 
ENDBRANCH  26  28
ENDBRANCH  12  26
ENDBRANCH   2   3
TORSDOF 7
ENDMDL
MODEL      136
REMARK 921   NORMALIZED FREE ENERGY PREDICTED BY IDOCK:   -4.75 KCAL/MOL
REMARK 922        TOTAL FREE ENERGY PREDICTED BY IDOCK:   -7.62 KCAL/MOL
REMARK 923 INTER-LIGAND FREE ENERGY PREDICTED BY IDOCK:   -8.13 KCAL/MOL
REMARK 924 INTRA-LIGAND FREE ENERGY PREDICTED BY IDOCK:    0.51 KCAL/MOL
REMARK 927      BINDING AFFINITY PREDICTED BY RF-SCORE:    0.00 PKD
ROOT
HETATM    1  C   UNL     1      -8.250   8.546  65.063  1.00  0.00    -0.158 C  
HETATM    2  O   UNL     1      -9.517   8.549  65.720  1.00  0.00    -0.172 OA 
ENDROOT
BRANCH   2   3
HETATM    3  C   UNL     1     -10.079   9.783  65.940  1.00  0.00    -0.243 A  
HETATM    4  C   UNL     1     -10.480  10.069  67.249  1.00  0.00    -0.254 A  
HETATM    5  N   UNL     1     -10.756  12.903  64.237  1.00  0.00    -0.383 NA 
HETATM    6  C   UNL     1     -11.075  11.309  67.532  1.00  0.00    -0.346 A  
HETATM    7  C   UNL     1     -10.730  12.027  65.244  1.00  0.00    -0.288 A  
HETATM    8  C   UNL     1     -11.291  14.090  64.500  1.00  0.00    -0.358 A  
HETATM    9  C   UNL     1     -11.208  12.308  66.532  1.00  0.00    -0.373 A  
HETATM   10  C   UNL     1     -10.189  10.783  64.971  1.00  0.00    -0.373 A  
HETATM   11  N   UNL     1     -11.810  14.468  65.666  1.00  0.00    -0.349 NA 
HETATM   12  C   UNL     1     -11.790  13.590  66.690  1.00  0.00    -0.407 A  
BRANCH   4  13
HETATM   13  N   UNL     1     -10.251   9.102  68.261  1.00  0.00    -0.198 N  
HETATM   14  H   UNL     1     -10.917   8.337  68.366  1.00  0.00     0.000 HD 
HETATM   15  C   UNL     1      -9.163   9.155  69.108  1.00  0.00    -0.144 C  
HETATM   16  O   UNL     1      -8.330  10.058  69.126  1.00  0.00    -0.123 OA 
BRANCH  15  17
HETATM   17  C   UNL     1      -8.991   7.939  69.959  1.00  0.00    -0.145 C  
HETATM   18  C   UNL     1      -8.685   6.784  69.340  1.00  0.00    -0.136 C  
BRANCH  18  19
HETATM   19  C   UNL     1      -8.630   5.417  69.960  1.00  0.00    -0.122 C  
BRANCH  19  20
HETATM   20  N   UNL     1      -7.359   5.057  70.609  1.00  0.00    -0.063 NA 
HETATM   21  C   UNL     1      -5.197   6.693  69.384  1.00  0.00    -0.014 C  
HETATM   22  C   UNL     1      -6.417   4.478  69.629  1.00  0.00    -0.032 C  
HETATM   23  C   UNL     1      -6.155   7.257  70.427  1.00  0.00    -0.027 C  
HETATM   24  C   UNL     1      -5.810   5.500  68.655  1.00  0.00    -0.016 C  
HETATM   25  C   UNL     1      -6.689   6.148  71.334  1.00  0.00    -0.055 C  
ENDBRANCH  19  20
ENDBRANCH  18  19
ENDBRANCH  15  17
ENDBRANCH   4  13
BRANCH  12  26
HETATM   26  N   UNL     1     -12.478  13.919  67.878  1.00  0.00    -0.358 NA 
HETATM   27  H   UNL     1     -13.467  13.667  67.876  1.00  0.00     0.000 HD 
BRANCH  26  28
HETATM   28  C   UNL     1     -12.036  14.537  69.068  1.00  0.00    -0.299 A  
HETATM   29  C   UNL     1     -12.572  14.092  70.290  1.00  0.00    -0.367 A  
HETATM   30  C   UNL     1     -12.328  14.790  71.479  1.00  0.00    -0.344 A  
HETATM   31  C   UNL     1     -10.971  16.376  70.285  1.00  0.00    -0.262 A  
HETATM   32  C   UNL     1     -11.216  15.677  69.100  1.00  0.00    -0.315 A  
HETATM   33  C   UNL     1     -11.546  15.939  71.467  1.00  0.00    -0.465 A  
HETATM   34  F   UNL     1     -11.342  16.650  72.585  1.00  0.00    -0.343 F  
HETATM   35 CL   UNL     1     -13.039  14.234  72.946  1.00  0.00    -0.594 Cl 
ENDBRANCH  26  28
ENDBRANCH  12  26
ENDBRANCH   2   3
TORSDOF 7
ENDMDL
MODEL      137
REMARK 921   NORMALIZED FREE ENERGY PREDICTED BY IDOCK:   -4.66 KCAL/MOL
REMARK 922        TOTAL FREE ENERGY PREDICTED BY IDOCK:   -7.48 KCAL/MOL
REMARK 923 INTER-LIGAND FREE ENERGY PREDICTED BY IDOCK:   -7.21 KCAL/MOL
REMARK 924 INTRA-LIGAND FREE ENERGY PREDICTED BY IDOCK:   -0.27 KCAL/MOL
REMARK 927      BINDING AFFINITY PREDICTED BY RF-SCORE:    0.00 PKD
ROOT
HETATM    1  C   UNL     1     -10.296   5.802  67.764  1.00  0.00    -0.213 C  
HETATM    2  O   UNL     1     -11.021   6.794  68.489  1.00  0.00    -0.231 OA 
ENDROOT
BRANCH   2   3
HETATM    3  C   UNL     1     -10.661   8.098  68.251  1.00  0.00    -0.098 A  
HETATM    4  C   UNL     1     -10.358   8.883  69.367  1.00  0.00    -0.213 A  
HETATM    5  N   UNL     1      -9.951  10.359  65.516  1.00  0.00    -0.267 NA 
HETATM    6  C   UNL     1      -9.999  10.228  69.187  1.00  0.00    -0.235 A  
HETATM    7  C   UNL     1     -10.096   9.960  66.781  1.00  0.00    -0.230 A  
HETATM    8  C   UNL     1      -9.584  11.622  65.332  1.00  0.00    -0.205 A  
HETATM    9  C   UNL     1      -9.861  10.787  67.889  1.00  0.00    -0.185 A  
HETATM   10  C   UNL     1     -10.494   8.650  66.978  1.00  0.00    -0.354 A  
HETATM   11  N   UNL     1      -9.365  12.516  66.294  1.00  0.00    -0.213 NA 
HETATM   12  C   UNL     1      -9.510  12.123  67.577  1.00  0.00    -0.180 A  
BRANCH   4  13
HETATM   13  N   UNL     1     -10.403   8.287  70.654  1.00  0.00    -0.197 N  
HETATM   14  H   UNL     1      -9.802   7.485  70.843  1.00  0.00     0.000 HD 
HETATM   15  C   UNL     1     -11.225   8.751  71.660  1.00  0.00    -0.324 C  
HETATM   16  O   UNL     1     -12.039   9.663  71.538  1.00  0.00    -0.351 OA 
BRANCH  15  17
HETATM   17  C   UNL     1     -10.972   8.125  72.993  1.00  0.00    -0.181 C  
HETATM   18  C   UNL     1      -9.995   7.203  73.074  1.00  0.00    -0.247 C  
BRANCH  18  19
HETATM   19  C   UNL     1      -9.676   6.329  74.253  1.00  0.00    -0.256 C  
BRANCH  19  20
HETATM   20  N   UNL     1      -8.822   5.163  73.975  1.00  0.00    -0.117 NA 
HETATM   21  C   UNL     1      -9.459   4.179  71.240  1.00  0.00    -0.230 C  
HETATM   22  C   UNL     1      -9.643   3.952  73.764  1.00  0.00    -0.105 C  
HETATM   23  C   UNL     1      -8.581   5.402  71.482  1.00  0.00    -0.131 C  
HETATM   24  C   UNL     1     -10.391   3.921  72.421  1.00  0.00    -0.194 C  
HETATM   25  C   UNL     1      -7.892   5.317  72.845  1.00  0.00    -0.098 C  
ENDBRANCH  19  20
ENDBRANCH  18  19
ENDBRANCH  15  17
ENDBRANCH   4  13
BRANCH  12  26
HETATM   26  N   UNL     1      -9.438  13.099  68.596  1.00  0.00    -0.401 NA 
HETATM   27  H   UNL     1      -9.627  12.744  69.534  1.00  0.00     0.000 HD 
BRANCH  26  28
HETATM   28  C   UNL     1      -9.151  14.480  68.542  1.00  0.00    -0.190 A  
HETATM   29  C   UNL     1      -7.906  14.922  69.023  1.00  0.00    -0.165 A  
HETATM   30  C   UNL     1      -7.639  16.287  69.181  1.00  0.00    -0.227 A  
HETATM   31  C   UNL     1      -9.829  16.825  68.347  1.00  0.00    -0.253 A  
HETATM   32  C   UNL     1     -10.092  15.461  68.190  1.00  0.00    -0.222 A  
HETATM   33  C   UNL     1      -8.609  17.230  68.862  1.00  0.00    -0.170 A  
HETATM   34  F   UNL     1      -8.392  18.539  69.053  1.00  0.00    -0.306 F  
HETATM   35 CL   UNL     1      -6.115  16.783  69.812  1.00  0.00    -0.225 Cl 
ENDBRANCH  26  28
ENDBRANCH  12  26
ENDBRANCH   2   3
TORSDOF 7
ENDMDL
MODEL      138
REMARK 921   NORMALIZED FREE ENERGY PREDICTED BY IDOCK:   -4.63 KCAL/MOL
REMARK 922        TOTAL FREE ENERGY PREDICTED BY IDOCK:   -7.44 KCAL/MOL
REMARK 923 INTER-LIGAND FREE ENERGY PREDICTED BY IDOCK:   -6.34 KCAL/MOL
REMARK 924 INTRA-LIGAND FREE ENERGY PREDICTED BY IDOCK:   -1.10 KCAL/MOL
REMARK 927      BINDING AFFINITY PREDICTED BY RF-SCORE:    0.00 PKD
ROOT
HETATM    1  C   UNL     1     -13.274  12.948  71.742  1.00  0.00    -0.384 C  
HETATM    2  O   UNL     1     -12.620  11.815  71.171  1.00  0.00    -0.378 OA 
ENDROOT
BRANCH   2   3
HETATM    3  C   UNL     1     -11.860  12.058  70.054  1.00  0.00    -0.314 A  
HETATM    4  C   UNL     1     -10.765  11.215  69.838  1.00  0.00     0.095 A  
HETATM    5  N   UNL     1     -11.798  14.153  67.104  1.00  0.00    -0.405 NA 
HETATM    6  C   UNL     1      -9.943  11.425  68.720  1.00  0.00    -0.188 A  
HETATM    7  C   UNL     1     -11.388  13.214  67.959  1.00  0.00    -0.292 A  
HETATM    8  C   UNL     1     -11.043  14.343  66.027  1.00  0.00    -0.324 A  
HETATM    9  C   UNL     1     -10.243  12.429  67.762  1.00  0.00    -0.212 A  
HETATM   10  C   UNL     1     -12.162  13.024  69.090  1.00  0.00    -0.106 A  
HETATM   11  N   UNL     1      -9.917  13.691  65.742  1.00  0.00    -0.283 NA 
HETATM   12  C   UNL     1      -9.494  12.740  66.601  1.00  0.00    -0.249 A  
BRANCH   4  13
HETATM   13  N   UNL     1     -10.532  10.152  70.748  1.00  0.00    -0.351 N  
HETATM   14  H   UNL     1     -10.312  10.377  71.718  1.00  0.00     0.000 HD 
HETATM   15  C   UNL     1     -10.591   8.825  70.373  1.00  0.00    -0.221 C  
HETATM   16  O   UNL     1     -10.780   8.427  69.226  1.00  0.00    -0.209 OA 
BRANCH  15  17
HETATM   17  C   UNL     1     -10.523   7.864  71.515  1.00  0.00    -0.251 C  
HETATM   18  C   UNL     1      -9.672   6.828  71.408  1.00  0.00    -0.177 C  
BRANCH  18  19
HETATM   19  C   UNL     1      -9.556   5.657  72.342  1.00  0.00    -0.149 C  
BRANCH  19  20
HETATM   20  N   UNL     1     -10.373   4.481  72.000  1.00  0.00    -0.178 NA 
HETATM   21  C   UNL     1      -8.737   2.043  72.485  1.00  0.00    -0.073 C  
HETATM   22  C   UNL     1      -9.764   3.727  70.884  1.00  0.00    -0.178 C  
HETATM   23  C   UNL     1      -9.409   2.813  73.617  1.00  0.00    -0.101 C  
HETATM   24  C   UNL     1      -8.504   2.935  71.268  1.00  0.00    -0.094 C  
HETATM   25  C   UNL     1     -10.646   3.557  73.112  1.00  0.00    -0.179 C  
ENDBRANCH  19  20
ENDBRANCH  18  19
ENDBRANCH  15  17
ENDBRANCH   4  13
BRANCH  12  26
HETATM   26  N   UNL     1      -8.224  12.158  66.393  1.00  0.00    -0.395 NA 
HETATM   27  H   UNL     1      -7.448  12.681  66.801  1.00  0.00     0.000 HD 
BRANCH  26  28
HETATM   28  C   UNL     1      -7.841  10.977  65.720  1.00  0.00     0.011 A  
HETATM   29  C   UNL     1      -8.446  10.689  64.484  1.00  0.00    -0.080 A  
HETATM   30  C   UNL     1      -8.262   9.447  63.864  1.00  0.00    -0.165 A  
HETATM   31  C   UNL     1      -6.829   8.749  65.665  1.00  0.00    -0.075 A  
HETATM   32  C   UNL     1      -7.016   9.990  66.280  1.00  0.00    -0.104 A  
HETATM   33  C   UNL     1      -7.471   8.476  64.468  1.00  0.00    -0.105 A  
HETATM   34  F   UNL     1      -7.322   7.263  63.917  1.00  0.00    -0.065 F  
HETATM   35 CL   UNL     1      -9.055   9.121  62.371  1.00  0.00    -0.164 Cl 
ENDBRANCH  26  28
ENDBRANCH  12  26
ENDBRANCH   2   3
TORSDOF 7
ENDMDL
MODEL      139
REMARK 921   NORMALIZED FREE ENERGY PREDICTED BY IDOCK:   -4.59 KCAL/MOL
REMARK 922        TOTAL FREE ENERGY PREDICTED BY IDOCK:   -7.39 KCAL/MOL
REMARK 923 INTER-LIGAND FREE ENERGY PREDICTED BY IDOCK:   -6.64 KCAL/MOL
REMARK 924 INTRA-LIGAND FREE ENERGY PREDICTED BY IDOCK:   -0.75 KCAL/MOL
REMARK 927      BINDING AFFINITY PREDICTED BY RF-SCORE:    0.00 PKD
ROOT
HETATM    1  C   UNL     1     -11.599  10.220  68.771  1.00  0.00    -0.050 C  
HETATM    2  O   UNL     1     -11.180  10.260  67.408  1.00  0.00    -0.274 OA 
ENDROOT
BRANCH   2   3
HETATM    3  C   UNL     1     -10.917  11.506  66.895  1.00  0.00    -0.296 A  
HETATM    4  C   UNL     1      -9.613  11.989  67.044  1.00  0.00    -0.195 A  
HETATM    5  N   UNL     1     -12.478  14.122  64.941  1.00  0.00    -0.588 NA 
HETATM    6  C   UNL     1      -9.290  13.264  66.553  1.00  0.00    -0.221 A  
HETATM    7  C   UNL     1     -11.519  13.506  65.636  1.00  0.00    -0.315 A  
HETATM    8  C   UNL     1     -12.175  15.317  64.447  1.00  0.00    -0.210 A  
HETATM    9  C   UNL     1     -10.240  14.042  65.840  1.00  0.00    -0.332 A  
HETATM   10  C   UNL     1     -11.835  12.268  66.167  1.00  0.00    -0.398 A  
HETATM   11  N   UNL     1     -11.013  15.950  64.599  1.00  0.00    -0.569 NA 
HETATM   12  C   UNL     1     -10.038  15.337  65.301  1.00  0.00    -0.327 A  
BRANCH   4  13
HETATM   13  N   UNL     1      -8.646  11.162  67.671  1.00  0.00    -0.125 N  
HETATM   14  H   UNL     1      -8.568  11.183  68.687  1.00  0.00     0.000 HD 
HETATM   15  C   UNL     1      -7.806  10.330  66.959  1.00  0.00    -0.107 C  
HETATM   16  O   UNL     1      -7.756  10.264  65.734  1.00  0.00    -0.131 OA 
BRANCH  15  17
HETATM   17  C   UNL     1      -7.011   9.393  67.809  1.00  0.00    -0.080 C  
HETATM   18  C   UNL     1      -7.017   8.090  67.475  1.00  0.00    -0.075 C  
BRANCH  18  19
HETATM   19  C   UNL     1      -6.438   6.953  68.268  1.00  0.00    -0.050 C  
BRANCH  19  20
HETATM   20  N   UNL     1      -5.959   5.803  67.485  1.00  0.00    -0.017 NA 
HETATM   21  C   UNL     1      -8.155   3.799  67.346  1.00  0.00    -0.090 C  
HETATM   22  C   UNL     1      -5.938   4.579  68.312  1.00  0.00    -0.027 C  
HETATM   23  C   UNL     1      -8.135   5.048  66.472  1.00  0.00    -0.108 C  
HETATM   24  C   UNL     1      -7.328   3.995  68.614  1.00  0.00    -0.055 C  
HETATM   25  C   UNL     1      -6.702   5.532  66.243  1.00  0.00    -0.057 C  
ENDBRANCH  19  20
ENDBRANCH  18  19
ENDBRANCH  15  17
ENDBRANCH   4  13
BRANCH  12  26
HETATM   26  N   UNL     1      -8.864  16.061  65.605  1.00  0.00    -0.248 NA 
HETATM   27  H   UNL     1      -8.003  15.626  65.274  1.00  0.00     0.000 HD 
BRANCH  26  28
HETATM   28  C   UNL     1      -8.676  17.282  66.288  1.00  0.00    -0.224 A  
HETATM   29  C   UNL     1      -7.755  17.318  67.349  1.00  0.00    -0.194 A  
HETATM   30  C   UNL     1      -7.667  18.435  68.189  1.00  0.00    -0.290 A  
HETATM   31  C   UNL     1      -9.384  19.540  66.918  1.00  0.00    -0.424 A  
HETATM   32  C   UNL     1      -9.468  18.424  66.082  1.00  0.00    -0.164 A  
HETATM   33  C   UNL     1      -8.496  19.531  67.981  1.00  0.00    -0.321 A  
HETATM   34  F   UNL     1      -8.464  20.589  68.804  1.00  0.00     0.142 F  
HETATM   35 CL   UNL     1      -6.554  18.419  69.503  1.00  0.00    -0.224 Cl 
ENDBRANCH  26  28
ENDBRANCH  12  26
ENDBRANCH   2   3
TORSDOF 7
ENDMDL
MODEL      140
REMARK 921   NORMALIZED FREE ENERGY PREDICTED BY IDOCK:   -4.59 KCAL/MOL
REMARK 922        TOTAL FREE ENERGY PREDICTED BY IDOCK:   -7.38 KCAL/MOL
REMARK 923 INTER-LIGAND FREE ENERGY PREDICTED BY IDOCK:   -6.66 KCAL/MOL
REMARK 924 INTRA-LIGAND FREE ENERGY PREDICTED BY IDOCK:   -0.73 KCAL/MOL
REMARK 927      BINDING AFFINITY PREDICTED BY RF-SCORE:    0.00 PKD
ROOT
HETATM    1  C   UNL     1      -5.903   9.124  72.517  1.00  0.00    -0.006 C  
HETATM    2  O   UNL     1      -5.411   8.958  71.188  1.00  0.00    -0.032 OA 
ENDROOT
BRANCH   2   3
HETATM    3  C   UNL     1      -5.868   9.861  70.260  1.00  0.00    -0.059 A  
HETATM    4  C   UNL     1      -7.036   9.522  69.570  1.00  0.00    -0.068 A  
HETATM    5  N   UNL     1      -5.181  13.185  69.005  1.00  0.00    -0.069 NA 
HETATM    6  C   UNL     1      -7.541  10.400  68.597  1.00  0.00    -0.092 A  
HETATM    7  C   UNL     1      -5.807  12.011  69.110  1.00  0.00    -0.068 A  
HETATM    8  C   UNL     1      -5.667  14.036  68.108  1.00  0.00    -0.128 A  
HETATM    9  C   UNL     1      -6.934  11.660  68.354  1.00  0.00    -0.079 A  
HETATM   10  C   UNL     1      -5.295  11.115  70.032  1.00  0.00    -0.062 A  
HETATM   11  N   UNL     1      -6.705  13.810  67.305  1.00  0.00    -0.186 NA 
HETATM   12  C   UNL     1      -7.344  12.626  67.403  1.00  0.00    -0.140 A  
BRANCH   4  13
HETATM   13  N   UNL     1      -7.691   8.306  69.892  1.00  0.00    -0.094 N  
HETATM   14  H   UNL     1      -8.285   8.274  70.720  1.00  0.00     0.000 HD 
HETATM   15  C   UNL     1      -7.557   7.164  69.129  1.00  0.00    -0.099 C  
HETATM   16  O   UNL     1      -6.822   7.056  68.150  1.00  0.00    -0.068 OA 
BRANCH  15  17
HETATM   17  C   UNL     1      -8.486   6.059  69.514  1.00  0.00    -0.119 C  
HETATM   18  C   UNL     1      -9.624   6.394  70.150  1.00  0.00    -0.173 C  
BRANCH  18  19
HETATM   19  C   UNL     1     -10.616   5.456  70.776  1.00  0.00    -0.223 C  
BRANCH  19  20
HETATM   20  N   UNL     1     -11.550   6.059  71.739  1.00  0.00    -0.266 NA 
HETATM   21  C   UNL     1     -10.081   6.535  74.282  1.00  0.00    -0.379 C  
HETATM   22  C   UNL     1     -11.735   5.178  72.911  1.00  0.00    -0.139 C  
HETATM   23  C   UNL     1      -9.937   7.453  73.074  1.00  0.00    -0.299 C  
HETATM   24  C   UNL     1     -10.532   5.137  73.867  1.00  0.00    -0.316 C  
HETATM   25  C   UNL     1     -11.194   7.410  72.203  1.00  0.00    -0.262 C  
ENDBRANCH  19  20
ENDBRANCH  18  19
ENDBRANCH  15  17
ENDBRANCH   4  13
BRANCH  12  26
HETATM   26  N   UNL     1      -8.340  12.313  66.451  1.00  0.00    -0.398 NA 
HETATM   27  H   UNL     1      -8.149  11.475  65.901  1.00  0.00     0.000 HD 
BRANCH  26  28
HETATM   28  C   UNL     1      -9.553  12.959  66.129  1.00  0.00    -0.210 A  
HETATM   29  C   UNL     1     -10.487  12.267  65.339  1.00  0.00    -0.302 A  
HETATM   30  C   UNL     1     -11.614  12.917  64.821  1.00  0.00    -0.331 A  
HETATM   31  C   UNL     1     -10.943  14.961  65.895  1.00  0.00    -0.338 A  
HETATM   32  C   UNL     1      -9.820  14.308  66.410  1.00  0.00    -0.309 A  
HETATM   33  C   UNL     1     -11.825  14.265  65.085  1.00  0.00    -0.384 A  
HETATM   34  F   UNL     1     -12.870  14.919  64.558  1.00  0.00    -0.383 F  
HETATM   35 CL   UNL     1     -12.711  12.041  63.823  1.00  0.00    -0.575 Cl 
ENDBRANCH  26  28
ENDBRANCH  12  26
ENDBRANCH   2   3
TORSDOF 7
ENDMDL
MODEL      141
REMARK 921   NORMALIZED FREE ENERGY PREDICTED BY IDOCK:   -4.58 KCAL/MOL
REMARK 922        TOTAL FREE ENERGY PREDICTED BY IDOCK:   -7.37 KCAL/MOL
REMARK 923 INTER-LIGAND FREE ENERGY PREDICTED BY IDOCK:   -6.50 KCAL/MOL
REMARK 924 INTRA-LIGAND FREE ENERGY PREDICTED BY IDOCK:   -0.87 KCAL/MOL
REMARK 927      BINDING AFFINITY PREDICTED BY RF-SCORE:    0.00 PKD
ROOT
HETATM    1  C   UNL     1      -5.201  11.260  67.420  1.00  0.00    -0.048 C  
HETATM    2  O   UNL     1      -5.854  11.968  68.473  1.00  0.00    -0.052 OA 
ENDROOT
BRANCH   2   3
HETATM    3  C   UNL     1      -7.177  11.660  68.676  1.00  0.00    -0.104 A  
HETATM    4  C   UNL     1      -8.100  12.697  68.512  1.00  0.00    -0.082 A  
HETATM    5  N   UNL     1      -9.328   8.825  69.337  1.00  0.00    -0.156 NA 
HETATM    6  C   UNL     1      -9.465  12.444  68.722  1.00  0.00     0.087 A  
HETATM    7  C   UNL     1      -9.000  10.099  69.108  1.00  0.00    -0.175 A  
HETATM    8  C   UNL     1     -10.620   8.569  69.509  1.00  0.00    -0.211 A  
HETATM    9  C   UNL     1      -9.936  11.139  69.023  1.00  0.00    -0.155 A  
HETATM   10  C   UNL     1      -7.654  10.374  68.944  1.00  0.00    -0.103 A  
HETATM   11  N   UNL     1     -11.601   9.469  69.488  1.00  0.00     0.102 NA 
HETATM   12  C   UNL     1     -11.280  10.759  69.259  1.00  0.00    -0.272 A  
BRANCH   4  13
HETATM   13  N   UNL     1      -7.629  13.974  68.114  1.00  0.00    -0.127 N  
HETATM   14  H   UNL     1      -6.837  14.381  68.612  1.00  0.00     0.000 HD 
HETATM   15  C   UNL     1      -8.199  14.689  67.081  1.00  0.00    -0.201 C  
HETATM   16  O   UNL     1      -9.194  14.339  66.451  1.00  0.00    -0.264 OA 
BRANCH  15  17
HETATM   17  C   UNL     1      -7.432  15.907  66.683  1.00  0.00    -0.093 C  
HETATM   18  C   UNL     1      -8.026  17.102  66.855  1.00  0.00    -0.250 C  
BRANCH  18  19
HETATM   19  C   UNL     1      -7.523  18.435  66.378  1.00  0.00    -0.247 C  
BRANCH  19  20
HETATM   20  N   UNL     1      -6.064  18.624  66.423  1.00  0.00    -0.155 NA 
HETATM   21  C   UNL     1      -5.426  21.226  65.129  1.00  0.00    -0.175 C  
HETATM   22  C   UNL     1      -5.503  18.687  65.057  1.00  0.00    -0.216 C  
HETATM   23  C   UNL     1      -5.967  21.134  66.551  1.00  0.00    -0.339 C  
HETATM   24  C   UNL     1      -5.805  19.995  64.309  1.00  0.00    -0.303 C  
HETATM   25  C   UNL     1      -5.602  19.792  67.188  1.00  0.00    -0.170 C  
ENDBRANCH  19  20
ENDBRANCH  18  19
ENDBRANCH  15  17
ENDBRANCH   4  13
BRANCH  12  26
HETATM   26  N   UNL     1     -12.286  11.741  69.393  1.00  0.00    -0.125 NA 
HETATM   27  H   UNL     1     -12.876  11.856  68.569  1.00  0.00     0.000 HD 
BRANCH  26  28
HETATM   28  C   UNL     1     -12.617  12.592  70.470  1.00  0.00    -0.098 A  
HETATM   29  C   UNL     1     -12.120  13.907  70.458  1.00  0.00    -0.426 A  
HETATM   30  C   UNL     1     -12.244  14.733  71.582  1.00  0.00    -0.349 A  
HETATM   31  C   UNL     1     -13.401  12.983  72.757  1.00  0.00     0.011 A  
HETATM   32  C   UNL     1     -13.276  12.161  71.633  1.00  0.00    -0.358 A  
HETATM   33  C   UNL     1     -12.865  14.260  72.732  1.00  0.00    -0.387 A  
HETATM   34  F   UNL     1     -12.949  15.017  73.835  1.00  0.00    -0.569 F  
HETATM   35 CL   UNL     1     -11.584  16.323  71.539  1.00  0.00    -0.497 Cl 
ENDBRANCH  26  28
ENDBRANCH  12  26
ENDBRANCH   2   3
TORSDOF 7
ENDMDL
MODEL      142
REMARK 921   NORMALIZED FREE ENERGY PREDICTED BY IDOCK:   -4.56 KCAL/MOL
REMARK 922        TOTAL FREE ENERGY PREDICTED BY IDOCK:   -7.34 KCAL/MOL
REMARK 923 INTER-LIGAND FREE ENERGY PREDICTED BY IDOCK:   -6.04 KCAL/MOL
REMARK 924 INTRA-LIGAND FREE ENERGY PREDICTED BY IDOCK:   -1.30 KCAL/MOL
REMARK 927      BINDING AFFINITY PREDICTED BY RF-SCORE:    0.00 PKD
ROOT
HETATM    1  C   UNL     1     -10.528   8.302  72.459  1.00  0.00    -0.336 C  
HETATM    2  O   UNL     1     -10.777   8.082  71.071  1.00  0.00    -0.216 OA 
ENDROOT
BRANCH   2   3
HETATM    3  C   UNL     1     -10.083   7.048  70.492  1.00  0.00    -0.191 A  
HETATM    4  C   UNL     1      -9.372   7.340  69.323  1.00  0.00    -0.154 A  
HETATM    5  N   UNL     1      -9.195   3.589  71.078  1.00  0.00    -0.112 NA 
HETATM    6  C   UNL     1      -8.658   6.318  68.678  1.00  0.00    -0.121 A  
HETATM    7  C   UNL     1      -9.237   4.761  70.441  1.00  0.00    -0.136 A  
HETATM    8  C   UNL     1      -8.498   2.622  70.491  1.00  0.00    -0.050 A  
HETATM    9  C   UNL     1      -8.579   5.012  69.229  1.00  0.00    -0.096 A  
HETATM   10  C   UNL     1      -9.975   5.767  71.039  1.00  0.00    -0.243 A  
HETATM   11  N   UNL     1      -7.859   2.720  69.327  1.00  0.00    -0.046 NA 
HETATM   12  C   UNL     1      -7.897   3.901  68.675  1.00  0.00    -0.067 A  
BRANCH   4  13
HETATM   13  N   UNL     1      -9.377   8.672  68.836  1.00  0.00    -0.145 N  
HETATM   14  H   UNL     1      -8.917   9.396  69.387  1.00  0.00     0.000 HD 
HETATM   15  C   UNL     1      -9.978   9.026  67.646  1.00  0.00    -0.201 C  
HETATM   16  O   UNL     1     -10.619   8.263  66.928  1.00  0.00    -0.321 OA 
BRANCH  15  17
HETATM   17  C   UNL     1      -9.693  10.427  67.211  1.00  0.00    -0.195 C  
HETATM   18  C   UNL     1      -9.882  11.410  68.110  1.00  0.00    -0.195 C  
BRANCH  18  19
HETATM   19  C   UNL     1      -9.824  12.889  67.853  1.00  0.00    -0.227 C  
BRANCH  19  20
HETATM   20  N   UNL     1     -11.123  13.572  67.737  1.00  0.00    -0.261 NA 
HETATM   21  C   UNL     1     -11.463  14.442  64.912  1.00  0.00    -0.386 C  
HETATM   22  C   UNL     1     -10.939  14.983  67.338  1.00  0.00    -0.315 C  
HETATM   23  C   UNL     1     -11.688  13.001  65.353  1.00  0.00    -0.401 C  
HETATM   24  C   UNL     1     -10.529  15.178  65.870  1.00  0.00    -0.350 C  
HETATM   25  C   UNL     1     -12.090  12.937  66.827  1.00  0.00    -0.265 C  
ENDBRANCH  19  20
ENDBRANCH  18  19
ENDBRANCH  15  17
ENDBRANCH   4  13
BRANCH  12  26
HETATM   26  N   UNL     1      -7.361   3.971  67.369  1.00  0.00    -0.067 NA 
HETATM   27  H   UNL     1      -6.344   4.049  67.335  1.00  0.00     0.000 HD 
BRANCH  26  28
HETATM   28  C   UNL     1      -7.988   3.951  66.105  1.00  0.00    -0.094 A  
HETATM   29  C   UNL     1      -7.520   4.832  65.114  1.00  0.00    -0.076 A  
HETATM   30  C   UNL     1      -8.220   5.004  63.914  1.00  0.00    -0.125 A  
HETATM   31  C   UNL     1      -9.858   3.393  64.626  1.00  0.00    -0.146 A  
HETATM   32  C   UNL     1      -9.156   3.224  65.822  1.00  0.00    -0.153 A  
HETATM   33  C   UNL     1      -9.396   4.298  63.685  1.00  0.00    -0.131 A  
HETATM   34  F   UNL     1     -10.108   4.485  62.564  1.00  0.00    -0.149 F  
HETATM   35 CL   UNL     1      -7.633   6.125  62.746  1.00  0.00    -0.072 Cl 
ENDBRANCH  26  28
ENDBRANCH  12  26
ENDBRANCH   2   3
TORSDOF 7
ENDMDL
MODEL      143
REMARK 921   NORMALIZED FREE ENERGY PREDICTED BY IDOCK:   -4.55 KCAL/MOL
REMARK 922        TOTAL FREE ENERGY PREDICTED BY IDOCK:   -7.34 KCAL/MOL
REMARK 923 INTER-LIGAND FREE ENERGY PREDICTED BY IDOCK:   -6.92 KCAL/MOL
REMARK 924 INTRA-LIGAND FREE ENERGY PREDICTED BY IDOCK:   -0.42 KCAL/MOL
REMARK 927      BINDING AFFINITY PREDICTED BY RF-SCORE:    0.00 PKD
ROOT
HETATM    1  C   UNL     1      -8.996   8.682  64.095  1.00  0.00     0.372 C  
HETATM    2  O   UNL     1      -8.979   8.565  65.517  1.00  0.00    -0.186 OA 
ENDROOT
BRANCH   2   3
HETATM    3  C   UNL     1      -9.692   9.513  66.208  1.00  0.00    -0.245 A  
HETATM    4  C   UNL     1      -9.881   9.290  67.575  1.00  0.00    -0.175 A  
HETATM    5  N   UNL     1     -11.208  12.768  65.753  1.00  0.00    -0.297 NA 
HETATM    6  C   UNL     1     -10.616  10.218  68.330  1.00  0.00    -0.247 A  
HETATM    7  C   UNL     1     -10.841  11.657  66.394  1.00  0.00    -0.287 A  
HETATM    8  C   UNL     1     -11.880  13.667  66.464  1.00  0.00    -0.404 A  
HETATM    9  C   UNL     1     -11.107  11.418  67.750  1.00  0.00    -0.323 A  
HETATM   10  C   UNL     1     -10.155  10.710  65.654  1.00  0.00    -0.335 A  
HETATM   11  N   UNL     1     -12.225  13.545  67.744  1.00  0.00    -0.259 NA 
HETATM   12  C   UNL     1     -11.860  12.425  68.401  1.00  0.00    -0.309 A  
BRANCH   4  13
HETATM   13  N   UNL     1      -9.301   8.138  68.166  1.00  0.00    -0.133 N  
HETATM   14  H   UNL     1      -8.285   8.067  68.207  1.00  0.00     0.000 HD 
HETATM   15  C   UNL     1     -10.059   7.109  68.687  1.00  0.00    -0.173 C  
HETATM   16  O   UNL     1     -11.284   7.044  68.639  1.00  0.00    -0.070 OA 
BRANCH  15  17
HETATM   17  C   UNL     1      -9.268   6.093  69.446  1.00  0.00    -0.137 C  
HETATM   18  C   UNL     1      -9.524   5.959  70.761  1.00  0.00    -0.192 C  
BRANCH  18  19
HETATM   19  C   UNL     1      -8.750   5.135  71.750  1.00  0.00    -0.130 C  
BRANCH  19  20
HETATM   20  N   UNL     1      -9.334   5.033  73.096  1.00  0.00    -0.128 NA 
HETATM   21  C   UNL     1      -9.121   7.699  74.402  1.00  0.00    -0.006 C  
HETATM   22  C   UNL     1      -8.314   5.305  74.131  1.00  0.00    -0.109 C  
HETATM   23  C   UNL     1     -10.191   7.383  73.363  1.00  0.00    -0.402 C  
HETATM   24  C   UNL     1      -7.910   6.783  74.248  1.00  0.00    -0.120 C  
HETATM   25  C   UNL     1     -10.508   5.887  73.342  1.00  0.00    -0.246 C  
ENDBRANCH  19  20
ENDBRANCH  18  19
ENDBRANCH  15  17
ENDBRANCH   4  13
BRANCH  12  26
HETATM   26  N   UNL     1     -12.357  12.213  69.706  1.00  0.00    -0.098 NA 
HETATM   27  H   UNL     1     -12.573  11.240  69.922  1.00  0.00     0.000 HD 
BRANCH  26  28
HETATM   28  C   UNL     1     -12.607  13.115  70.763  1.00  0.00    -0.260 A  
HETATM   29  C   UNL     1     -11.971  14.368  70.735  1.00  0.00    -0.391 A  
HETATM   30  C   UNL     1     -12.018  15.224  71.842  1.00  0.00    -0.401 A  
HETATM   31  C   UNL     1     -13.371  13.631  73.031  1.00  0.00     0.023 A  
HETATM   32  C   UNL     1     -13.322  12.780  71.924  1.00  0.00    -0.510 A  
HETATM   33  C   UNL     1     -12.701  14.843  72.991  1.00  0.00    -0.459 A  
HETATM   34  F   UNL     1     -12.716  15.625  74.080  1.00  0.00    -0.540 F  
HETATM   35 CL   UNL     1     -11.190  16.733  71.780  1.00  0.00     0.256 Cl 
ENDBRANCH  26  28
ENDBRANCH  12  26
ENDBRANCH   2   3
TORSDOF 7
ENDMDL
MODEL      144
REMARK 921   NORMALIZED FREE ENERGY PREDICTED BY IDOCK:   -4.53 KCAL/MOL
REMARK 922        TOTAL FREE ENERGY PREDICTED BY IDOCK:   -7.30 KCAL/MOL
REMARK 923 INTER-LIGAND FREE ENERGY PREDICTED BY IDOCK:   -6.94 KCAL/MOL
REMARK 924 INTRA-LIGAND FREE ENERGY PREDICTED BY IDOCK:   -0.35 KCAL/MOL
REMARK 927      BINDING AFFINITY PREDICTED BY RF-SCORE:    0.00 PKD
ROOT
HETATM    1  C   UNL     1     -10.310   5.101  67.792  1.00  0.00    -0.094 C  
HETATM    2  O   UNL     1     -11.090   6.261  68.079  1.00  0.00    -0.333 OA 
ENDROOT
BRANCH   2   3
HETATM    3  C   UNL     1     -10.517   7.467  67.756  1.00  0.00    -0.232 A  
HETATM    4  C   UNL     1     -10.260   8.347  68.812  1.00  0.00    -0.207 A  
HETATM    5  N   UNL     1      -9.126   9.245  64.929  1.00  0.00    -0.203 NA 
HETATM    6  C   UNL     1      -9.690   9.601  68.541  1.00  0.00    -0.161 A  
HETATM    7  C   UNL     1      -9.497   9.036  66.193  1.00  0.00    -0.253 A  
HETATM    8  C   UNL     1      -8.559  10.417  64.664  1.00  0.00    -0.185 A  
HETATM    9  C   UNL     1      -9.298   9.964  67.225  1.00  0.00    -0.167 A  
HETATM   10  C   UNL     1     -10.102   7.823  66.471  1.00  0.00    -0.224 A  
HETATM   11  N   UNL     1      -8.347  11.394  65.544  1.00  0.00     0.130 NA 
HETATM   12  C   UNL     1      -8.720  11.193  66.825  1.00  0.00    -0.157 A  
BRANCH   4  13
HETATM   13  N   UNL     1     -10.564   7.934  70.135  1.00  0.00    -0.233 N  
HETATM   14  H   UNL     1     -10.182   7.050  70.472  1.00  0.00     0.000 HD 
HETATM   15  C   UNL     1     -11.355   8.680  70.984  1.00  0.00    -0.274 C  
HETATM   16  O   UNL     1     -11.926   9.724  70.676  1.00  0.00    -0.277 OA 
BRANCH  15  17
HETATM   17  C   UNL     1     -11.382   8.181  72.391  1.00  0.00    -0.456 C  
HETATM   18  C   UNL     1     -10.283   7.556  72.852  1.00  0.00    -0.331 C  
BRANCH  18  19
HETATM   19  C   UNL     1     -10.141   6.830  74.160  1.00  0.00    -0.350 C  
BRANCH  19  20
HETATM   20  N   UNL     1      -9.362   5.582  74.119  1.00  0.00    -0.132 NA 
HETATM   21  C   UNL     1     -10.219   4.030  71.730  1.00  0.00    -0.135 C  
HETATM   22  C   UNL     1     -10.249   4.406  74.242  1.00  0.00    -0.219 C  
HETATM   23  C   UNL     1      -9.272   5.221  71.632  1.00  0.00    -0.170 C  
HETATM   24  C   UNL     1     -11.083   4.109  72.986  1.00  0.00    -0.203 C  
HETATM   25  C   UNL     1      -8.500   5.414  72.938  1.00  0.00    -0.119 C  
ENDBRANCH  19  20
ENDBRANCH  18  19
ENDBRANCH  15  17
ENDBRANCH   4  13
BRANCH  12  26
HETATM   26  N   UNL     1      -8.648  12.276  67.729  1.00  0.00    -0.160 NA 
HETATM   27  H   UNL     1      -7.996  12.138  68.501  1.00  0.00     0.000 HD 
BRANCH  26  28
HETATM   28  C   UNL     1      -9.323  13.516  67.749  1.00  0.00    -0.213 A  
HETATM   29  C   UNL     1     -10.203  13.814  66.694  1.00  0.00    -0.276 A  
HETATM   30  C   UNL     1     -10.747  15.096  66.549  1.00  0.00    -0.310 A  
HETATM   31  C   UNL     1      -9.589  15.822  68.528  1.00  0.00    -0.204 A  
HETATM   32  C   UNL     1      -9.049  14.541  68.669  1.00  0.00    -0.187 A  
HETATM   33  C   UNL     1     -10.421  16.098  67.456  1.00  0.00    -0.302 A  
HETATM   34  F   UNL     1     -10.890  17.345  67.307  1.00  0.00    -0.329 F  
HETATM   35 CL   UNL     1     -11.788  15.428  65.219  1.00  0.00     0.024 Cl 
ENDBRANCH  26  28
ENDBRANCH  12  26
ENDBRANCH   2   3
TORSDOF 7
ENDMDL
MODEL      145
REMARK 921   NORMALIZED FREE ENERGY PREDICTED BY IDOCK:   -4.43 KCAL/MOL
REMARK 922        TOTAL FREE ENERGY PREDICTED BY IDOCK:   -7.16 KCAL/MOL
REMARK 923 INTER-LIGAND FREE ENERGY PREDICTED BY IDOCK:   -6.63 KCAL/MOL
REMARK 924 INTRA-LIGAND FREE ENERGY PREDICTED BY IDOCK:   -0.53 KCAL/MOL
REMARK 927      BINDING AFFINITY PREDICTED BY RF-SCORE:    0.00 PKD
ROOT
HETATM    1  C   UNL     1     -11.355  10.468  67.613  1.00  0.00    -0.154 C  
HETATM    2  O   UNL     1     -10.524  10.867  66.523  1.00  0.00    -0.243 OA 
ENDROOT
BRANCH   2   3
HETATM    3  C   UNL     1     -10.002  12.134  66.597  1.00  0.00    -0.206 A  
HETATM    4  C   UNL     1      -8.666  12.245  66.997  1.00  0.00    -0.199 A  
HETATM    5  N   UNL     1     -10.862  15.572  65.862  1.00  0.00    -0.327 NA 
HETATM    6  C   UNL     1      -8.083  13.518  67.106  1.00  0.00    -0.097 A  
HETATM    7  C   UNL     1     -10.111  14.549  66.275  1.00  0.00    -0.295 A  
HETATM    8  C   UNL     1     -10.311  16.778  65.933  1.00  0.00    -0.328 A  
HETATM    9  C   UNL     1      -8.797  14.690  66.745  1.00  0.00    -0.269 A  
HETATM   10  C   UNL     1     -10.686  13.292  66.218  1.00  0.00    -0.293 A  
HETATM   11  N   UNL     1      -9.091  17.050  66.392  1.00  0.00    -0.283 NA 
HETATM   12  C   UNL     1      -8.323  16.023  66.813  1.00  0.00    -0.270 A  
BRANCH   4  13
HETATM   13  N   UNL     1      -7.931  11.061  67.259  1.00  0.00    -0.121 N  
HETATM   14  H   UNL     1      -7.792  10.775  68.229  1.00  0.00     0.000 HD 
HETATM   15  C   UNL     1      -7.397  10.279  66.255  1.00  0.00    -0.118 C  
HETATM   16  O   UNL     1      -7.438  10.550  65.058  1.00  0.00    -0.111 OA 
BRANCH  15  17
HETATM   17  C   UNL     1      -6.844   8.974  66.726  1.00  0.00    -0.080 C  
HETATM   18  C   UNL     1      -7.601   8.242  67.565  1.00  0.00    -0.098 C  
BRANCH  18  19
HETATM   19  C   UNL     1      -7.190   6.994  68.293  1.00  0.00    -0.091 C  
BRANCH  19  20
HETATM   20  N   UNL     1      -8.262   6.019  68.549  1.00  0.00    -0.110 NA 
HETATM   21  C   UNL     1      -9.770   6.908  70.955  1.00  0.00    -0.183 C  
HETATM   22  C   UNL     1      -8.073   5.366  69.861  1.00  0.00    -0.088 C  
HETATM   23  C   UNL     1      -9.978   7.539  69.583  1.00  0.00    -0.184 C  
HETATM   24  C   UNL     1      -8.390   6.264  71.067  1.00  0.00    -0.124 C  
HETATM   25  C   UNL     1      -9.632   6.550  68.469  1.00  0.00    -0.123 C  
ENDBRANCH  19  20
ENDBRANCH  18  19
ENDBRANCH  15  17
ENDBRANCH   4  13
BRANCH  12  26
HETATM   26  N   UNL     1      -7.095  16.312  67.449  1.00  0.00    -0.151 NA 
HETATM   27  H   UNL     1      -6.461  15.516  67.523  1.00  0.00     0.000 HD 
BRANCH  26  28
HETATM   28  C   UNL     1      -6.593  17.512  67.999  1.00  0.00    -0.172 A  
HETATM   29  C   UNL     1      -6.182  17.508  69.343  1.00  0.00    -0.250 A  
HETATM   30  C   UNL     1      -5.865  18.702  70.002  1.00  0.00    -0.236 A  
HETATM   31  C   UNL     1      -6.312  19.944  67.992  1.00  0.00    -0.266 A  
HETATM   32  C   UNL     1      -6.628  18.750  67.338  1.00  0.00    -0.195 A  
HETATM   33  C   UNL     1      -5.950  19.915  69.329  1.00  0.00    -0.283 A  
HETATM   34  F   UNL     1      -5.699  21.074  69.955  1.00  0.00    -0.402 F  
HETATM   35 CL   UNL     1      -5.407  18.656  71.662  1.00  0.00    -0.278 Cl 
ENDBRANCH  26  28
ENDBRANCH  12  26
ENDBRANCH   2   3
TORSDOF 7
ENDMDL
MODEL      146
REMARK 921   NORMALIZED FREE ENERGY PREDICTED BY IDOCK:   -4.43 KCAL/MOL
REMARK 922        TOTAL FREE ENERGY PREDICTED BY IDOCK:   -7.15 KCAL/MOL
REMARK 923 INTER-LIGAND FREE ENERGY PREDICTED BY IDOCK:   -6.08 KCAL/MOL
REMARK 924 INTRA-LIGAND FREE ENERGY PREDICTED BY IDOCK:   -1.07 KCAL/MOL
REMARK 927      BINDING AFFINITY PREDICTED BY RF-SCORE:    0.00 PKD
ROOT
HETATM    1  C   UNL     1      -6.114   8.958  63.543  1.00  0.00    -0.084 C  
HETATM    2  O   UNL     1      -7.052   9.540  64.448  1.00  0.00    -0.099 OA 
ENDROOT
BRANCH   2   3
HETATM    3  C   UNL     1      -7.878   8.662  65.107  1.00  0.00    -0.110 A  
HETATM    4  C   UNL     1      -8.657   9.185  66.143  1.00  0.00    -0.136 A  
HETATM    5  N   UNL     1      -9.004   5.226  64.967  1.00  0.00    -0.120 NA 
HETATM    6  C   UNL     1      -9.508   8.332  66.863  1.00  0.00    -0.240 A  
HETATM    7  C   UNL     1      -8.916   6.478  65.420  1.00  0.00     0.153 A  
HETATM    8  C   UNL     1      -9.828   4.416  65.623  1.00  0.00    -0.221 A  
HETATM    9  C   UNL     1      -9.651   6.964  66.511  1.00  0.00    -0.197 A  
HETATM   10  C   UNL     1      -8.047   7.321  64.751  1.00  0.00    -0.097 A  
HETATM   11  N   UNL     1     -10.553   4.743  66.690  1.00  0.00    -0.170 NA 
HETATM   12  C   UNL     1     -10.470   6.006  67.158  1.00  0.00    -0.264 A  
BRANCH   4  13
HETATM   13  N   UNL     1      -8.581  10.574  66.422  1.00  0.00    -0.140 N  
HETATM   14  H   UNL     1      -9.081  11.223  65.815  1.00  0.00     0.000 HD 
HETATM   15  C   UNL     1      -7.856  11.081  67.481  1.00  0.00    -0.116 C  
HETATM   16  O   UNL     1      -7.160  10.412  68.240  1.00  0.00    -0.076 OA 
BRANCH  15  17
HETATM   17  C   UNL     1      -8.072  12.539  67.726  1.00  0.00    -0.164 C  
HETATM   18  C   UNL     1      -9.059  13.147  67.042  1.00  0.00    -0.231 C  
BRANCH  18  19
HETATM   19  C   UNL     1      -9.349  14.620  66.998  1.00  0.00    -0.232 C  
BRANCH  19  20
HETATM   20  N   UNL     1     -10.773  14.993  66.980  1.00  0.00    -0.298 NA 
HETATM   21  C   UNL     1     -11.904  14.208  64.342  1.00  0.00    -0.447 C  
HETATM   22  C   UNL     1     -11.038  15.995  65.927  1.00  0.00    -0.002 C  
HETATM   23  C   UNL     1     -11.661  13.198  65.458  1.00  0.00    -0.365 C  
HETATM   24  C   UNL     1     -11.007  15.434  64.497  1.00  0.00    -0.223 C  
HETATM   25  C   UNL     1     -11.717  13.874  66.829  1.00  0.00    -0.399 C  
ENDBRANCH  19  20
ENDBRANCH  18  19
ENDBRANCH  15  17
ENDBRANCH   4  13
BRANCH  12  26
HETATM   26  N   UNL     1     -11.107   6.319  68.379  1.00  0.00    -0.427 NA 
HETATM   27  H   UNL     1     -12.013   6.776  68.277  1.00  0.00     0.000 HD 
BRANCH  26  28
HETATM   28  C   UNL     1     -10.706   6.109  69.717  1.00  0.00    -0.310 A  
HETATM   29  C   UNL     1     -11.415   6.768  70.736  1.00  0.00    -0.392 A  
HETATM   30  C   UNL     1     -10.949   6.762  72.057  1.00  0.00    -0.238 A  
HETATM   31  C   UNL     1      -9.075   5.405  71.401  1.00  0.00    -0.163 A  
HETATM   32  C   UNL     1      -9.543   5.413  70.085  1.00  0.00    -0.235 A  
HETATM   33  C   UNL     1      -9.771   6.097  72.378  1.00  0.00    -0.157 A  
HETATM   34  F   UNL     1      -9.281   6.121  73.626  1.00  0.00    -0.127 F  
HETATM   35 CL   UNL     1     -11.826   7.617  73.267  1.00  0.00     0.247 Cl 
ENDBRANCH  26  28
ENDBRANCH  12  26
ENDBRANCH   2   3
TORSDOF 7
ENDMDL
MODEL      147
REMARK 921   NORMALIZED FREE ENERGY PREDICTED BY IDOCK:   -4.40 KCAL/MOL
REMARK 922        TOTAL FREE ENERGY PREDICTED BY IDOCK:   -7.12 KCAL/MOL
REMARK 923 INTER-LIGAND FREE ENERGY PREDICTED BY IDOCK:   -6.59 KCAL/MOL
REMARK 924 INTRA-LIGAND FREE ENERGY PREDICTED BY IDOCK:   -0.53 KCAL/MOL
REMARK 927      BINDING AFFINITY PREDICTED BY RF-SCORE:    0.00 PKD
ROOT
HETATM    1  C   UNL     1     -12.268  11.605  70.103  1.00  0.00    -0.288 C  
HETATM    2  O   UNL     1     -12.399  11.800  68.696  1.00  0.00    -0.335 OA 
ENDROOT
BRANCH   2   3
HETATM    3  C   UNL     1     -11.538  12.708  68.131  1.00  0.00    -0.338 A  
HETATM    4  C   UNL     1     -10.170  12.457  68.276  1.00  0.00    -0.229 A  
HETATM    5  N   UNL     1     -11.550  15.663  66.041  1.00  0.00     0.179 NA 
HETATM    6  C   UNL     1      -9.242  13.359  67.732  1.00  0.00    -0.211 A  
HETATM    7  C   UNL     1     -11.038  14.673  66.776  1.00  0.00    -0.335 A  
HETATM    8  C   UNL     1     -10.680  16.507  65.498  1.00  0.00    -0.256 A  
HETATM    9  C   UNL     1      -9.663  14.482  66.972  1.00  0.00    -0.247 A  
HETATM   10  C   UNL     1     -11.940  13.800  67.357  1.00  0.00    -0.423 A  
HETATM   11  N   UNL     1      -9.357  16.457  65.637  1.00  0.00    -0.461 NA 
HETATM   12  C   UNL     1      -8.829  15.461  66.379  1.00  0.00    -0.305 A  
BRANCH   4  13
HETATM   13  N   UNL     1      -9.760  11.279  68.951  1.00  0.00    -0.356 N  
HETATM   14  H   UNL     1      -9.636  11.313  69.963  1.00  0.00     0.000 HD 
HETATM   15  C   UNL     1      -9.523  10.089  68.294  1.00  0.00    -0.140 C  
HETATM   16  O   UNL     1      -9.572   9.937  67.076  1.00  0.00    -0.164 OA 
BRANCH  15  17
HETATM   17  C   UNL     1      -9.306   8.922  69.202  1.00  0.00    -0.148 C  
HETATM   18  C   UNL     1     -10.335   8.075  69.385  1.00  0.00    -0.217 C  
BRANCH  18  19
HETATM   19  C   UNL     1     -10.405   6.942  70.369  1.00  0.00    -0.202 C  
BRANCH  19  20
HETATM   20  N   UNL     1     -10.667   7.323  71.767  1.00  0.00    -0.217 NA 
HETATM   21  C   UNL     1     -13.033   5.790  72.718  1.00  0.00     0.770 C  
HETATM   22  C   UNL     1     -11.995   7.958  71.896  1.00  0.00    -0.305 C  
HETATM   23  C   UNL     1     -11.646   5.167  72.615  1.00  0.00    -0.178 C  
HETATM   24  C   UNL     1     -13.177   6.984  71.777  1.00  0.00    -0.326 C  
HETATM   25  C   UNL     1     -10.557   6.233  72.749  1.00  0.00    -0.228 C  
ENDBRANCH  19  20
ENDBRANCH  18  19
ENDBRANCH  15  17
ENDBRANCH   4  13
BRANCH  12  26
HETATM   26  N   UNL     1      -7.446  15.490  66.665  1.00  0.00    -0.254 NA 
HETATM   27  H   UNL     1      -6.854  15.125  65.919  1.00  0.00     0.000 HD 
BRANCH  26  28
HETATM   28  C   UNL     1      -6.742  15.937  67.804  1.00  0.00    -0.157 A  
HETATM   29  C   UNL     1      -6.468  15.009  68.824  1.00  0.00    -0.082 A  
HETATM   30  C   UNL     1      -5.953  15.426  70.058  1.00  0.00    -0.146 A  
HETATM   31  C   UNL     1      -5.927  17.705  69.289  1.00  0.00    -0.225 A  
HETATM   32  C   UNL     1      -6.440  17.284  68.059  1.00  0.00    -0.157 A  
HETATM   33  C   UNL     1      -5.705  16.774  70.291  1.00  0.00    -0.169 A  
HETATM   34  F   UNL     1      -5.261  17.201  71.481  1.00  0.00    -0.233 F  
HETATM   35 CL   UNL     1      -5.671  14.261  71.294  1.00  0.00    -0.206 Cl 
ENDBRANCH  26  28
ENDBRANCH  12  26
ENDBRANCH   2   3
TORSDOF 7
ENDMDL
MODEL      148
REMARK 921   NORMALIZED FREE ENERGY PREDICTED BY IDOCK:   -4.40 KCAL/MOL
REMARK 922        TOTAL FREE ENERGY PREDICTED BY IDOCK:   -7.12 KCAL/MOL
REMARK 923 INTER-LIGAND FREE ENERGY PREDICTED BY IDOCK:   -6.14 KCAL/MOL
REMARK 924 INTRA-LIGAND FREE ENERGY PREDICTED BY IDOCK:   -0.98 KCAL/MOL
REMARK 927      BINDING AFFINITY PREDICTED BY RF-SCORE:    0.00 PKD
ROOT
HETATM    1  C   UNL     1      -5.144  15.888  71.019  1.00  0.00    -0.162 C  
HETATM    2  O   UNL     1      -6.366  15.359  70.507  1.00  0.00    -0.033 OA 
ENDROOT
BRANCH   2   3
HETATM    3  C   UNL     1      -6.341  14.039  70.131  1.00  0.00    -0.107 A  
HETATM    4  C   UNL     1      -6.830  13.735  68.857  1.00  0.00    -0.110 A  
HETATM    5  N   UNL     1      -5.165  10.816  71.282  1.00  0.00    -0.161 NA 
HETATM    6  C   UNL     1      -6.844  12.399  68.424  1.00  0.00    -0.080 A  
HETATM    7  C   UNL     1      -5.747  11.698  70.467  1.00  0.00    -0.148 A  
HETATM    8  C   UNL     1      -5.146   9.553  70.871  1.00  0.00    -0.035 A  
HETATM    9  C   UNL     1      -6.301  11.359  69.224  1.00  0.00    -0.084 A  
HETATM   10  C   UNL     1      -5.783  13.012  70.897  1.00  0.00    -0.128 A  
HETATM   11  N   UNL     1      -5.667   9.097  69.734  1.00  0.00    -0.032 NA 
HETATM   12  C   UNL     1      -6.259   9.981  68.903  1.00  0.00    -0.044 A  
BRANCH   4  13
HETATM   13  N   UNL     1      -7.279  14.794  68.027  1.00  0.00    -0.122 N  
HETATM   14  H   UNL     1      -8.282  14.960  67.944  1.00  0.00     0.000 HD 
HETATM   15  C   UNL     1      -6.413  15.609  67.328  1.00  0.00    -0.058 C  
HETATM   16  O   UNL     1      -5.193  15.470  67.292  1.00  0.00    -0.336 OA 
BRANCH  15  17
HETATM   17  C   UNL     1      -7.068  16.787  66.684  1.00  0.00    -0.275 C  
HETATM   18  C   UNL     1      -8.400  16.737  66.499  1.00  0.00    -0.320 C  
BRANCH  18  19
HETATM   19  C   UNL     1      -9.241  17.716  65.731  1.00  0.00     0.292 C  
BRANCH  19  20
HETATM   20  N   UNL     1     -10.526  18.081  66.349  1.00  0.00    -0.367 NA 
HETATM   21  C   UNL     1      -9.983  20.020  68.540  1.00  0.00    -0.454 C  
HETATM   22  C   UNL     1     -10.560  17.669  67.768  1.00  0.00    -0.378 C  
HETATM   23  C   UNL     1      -9.994  20.431  67.072  1.00  0.00    -0.568 C  
HETATM   24  C   UNL     1      -9.690  18.530  68.698  1.00  0.00    -0.398 C  
HETATM   25  C   UNL     1     -10.891  19.503  66.252  1.00  0.00    -0.327 C  
ENDBRANCH  19  20
ENDBRANCH  18  19
ENDBRANCH  15  17
ENDBRANCH   4  13
BRANCH  12  26
HETATM   26  N   UNL     1      -6.953   9.489  67.775  1.00  0.00    -0.079 NA 
HETATM   27  H   UNL     1      -6.525   9.727  66.880  1.00  0.00     0.000 HD 
BRANCH  26  28
HETATM   28  C   UNL     1      -8.136   8.726  67.672  1.00  0.00    -0.106 A  
HETATM   29  C   UNL     1      -8.021   7.348  67.417  1.00  0.00    -0.112 A  
HETATM   30  C   UNL     1      -9.148   6.577  67.107  1.00  0.00    -0.120 A  
HETATM   31  C   UNL     1     -10.552   8.515  67.338  1.00  0.00    -0.304 A  
HETATM   32  C   UNL     1      -9.425   9.281  67.646  1.00  0.00    -0.156 A  
HETATM   33  C   UNL     1     -10.405   7.169  67.050  1.00  0.00    -0.298 A  
HETATM   34  F   UNL     1     -11.489   6.459  66.706  1.00  0.00    -0.419 F  
HETATM   35 CL   UNL     1      -8.956   4.901  66.760  1.00  0.00    -0.110 Cl 
ENDBRANCH  26  28
ENDBRANCH  12  26
ENDBRANCH   2   3
TORSDOF 7
ENDMDL
MODEL      149
REMARK 921   NORMALIZED FREE ENERGY PREDICTED BY IDOCK:   -4.39 KCAL/MOL
REMARK 922        TOTAL FREE ENERGY PREDICTED BY IDOCK:   -7.11 KCAL/MOL
REMARK 923 INTER-LIGAND FREE ENERGY PREDICTED BY IDOCK:   -6.17 KCAL/MOL
REMARK 924 INTRA-LIGAND FREE ENERGY PREDICTED BY IDOCK:   -0.94 KCAL/MOL
REMARK 927      BINDING AFFINITY PREDICTED BY RF-SCORE:    0.00 PKD
ROOT
HETATM    1  C   UNL     1     -11.565  15.972  68.632  1.00  0.00    -0.343 C  
HETATM    2  O   UNL     1     -10.594  15.142  67.997  1.00  0.00    -0.249 OA 
ENDROOT
BRANCH   2   3
HETATM    3  C   UNL     1     -10.576  13.827  68.391  1.00  0.00    -0.253 A  
HETATM    4  C   UNL     1      -9.387  13.121  68.184  1.00  0.00    -0.217 A  
HETATM    5  N   UNL     1     -12.617  11.386  70.116  1.00  0.00    -0.155 NA 
HETATM    6  C   UNL     1      -9.315  11.768  68.553  1.00  0.00    -0.158 A  
HETATM    7  C   UNL     1     -11.555  11.870  69.469  1.00  0.00    -0.327 A  
HETATM    8  C   UNL     1     -12.549  10.115  70.495  1.00  0.00    -0.213 A  
HETATM    9  C   UNL     1     -10.399  11.122  69.203  1.00  0.00    -0.186 A  
HETATM   10  C   UNL     1     -11.626  13.189  69.057  1.00  0.00    -0.360 A  
HETATM   11  N   UNL     1     -11.528   9.290  70.273  1.00  0.00    -0.211 NA 
HETATM   12  C   UNL     1     -10.450   9.769  69.619  1.00  0.00    -0.242 A  
BRANCH   4  13
HETATM   13  N   UNL     1      -8.276  13.804  67.624  1.00  0.00    -0.163 N  
HETATM   14  H   UNL     1      -8.332  14.119  66.656  1.00  0.00     0.000 HD 
HETATM   15  C   UNL     1      -7.123  14.058  68.338  1.00  0.00    -0.102 C  
HETATM   16  O   UNL     1      -6.908  13.673  69.485  1.00  0.00    -0.075 OA 
BRANCH  15  17
HETATM   17  C   UNL     1      -6.162  14.965  67.643  1.00  0.00    -0.123 C  
HETATM   18  C   UNL     1      -6.580  16.210  67.349  1.00  0.00    -0.219 C  
BRANCH  18  19
HETATM   19  C   UNL     1      -5.859  17.230  66.514  1.00  0.00    -0.205 C  
BRANCH  19  20
HETATM   20  N   UNL     1      -5.147  18.281  67.259  1.00  0.00    -0.130 NA 
HETATM   21  C   UNL     1      -7.102  20.416  67.946  1.00  0.00    -0.327 C  
HETATM   22  C   UNL     1      -5.181  19.560  66.520  1.00  0.00    -0.162 C  
HETATM   23  C   UNL     1      -7.021  19.105  68.720  1.00  0.00    -0.356 C  
HETATM   24  C   UNL     1      -6.549  20.261  66.532  1.00  0.00    -0.261 C  
HETATM   25  C   UNL     1      -5.616  18.507  68.635  1.00  0.00    -0.186 C  
ENDBRANCH  19  20
ENDBRANCH  18  19
ENDBRANCH  15  17
ENDBRANCH   4  13
BRANCH  12  26
HETATM   26  N   UNL     1      -9.433   8.866  69.237  1.00  0.00    -0.159 NA 
HETATM   27  H   UNL     1      -9.314   8.766  68.229  1.00  0.00     0.000 HD 
BRANCH  26  28
HETATM   28  C   UNL     1      -8.552   8.078  70.009  1.00  0.00    -0.134 A  
HETATM   29  C   UNL     1      -8.674   6.679  69.940  1.00  0.00    -0.141 A  
HETATM   30  C   UNL     1      -7.972   5.850  70.823  1.00  0.00    -0.114 A  
HETATM   31  C   UNL     1      -6.965   7.778  71.850  1.00  0.00    -0.066 A  
HETATM   32  C   UNL     1      -7.668   8.602  70.966  1.00  0.00    -0.120 A  
HETATM   33  C   UNL     1      -7.137   6.405  71.786  1.00  0.00    -0.085 A  
HETATM   34  F   UNL     1      -6.495   5.633  72.674  1.00  0.00    -0.055 F  
HETATM   35 CL   UNL     1      -8.183   4.144  70.730  1.00  0.00    -0.070 Cl 
ENDBRANCH  26  28
ENDBRANCH  12  26
ENDBRANCH   2   3
TORSDOF 7
ENDMDL
MODEL      150
REMARK 921   NORMALIZED FREE ENERGY PREDICTED BY IDOCK:   -4.39 KCAL/MOL
REMARK 922        TOTAL FREE ENERGY PREDICTED BY IDOCK:   -7.10 KCAL/MOL
REMARK 923 INTER-LIGAND FREE ENERGY PREDICTED BY IDOCK:   -6.16 KCAL/MOL
REMARK 924 INTRA-LIGAND FREE ENERGY PREDICTED BY IDOCK:   -0.94 KCAL/MOL
REMARK 927      BINDING AFFINITY PREDICTED BY RF-SCORE:    0.00 PKD
ROOT
HETATM    1  C   UNL     1     -11.032   9.366  67.485  1.00  0.00    -0.018 C  
HETATM    2  O   UNL     1     -10.373   9.847  68.656  1.00  0.00    -0.180 OA 
ENDROOT
BRANCH   2   3
HETATM    3  C   UNL     1     -10.275  11.212  68.775  1.00  0.00    -0.206 A  
HETATM    4  C   UNL     1      -9.075  11.797  68.363  1.00  0.00    -0.176 A  
HETATM    5  N   UNL     1     -12.268  14.101  69.656  1.00  0.00    -0.338 NA 
HETATM    6  C   UNL     1      -8.911  13.187  68.476  1.00  0.00    -0.048 A  
HETATM    7  C   UNL     1     -11.190  13.419  69.265  1.00  0.00    -0.219 A  
HETATM    8  C   UNL     1     -12.134  15.421  69.739  1.00  0.00    -0.347 A  
HETATM    9  C   UNL     1      -9.968  14.020  68.928  1.00  0.00    -0.103 A  
HETATM   10  C   UNL     1     -11.318  12.043  69.192  1.00  0.00    -0.338 A  
HETATM   11  N   UNL     1     -11.023  16.108  69.483  1.00  0.00    -0.317 NA 
HETATM   12  C   UNL     1      -9.927  15.426  69.089  1.00  0.00    -0.241 A  
BRANCH   4  13
HETATM   13  N   UNL     1      -8.061  10.967  67.819  1.00  0.00    -0.114 N  
HETATM   14  H   UNL     1      -7.420  10.495  68.456  1.00  0.00     0.000 HD 
HETATM   15  C   UNL     1      -7.908  10.774  66.461  1.00  0.00    -0.145 C  
HETATM   16  O   UNL     1      -8.570  11.336  65.592  1.00  0.00    -0.137 OA 
BRANCH  15  17
HETATM   17  C   UNL     1      -6.924   9.708  66.103  1.00  0.00    -0.093 C  
HETATM   18  C   UNL     1      -7.411   8.521  65.696  1.00  0.00    -0.085 C  
BRANCH  18  19
HETATM   19  C   UNL     1      -6.628   7.263  65.449  1.00  0.00    -0.047 C  
BRANCH  19  20
HETATM   20  N   UNL     1      -7.299   6.007  65.823  1.00  0.00    -0.075 NA 
HETATM   21  C   UNL     1      -5.283   3.820  65.743  1.00  0.00    -0.009 C  
HETATM   22  C   UNL     1      -7.256   5.039  64.706  1.00  0.00    -0.063 C  
HETATM   23  C   UNL     1      -5.372   4.805  66.904  1.00  0.00    -0.012 C  
HETATM   24  C   UNL     1      -5.874   4.411  64.466  1.00  0.00    -0.014 C  
HETATM   25  C   UNL     1      -6.791   5.358  67.042  1.00  0.00    -0.063 C  
ENDBRANCH  19  20
ENDBRANCH  18  19
ENDBRANCH  15  17
ENDBRANCH   4  13
BRANCH  12  26
HETATM   26  N   UNL     1      -8.703  16.123  68.970  1.00  0.00    -0.248 NA 
HETATM   27  H   UNL     1      -7.976  15.809  69.613  1.00  0.00     0.000 HD 
BRANCH  26  28
HETATM   28  C   UNL     1      -8.312  17.177  68.116  1.00  0.00    -0.226 A  
HETATM   29  C   UNL     1      -8.977  18.410  68.232  1.00  0.00    -0.330 A  
HETATM   30  C   UNL     1      -8.778  19.426  67.289  1.00  0.00    -0.296 A  
HETATM   31  C   UNL     1      -7.213  18.037  66.105  1.00  0.00    -0.325 A  
HETATM   32  C   UNL     1      -7.414  17.025  67.047  1.00  0.00    -0.227 A  
HETATM   33  C   UNL     1      -7.912  19.227  66.220  1.00  0.00    -0.308 A  
HETATM   34  F   UNL     1      -7.746  20.167  65.279  1.00  0.00    -0.304 F  
HETATM   35 CL   UNL     1      -9.644  20.906  67.446  1.00  0.00    -0.511 Cl 
ENDBRANCH  26  28
ENDBRANCH  12  26
ENDBRANCH   2   3
TORSDOF 7
ENDMDL
MODEL      151
REMARK 921   NORMALIZED FREE ENERGY PREDICTED BY IDOCK:   -4.39 KCAL/MOL
REMARK 922        TOTAL FREE ENERGY PREDICTED BY IDOCK:   -7.10 KCAL/MOL
REMARK 923 INTER-LIGAND FREE ENERGY PREDICTED BY IDOCK:   -6.33 KCAL/MOL
REMARK 924 INTRA-LIGAND FREE ENERGY PREDICTED BY IDOCK:   -0.77 KCAL/MOL
REMARK 927      BINDING AFFINITY PREDICTED BY RF-SCORE:    0.00 PKD
ROOT
HETATM    1  C   UNL     1      -9.881   3.066  71.911  1.00  0.00    -0.166 C  
HETATM    2  O   UNL     1      -9.139   3.897  71.020  1.00  0.00    -0.101 OA 
ENDROOT
BRANCH   2   3
HETATM    3  C   UNL     1      -9.616   5.173  70.848  1.00  0.00    -0.175 A  
HETATM    4  C   UNL     1      -9.348   5.788  69.621  1.00  0.00    -0.139 A  
HETATM    5  N   UNL     1     -11.675   7.646  72.504  1.00  0.00    -0.320 NA 
HETATM    6  C   UNL     1      -9.797   7.099  69.394  1.00  0.00    -0.161 A  
HETATM    7  C   UNL     1     -10.904   7.122  71.549  1.00  0.00    -0.225 A  
HETATM    8  C   UNL     1     -12.130   8.876  72.288  1.00  0.00    -0.322 A  
HETATM    9  C   UNL     1     -10.584   7.786  70.356  1.00  0.00    -0.227 A  
HETATM   10  C   UNL     1     -10.415   5.848  71.775  1.00  0.00    -0.276 A  
HETATM   11  N   UNL     1     -11.871   9.624  71.218  1.00  0.00    -0.351 NA 
HETATM   12  C   UNL     1     -11.091   9.104  70.247  1.00  0.00    -0.239 A  
BRANCH   4  13
HETATM   13  N   UNL     1      -8.647   5.056  68.628  1.00  0.00    -0.093 N  
HETATM   14  H   UNL     1      -9.182   4.518  67.947  1.00  0.00     0.000 HD 
HETATM   15  C   UNL     1      -7.270   5.043  68.548  1.00  0.00    -0.062 C  
HETATM   16  O   UNL     1      -6.515   5.594  69.345  1.00  0.00    -0.041 OA 
BRANCH  15  17
HETATM   17  C   UNL     1      -6.736   4.388  67.316  1.00  0.00    -0.047 C  
HETATM   18  C   UNL     1      -5.909   5.108  66.535  1.00  0.00    -0.022 C  
BRANCH  18  19
HETATM   19  C   UNL     1      -5.390   4.725  65.179  1.00  0.00    -0.013 C  
BRANCH  19  20
HETATM   20  N   UNL     1      -5.289   5.818  64.199  1.00  0.00    -0.016 NA 
HETATM   21  C   UNL     1      -7.905   6.056  62.801  1.00  0.00    -0.094 C  
HETATM   22  C   UNL     1      -5.477   5.308  62.824  1.00  0.00    -0.013 C  
HETATM   23  C   UNL     1      -7.676   6.612  64.202  1.00  0.00    -0.109 C  
HETATM   24  C   UNL     1      -6.927   4.928  62.483  1.00  0.00    -0.030 C  
HETATM   25  C   UNL     1      -6.201   6.952  64.420  1.00  0.00    -0.036 C  
ENDBRANCH  19  20
ENDBRANCH  18  19
ENDBRANCH  15  17
ENDBRANCH   4  13
BRANCH  12  26
HETATM   26  N   UNL     1     -10.679   9.942  69.187  1.00  0.00    -0.217 NA 
HETATM   27  H   UNL     1      -9.812   9.654  68.735  1.00  0.00     0.000 HD 
BRANCH  26  28
HETATM   28  C   UNL     1     -11.260  11.110  68.646  1.00  0.00    -0.255 A  
HETATM   29  C   UNL     1     -11.398  11.200  67.250  1.00  0.00    -0.302 A  
HETATM   30  C   UNL     1     -11.778  12.402  66.641  1.00  0.00    -0.372 A  
HETATM   31  C   UNL     1     -11.940  13.457  68.796  1.00  0.00    -0.359 A  
HETATM   32  C   UNL     1     -11.561  12.255  69.400  1.00  0.00    -0.378 A  
HETATM   33  C   UNL     1     -12.028  13.529  67.416  1.00  0.00    -0.357 A  
HETATM   34  F   UNL     1     -12.344  14.703  66.849  1.00  0.00    -0.397 F  
HETATM   35 CL   UNL     1     -11.894  12.481  64.925  1.00  0.00    -0.412 Cl 
ENDBRANCH  26  28
ENDBRANCH  12  26
ENDBRANCH   2   3
TORSDOF 7
ENDMDL
MODEL      152
REMARK 921   NORMALIZED FREE ENERGY PREDICTED BY IDOCK:   -4.38 KCAL/MOL
REMARK 922        TOTAL FREE ENERGY PREDICTED BY IDOCK:   -7.10 KCAL/MOL
REMARK 923 INTER-LIGAND FREE ENERGY PREDICTED BY IDOCK:   -6.31 KCAL/MOL
REMARK 924 INTRA-LIGAND FREE ENERGY PREDICTED BY IDOCK:   -0.79 KCAL/MOL
REMARK 927      BINDING AFFINITY PREDICTED BY RF-SCORE:    0.00 PKD
ROOT
HETATM    1  C   UNL     1     -10.895   5.054  66.006  1.00  0.00    -0.090 C  
HETATM    2  O   UNL     1     -10.906   5.771  67.239  1.00  0.00    -0.272 OA 
ENDROOT
BRANCH   2   3
HETATM    3  C   UNL     1     -10.534   7.091  67.172  1.00  0.00    -0.312 A  
HETATM    4  C   UNL     1     -10.762   7.871  68.309  1.00  0.00    -0.031 A  
HETATM    5  N   UNL     1      -8.835   9.419  64.983  1.00  0.00    -0.185 NA 
HETATM    6  C   UNL     1     -10.417   9.232  68.293  1.00  0.00    -0.260 A  
HETATM    7  C   UNL     1      -9.482   8.996  66.071  1.00  0.00    -0.256 A  
HETATM    8  C   UNL     1      -8.478  10.699  64.967  1.00  0.00    -0.133 A  
HETATM    9  C   UNL     1      -9.770   9.815  67.172  1.00  0.00    -0.223 A  
HETATM   10  C   UNL     1      -9.871   7.669  66.086  1.00  0.00     0.044 A  
HETATM   11  N   UNL     1      -8.722  11.586  65.930  1.00  0.00    -0.119 NA 
HETATM   12  C   UNL     1      -9.376  11.169  67.033  1.00  0.00    -0.170 A  
BRANCH   4  13
HETATM   13  N   UNL     1     -11.319   7.255  69.460  1.00  0.00    -0.475 N  
HETATM   14  H   UNL     1     -12.333   7.189  69.538  1.00  0.00     0.000 HD 
HETATM   15  C   UNL     1     -10.541   6.741  70.478  1.00  0.00    -0.225 C  
HETATM   16  O   UNL     1      -9.316   6.818  70.533  1.00  0.00    -0.162 OA 
BRANCH  15  17
HETATM   17  C   UNL     1     -11.304   5.953  71.491  1.00  0.00    -0.256 C  
HETATM   18  C   UNL     1     -10.652   5.570  72.604  1.00  0.00    -0.270 C  
BRANCH  18  19
HETATM   19  C   UNL     1     -11.157   4.639  73.669  1.00  0.00    -0.300 C  
BRANCH  19  20
HETATM   20  N   UNL     1     -10.139   3.802  74.325  1.00  0.00    -0.140 NA 
HETATM   21  C   UNL     1      -9.392   1.613  72.453  1.00  0.00    -0.123 C  
HETATM   22  C   UNL     1     -10.638   2.424  74.514  1.00  0.00    -0.112 C  
HETATM   23  C   UNL     1      -8.858   3.033  72.302  1.00  0.00    -0.112 C  
HETATM   24  C   UNL     1     -10.711   1.595  73.222  1.00  0.00    -0.222 C  
HETATM   25  C   UNL     1      -8.832   3.753  73.651  1.00  0.00    -0.089 C  
ENDBRANCH  19  20
ENDBRANCH  18  19
ENDBRANCH  15  17
ENDBRANCH   4  13
BRANCH  12  26
HETATM   26  N   UNL     1      -9.781  12.131  67.985  1.00  0.00    -0.198 NA 
HETATM   27  H   UNL     1     -10.551  11.833  68.584  1.00  0.00     0.000 HD 
BRANCH  26  28
HETATM   28  C   UNL     1      -9.305  13.434  68.250  1.00  0.00    -0.205 A  
HETATM   29  C   UNL     1     -10.176  14.517  68.040  1.00  0.00    -0.233 A  
HETATM   30  C   UNL     1      -9.709  15.836  68.092  1.00  0.00    -0.211 A  
HETATM   31  C   UNL     1      -7.497  15.045  68.607  1.00  0.00    -0.122 A  
HETATM   32  C   UNL     1      -7.967  13.731  68.555  1.00  0.00    -0.131 A  
HETATM   33  C   UNL     1      -8.368  16.092  68.355  1.00  0.00    -0.179 A  
HETATM   34  F   UNL     1      -7.891  17.345  68.360  1.00  0.00    -0.215 F  
HETATM   35 CL   UNL     1     -10.801  17.132  67.787  1.00  0.00    -0.320 Cl 
ENDBRANCH  26  28
ENDBRANCH  12  26
ENDBRANCH   2   3
TORSDOF 7
ENDMDL
MODEL      153
REMARK 921   NORMALIZED FREE ENERGY PREDICTED BY IDOCK:   -4.37 KCAL/MOL
REMARK 922        TOTAL FREE ENERGY PREDICTED BY IDOCK:   -7.07 KCAL/MOL
REMARK 923 INTER-LIGAND FREE ENERGY PREDICTED BY IDOCK:   -5.96 KCAL/MOL
REMARK 924 INTRA-LIGAND FREE ENERGY PREDICTED BY IDOCK:   -1.11 KCAL/MOL
REMARK 927      BINDING AFFINITY PREDICTED BY RF-SCORE:    0.00 PKD
ROOT
HETATM    1  C   UNL     1      -8.225   5.527  63.987  1.00  0.00    -0.117 C  
HETATM    2  O   UNL     1      -9.066   5.713  65.124  1.00  0.00    -0.061 OA 
ENDROOT
BRANCH   2   3
HETATM    3  C   UNL     1      -8.486   5.479  66.347  1.00  0.00    -0.119 A  
HETATM    4  C   UNL     1      -8.861   6.323  67.396  1.00  0.00    -0.107 A  
HETATM    5  N   UNL     1      -6.305   3.120  68.012  1.00  0.00    -0.032 NA 
HETATM    6  C   UNL     1      -8.289   6.142  68.665  1.00  0.00    -0.114 A  
HETATM    7  C   UNL     1      -7.092   4.189  67.876  1.00  0.00    -0.059 A  
HETATM    8  C   UNL     1      -5.780   2.921  69.216  1.00  0.00    -0.022 A  
HETATM    9  C   UNL     1      -7.395   5.069  68.925  1.00  0.00    -0.058 A  
HETATM   10  C   UNL     1      -7.628   4.410  66.620  1.00  0.00    -0.089 A  
HETATM   11  N   UNL     1      -5.960   3.699  70.282  1.00  0.00    -0.018 NA 
HETATM   12  C   UNL     1      -6.753   4.783  70.154  1.00  0.00    -0.037 A  
BRANCH   4  13
HETATM   13  N   UNL     1      -9.830   7.330  67.150  1.00  0.00    -0.170 N  
HETATM   14  H   UNL     1     -10.804   7.052  67.028  1.00  0.00     0.000 HD 
HETATM   15  C   UNL     1      -9.508   8.669  67.069  1.00  0.00    -0.171 C  
HETATM   16  O   UNL     1      -8.367   9.122  67.131  1.00  0.00    -0.115 OA 
BRANCH  15  17
HETATM   17  C   UNL     1     -10.690   9.580  67.014  1.00  0.00    -0.220 C  
HETATM   18  C   UNL     1     -10.461  10.904  67.082  1.00  0.00    -0.281 C  
BRANCH  18  19
HETATM   19  C   UNL     1     -11.490  11.991  67.215  1.00  0.00    -0.335 C  
BRANCH  19  20
HETATM   20  N   UNL     1     -11.208  13.234  66.480  1.00  0.00    -0.298 NA 
HETATM   21  C   UNL     1     -12.123  12.880  63.671  1.00  0.00    -0.611 C  
HETATM   22  C   UNL     1     -10.249  12.988  65.383  1.00  0.00    -0.288 C  
HETATM   23  C   UNL     1     -13.090  13.176  64.813  1.00  0.00    -0.002 C  
HETATM   24  C   UNL     1     -10.841  12.230  64.184  1.00  0.00    -0.412 C  
HETATM   25  C   UNL     1     -12.387  13.931  65.941  1.00  0.00    -0.483 C  
ENDBRANCH  19  20
ENDBRANCH  18  19
ENDBRANCH  15  17
ENDBRANCH   4  13
BRANCH  12  26
HETATM   26  N   UNL     1      -6.822   5.701  71.226  1.00  0.00    -0.060 NA 
HETATM   27  H   UNL     1      -5.923   6.093  71.504  1.00  0.00     0.000 HD 
BRANCH  26  28
HETATM   28  C   UNL     1      -7.921   6.168  71.980  1.00  0.00    -0.106 A  
HETATM   29  C   UNL     1      -8.879   5.234  72.412  1.00  0.00    -0.130 A  
HETATM   30  C   UNL     1     -10.085   5.653  72.987  1.00  0.00    -0.181 A  
HETATM   31  C   UNL     1      -9.407   7.950  72.763  1.00  0.00    -0.297 A  
HETATM   32  C   UNL     1      -8.204   7.527  72.190  1.00  0.00    -0.118 A  
HETATM   33  C   UNL     1     -10.351   7.009  73.141  1.00  0.00    -0.281 A  
HETATM   34  F   UNL     1     -11.519   7.433  73.643  1.00  0.00    -0.173 F  
HETATM   35 CL   UNL     1     -11.248   4.476  73.463  1.00  0.00    -0.398 Cl 
ENDBRANCH  26  28
ENDBRANCH  12  26
ENDBRANCH   2   3
TORSDOF 7
ENDMDL
MODEL      154
REMARK 921   NORMALIZED FREE ENERGY PREDICTED BY IDOCK:   -4.35 KCAL/MOL
REMARK 922        TOTAL FREE ENERGY PREDICTED BY IDOCK:   -7.05 KCAL/MOL
REMARK 923 INTER-LIGAND FREE ENERGY PREDICTED BY IDOCK:   -5.94 KCAL/MOL
REMARK 924 INTRA-LIGAND FREE ENERGY PREDICTED BY IDOCK:   -1.11 KCAL/MOL
REMARK 927      BINDING AFFINITY PREDICTED BY RF-SCORE:    0.00 PKD
ROOT
HETATM    1  C   UNL     1      -5.653   9.992  70.264  1.00  0.00    -0.051 C  
HETATM    2  O   UNL     1      -5.153  10.521  69.037  1.00  0.00    -0.042 OA 
ENDROOT
BRANCH   2   3
HETATM    3  C   UNL     1      -5.665  11.736  68.652  1.00  0.00    -0.045 A  
HETATM    4  C   UNL     1      -6.723  11.715  67.737  1.00  0.00    -0.072 A  
HETATM    5  N   UNL     1      -5.362  15.267  69.383  1.00  0.00    -0.093 NA 
HETATM    6  C   UNL     1      -7.275  12.927  67.295  1.00  0.00    -0.075 A  
HETATM    7  C   UNL     1      -5.824  14.165  68.787  1.00  0.00    -0.085 A  
HETATM    8  C   UNL     1      -5.898  16.419  68.993  1.00  0.00    -0.136 A  
HETATM    9  C   UNL     1      -6.834  14.172  67.815  1.00  0.00    -0.188 A  
HETATM   10  C   UNL     1      -5.258  12.965  69.178  1.00  0.00    -0.069 A  
HETATM   11  N   UNL     1      -6.835  16.564  68.059  1.00  0.00    -0.136 NA 
HETATM   12  C   UNL     1      -7.307  15.456  67.449  1.00  0.00    -0.213 A  
BRANCH   4  13
HETATM   13  N   UNL     1      -7.222  10.461  67.299  1.00  0.00    -0.088 N  
HETATM   14  H   UNL     1      -7.812   9.921  67.932  1.00  0.00     0.000 HD 
HETATM   15  C   UNL     1      -6.942   9.944  66.051  1.00  0.00    -0.104 C  
HETATM   16  O   UNL     1      -6.194  10.464  65.227  1.00  0.00    -0.119 OA 
BRANCH  15  17
HETATM   17  C   UNL     1      -7.728   8.721  65.707  1.00  0.00    -0.094 C  
HETATM   18  C   UNL     1      -7.740   7.715  66.601  1.00  0.00    -0.098 C  
BRANCH  18  19
HETATM   19  C   UNL     1      -8.313   6.341  66.402  1.00  0.00    -0.118 C  
BRANCH  19  20
HETATM   20  N   UNL     1      -9.738   6.186  66.735  1.00  0.00    -0.153 NA 
HETATM   21  C   UNL     1      -9.931   4.884  69.404  1.00  0.00    -0.282 C  
HETATM   22  C   UNL     1     -10.091   4.757  66.871  1.00  0.00    -0.210 C  
HETATM   23  C   UNL     1      -9.609   6.365  69.241  1.00  0.00    -0.145 C  
HETATM   24  C   UNL     1      -9.560   4.093  68.151  1.00  0.00    -0.195 C  
HETATM   25  C   UNL     1     -10.189   6.909  67.935  1.00  0.00    -0.174 C  
ENDBRANCH  19  20
ENDBRANCH  18  19
ENDBRANCH  15  17
ENDBRANCH   4  13
BRANCH  12  26
HETATM   26  N   UNL     1      -8.180  15.609  66.349  1.00  0.00    -0.341 NA 
HETATM   27  H   UNL     1      -7.747  16.021  65.522  1.00  0.00     0.000 HD 
BRANCH  26  28
HETATM   28  C   UNL     1      -9.547  15.290  66.195  1.00  0.00    -0.321 A  
HETATM   29  C   UNL     1     -10.244  14.789  67.309  1.00  0.00    -0.241 A  
HETATM   30  C   UNL     1     -11.537  14.270  67.174  1.00  0.00    -0.380 A  
HETATM   31  C   UNL     1     -11.505  14.769  64.822  1.00  0.00    -0.410 A  
HETATM   32  C   UNL     1     -10.215  15.287  64.961  1.00  0.00    -0.324 A  
HETATM   33  C   UNL     1     -12.153  14.244  65.928  1.00  0.00    -0.404 A  
HETATM   34  F   UNL     1     -13.370  13.706  65.768  1.00  0.00    -0.382 F  
HETATM   35 CL   UNL     1     -12.339  13.629  68.557  1.00  0.00    -0.154 Cl 
ENDBRANCH  26  28
ENDBRANCH  12  26
ENDBRANCH   2   3
TORSDOF 7
ENDMDL
MODEL      155
REMARK 921   NORMALIZED FREE ENERGY PREDICTED BY IDOCK:   -4.30 KCAL/MOL
REMARK 922        TOTAL FREE ENERGY PREDICTED BY IDOCK:   -6.98 KCAL/MOL
REMARK 923 INTER-LIGAND FREE ENERGY PREDICTED BY IDOCK:   -6.41 KCAL/MOL
REMARK 924 INTRA-LIGAND FREE ENERGY PREDICTED BY IDOCK:   -0.57 KCAL/MOL
REMARK 927      BINDING AFFINITY PREDICTED BY RF-SCORE:    0.00 PKD
ROOT
HETATM    1  C   UNL     1      -6.517  15.143  70.157  1.00  0.00    -0.115 C  
HETATM    2  O   UNL     1      -6.261  14.360  68.992  1.00  0.00    -0.087 OA 
ENDROOT
BRANCH   2   3
HETATM    3  C   UNL     1      -6.586  13.029  69.077  1.00  0.00    -0.105 A  
HETATM    4  C   UNL     1      -7.794  12.635  68.493  1.00  0.00    -0.104 A  
HETATM    5  N   UNL     1      -5.213   9.870  70.187  1.00  0.00    -0.036 NA 
HETATM    6  C   UNL     1      -8.187  11.289  68.563  1.00  0.00    -0.150 A  
HETATM    7  C   UNL     1      -6.106  10.710  69.659  1.00  0.00    -0.061 A  
HETATM    8  C   UNL     1      -5.561   8.589  70.233  1.00  0.00    -0.021 A  
HETATM    9  C   UNL     1      -7.346  10.305  69.147  1.00  0.00    -0.096 A  
HETATM   10  C   UNL     1      -5.755  12.048  69.624  1.00  0.00    -0.095 A  
HETATM   11  N   UNL     1      -6.719   8.082  69.814  1.00  0.00    -0.040 NA 
HETATM   12  C   UNL     1      -7.629   8.923  69.280  1.00  0.00    -0.082 A  
BRANCH   4  13
HETATM   13  N   UNL     1      -8.579  13.609  67.824  1.00  0.00    -0.168 N  
HETATM   14  H   UNL     1      -8.158  14.138  67.061  1.00  0.00     0.000 HD 
HETATM   15  C   UNL     1      -9.891  13.869  68.166  1.00  0.00    -0.240 C  
HETATM   16  O   UNL     1     -10.489  13.349  69.104  1.00  0.00    -0.097 OA 
BRANCH  15  17
HETATM   17  C   UNL     1     -10.602  14.773  67.212  1.00  0.00    -0.273 C  
HETATM   18  C   UNL     1      -9.912  15.811  66.705  1.00  0.00    -0.268 C  
BRANCH  18  19
HETATM   19  C   UNL     1     -10.459  16.935  65.871  1.00  0.00    -0.285 C  
BRANCH  19  20
HETATM   20  N   UNL     1      -9.599  18.123  65.753  1.00  0.00    -0.443 NA 
HETATM   21  C   UNL     1      -9.729  19.621  68.322  1.00  0.00    -0.500 C  
HETATM   22  C   UNL     1     -10.396  19.361  65.884  1.00  0.00    -0.451 C  
HETATM   23  C   UNL     1      -8.882  18.365  68.152  1.00  0.00    -0.319 C  
HETATM   24  C   UNL     1     -10.875  19.658  67.314  1.00  0.00    -0.519 C  
HETATM   25  C   UNL     1      -8.467  18.179  66.692  1.00  0.00    -0.264 C  
ENDBRANCH  19  20
ENDBRANCH  18  19
ENDBRANCH  15  17
ENDBRANCH   4  13
BRANCH  12  26
HETATM   26  N   UNL     1      -8.917   8.426  68.982  1.00  0.00    -0.146 NA 
HETATM   27  H   UNL     1      -9.679   9.065  69.212  1.00  0.00     0.000 HD 
BRANCH  26  28
HETATM   28  C   UNL     1      -9.334   7.200  68.421  1.00  0.00    -0.135 A  
HETATM   29  C   UNL     1      -9.312   6.053  69.235  1.00  0.00    -0.146 A  
HETATM   30  C   UNL     1      -9.520   4.780  68.690  1.00  0.00    -0.150 A  
HETATM   31  C   UNL     1      -9.821   5.749  66.510  1.00  0.00    -0.193 A  
HETATM   32  C   UNL     1      -9.614   7.018  67.057  1.00  0.00    -0.199 A  
HETATM   33  C   UNL     1      -9.753   4.633  67.327  1.00  0.00    -0.185 A  
HETATM   34  F   UNL     1      -9.904   3.420  66.778  1.00  0.00    -0.194 F  
HETATM   35 CL   UNL     1      -9.444   3.399  69.716  1.00  0.00    -0.244 Cl 
ENDBRANCH  26  28
ENDBRANCH  12  26
ENDBRANCH   2   3
TORSDOF 7
ENDMDL
MODEL      156
REMARK 921   NORMALIZED FREE ENERGY PREDICTED BY IDOCK:   -4.30 KCAL/MOL
REMARK 922        TOTAL FREE ENERGY PREDICTED BY IDOCK:   -6.97 KCAL/MOL
REMARK 923 INTER-LIGAND FREE ENERGY PREDICTED BY IDOCK:   -6.71 KCAL/MOL
REMARK 924 INTRA-LIGAND FREE ENERGY PREDICTED BY IDOCK:   -0.26 KCAL/MOL
REMARK 927      BINDING AFFINITY PREDICTED BY RF-SCORE:    0.00 PKD
ROOT
HETATM    1  C   UNL     1      -8.514   8.760  63.539  1.00  0.00    -0.105 C  
HETATM    2  O   UNL     1      -8.575   8.568  64.952  1.00  0.00    -0.171 OA 
ENDROOT
BRANCH   2   3
HETATM    3  C   UNL     1      -9.340   9.470  65.650  1.00  0.00    -0.241 A  
HETATM    4  C   UNL     1      -9.639   9.150  66.978  1.00  0.00    -0.170 A  
HETATM    5  N   UNL     1     -10.809  12.760  65.311  1.00  0.00    -0.285 NA 
HETATM    6  C   UNL     1     -10.431  10.027  67.737  1.00  0.00    -0.282 A  
HETATM    7  C   UNL     1     -10.496  11.603  65.898  1.00  0.00    -0.255 A  
HETATM    8  C   UNL     1     -11.534  13.610  66.029  1.00  0.00    -0.324 A  
HETATM    9  C   UNL     1     -10.871  11.269  67.207  1.00  0.00    -0.317 A  
HETATM   10  C   UNL     1      -9.755  10.707  65.149  1.00  0.00    -0.327 A  
HETATM   11  N   UNL     1     -11.982  13.400  67.265  1.00  0.00    -0.363 NA 
HETATM   12  C   UNL     1     -11.672  12.232  67.867  1.00  0.00    -0.347 A  
BRANCH   4  13
HETATM   13  N   UNL     1      -9.111   7.954  67.529  1.00  0.00    -0.133 N  
HETATM   14  H   UNL     1      -9.001   7.142  66.921  1.00  0.00     0.000 HD 
HETATM   15  C   UNL     1      -8.739   7.846  68.853  1.00  0.00    -0.135 C  
HETATM   16  O   UNL     1      -8.883   8.727  69.697  1.00  0.00    -0.135 OA 
BRANCH  15  17
HETATM   17  C   UNL     1      -8.016   6.581  69.183  1.00  0.00    -0.111 C  
HETATM   18  C   UNL     1      -7.858   5.678  68.198  1.00  0.00    -0.096 C  
BRANCH  18  19
HETATM   19  C   UNL     1      -7.321   4.281  68.333  1.00  0.00    -0.060 C  
BRANCH  19  20
HETATM   20  N   UNL     1      -6.016   4.032  67.701  1.00  0.00    -0.026 NA 
HETATM   21  C   UNL     1      -6.453   2.289  65.329  1.00  0.00    -0.024 C  
HETATM   22  C   UNL     1      -5.686   2.592  67.732  1.00  0.00    -0.019 C  
HETATM   23  C   UNL     1      -6.747   3.785  65.307  1.00  0.00    -0.045 C  
HETATM   24  C   UNL     1      -6.500   1.734  66.750  1.00  0.00    -0.023 C  
HETATM   25  C   UNL     1      -5.877   4.528  66.322  1.00  0.00    -0.023 C  
ENDBRANCH  19  20
ENDBRANCH  18  19
ENDBRANCH  15  17
ENDBRANCH   4  13
BRANCH  12  26
HETATM   26  N   UNL     1     -12.273  11.931  69.109  1.00  0.00    -0.176 NA 
HETATM   27  H   UNL     1     -12.536  10.952  69.224  1.00  0.00     0.000 HD 
BRANCH  26  28
HETATM   28  C   UNL     1     -12.573  12.750  70.219  1.00  0.00     0.010 A  
HETATM   29  C   UNL     1     -12.134  14.086  70.201  1.00  0.00    -0.419 A  
HETATM   30  C   UNL     1     -12.224  14.889  71.344  1.00  0.00    -0.333 A  
HETATM   31  C   UNL     1     -13.232  13.072  72.555  1.00  0.00    -0.379 A  
HETATM   32  C   UNL     1     -13.141  12.274  71.412  1.00  0.00    -0.285 A  
HETATM   33  C   UNL     1     -12.754  14.371  72.521  1.00  0.00    -0.326 A  
HETATM   34  F   UNL     1     -12.802  15.107  73.641  1.00  0.00    -0.506 F  
HETATM   35 CL   UNL     1     -11.636  16.506  71.290  1.00  0.00    -0.278 Cl 
ENDBRANCH  26  28
ENDBRANCH  12  26
ENDBRANCH   2   3
TORSDOF 7
ENDMDL
MODEL      157
REMARK 921   NORMALIZED FREE ENERGY PREDICTED BY IDOCK:   -4.28 KCAL/MOL
REMARK 922        TOTAL FREE ENERGY PREDICTED BY IDOCK:   -6.95 KCAL/MOL
REMARK 923 INTER-LIGAND FREE ENERGY PREDICTED BY IDOCK:   -6.38 KCAL/MOL
REMARK 924 INTRA-LIGAND FREE ENERGY PREDICTED BY IDOCK:   -0.57 KCAL/MOL
REMARK 927      BINDING AFFINITY PREDICTED BY RF-SCORE:    0.00 PKD
ROOT
HETATM    1  C   UNL     1      -5.781  14.159  71.592  1.00  0.00    -0.195 C  
HETATM    2  O   UNL     1      -5.311  14.179  70.244  1.00  0.00    -0.096 OA 
ENDROOT
BRANCH   2   3
HETATM    3  C   UNL     1      -6.243  14.490  69.286  1.00  0.00    -0.112 A  
HETATM    4  C   UNL     1      -6.850  13.418  68.623  1.00  0.00    -0.098 A  
HETATM    5  N   UNL     1      -7.991  17.334  67.890  1.00  0.00    -0.200 NA 
HETATM    6  C   UNL     1      -7.800  13.676  67.622  1.00  0.00    -0.178 A  
HETATM    7  C   UNL     1      -7.647  16.055  68.050  1.00  0.00    -0.129 A  
HETATM    8  C   UNL     1      -8.910  17.588  66.964  1.00  0.00    -0.240 A  
HETATM    9  C   UNL     1      -8.214  15.000  67.320  1.00  0.00    -0.236 A  
HETATM   10  C   UNL     1      -6.679  15.787  69.001  1.00  0.00    -0.143 A  
HETATM   11  N   UNL     1      -9.498  16.684  66.183  1.00  0.00    -0.367 NA 
HETATM   12  C   UNL     1      -9.155  15.388  66.336  1.00  0.00    -0.314 A  
BRANCH   4  13
HETATM   13  N   UNL     1      -6.502  12.096  69.001  1.00  0.00    -0.085 N  
HETATM   14  H   UNL     1      -6.275  11.910  69.978  1.00  0.00     0.000 HD 
HETATM   15  C   UNL     1      -6.459  11.052  68.100  1.00  0.00    -0.057 C  
HETATM   16  O   UNL     1      -6.645  11.160  66.891  1.00  0.00    -0.102 OA 
BRANCH  15  17
HETATM   17  C   UNL     1      -6.278   9.709  68.729  1.00  0.00    -0.042 C  
HETATM   18  C   UNL     1      -7.331   9.177  69.376  1.00  0.00    -0.076 C  
BRANCH  18  19
HETATM   19  C   UNL     1      -7.335   7.933  70.219  1.00  0.00    -0.065 C  
BRANCH  19  20
HETATM   20  N   UNL     1      -8.525   7.734  71.062  1.00  0.00    -0.120 NA 
HETATM   21  C   UNL     1     -10.294   5.755  69.718  1.00  0.00    -0.332 C  
HETATM   22  C   UNL     1      -9.749   8.155  70.349  1.00  0.00    -0.178 C  
HETATM   23  C   UNL     1      -9.050   5.340  70.495  1.00  0.00    -0.174 C  
HETATM   24  C   UNL     1     -10.190   7.198  69.230  1.00  0.00    -0.193 C  
HETATM   25  C   UNL     1      -8.713   6.368  71.576  1.00  0.00    -0.134 C  
ENDBRANCH  19  20
ENDBRANCH  18  19
ENDBRANCH  15  17
ENDBRANCH   4  13
BRANCH  12  26
HETATM   26  N   UNL     1      -9.649  14.443  65.409  1.00  0.00    -0.530 NA 
HETATM   27  H   UNL     1      -9.740  14.796  64.456  1.00  0.00     0.000 HD 
BRANCH  26  28
HETATM   28  C   UNL     1     -10.039  13.096  65.573  1.00  0.00    -0.261 A  
HETATM   29  C   UNL     1     -10.770  12.749  66.722  1.00  0.00    -0.278 A  
HETATM   30  C   UNL     1     -11.014  11.408  67.042  1.00  0.00    -0.292 A  
HETATM   31  C   UNL     1      -9.845  10.710  65.059  1.00  0.00    -0.353 A  
HETATM   32  C   UNL     1      -9.605  12.050  64.743  1.00  0.00    -0.018 A  
HETATM   33  C   UNL     1     -10.533  10.395  66.219  1.00  0.00    -0.159 A  
HETATM   34  F   UNL     1     -10.711   9.104  66.534  1.00  0.00    -0.275 F  
HETATM   35 CL   UNL     1     -11.878  11.025  68.481  1.00  0.00    -0.347 Cl 
ENDBRANCH  26  28
ENDBRANCH  12  26
ENDBRANCH   2   3
TORSDOF 7
ENDMDL
MODEL      158
REMARK 921   NORMALIZED FREE ENERGY PREDICTED BY IDOCK:   -4.28 KCAL/MOL
REMARK 922        TOTAL FREE ENERGY PREDICTED BY IDOCK:   -6.95 KCAL/MOL
REMARK 923 INTER-LIGAND FREE ENERGY PREDICTED BY IDOCK:   -6.07 KCAL/MOL
REMARK 924 INTRA-LIGAND FREE ENERGY PREDICTED BY IDOCK:   -0.87 KCAL/MOL
REMARK 927      BINDING AFFINITY PREDICTED BY RF-SCORE:    0.00 PKD
ROOT
HETATM    1  C   UNL     1      -5.447  10.356  64.503  1.00  0.00    -0.142 C  
HETATM    2  O   UNL     1      -6.007  10.850  65.719  1.00  0.00    -0.136 OA 
ENDROOT
BRANCH   2   3
HETATM    3  C   UNL     1      -6.672   9.930  66.492  1.00  0.00    -0.080 A  
HETATM    4  C   UNL     1      -7.453  10.431  67.538  1.00  0.00    -0.093 A  
HETATM    5  N   UNL     1      -7.349   6.380  66.672  1.00  0.00    -0.077 NA 
HETATM    6  C   UNL     1      -8.144   9.538  68.372  1.00  0.00    -0.101 A  
HETATM    7  C   UNL     1      -7.399   7.665  67.029  1.00  0.00    -0.090 A  
HETATM    8  C   UNL     1      -8.022   5.527  67.437  1.00  0.00    -0.101 A  
HETATM    9  C   UNL     1      -8.128   8.139  68.129  1.00  0.00    -0.128 A  
HETATM   10  C   UNL     1      -6.686   8.555  66.245  1.00  0.00    -0.069 A  
HETATM   11  N   UNL     1      -8.722   5.844  68.525  1.00  0.00    -0.113 NA 
HETATM   12  C   UNL     1      -8.777   7.140  68.895  1.00  0.00    -0.128 A  
BRANCH   4  13
HETATM   13  N   UNL     1      -7.543  11.837  67.711  1.00  0.00    -0.118 N  
HETATM   14  H   UNL     1      -6.692  12.394  67.635  1.00  0.00     0.000 HD 
HETATM   15  C   UNL     1      -8.734  12.479  67.980  1.00  0.00    -0.186 C  
HETATM   16  O   UNL     1      -9.810  11.915  68.161  1.00  0.00    -0.181 OA 
BRANCH  15  17
HETATM   17  C   UNL     1      -8.652  13.969  67.919  1.00  0.00    -0.181 C  
HETATM   18  C   UNL     1      -7.438  14.533  68.058  1.00  0.00    -0.142 C  
BRANCH  18  19
HETATM   19  C   UNL     1      -7.136  15.998  68.199  1.00  0.00    -0.121 C  
BRANCH  19  20
HETATM   20  N   UNL     1      -5.715  16.347  68.357  1.00  0.00    -0.104 NA 
HETATM   21  C   UNL     1      -5.536  18.704  70.165  1.00  0.00    -0.232 C  
HETATM   22  C   UNL     1      -5.448  17.702  67.832  1.00  0.00    -0.135 C  
HETATM   23  C   UNL     1      -5.770  17.291  70.688  1.00  0.00     0.048 C  
HETATM   24  C   UNL     1      -5.986  18.841  68.713  1.00  0.00    -0.223 C  
HETATM   25  C   UNL     1      -5.190  16.251  69.729  1.00  0.00    -0.130 C  
ENDBRANCH  19  20
ENDBRANCH  18  19
ENDBRANCH  15  17
ENDBRANCH   4  13
BRANCH  12  26
HETATM   26  N   UNL     1      -9.379   7.467  70.130  1.00  0.00    -0.158 NA 
HETATM   27  H   UNL     1      -8.738   7.465  70.924  1.00  0.00     0.000 HD 
BRANCH  26  28
HETATM   28  C   UNL     1     -10.712   7.795  70.457  1.00  0.00    -0.236 A  
HETATM   29  C   UNL     1     -11.055   9.153  70.576  1.00  0.00    -0.308 A  
HETATM   30  C   UNL     1     -12.299   9.539  71.089  1.00  0.00    -0.326 A  
HETATM   31  C   UNL     1     -12.924   7.231  71.344  1.00  0.00    -0.420 A  
HETATM   32  C   UNL     1     -11.681   6.850  70.832  1.00  0.00    -0.408 A  
HETATM   33  C   UNL     1     -13.219   8.576  71.489  1.00  0.00    -0.297 A  
HETATM   34  F   UNL     1     -14.396   8.924  72.029  1.00  0.00    -0.431 F  
HETATM   35 CL   UNL     1     -12.662  11.214  71.256  1.00  0.00    -0.524 Cl 
ENDBRANCH  26  28
ENDBRANCH  12  26
ENDBRANCH   2   3
TORSDOF 7
ENDMDL
MODEL      159
REMARK 921   NORMALIZED FREE ENERGY PREDICTED BY IDOCK:   -4.26 KCAL/MOL
REMARK 922        TOTAL FREE ENERGY PREDICTED BY IDOCK:   -6.92 KCAL/MOL
REMARK 923 INTER-LIGAND FREE ENERGY PREDICTED BY IDOCK:   -5.93 KCAL/MOL
REMARK 924 INTRA-LIGAND FREE ENERGY PREDICTED BY IDOCK:   -1.00 KCAL/MOL
REMARK 927      BINDING AFFINITY PREDICTED BY RF-SCORE:    0.00 PKD
ROOT
HETATM    1  C   UNL     1      -5.534  10.017  63.670  1.00  0.00    -0.111 C  
HETATM    2  O   UNL     1      -6.347  10.279  64.813  1.00  0.00    -0.127 OA 
ENDROOT
BRANCH   2   3
HETATM    3  C   UNL     1      -6.601   9.205  65.630  1.00  0.00    -0.068 A  
HETATM    4  C   UNL     1      -7.224   9.474  66.853  1.00  0.00    -0.087 A  
HETATM    5  N   UNL     1      -6.401   5.592  65.658  1.00  0.00    -0.037 NA 
HETATM    6  C   UNL     1      -7.493   8.417  67.737  1.00  0.00    -0.098 A  
HETATM    7  C   UNL     1      -6.660   6.816  66.120  1.00  0.00    -0.051 A  
HETATM    8  C   UNL     1      -6.679   4.581  66.475  1.00  0.00    -0.051 A  
HETATM    9  C   UNL     1      -7.216   7.070  67.382  1.00  0.00    -0.090 A  
HETATM   10  C   UNL     1      -6.358   7.874  65.280  1.00  0.00    -0.041 A  
HETATM   11  N   UNL     1      -7.174   4.689  67.706  1.00  0.00    -0.065 NA 
HETATM   12  C   UNL     1      -7.437   5.923  68.183  1.00  0.00    -0.081 A  
BRANCH   4  13
HETATM   13  N   UNL     1      -7.587  10.812  67.154  1.00  0.00    -0.102 N  
HETATM   14  H   UNL     1      -8.524  11.132  66.909  1.00  0.00     0.000 HD 
HETATM   15  C   UNL     1      -6.724  11.697  67.767  1.00  0.00    -0.072 C  
HETATM   16  O   UNL     1      -5.553  11.454  68.050  1.00  0.00    -0.043 OA 
BRANCH  15  17
HETATM   17  C   UNL     1      -7.361  12.982  68.184  1.00  0.00    -0.118 C  
HETATM   18  C   UNL     1      -8.705  13.047  68.163  1.00  0.00    -0.190 C  
BRANCH  18  19
HETATM   19  C   UNL     1      -9.551  14.270  68.375  1.00  0.00    -0.221 C  
BRANCH  19  20
HETATM   20  N   UNL     1     -11.006  14.051  68.378  1.00  0.00    -0.243 NA 
HETATM   21  C   UNL     1     -11.804  13.082  65.680  1.00  0.00    -0.445 C  
HETATM   22  C   UNL     1     -11.672  14.943  67.406  1.00  0.00    -0.293 C  
HETATM   23  C   UNL     1     -11.154  12.171  66.714  1.00  0.00    -0.349 C  
HETATM   24  C   UNL     1     -11.460  14.547  65.936  1.00  0.00    -0.345 C  
HETATM   25  C   UNL     1     -11.436  12.665  68.134  1.00  0.00    -0.313 C  
ENDBRANCH  19  20
ENDBRANCH  18  19
ENDBRANCH  15  17
ENDBRANCH   4  13
BRANCH  12  26
HETATM   26  N   UNL     1      -7.809   6.060  69.539  1.00  0.00    -0.097 NA 
HETATM   27  H   UNL     1      -7.034   5.983  70.198  1.00  0.00     0.000 HD 
BRANCH  26  28
HETATM   28  C   UNL     1      -9.066   6.284  70.140  1.00  0.00    -0.153 A  
HETATM   29  C   UNL     1      -9.109   6.526  71.525  1.00  0.00    -0.144 A  
HETATM   30  C   UNL     1     -10.329   6.558  72.212  1.00  0.00    -0.191 A  
HETATM   31  C   UNL     1     -11.511   6.152  70.157  1.00  0.00    -0.365 A  
HETATM   32  C   UNL     1     -10.292   6.121  69.475  1.00  0.00    -0.277 A  
HETATM   33  C   UNL     1     -11.521   6.350  71.528  1.00  0.00    -0.306 A  
HETATM   34  F   UNL     1     -12.695   6.326  72.175  1.00  0.00    -0.369 F  
HETATM   35 CL   UNL     1     -10.333   6.815  73.915  1.00  0.00    -0.383 Cl 
ENDBRANCH  26  28
ENDBRANCH  12  26
ENDBRANCH   2   3
TORSDOF 7
ENDMDL
MODEL      160
REMARK 921   NORMALIZED FREE ENERGY PREDICTED BY IDOCK:   -4.23 KCAL/MOL
REMARK 922        TOTAL FREE ENERGY PREDICTED BY IDOCK:   -6.88 KCAL/MOL
REMARK 923 INTER-LIGAND FREE ENERGY PREDICTED BY IDOCK:   -7.37 KCAL/MOL
REMARK 924 INTRA-LIGAND FREE ENERGY PREDICTED BY IDOCK:    0.49 KCAL/MOL
REMARK 927      BINDING AFFINITY PREDICTED BY RF-SCORE:    0.00 PKD
ROOT
HETATM    1  C   UNL     1      -5.596  12.048  67.397  1.00  0.00    -0.120 C  
HETATM    2  O   UNL     1      -6.990  11.985  67.095  1.00  0.00    -0.140 OA 
ENDROOT
BRANCH   2   3
HETATM    3  C   UNL     1      -7.739  13.069  67.481  1.00  0.00    -0.168 A  
HETATM    4  C   UNL     1      -8.914  12.805  68.190  1.00  0.00    -0.199 A  
HETATM    5  N   UNL     1      -7.639  16.687  67.497  1.00  0.00    -0.149 NA 
HETATM    6  C   UNL     1      -9.729  13.873  68.597  1.00  0.00    -0.160 A  
HETATM    7  C   UNL     1      -8.126  15.465  67.722  1.00  0.00    -0.140 A  
HETATM    8  C   UNL     1      -8.388  17.706  67.903  1.00  0.00    -0.235 A  
HETATM    9  C   UNL     1      -9.346  15.221  68.370  1.00  0.00    -0.194 A  
HETATM   10  C   UNL     1      -7.358  14.400  67.287  1.00  0.00    -0.070 A  
HETATM   11  N   UNL     1      -9.577  17.611  68.495  1.00  0.00    -0.303 NA 
HETATM   12  C   UNL     1     -10.079  16.380  68.726  1.00  0.00    -0.247 A  
BRANCH   4  13
HETATM   13  N   UNL     1      -9.237  11.458  68.500  1.00  0.00    -0.192 N  
HETATM   14  H   UNL     1      -8.722  10.990  69.245  1.00  0.00     0.000 HD 
HETATM   15  C   UNL     1     -10.220  10.757  67.832  1.00  0.00    -0.176 C  
HETATM   16  O   UNL     1     -10.862  11.186  66.876  1.00  0.00    -0.262 OA 
BRANCH  15  17
HETATM   17  C   UNL     1     -10.548   9.434  68.442  1.00  0.00    -0.247 C  
HETATM   18  C   UNL     1      -9.728   8.969  69.402  1.00  0.00    -0.169 C  
BRANCH  18  19
HETATM   19  C   UNL     1      -9.760   7.606  70.033  1.00  0.00    -0.172 C  
BRANCH  19  20
HETATM   20  N   UNL     1      -8.897   7.424  71.211  1.00  0.00    -0.137 NA 
HETATM   21  C   UNL     1      -6.215   8.548  70.580  1.00  0.00    -0.035 C  
HETATM   22  C   UNL     1      -7.751   6.548  70.890  1.00  0.00    -0.101 C  
HETATM   23  C   UNL     1      -7.401   9.430  70.953  1.00  0.00    -0.095 C  
HETATM   24  C   UNL     1      -6.676   7.208  70.012  1.00  0.00    -0.051 C  
HETATM   25  C   UNL     1      -8.397   8.665  71.825  1.00  0.00    -0.139 C  
ENDBRANCH  19  20
ENDBRANCH  18  19
ENDBRANCH  15  17
ENDBRANCH   4  13
BRANCH  12  26
HETATM   26  N   UNL     1     -11.403  16.267  69.205  1.00  0.00    -0.314 NA 
HETATM   27  H   UNL     1     -12.078  16.858  68.720  1.00  0.00     0.000 HD 
BRANCH  26  28
HETATM   28  C   UNL     1     -11.954  15.480  70.239  1.00  0.00    -0.374 A  
HETATM   29  C   UNL     1     -11.829  14.082  70.151  1.00  0.00    -0.377 A  
HETATM   30  C   UNL     1     -12.520  13.241  71.032  1.00  0.00    -0.336 A  
HETATM   31  C   UNL     1     -13.452  15.157  72.149  1.00  0.00    -0.525 A  
HETATM   32  C   UNL     1     -12.760  15.992  71.268  1.00  0.00    -0.154 A  
HETATM   33  C   UNL     1     -13.344  13.783  72.013  1.00  0.00    -0.447 A  
HETATM   34  F   UNL     1     -14.053  12.995  72.834  1.00  0.00    -0.458 F  
HETATM   35 CL   UNL     1     -12.372  11.534  70.863  1.00  0.00    -0.480 Cl 
ENDBRANCH  26  28
ENDBRANCH  12  26
ENDBRANCH   2   3
TORSDOF 7
ENDMDL
MODEL      161
REMARK 921   NORMALIZED FREE ENERGY PREDICTED BY IDOCK:   -4.12 KCAL/MOL
REMARK 922        TOTAL FREE ENERGY PREDICTED BY IDOCK:   -6.72 KCAL/MOL
REMARK 923 INTER-LIGAND FREE ENERGY PREDICTED BY IDOCK:   -6.71 KCAL/MOL
REMARK 924 INTRA-LIGAND FREE ENERGY PREDICTED BY IDOCK:   -0.01 KCAL/MOL
REMARK 927      BINDING AFFINITY PREDICTED BY RF-SCORE:    0.00 PKD
ROOT
HETATM    1  C   UNL     1     -13.136   7.121  71.662  1.00  0.00    -0.361 C  
HETATM    2  O   UNL     1     -12.523   6.708  70.442  1.00  0.00    -0.196 OA 
ENDROOT
BRANCH   2   3
HETATM    3  C   UNL     1     -11.152   6.631  70.453  1.00  0.00    -0.322 A  
HETATM    4  C   UNL     1     -10.452   7.740  69.969  1.00  0.00    -0.230 A  
HETATM    5  N   UNL     1      -8.472   4.476  71.581  1.00  0.00    -0.105 NA 
HETATM    6  C   UNL     1      -9.049   7.712  69.941  1.00  0.00    -0.147 A  
HETATM    7  C   UNL     1      -9.043   5.541  71.016  1.00  0.00    -0.144 A  
HETATM    8  C   UNL     1      -7.143   4.451  71.586  1.00  0.00    -0.046 A  
HETATM    9  C   UNL     1      -8.322   6.611  70.466  1.00  0.00    -0.130 A  
HETATM   10  C   UNL     1     -10.427   5.565  70.993  1.00  0.00    -0.314 A  
HETATM   11  N   UNL     1      -6.346   5.383  71.068  1.00  0.00    -0.033 NA 
HETATM   12  C   UNL     1      -6.914   6.463  70.493  1.00  0.00    -0.064 A  
BRANCH   4  13
HETATM   13  N   UNL     1     -11.186   8.876  69.539  1.00  0.00    -0.436 N  
HETATM   14  H   UNL     1     -11.967   9.199  70.109  1.00  0.00     0.000 HD 
HETATM   15  C   UNL     1     -10.884   9.561  68.380  1.00  0.00    -0.137 C  
HETATM   16  O   UNL     1     -10.014   9.234  67.577  1.00  0.00    -0.178 OA 
BRANCH  15  17
HETATM   17  C   UNL     1     -11.635  10.842  68.214  1.00  0.00    -0.297 C  
HETATM   18  C   UNL     1     -11.344  11.601  67.142  1.00  0.00    -0.373 C  
BRANCH  18  19
HETATM   19  C   UNL     1     -11.842  12.990  66.860  1.00  0.00    -0.380 C  
BRANCH  19  20
HETATM   20  N   UNL     1     -11.240  13.663  65.698  1.00  0.00    -0.296 NA 
HETATM   21  C   UNL     1     -11.240  11.752  63.418  1.00  0.00    -0.440 C  
HETATM   22  C   UNL     1     -10.006  12.971  65.273  1.00  0.00    -0.170 C  
HETATM   23  C   UNL     1     -12.492  12.508  63.847  1.00  0.00    -0.540 C  
HETATM   24  C   UNL     1     -10.244  11.627  64.568  1.00  0.00    -0.337 C  
HETATM   25  C   UNL     1     -12.126  13.825  64.534  1.00  0.00    -0.428 C  
ENDBRANCH  19  20
ENDBRANCH  18  19
ENDBRANCH  15  17
ENDBRANCH   4  13
BRANCH  12  26
HETATM   26  N   UNL     1      -6.087   7.375  69.800  1.00  0.00    -0.027 NA 
HETATM   27  H   UNL     1      -5.279   6.949  69.346  1.00  0.00     0.000 HD 
BRANCH  26  28
HETATM   28  C   UNL     1      -6.185   8.772  69.627  1.00  0.00    -0.036 A  
HETATM   29  C   UNL     1      -6.586   9.263  68.372  1.00  0.00    -0.058 A  
HETATM   30  C   UNL     1      -6.512  10.629  68.076  1.00  0.00    -0.062 A  
HETATM   31  C   UNL     1      -5.676  11.075  70.286  1.00  0.00    -0.115 A  
HETATM   32  C   UNL     1      -5.752   9.710  70.578  1.00  0.00    -0.052 A  
HETATM   33  C   UNL     1      -6.038  11.525  69.027  1.00  0.00    -0.055 A  
HETATM   34  F   UNL     1      -5.912  12.830  68.747  1.00  0.00    -0.063 F  
HETATM   35 CL   UNL     1      -6.974  11.181  66.511  1.00  0.00    -0.140 Cl 
ENDBRANCH  26  28
ENDBRANCH  12  26
ENDBRANCH   2   3
TORSDOF 7
ENDMDL
MODEL      162
REMARK 921   NORMALIZED FREE ENERGY PREDICTED BY IDOCK:   -4.12 KCAL/MOL
REMARK 922        TOTAL FREE ENERGY PREDICTED BY IDOCK:   -6.72 KCAL/MOL
REMARK 923 INTER-LIGAND FREE ENERGY PREDICTED BY IDOCK:   -5.84 KCAL/MOL
REMARK 924 INTRA-LIGAND FREE ENERGY PREDICTED BY IDOCK:   -0.88 KCAL/MOL
REMARK 927      BINDING AFFINITY PREDICTED BY RF-SCORE:    0.00 PKD
ROOT
HETATM    1  C   UNL     1     -13.133   7.406  71.701  1.00  0.00    -0.364 C  
HETATM    2  O   UNL     1     -12.576   6.961  70.465  1.00  0.00    -0.216 OA 
ENDROOT
BRANCH   2   3
HETATM    3  C   UNL     1     -11.223   6.724  70.464  1.00  0.00    -0.320 A  
HETATM    4  C   UNL     1     -10.394   7.792  70.110  1.00  0.00    -0.218 A  
HETATM    5  N   UNL     1      -8.825   4.156  71.331  1.00  0.00    -0.105 NA 
HETATM    6  C   UNL     1      -9.003   7.604  70.076  1.00  0.00    -0.143 A  
HETATM    7  C   UNL     1      -9.263   5.339  70.894  1.00  0.00    -0.146 A  
HETATM    8  C   UNL     1      -7.509   3.976  71.331  1.00  0.00    -0.058 A  
HETATM    9  C   UNL     1      -8.416   6.373  70.469  1.00  0.00    -0.138 A  
HETATM   10  C   UNL     1     -10.634   5.526  70.876  1.00  0.00    -0.309 A  
HETATM   11  N   UNL     1      -6.603   4.861  70.922  1.00  0.00    -0.033 NA 
HETATM   12  C   UNL     1      -7.035   6.059  70.476  1.00  0.00    -0.059 A  
BRANCH   4  13
HETATM   13  N   UNL     1     -10.986   9.048  69.815  1.00  0.00    -0.351 N  
HETATM   14  H   UNL     1     -11.504   9.530  70.550  1.00  0.00     0.000 HD 
HETATM   15  C   UNL     1     -10.889   9.642  68.574  1.00  0.00    -0.161 C  
HETATM   16  O   UNL     1     -10.353   9.135  67.592  1.00  0.00    -0.224 OA 
BRANCH  15  17
HETATM   17  C   UNL     1     -11.397  11.047  68.528  1.00  0.00    -0.355 C  
HETATM   18  C   UNL     1     -11.318  11.700  67.354  1.00  0.00    -0.367 C  
BRANCH  18  19
HETATM   19  C   UNL     1     -11.605  13.155  67.112  1.00  0.00    -0.361 C  
BRANCH  19  20
HETATM   20  N   UNL     1     -10.548  13.911  66.421  1.00  0.00    -0.278 NA 
HETATM   21  C   UNL     1      -8.864  15.243  68.481  1.00  0.00    -0.185 C  
HETATM   22  C   UNL     1     -10.672  15.357  66.700  1.00  0.00    -0.309 C  
HETATM   23  C   UNL     1      -8.726  13.762  68.148  1.00  0.00    -0.183 C  
HETATM   24  C   UNL     1     -10.252  15.766  68.121  1.00  0.00    -0.230 C  
HETATM   25  C   UNL     1      -9.172  13.481  66.713  1.00  0.00    -0.240 C  
ENDBRANCH  19  20
ENDBRANCH  18  19
ENDBRANCH  15  17
ENDBRANCH   4  13
BRANCH  12  26
HETATM   26  N   UNL     1      -6.100   6.942  69.892  1.00  0.00    -0.023 NA 
HETATM   27  H   UNL     1      -5.253   6.490  69.546  1.00  0.00     0.000 HD 
BRANCH  26  28
HETATM   28  C   UNL     1      -6.133   8.341  69.703  1.00  0.00    -0.029 A  
HETATM   29  C   UNL     1      -6.378   8.833  68.409  1.00  0.00    -0.055 A  
HETATM   30  C   UNL     1      -6.228  10.194  68.117  1.00  0.00    -0.049 A  
HETATM   31  C   UNL     1      -5.627  10.631  70.405  1.00  0.00    -0.083 A  
HETATM   32  C   UNL     1      -5.778   9.272  70.692  1.00  0.00    -0.041 A  
HETATM   33  C   UNL     1      -5.834  11.083  69.112  1.00  0.00    -0.041 A  
HETATM   34  F   UNL     1      -5.635  12.381  68.842  1.00  0.00    -0.060 F  
HETATM   35 CL   UNL     1      -6.497  10.749  66.509  1.00  0.00    -0.108 Cl 
ENDBRANCH  26  28
ENDBRANCH  12  26
ENDBRANCH   2   3
TORSDOF 7
ENDMDL
MODEL      163
REMARK 921   NORMALIZED FREE ENERGY PREDICTED BY IDOCK:   -4.04 KCAL/MOL
REMARK 922        TOTAL FREE ENERGY PREDICTED BY IDOCK:   -6.61 KCAL/MOL
REMARK 923 INTER-LIGAND FREE ENERGY PREDICTED BY IDOCK:   -5.33 KCAL/MOL
REMARK 924 INTRA-LIGAND FREE ENERGY PREDICTED BY IDOCK:   -1.27 KCAL/MOL
REMARK 927      BINDING AFFINITY PREDICTED BY RF-SCORE:    0.00 PKD
ROOT
HETATM    1  C   UNL     1     -11.104   2.043  73.405  1.00  0.00    -0.190 C  
HETATM    2  O   UNL     1     -10.260   2.355  72.298  1.00  0.00    -0.162 OA 
ENDROOT
BRANCH   2   3
HETATM    3  C   UNL     1      -9.825   3.656  72.221  1.00  0.00    -0.165 A  
HETATM    4  C   UNL     1      -9.546   4.154  70.944  1.00  0.00    -0.179 A  
HETATM    5  N   UNL     1      -9.299   6.567  74.304  1.00  0.00    -0.188 NA 
HETATM    6  C   UNL     1      -9.082   5.471  70.805  1.00  0.00    -0.168 A  
HETATM    7  C   UNL     1      -9.321   5.837  73.187  1.00  0.00    -0.139 A  
HETATM    8  C   UNL     1      -8.889   7.825  74.180  1.00  0.00    -0.199 A  
HETATM    9  C   UNL     1      -8.964   6.334  71.926  1.00  0.00    -0.139 A  
HETATM   10  C   UNL     1      -9.732   4.522  73.313  1.00  0.00    -0.152 A  
HETATM   11  N   UNL     1      -8.490   8.405  73.050  1.00  0.00    -0.353 NA 
HETATM   12  C   UNL     1      -8.508   7.675  71.916  1.00  0.00    -0.109 A  
BRANCH   4  13
HETATM   13  N   UNL     1      -9.762   3.314  69.821  1.00  0.00    -0.072 N  
HETATM   14  H   UNL     1     -10.628   3.419  69.291  1.00  0.00     0.000 HD 
HETATM   15  C   UNL     1      -8.849   2.362  69.417  1.00  0.00    -0.093 C  
HETATM   16  O   UNL     1      -7.806   2.095  70.008  1.00  0.00    -0.042 OA 
BRANCH  15  17
HETATM   17  C   UNL     1      -9.166   1.732  68.100  1.00  0.00    -0.227 C  
HETATM   18  C   UNL     1      -8.392   2.061  67.049  1.00  0.00    -0.088 C  
BRANCH  18  19
HETATM   19  C   UNL     1      -8.620   1.690  65.612  1.00  0.00    -0.110 C  
BRANCH  19  20
HETATM   20  N   UNL     1      -8.340   2.745  64.625  1.00  0.00    -0.086 NA 
HETATM   21  C   UNL     1     -10.853   3.317  63.139  1.00  0.00    -0.184 C  
HETATM   22  C   UNL     1      -8.552   2.246  63.250  1.00  0.00    -0.085 C  
HETATM   23  C   UNL     1     -10.595   3.856  64.541  1.00  0.00    -0.201 C  
HETATM   24  C   UNL     1     -10.028   2.062  62.865  1.00  0.00    -0.100 C  
HETATM   25  C   UNL     1      -9.095   3.995  64.805  1.00  0.00    -0.141 C  
ENDBRANCH  19  20
ENDBRANCH  18  19
ENDBRANCH  15  17
ENDBRANCH   4  13
BRANCH  12  26
HETATM   26  N   UNL     1      -7.938   8.226  70.747  1.00  0.00    -0.094 NA 
HETATM   27  H   UNL     1      -6.943   8.031  70.630  1.00  0.00     0.000 HD 
BRANCH  26  28
HETATM   28  C   UNL     1      -8.506   9.001  69.712  1.00  0.00    -0.132 A  
HETATM   29  C   UNL     1      -9.763   9.590  69.933  1.00  0.00    -0.252 A  
HETATM   30  C   UNL     1     -10.466  10.199  68.887  1.00  0.00    -0.210 A  
HETATM   31  C   UNL     1      -8.670   9.695  67.370  1.00  0.00    -0.130 A  
HETATM   32  C   UNL     1      -7.971   9.088  68.417  1.00  0.00    -0.104 A  
HETATM   33  C   UNL     1      -9.925  10.231  67.606  1.00  0.00    -0.179 A  
HETATM   34  F   UNL     1     -10.603  10.764  66.581  1.00  0.00    -0.271 F  
HETATM   35 CL   UNL     1     -12.022  10.871  69.192  1.00  0.00    -0.388 Cl 
ENDBRANCH  26  28
ENDBRANCH  12  26
ENDBRANCH   2   3
TORSDOF 7
ENDMDL
MODEL      164
REMARK 921   NORMALIZED FREE ENERGY PREDICTED BY IDOCK:   -4.02 KCAL/MOL
REMARK 922        TOTAL FREE ENERGY PREDICTED BY IDOCK:   -6.58 KCAL/MOL
REMARK 923 INTER-LIGAND FREE ENERGY PREDICTED BY IDOCK:   -5.48 KCAL/MOL
REMARK 924 INTRA-LIGAND FREE ENERGY PREDICTED BY IDOCK:   -1.10 KCAL/MOL
REMARK 927      BINDING AFFINITY PREDICTED BY RF-SCORE:    0.00 PKD
ROOT
HETATM    1  C   UNL     1     -11.407   8.136  72.506  1.00  0.00    -0.401 C  
HETATM    2  O   UNL     1     -10.066   8.621  72.453  1.00  0.00    -0.307 OA 
ENDROOT
BRANCH   2   3
HETATM    3  C   UNL     1      -9.115   7.719  72.044  1.00  0.00    -0.137 A  
HETATM    4  C   UNL     1      -8.617   7.870  70.746  1.00  0.00    -0.132 A  
HETATM    5  N   UNL     1      -7.114   4.982  73.311  1.00  0.00    -0.079 NA 
HETATM    6  C   UNL     1      -7.655   6.967  70.267  1.00  0.00    -0.087 A  
HETATM    7  C   UNL     1      -7.577   5.864  72.422  1.00  0.00    -0.101 A  
HETATM    8  C   UNL     1      -6.182   4.141  72.877  1.00  0.00    -0.017 A  
HETATM    9  C   UNL     1      -7.119   5.950  71.100  1.00  0.00    -0.073 A  
HETATM   10  C   UNL     1      -8.560   6.732  72.864  1.00  0.00    -0.127 A  
HETATM   11  N   UNL     1      -5.689   4.096  71.642  1.00  0.00    -0.008 NA 
HETATM   12  C   UNL     1      -6.152   4.982  70.735  1.00  0.00    -0.018 A  
BRANCH   4  13
HETATM   13  N   UNL     1      -9.087   8.951  69.956  1.00  0.00    -0.157 N  
HETATM   14  H   UNL     1      -8.645   9.864  70.063  1.00  0.00     0.000 HD 
HETATM   15  C   UNL     1     -10.119   8.816  69.050  1.00  0.00    -0.198 C  
HETATM   16  O   UNL     1     -10.774   7.791  68.878  1.00  0.00    -0.185 OA 
BRANCH  15  17
HETATM   17  C   UNL     1     -10.321  10.009  68.174  1.00  0.00    -0.228 C  
HETATM   18  C   UNL     1     -11.379  10.800  68.432  1.00  0.00    -0.367 C  
BRANCH  18  19
HETATM   19  C   UNL     1     -11.874  11.944  67.593  1.00  0.00    -0.195 C  
BRANCH  19  20
HETATM   20  N   UNL     1     -11.629  11.832  66.147  1.00  0.00    -0.435 NA 
HETATM   21  C   UNL     1     -10.820  14.510  65.134  1.00  0.00    -0.407 C  
HETATM   22  C   UNL     1     -12.569  12.685  65.389  1.00  0.00    -0.218 C  
HETATM   23  C   UNL     1      -9.856  13.596  65.881  1.00  0.00    -0.263 C  
HETATM   24  C   UNL     1     -12.271  14.190  65.481  1.00  0.00    -0.443 C  
HETATM   25  C   UNL     1     -10.254  12.129  65.714  1.00  0.00    -0.254 C  
ENDBRANCH  19  20
ENDBRANCH  18  19
ENDBRANCH  15  17
ENDBRANCH   4  13
BRANCH  12  26
HETATM   26  N   UNL     1      -5.757   4.840  69.387  1.00  0.00    -0.015 NA 
HETATM   27  H   UNL     1      -4.855   5.263  69.165  1.00  0.00     0.000 HD 
BRANCH  26  28
HETATM   28  C   UNL     1      -6.393   4.215  68.292  1.00  0.00    -0.037 A  
HETATM   29  C   UNL     1      -6.991   5.029  67.315  1.00  0.00    -0.065 A  
HETATM   30  C   UNL     1      -7.804   4.477  66.317  1.00  0.00    -0.099 A  
HETATM   31  C   UNL     1      -7.419   2.276  67.206  1.00  0.00    -0.060 A  
HETATM   32  C   UNL     1      -6.609   2.831  68.199  1.00  0.00    -0.036 A  
HETATM   33  C   UNL     1      -8.030   3.106  66.280  1.00  0.00    -0.081 A  
HETATM   34  F   UNL     1      -8.845   2.563  65.365  1.00  0.00    -0.105 F  
HETATM   35 CL   UNL     1      -8.551   5.515  65.165  1.00  0.00    -0.150 Cl 
ENDBRANCH  26  28
ENDBRANCH  12  26
ENDBRANCH   2   3
TORSDOF 7
ENDMDL
MODEL      165
REMARK 921   NORMALIZED FREE ENERGY PREDICTED BY IDOCK:   -4.01 KCAL/MOL
REMARK 922        TOTAL FREE ENERGY PREDICTED BY IDOCK:   -6.57 KCAL/MOL
REMARK 923 INTER-LIGAND FREE ENERGY PREDICTED BY IDOCK:   -6.42 KCAL/MOL
REMARK 924 INTRA-LIGAND FREE ENERGY PREDICTED BY IDOCK:   -0.15 KCAL/MOL
REMARK 927      BINDING AFFINITY PREDICTED BY RF-SCORE:    0.00 PKD
ROOT
HETATM    1  C   UNL     1     -10.821   9.806  67.215  1.00  0.00    -0.177 C  
HETATM    2  O   UNL     1     -10.041  10.234  68.331  1.00  0.00    -0.151 OA 
ENDROOT
BRANCH   2   3
HETATM    3  C   UNL     1      -9.947  11.592  68.514  1.00  0.00    -0.204 A  
HETATM    4  C   UNL     1      -8.731  12.193  68.175  1.00  0.00    -0.185 A  
HETATM    5  N   UNL     1     -11.970  14.443  69.447  1.00  0.00    -0.319 NA 
HETATM    6  C   UNL     1      -8.571  13.576  68.357  1.00  0.00    -0.142 A  
HETATM    7  C   UNL     1     -10.878  13.777  69.068  1.00  0.00    -0.217 A  
HETATM    8  C   UNL     1     -11.839  15.757  69.595  1.00  0.00    -0.340 A  
HETATM    9  C   UNL     1      -9.645  14.390  68.806  1.00  0.00    -0.177 A  
HETATM   10  C   UNL     1     -11.005  12.406  68.928  1.00  0.00    -0.268 A  
HETATM   11  N   UNL     1     -10.719  16.453  69.413  1.00  0.00    -0.305 NA 
HETATM   12  C   UNL     1      -9.609  15.788  69.031  1.00  0.00    -0.243 A  
BRANCH   4  13
HETATM   13  N   UNL     1      -7.698  11.386  67.634  1.00  0.00    -0.115 N  
HETATM   14  H   UNL     1      -7.764  10.373  67.735  1.00  0.00     0.000 HD 
HETATM   15  C   UNL     1      -6.607  11.917  66.976  1.00  0.00    -0.128 C  
HETATM   16  O   UNL     1      -6.380  13.117  66.848  1.00  0.00    -0.017 OA 
BRANCH  15  17
HETATM   17  C   UNL     1      -5.746  10.899  66.302  1.00  0.00    -0.128 C  
HETATM   18  C   UNL     1      -6.119  10.476  65.080  1.00  0.00    -0.096 C  
BRANCH  18  19
HETATM   19  C   UNL     1      -5.513   9.350  64.292  1.00  0.00    -0.061 C  
BRANCH  19  20
HETATM   20  N   UNL     1      -6.453   8.543  63.499  1.00  0.00    -0.084 NA 
HETATM   21  C   UNL     1      -8.264   7.115  65.380  1.00  0.00    -0.137 C  
HETATM   22  C   UNL     1      -6.282   7.104  63.790  1.00  0.00    -0.044 C  
HETATM   23  C   UNL     1      -8.446   8.588  65.033  1.00  0.00    -0.183 C  
HETATM   24  C   UNL     1      -6.821   6.667  65.162  1.00  0.00    -0.050 C  
HETATM   25  C   UNL     1      -7.873   8.898  63.650  1.00  0.00    -0.141 C  
ENDBRANCH  19  20
ENDBRANCH  18  19
ENDBRANCH  15  17
ENDBRANCH   4  13
BRANCH  12  26
HETATM   26  N   UNL     1      -8.381  16.486  68.991  1.00  0.00    -0.229 NA 
HETATM   27  H   UNL     1      -7.672  16.127  69.630  1.00  0.00     0.000 HD 
BRANCH  26  28
HETATM   28  C   UNL     1      -7.966  17.593  68.219  1.00  0.00    -0.272 A  
HETATM   29  C   UNL     1      -7.091  18.523  68.806  1.00  0.00    -0.310 A  
HETATM   30  C   UNL     1      -6.801  19.738  68.172  1.00  0.00    -0.284 A  
HETATM   31  C   UNL     1      -8.212  19.123  66.324  1.00  0.00    -0.309 A  
HETATM   32  C   UNL     1      -8.499  17.913  66.960  1.00  0.00    -0.248 A  
HETATM   33  C   UNL     1      -7.379  20.040  66.944  1.00  0.00    -0.250 A  
HETATM   34  F   UNL     1      -7.154  21.217  66.344  1.00  0.00    -0.213 F  
HETATM   35 CL   UNL     1      -5.755  20.867  68.945  1.00  0.00    -0.393 Cl 
ENDBRANCH  26  28
ENDBRANCH  12  26
ENDBRANCH   2   3
TORSDOF 7
ENDMDL
MODEL      166
REMARK 921   NORMALIZED FREE ENERGY PREDICTED BY IDOCK:   -4.00 KCAL/MOL
REMARK 922        TOTAL FREE ENERGY PREDICTED BY IDOCK:   -6.56 KCAL/MOL
REMARK 923 INTER-LIGAND FREE ENERGY PREDICTED BY IDOCK:   -5.84 KCAL/MOL
REMARK 924 INTRA-LIGAND FREE ENERGY PREDICTED BY IDOCK:   -0.72 KCAL/MOL
REMARK 927      BINDING AFFINITY PREDICTED BY RF-SCORE:    0.00 PKD
ROOT
HETATM    1  C   UNL     1     -10.763   9.670  67.236  1.00  0.00    -0.214 C  
HETATM    2  O   UNL     1     -10.386  10.232  68.492  1.00  0.00    -0.163 OA 
ENDROOT
BRANCH   2   3
HETATM    3  C   UNL     1     -10.174  11.589  68.506  1.00  0.00    -0.213 A  
HETATM    4  C   UNL     1      -8.847  12.022  68.422  1.00  0.00    -0.149 A  
HETATM    5  N   UNL     1     -11.999  14.713  68.468  1.00  0.00    -0.297 NA 
HETATM    6  C   UNL     1      -8.569  13.398  68.448  1.00  0.00    -0.134 A  
HETATM    7  C   UNL     1     -10.937  13.905  68.487  1.00  0.00    -0.257 A  
HETATM    8  C   UNL     1     -11.748  16.018  68.464  1.00  0.00    -0.241 A  
HETATM    9  C   UNL     1      -9.611  14.361  68.480  1.00  0.00    -0.217 A  
HETATM   10  C   UNL     1     -11.193  12.545  68.508  1.00  0.00    -0.322 A  
HETATM   11  N   UNL     1     -10.540  16.578  68.492  1.00  0.00    -0.298 NA 
HETATM   12  C   UNL     1      -9.461  15.769  68.513  1.00  0.00    -0.201 A  
BRANCH   4  13
HETATM   13  N   UNL     1      -7.819  11.054  68.290  1.00  0.00    -0.114 N  
HETATM   14  H   UNL     1      -7.866  10.209  68.860  1.00  0.00     0.000 HD 
HETATM   15  C   UNL     1      -6.759  11.209  67.421  1.00  0.00    -0.084 C  
HETATM   16  O   UNL     1      -6.555  12.205  66.732  1.00  0.00    -0.069 OA 
BRANCH  15  17
HETATM   17  C   UNL     1      -5.903   9.992  67.278  1.00  0.00    -0.050 C  
HETATM   18  C   UNL     1      -6.508   8.842  66.930  1.00  0.00    -0.061 C  
BRANCH  18  19
HETATM   19  C   UNL     1      -5.889   7.473  66.892  1.00  0.00    -0.039 C  
BRANCH  19  20
HETATM   20  N   UNL     1      -6.809   6.347  67.113  1.00  0.00    -0.064 NA 
HETATM   21  C   UNL     1      -6.738   5.646  70.004  1.00  0.00    -0.048 C  
HETATM   22  C   UNL     1      -6.075   5.160  67.600  1.00  0.00    -0.030 C  
HETATM   23  C   UNL     1      -7.522   6.841  69.474  1.00  0.00    -0.093 C  
HETATM   24  C   UNL     1      -5.602   5.262  69.059  1.00  0.00    -0.008 C  
HETATM   25  C   UNL     1      -7.936   6.620  68.019  1.00  0.00    -0.110 C  
ENDBRANCH  19  20
ENDBRANCH  18  19
ENDBRANCH  15  17
ENDBRANCH   4  13
BRANCH  12  26
HETATM   26  N   UNL     1      -8.185  16.346  68.704  1.00  0.00    -0.211 NA 
HETATM   27  H   UNL     1      -7.635  15.914  69.446  1.00  0.00     0.000 HD 
BRANCH  26  28
HETATM   28  C   UNL     1      -7.542  17.417  68.047  1.00  0.00    -0.206 A  
HETATM   29  C   UNL     1      -6.938  18.415  68.832  1.00  0.00    -0.297 A  
HETATM   30  C   UNL     1      -6.461  19.596  68.252  1.00  0.00    -0.251 A  
HETATM   31  C   UNL     1      -7.129  18.813  66.079  1.00  0.00    -0.302 A  
HETATM   32  C   UNL     1      -7.604  17.636  66.661  1.00  0.00    -0.273 A  
HETATM   33  C   UNL     1      -6.577  19.798  66.881  1.00  0.00    -0.193 A  
HETATM   34  F   UNL     1      -6.172  20.943  66.313  1.00  0.00    -0.231 F  
HETATM   35 CL   UNL     1      -5.766  20.811  69.256  1.00  0.00    -0.402 Cl 
ENDBRANCH  26  28
ENDBRANCH  12  26
ENDBRANCH   2   3
TORSDOF 7
ENDMDL
MODEL      167
REMARK 921   NORMALIZED FREE ENERGY PREDICTED BY IDOCK:   -3.99 KCAL/MOL
REMARK 922        TOTAL FREE ENERGY PREDICTED BY IDOCK:   -6.54 KCAL/MOL
REMARK 923 INTER-LIGAND FREE ENERGY PREDICTED BY IDOCK:   -5.87 KCAL/MOL
REMARK 924 INTRA-LIGAND FREE ENERGY PREDICTED BY IDOCK:   -0.67 KCAL/MOL
REMARK 927      BINDING AFFINITY PREDICTED BY RF-SCORE:    0.00 PKD
ROOT
HETATM    1  C   UNL     1      -6.599   8.948  72.687  1.00  0.00     0.110 C  
HETATM    2  O   UNL     1      -6.064   8.710  71.386  1.00  0.00    -0.040 OA 
ENDROOT
BRANCH   2   3
HETATM    3  C   UNL     1      -6.389   9.633  70.423  1.00  0.00    -0.081 A  
HETATM    4  C   UNL     1      -7.549   9.389  69.680  1.00  0.00    -0.095 A  
HETATM    5  N   UNL     1      -5.336  12.854  69.154  1.00  0.00    -0.069 NA 
HETATM    6  C   UNL     1      -7.922  10.290  68.670  1.00  0.00    -0.111 A  
HETATM    7  C   UNL     1      -6.073  11.745  69.246  1.00  0.00    -0.084 A  
HETATM    8  C   UNL     1      -5.697  13.728  68.221  1.00  0.00    -0.109 A  
HETATM    9  C   UNL     1      -7.189  11.484  68.438  1.00  0.00    -0.089 A  
HETATM   10  C   UNL     1      -5.692  10.824  70.205  1.00  0.00    -0.092 A  
HETATM   11  N   UNL     1      -6.711  13.584  67.370  1.00  0.00    -0.221 NA 
HETATM   12  C   UNL     1      -7.461  12.465  67.454  1.00  0.00    -0.157 A  
BRANCH   4  13
HETATM   13  N   UNL     1      -8.329   8.245  69.987  1.00  0.00    -0.119 N  
HETATM   14  H   UNL     1      -7.982   7.327  69.708  1.00  0.00     0.000 HD 
HETATM   15  C   UNL     1      -9.538   8.324  70.646  1.00  0.00    -0.171 C  
HETATM   16  O   UNL     1     -10.093   9.370  70.973  1.00  0.00    -0.288 OA 
BRANCH  15  17
HETATM   17  C   UNL     1     -10.097   7.001  71.057  1.00  0.00    -0.206 C  
HETATM   18  C   UNL     1      -9.240   5.971  71.176  1.00  0.00    -0.160 C  
BRANCH  18  19
HETATM   19  C   UNL     1      -9.590   4.529  71.409  1.00  0.00    -0.165 C  
BRANCH  19  20
HETATM   20  N   UNL     1      -8.538   3.553  71.084  1.00  0.00    -0.071 NA 
HETATM   21  C   UNL     1      -8.400   3.290  68.123  1.00  0.00    -0.094 C  
HETATM   22  C   UNL     1      -9.109   2.381  70.387  1.00  0.00    -0.107 C  
HETATM   23  C   UNL     1      -7.783   4.469  68.867  1.00  0.00    -0.070 C  
HETATM   24  C   UNL     1      -9.525   2.650  68.932  1.00  0.00    -0.166 C  
HETATM   25  C   UNL     1      -7.411   4.078  70.297  1.00  0.00    -0.042 C  
ENDBRANCH  19  20
ENDBRANCH  18  19
ENDBRANCH  15  17
ENDBRANCH   4  13
BRANCH  12  26
HETATM   26  N   UNL     1      -8.434  12.226  66.458  1.00  0.00    -0.393 NA 
HETATM   27  H   UNL     1      -8.310  11.351  65.950  1.00  0.00     0.000 HD 
BRANCH  26  28
HETATM   28  C   UNL     1      -9.547  12.990  66.044  1.00  0.00    -0.165 A  
HETATM   29  C   UNL     1     -10.659  12.313  65.514  1.00  0.00    -0.304 A  
HETATM   30  C   UNL     1     -11.706  13.016  64.905  1.00  0.00    -0.341 A  
HETATM   31  C   UNL     1     -10.595  15.097  65.369  1.00  0.00    -0.410 A  
HETATM   32  C   UNL     1      -9.552  14.392  65.976  1.00  0.00    -0.292 A  
HETATM   33  C   UNL     1     -11.659  14.403  64.818  1.00  0.00    -0.408 A  
HETATM   34  F   UNL     1     -12.626  15.091  64.195  1.00  0.00    -0.518 F  
HETATM   35 CL   UNL     1     -13.030  12.145  64.232  1.00  0.00    -0.343 Cl 
ENDBRANCH  26  28
ENDBRANCH  12  26
ENDBRANCH   2   3
TORSDOF 7
ENDMDL
MODEL      168
REMARK 921   NORMALIZED FREE ENERGY PREDICTED BY IDOCK:   -3.95 KCAL/MOL
REMARK 922        TOTAL FREE ENERGY PREDICTED BY IDOCK:   -6.49 KCAL/MOL
REMARK 923 INTER-LIGAND FREE ENERGY PREDICTED BY IDOCK:   -5.21 KCAL/MOL
REMARK 924 INTRA-LIGAND FREE ENERGY PREDICTED BY IDOCK:   -1.28 KCAL/MOL
REMARK 927      BINDING AFFINITY PREDICTED BY RF-SCORE:    0.00 PKD
ROOT
HETATM    1  C   UNL     1      -5.468  10.699  63.627  1.00  0.00    -0.114 C  
HETATM    2  O   UNL     1      -6.268  10.944  64.783  1.00  0.00     0.071 OA 
ENDROOT
BRANCH   2   3
HETATM    3  C   UNL     1      -6.567   9.846  65.552  1.00  0.00    -0.092 A  
HETATM    4  C   UNL     1      -7.078  10.091  66.831  1.00  0.00    -0.090 A  
HETATM    5  N   UNL     1      -6.711   6.236  65.354  1.00  0.00    -0.046 NA 
HETATM    6  C   UNL     1      -7.388   9.008  67.668  1.00  0.00    -0.084 A  
HETATM    7  C   UNL     1      -6.820   7.447  65.905  1.00  0.00    -0.057 A  
HETATM    8  C   UNL     1      -7.028   5.204  66.128  1.00  0.00    -0.067 A  
HETATM    9  C   UNL     1      -7.264   7.667  67.217  1.00  0.00    -0.090 A  
HETATM   10  C   UNL     1      -6.476   8.524  65.109  1.00  0.00    -0.063 A  
HETATM   11  N   UNL     1      -7.427   5.276  67.396  1.00  0.00    -0.083 NA 
HETATM   12  C   UNL     1      -7.539   6.495  67.963  1.00  0.00    -0.103 A  
BRANCH   4  13
HETATM   13  N   UNL     1      -7.292  11.434  67.236  1.00  0.00    -0.122 N  
HETATM   14  H   UNL     1      -8.179  11.880  67.004  1.00  0.00     0.000 HD 
HETATM   15  C   UNL     1      -6.347  12.160  67.931  1.00  0.00    -0.078 C  
HETATM   16  O   UNL     1      -5.220  11.760  68.210  1.00  0.00    -0.043 OA 
BRANCH  15  17
HETATM   17  C   UNL     1      -6.841  13.473  68.443  1.00  0.00    -0.102 C  
HETATM   18  C   UNL     1      -8.169  13.692  68.419  1.00  0.00    -0.146 C  
BRANCH  18  19
HETATM   19  C   UNL     1      -8.874  14.984  68.720  1.00  0.00    -0.192 C  
BRANCH  19  20
HETATM   20  N   UNL     1      -9.452  15.684  67.562  1.00  0.00    -0.214 NA 
HETATM   21  C   UNL     1      -7.729  18.029  66.941  1.00  0.00    -0.245 C  
HETATM   22  C   UNL     1      -9.858  17.057  67.929  1.00  0.00    -0.269 C  
HETATM   23  C   UNL     1      -7.351  16.609  66.535  1.00  0.00    -0.273 C  
HETATM   24  C   UNL     1      -8.686  18.031  68.130  1.00  0.00    -0.277 C  
HETATM   25  C   UNL     1      -8.597  15.739  66.366  1.00  0.00    -0.311 C  
ENDBRANCH  19  20
ENDBRANCH  18  19
ENDBRANCH  15  17
ENDBRANCH   4  13
BRANCH  12  26
HETATM   26  N   UNL     1      -7.804   6.577  69.348  1.00  0.00    -0.104 NA 
HETATM   27  H   UNL     1      -6.972   6.647  69.933  1.00  0.00     0.000 HD 
BRANCH  26  28
HETATM   28  C   UNL     1      -9.022   6.577  70.063  1.00  0.00    -0.144 A  
HETATM   29  C   UNL     1      -8.983   6.826  71.446  1.00  0.00    -0.142 A  
HETATM   30  C   UNL     1     -10.120   6.645  72.242  1.00  0.00    -0.174 A  
HETATM   31  C   UNL     1     -11.389   6.002  70.304  1.00  0.00    -0.336 A  
HETATM   32  C   UNL     1     -10.252   6.184  69.512  1.00  0.00    -0.250 A  
HETATM   33  C   UNL     1     -11.312   6.214  71.670  1.00  0.00    -0.284 A  
HETATM   34  F   UNL     1     -12.398   5.987  72.422  1.00  0.00    -0.354 F  
HETATM   35 CL   UNL     1     -10.017   6.922  73.939  1.00  0.00    -0.329 Cl 
ENDBRANCH  26  28
ENDBRANCH  12  26
ENDBRANCH   2   3
TORSDOF 7
ENDMDL
MODEL      169
REMARK 921   NORMALIZED FREE ENERGY PREDICTED BY IDOCK:   -3.94 KCAL/MOL
REMARK 922        TOTAL FREE ENERGY PREDICTED BY IDOCK:   -6.48 KCAL/MOL
REMARK 923 INTER-LIGAND FREE ENERGY PREDICTED BY IDOCK:   -7.11 KCAL/MOL
REMARK 924 INTRA-LIGAND FREE ENERGY PREDICTED BY IDOCK:    0.63 KCAL/MOL
REMARK 927      BINDING AFFINITY PREDICTED BY RF-SCORE:    0.00 PKD
ROOT
HETATM    1  C   UNL     1      -5.422  15.191  71.078  1.00  0.00    -0.075 C  
HETATM    2  O   UNL     1      -5.139  16.302  70.228  1.00  0.00    -0.141 OA 
ENDROOT
BRANCH   2   3
HETATM    3  C   UNL     1      -6.158  16.700  69.399  1.00  0.00    -0.200 A  
HETATM    4  C   UNL     1      -6.951  15.692  68.842  1.00  0.00    -0.130 A  
HETATM    5  N   UNL     1      -7.792  19.700  68.203  1.00  0.00    -0.305 NA 
HETATM    6  C   UNL     1      -7.998  16.039  67.974  1.00  0.00    -0.142 A  
HETATM    7  C   UNL     1      -7.556  18.393  68.337  1.00  0.00    -0.291 A  
HETATM    8  C   UNL     1      -8.799  20.041  67.406  1.00  0.00    -0.346 A  
HETATM    9  C   UNL     1      -8.317  17.397  67.709  1.00  0.00    -0.218 A  
HETATM   10  C   UNL     1      -6.499  18.033  69.154  1.00  0.00    -0.249 A  
HETATM   11  N   UNL     1      -9.572  19.197  66.727  1.00  0.00    -0.316 NA 
HETATM   12  C   UNL     1      -9.341  17.874  66.854  1.00  0.00    -0.275 A  
BRANCH   4  13
HETATM   13  N   UNL     1      -6.686  14.343  69.192  1.00  0.00    -0.110 N  
HETATM   14  H   UNL     1      -6.865  14.042  70.150  1.00  0.00     0.000 HD 
HETATM   15  C   UNL     1      -6.197  13.423  68.288  1.00  0.00    -0.102 C  
HETATM   16  O   UNL     1      -5.879  13.677  67.129  1.00  0.00    -0.256 OA 
BRANCH  15  17
HETATM   17  C   UNL     1      -6.185  12.017  68.794  1.00  0.00    -0.063 C  
HETATM   18  C   UNL     1      -7.192  11.210  68.415  1.00  0.00    -0.083 C  
BRANCH  18  19
HETATM   19  C   UNL     1      -7.479   9.826  68.925  1.00  0.00    -0.075 C  
BRANCH  19  20
HETATM   20  N   UNL     1      -6.389   8.849  68.776  1.00  0.00    -0.048 NA 
HETATM   21  C   UNL     1      -7.587   6.231  68.022  1.00  0.00    -0.102 C  
HETATM   22  C   UNL     1      -6.529   7.754  69.759  1.00  0.00    -0.034 C  
HETATM   23  C   UNL     1      -7.394   7.360  67.016  1.00  0.00    -0.097 C  
HETATM   24  C   UNL     1      -7.666   6.767  69.450  1.00  0.00    -0.105 C  
HETATM   25  C   UNL     1      -6.238   8.271  67.431  1.00  0.00    -0.056 C  
ENDBRANCH  19  20
ENDBRANCH  18  19
ENDBRANCH  15  17
ENDBRANCH   4  13
BRANCH  12  26
HETATM   26  N   UNL     1     -10.046  16.979  66.018  1.00  0.00    -0.453 NA 
HETATM   27  H   UNL     1     -10.336  17.378  65.125  1.00  0.00     0.000 HD 
BRANCH  26  28
HETATM   28  C   UNL     1     -10.419  15.631  66.204  1.00  0.00    -0.317 A  
HETATM   29  C   UNL     1     -10.123  14.710  65.184  1.00  0.00    -0.359 A  
HETATM   30  C   UNL     1     -10.638  13.408  65.217  1.00  0.00    -0.325 A  
HETATM   31  C   UNL     1     -11.729  13.881  67.308  1.00  0.00    -0.418 A  
HETATM   32  C   UNL     1     -11.213  15.179  67.271  1.00  0.00    -0.324 A  
HETATM   33  C   UNL     1     -11.455  13.007  66.269  1.00  0.00    -0.337 A  
HETATM   34  F   UNL     1     -11.999  11.782  66.294  1.00  0.00    -0.348 F  
HETATM   35 CL   UNL     1     -10.284  12.326  63.926  1.00  0.00    -0.410 Cl 
ENDBRANCH  26  28
ENDBRANCH  12  26
ENDBRANCH   2   3
TORSDOF 7
ENDMDL
MODEL      170
REMARK 921   NORMALIZED FREE ENERGY PREDICTED BY IDOCK:   -3.91 KCAL/MOL
REMARK 922        TOTAL FREE ENERGY PREDICTED BY IDOCK:   -6.43 KCAL/MOL
REMARK 923 INTER-LIGAND FREE ENERGY PREDICTED BY IDOCK:   -6.04 KCAL/MOL
REMARK 924 INTRA-LIGAND FREE ENERGY PREDICTED BY IDOCK:   -0.39 KCAL/MOL
REMARK 927      BINDING AFFINITY PREDICTED BY RF-SCORE:    0.00 PKD
ROOT
HETATM    1  C   UNL     1     -11.355  10.468  67.613  1.00  0.00    -0.154 C  
HETATM    2  O   UNL     1     -10.524  10.867  66.523  1.00  0.00    -0.243 OA 
ENDROOT
BRANCH   2   3
HETATM    3  C   UNL     1     -10.002  12.134  66.597  1.00  0.00    -0.206 A  
HETATM    4  C   UNL     1      -8.666  12.245  66.997  1.00  0.00    -0.199 A  
HETATM    5  N   UNL     1     -10.862  15.572  65.862  1.00  0.00    -0.327 NA 
HETATM    6  C   UNL     1      -8.083  13.518  67.106  1.00  0.00    -0.097 A  
HETATM    7  C   UNL     1     -10.111  14.549  66.275  1.00  0.00    -0.295 A  
HETATM    8  C   UNL     1     -10.311  16.778  65.933  1.00  0.00    -0.328 A  
HETATM    9  C   UNL     1      -8.797  14.690  66.745  1.00  0.00    -0.269 A  
HETATM   10  C   UNL     1     -10.686  13.292  66.218  1.00  0.00    -0.293 A  
HETATM   11  N   UNL     1      -9.091  17.050  66.392  1.00  0.00    -0.283 NA 
HETATM   12  C   UNL     1      -8.323  16.023  66.813  1.00  0.00    -0.270 A  
BRANCH   4  13
HETATM   13  N   UNL     1      -7.931  11.061  67.259  1.00  0.00    -0.121 N  
HETATM   14  H   UNL     1      -7.792  10.775  68.229  1.00  0.00     0.000 HD 
HETATM   15  C   UNL     1      -7.397  10.279  66.255  1.00  0.00    -0.118 C  
HETATM   16  O   UNL     1      -7.438  10.550  65.058  1.00  0.00    -0.111 OA 
BRANCH  15  17
HETATM   17  C   UNL     1      -6.844   8.974  66.726  1.00  0.00    -0.080 C  
HETATM   18  C   UNL     1      -6.822   7.953  65.849  1.00  0.00    -0.057 C  
BRANCH  18  19
HETATM   19  C   UNL     1      -6.473   6.522  66.141  1.00  0.00    -0.043 C  
BRANCH  19  20
HETATM   20  N   UNL     1      -5.841   5.778  65.040  1.00  0.00    -0.024 NA 
HETATM   21  C   UNL     1      -7.983   4.864  63.188  1.00  0.00    -0.085 C  
HETATM   22  C   UNL     1      -6.299   4.373  65.026  1.00  0.00    -0.035 C  
HETATM   23  C   UNL     1      -7.466   6.298  63.191  1.00  0.00    -0.071 C  
HETATM   24  C   UNL     1      -7.743   4.183  64.532  1.00  0.00    -0.080 C  
HETATM   25  C   UNL     1      -6.025   6.357  63.699  1.00  0.00    -0.023 C  
ENDBRANCH  19  20
ENDBRANCH  18  19
ENDBRANCH  15  17
ENDBRANCH   4  13
BRANCH  12  26
HETATM   26  N   UNL     1      -7.095  16.312  67.449  1.00  0.00    -0.151 NA 
HETATM   27  H   UNL     1      -6.461  15.516  67.523  1.00  0.00     0.000 HD 
BRANCH  26  28
HETATM   28  C   UNL     1      -6.593  17.512  67.999  1.00  0.00    -0.172 A  
HETATM   29  C   UNL     1      -6.182  17.508  69.343  1.00  0.00    -0.250 A  
HETATM   30  C   UNL     1      -5.865  18.702  70.002  1.00  0.00    -0.236 A  
HETATM   31  C   UNL     1      -6.312  19.944  67.992  1.00  0.00    -0.266 A  
HETATM   32  C   UNL     1      -6.628  18.750  67.338  1.00  0.00    -0.195 A  
HETATM   33  C   UNL     1      -5.950  19.915  69.329  1.00  0.00    -0.283 A  
HETATM   34  F   UNL     1      -5.699  21.074  69.955  1.00  0.00    -0.402 F  
HETATM   35 CL   UNL     1      -5.407  18.656  71.662  1.00  0.00    -0.278 Cl 
ENDBRANCH  26  28
ENDBRANCH  12  26
ENDBRANCH   2   3
TORSDOF 7
ENDMDL
MODEL      171
REMARK 921   NORMALIZED FREE ENERGY PREDICTED BY IDOCK:   -3.81 KCAL/MOL
REMARK 922        TOTAL FREE ENERGY PREDICTED BY IDOCK:   -6.29 KCAL/MOL
REMARK 923 INTER-LIGAND FREE ENERGY PREDICTED BY IDOCK:   -6.51 KCAL/MOL
REMARK 924 INTRA-LIGAND FREE ENERGY PREDICTED BY IDOCK:    0.22 KCAL/MOL
REMARK 927      BINDING AFFINITY PREDICTED BY RF-SCORE:    0.00 PKD
ROOT
HETATM    1  C   UNL     1      -6.292   9.897  65.029  1.00  0.00    -0.104 C  
HETATM    2  O   UNL     1      -6.577  10.357  66.350  1.00  0.00    -0.084 OA 
ENDROOT
BRANCH   2   3
HETATM    3  C   UNL     1      -6.948   9.395  67.256  1.00  0.00    -0.085 A  
HETATM    4  C   UNL     1      -8.041   9.687  68.077  1.00  0.00    -0.105 A  
HETATM    5  N   UNL     1      -6.166   5.994  68.215  1.00  0.00    -0.031 NA 
HETATM    6  C   UNL     1      -8.456   8.747  69.034  1.00  0.00    -0.130 A  
HETATM    7  C   UNL     1      -6.790   7.173  68.249  1.00  0.00    -0.074 A  
HETATM    8  C   UNL     1      -6.568   5.086  69.097  1.00  0.00    -0.047 A  
HETATM    9  C   UNL     1      -7.836   7.474  69.134  1.00  0.00    -0.119 A  
HETATM   10  C   UNL     1      -6.364   8.128  67.343  1.00  0.00    -0.056 A  
HETATM   11  N   UNL     1      -7.522   5.258  70.011  1.00  0.00    -0.063 NA 
HETATM   12  C   UNL     1      -8.159   6.447  70.054  1.00  0.00    -0.121 A  
BRANCH   4  13
HETATM   13  N   UNL     1      -8.716  10.923  67.902  1.00  0.00    -0.128 N  
HETATM   14  H   UNL     1      -8.257  11.780  68.212  1.00  0.00     0.000 HD 
HETATM   15  C   UNL     1      -9.968  11.011  67.329  1.00  0.00    -0.181 C  
HETATM   16  O   UNL     1     -10.649  10.051  66.978  1.00  0.00    -0.240 OA 
BRANCH  15  17
HETATM   17  C   UNL     1     -10.412  12.409  67.045  1.00  0.00    -0.238 C  
HETATM   18  C   UNL     1      -9.591  13.411  67.411  1.00  0.00    -0.223 C  
BRANCH  18  19
HETATM   19  C   UNL     1      -9.896  14.882  67.381  1.00  0.00    -0.221 C  
BRANCH  19  20
HETATM   20  N   UNL     1     -11.259  15.263  67.786  1.00  0.00    -0.320 NA 
HETATM   21  C   UNL     1     -11.242  15.797  70.713  1.00  0.00    -0.404 C  
HETATM   22  C   UNL     1     -11.810  14.287  68.750  1.00  0.00    -0.341 C  
HETATM   23  C   UNL     1     -10.717  16.805  69.697  1.00  0.00    -0.229 C  
HETATM   24  C   UNL     1     -11.201  14.375  70.158  1.00  0.00    -0.152 C  
HETATM   25  C   UNL     1     -11.397  16.619  68.340  1.00  0.00    -0.142 C  
ENDBRANCH  19  20
ENDBRANCH  18  19
ENDBRANCH  15  17
ENDBRANCH   4  13
BRANCH  12  26
HETATM   26  N   UNL     1      -9.055   6.696  71.117  1.00  0.00    -0.152 NA 
HETATM   27  H   UNL     1      -8.662   6.542  72.045  1.00  0.00     0.000 HD 
BRANCH  26  28
HETATM   28  C   UNL     1     -10.402   7.121  71.117  1.00  0.00    -0.202 A  
HETATM   29  C   UNL     1     -10.681   8.453  70.766  1.00  0.00    -0.244 A  
HETATM   30  C   UNL     1     -11.962   8.989  70.937  1.00  0.00    -0.225 A  
HETATM   31  C   UNL     1     -12.747   6.876  71.774  1.00  0.00    -0.369 A  
HETATM   32  C   UNL     1     -11.467   6.345  71.601  1.00  0.00    -0.354 A  
HETATM   33  C   UNL     1     -12.984   8.204  71.459  1.00  0.00    -0.296 A  
HETATM   34  F   UNL     1     -14.205   8.712  71.678  1.00  0.00    -0.413 F  
HETATM   35 CL   UNL     1     -12.250  10.639  70.533  1.00  0.00    -0.416 Cl 
ENDBRANCH  26  28
ENDBRANCH  12  26
ENDBRANCH   2   3
TORSDOF 7
ENDMDL
MODEL      172
REMARK 921   NORMALIZED FREE ENERGY PREDICTED BY IDOCK:   -3.79 KCAL/MOL
REMARK 922        TOTAL FREE ENERGY PREDICTED BY IDOCK:   -6.26 KCAL/MOL
REMARK 923 INTER-LIGAND FREE ENERGY PREDICTED BY IDOCK:   -6.19 KCAL/MOL
REMARK 924 INTRA-LIGAND FREE ENERGY PREDICTED BY IDOCK:   -0.07 KCAL/MOL
REMARK 927      BINDING AFFINITY PREDICTED BY RF-SCORE:    0.00 PKD
ROOT
HETATM    1  C   UNL     1     -10.830  19.874  66.025  1.00  0.00    -0.225 C  
HETATM    2  O   UNL     1      -9.518  19.434  65.678  1.00  0.00    -0.314 OA 
ENDROOT
BRANCH   2   3
HETATM    3  C   UNL     1      -8.651  19.240  66.725  1.00  0.00    -0.307 A  
HETATM    4  C   UNL     1      -8.632  17.966  67.301  1.00  0.00    -0.237 A  
HETATM    5  N   UNL     1      -6.023  20.936  68.544  1.00  0.00    -0.348 NA 
HETATM    6  C   UNL     1      -7.777  17.713  68.386  1.00  0.00    -0.269 A  
HETATM    7  C   UNL     1      -6.858  19.948  68.219  1.00  0.00    -0.295 A  
HETATM    8  C   UNL     1      -5.189  20.699  69.551  1.00  0.00    -0.323 A  
HETATM    9  C   UNL     1      -6.875  18.701  68.861  1.00  0.00    -0.304 A  
HETATM   10  C   UNL     1      -7.740  20.196  67.182  1.00  0.00    -0.343 A  
HETATM   11  N   UNL     1      -5.129  19.575  70.263  1.00  0.00    -0.190 NA 
HETATM   12  C   UNL     1      -5.971  18.570  69.943  1.00  0.00    -0.223 A  
BRANCH   4  13
HETATM   13  N   UNL     1      -9.465  16.956  66.755  1.00  0.00    -0.245 N  
HETATM   14  H   UNL     1      -9.507  16.852  65.741  1.00  0.00     0.000 HD 
HETATM   15  C   UNL     1     -10.221  16.110  67.540  1.00  0.00    -0.267 C  
HETATM   16  O   UNL     1     -10.308  16.178  68.763  1.00  0.00    -0.225 OA 
BRANCH  15  17
HETATM   17  C   UNL     1     -10.862  14.989  66.788  1.00  0.00    -0.318 C  
HETATM   18  C   UNL     1     -10.620  13.735  67.213  1.00  0.00    -0.275 C  
BRANCH  18  19
HETATM   19  C   UNL     1     -11.013  12.459  66.524  1.00  0.00    -0.272 C  
BRANCH  19  20
HETATM   20  N   UNL     1     -11.002  11.249  67.360  1.00  0.00    -0.264 NA 
HETATM   21  C   UNL     1      -8.169  10.560  67.957  1.00  0.00    -0.112 C  
HETATM   22  C   UNL     1     -10.316  10.139  66.666  1.00  0.00    -0.208 C  
HETATM   23  C   UNL     1      -8.909  11.674  68.690  1.00  0.00    -0.084 C  
HETATM   24  C   UNL     1      -8.788  10.288  66.589  1.00  0.00    -0.148 C  
HETATM   25  C   UNL     1     -10.416  11.413  68.700  1.00  0.00    -0.201 C  
ENDBRANCH  19  20
ENDBRANCH  18  19
ENDBRANCH  15  17
ENDBRANCH   4  13
BRANCH  12  26
HETATM   26  N   UNL     1      -6.028  17.440  70.788  1.00  0.00     0.335 NA 
HETATM   27  H   UNL     1      -6.272  17.650  71.756  1.00  0.00     0.000 HD 
BRANCH  26  28
HETATM   28  C   UNL     1      -5.806  16.071  70.526  1.00  0.00     0.004 A  
HETATM   29  C   UNL     1      -6.020  15.599  69.219  1.00  0.00    -0.112 A  
HETATM   30  C   UNL     1      -6.012  14.227  68.939  1.00  0.00    -0.086 A  
HETATM   31  C   UNL     1      -5.533  13.746  71.246  1.00  0.00    -0.210 A  
HETATM   32  C   UNL     1      -5.542  15.116  71.521  1.00  0.00     0.157 A  
HETATM   33  C   UNL     1      -5.788  13.307  69.957  1.00  0.00    -0.136 A  
HETATM   34  F   UNL     1      -5.826  11.989  69.720  1.00  0.00    -0.078 F  
HETATM   35 CL   UNL     1      -6.320  13.691  67.332  1.00  0.00    -0.063 Cl 
ENDBRANCH  26  28
ENDBRANCH  12  26
ENDBRANCH   2   3
TORSDOF 7
ENDMDL
MODEL      173
REMARK 921   NORMALIZED FREE ENERGY PREDICTED BY IDOCK:   -3.55 KCAL/MOL
REMARK 922        TOTAL FREE ENERGY PREDICTED BY IDOCK:   -5.93 KCAL/MOL
REMARK 923 INTER-LIGAND FREE ENERGY PREDICTED BY IDOCK:   -5.04 KCAL/MOL
REMARK 924 INTRA-LIGAND FREE ENERGY PREDICTED BY IDOCK:   -0.88 KCAL/MOL
REMARK 927      BINDING AFFINITY PREDICTED BY RF-SCORE:    0.00 PKD
ROOT
HETATM    1  C   UNL     1      -6.192  10.915  64.660  1.00  0.00     0.353 C  
HETATM    2  O   UNL     1      -6.456  11.512  65.928  1.00  0.00     0.168 OA 
ENDROOT
BRANCH   2   3
HETATM    3  C   UNL     1      -6.576  10.646  66.988  1.00  0.00    -0.081 A  
HETATM    4  C   UNL     1      -7.628  10.879  67.879  1.00  0.00    -0.095 A  
HETATM    5  N   UNL     1      -5.139   7.592  68.292  1.00  0.00    -0.024 NA 
HETATM    6  C   UNL     1      -7.791  10.036  68.989  1.00  0.00    -0.101 A  
HETATM    7  C   UNL     1      -5.953   8.648  68.239  1.00  0.00    -0.042 A  
HETATM    8  C   UNL     1      -5.302   6.771  69.323  1.00  0.00    -0.014 A  
HETATM    9  C   UNL     1      -6.954   8.906  69.186  1.00  0.00    -0.059 A  
HETATM   10  C   UNL     1      -5.777   9.515  67.176  1.00  0.00    -0.047 A  
HETATM   11  N   UNL     1      -6.188   6.921  70.305  1.00  0.00    -0.030 NA 
HETATM   12  C   UNL     1      -7.015   7.987  70.262  1.00  0.00    -0.044 A  
BRANCH   4  13
HETATM   13  N   UNL     1      -8.519  11.953  67.618  1.00  0.00    -0.148 N  
HETATM   14  H   UNL     1      -8.181  12.908  67.736  1.00  0.00     0.000 HD 
HETATM   15  C   UNL     1      -9.823  11.755  67.212  1.00  0.00    -0.185 C  
HETATM   16  O   UNL     1     -10.365  10.659  67.099  1.00  0.00    -0.206 OA 
BRANCH  15  17
HETATM   17  C   UNL     1     -10.527  13.004  66.791  1.00  0.00    -0.264 C  
HETATM   18  C   UNL     1      -9.876  14.171  66.952  1.00  0.00    -0.265 C  
BRANCH  18  19
HETATM   19  C   UNL     1     -10.440  15.550  66.760  1.00  0.00    -0.295 C  
BRANCH  19  20
HETATM   20  N   UNL     1     -10.718  16.306  67.992  1.00  0.00    -0.320 NA 
HETATM   21  C   UNL     1      -8.365  18.034  68.569  1.00  0.00    -0.313 C  
HETATM   22  C   UNL     1      -9.747  15.957  69.050  1.00  0.00    -0.243 C  
HETATM   23  C   UNL     1      -9.401  18.395  67.511  1.00  0.00    -0.270 C  
HETATM   24  C   UNL     1      -8.338  16.530  68.830  1.00  0.00    -0.241 C  
HETATM   25  C   UNL     1     -10.757  17.769  67.839  1.00  0.00    -0.319 C  
ENDBRANCH  19  20
ENDBRANCH  18  19
ENDBRANCH  15  17
ENDBRANCH   4  13
BRANCH  12  26
HETATM   26  N   UNL     1      -7.846   8.244  71.375  1.00  0.00    -0.096 NA 
HETATM   27  H   UNL     1      -7.647   9.122  71.855  1.00  0.00     0.000 HD 
BRANCH  26  28
HETATM   28  C   UNL     1      -8.904   7.497  71.937  1.00  0.00    -0.114 A  
HETATM   29  C   UNL     1      -9.011   6.136  71.602  1.00  0.00    -0.142 A  
HETATM   30  C   UNL     1     -10.141   5.393  71.963  1.00  0.00    -0.190 A  
HETATM   31  C   UNL     1     -11.081   7.325  73.044  1.00  0.00    -0.361 A  
HETATM   32  C   UNL     1      -9.951   8.063  72.682  1.00  0.00    -0.358 A  
HETATM   33  C   UNL     1     -11.179   5.996  72.665  1.00  0.00    -0.285 A  
HETATM   34  F   UNL     1     -12.292   5.316  72.976  1.00  0.00    -0.295 F  
HETATM   35 CL   UNL     1     -10.250   3.739  71.496  1.00  0.00    -0.115 Cl 
ENDBRANCH  26  28
ENDBRANCH  12  26
ENDBRANCH   2   3
TORSDOF 7
ENDMDL
MODEL      174
REMARK 921   NORMALIZED FREE ENERGY PREDICTED BY IDOCK:   -3.52 KCAL/MOL
REMARK 922        TOTAL FREE ENERGY PREDICTED BY IDOCK:   -5.88 KCAL/MOL
REMARK 923 INTER-LIGAND FREE ENERGY PREDICTED BY IDOCK:   -4.78 KCAL/MOL
REMARK 924 INTRA-LIGAND FREE ENERGY PREDICTED BY IDOCK:   -1.09 KCAL/MOL
REMARK 927      BINDING AFFINITY PREDICTED BY RF-SCORE:    0.00 PKD
ROOT
HETATM    1  C   UNL     1      -9.944   7.979  73.098  1.00  0.00    -0.246 C  
HETATM    2  O   UNL     1     -10.078   7.779  71.692  1.00  0.00    -0.181 OA 
ENDROOT
BRANCH   2   3
HETATM    3  C   UNL     1      -9.387   6.715  71.166  1.00  0.00    -0.163 A  
HETATM    4  C   UNL     1      -8.743   6.922  69.943  1.00  0.00    -0.142 A  
HETATM    5  N   UNL     1      -8.384   3.337  71.992  1.00  0.00    -0.069 NA 
HETATM    6  C   UNL     1      -8.035   5.864  69.349  1.00  0.00    -0.102 A  
HETATM    7  C   UNL     1      -8.487   4.450  71.263  1.00  0.00    -0.098 A  
HETATM    8  C   UNL     1      -7.692   2.339  71.453  1.00  0.00    -0.040 A  
HETATM    9  C   UNL     1      -7.896   4.611  70.002  1.00  0.00    -0.060 A  
HETATM   10  C   UNL     1      -9.220   5.487  71.812  1.00  0.00    -0.158 A  
HETATM   11  N   UNL     1      -7.114   2.352  70.254  1.00  0.00    -0.033 NA 
HETATM   12  C   UNL     1      -7.214   3.472  69.508  1.00  0.00    -0.045 A  
BRANCH   4  13
HETATM   13  N   UNL     1      -8.805   8.208  69.347  1.00  0.00    -0.143 N  
HETATM   14  H   UNL     1      -8.272   8.969  69.768  1.00  0.00     0.000 HD 
HETATM   15  C   UNL     1      -9.557   8.469  68.220  1.00  0.00    -0.144 C  
HETATM   16  O   UNL     1     -10.291   7.658  67.661  1.00  0.00    -0.202 OA 
BRANCH  15  17
HETATM   17  C   UNL     1      -9.325   9.823  67.631  1.00  0.00    -0.157 C  
HETATM   18  C   UNL     1      -9.368  10.880  68.462  1.00  0.00    -0.181 C  
BRANCH  18  19
HETATM   19  C   UNL     1      -9.332  12.331  68.077  1.00  0.00    -0.195 C  
BRANCH  19  20
HETATM   20  N   UNL     1     -10.615  12.912  67.648  1.00  0.00    -0.221 NA 
HETATM   21  C   UNL     1     -12.020  13.939  70.062  1.00  0.00    -0.404 C  
HETATM   22  C   UNL     1     -11.749  12.179  68.250  1.00  0.00    -0.342 C  
HETATM   23  C   UNL     1     -10.875  14.698  69.400  1.00  0.00    -0.261 C  
HETATM   24  C   UNL     1     -11.950  12.446  69.750  1.00  0.00    -0.359 C  
HETATM   25  C   UNL     1     -10.777  14.351  67.914  1.00  0.00    -0.244 C  
ENDBRANCH  19  20
ENDBRANCH  18  19
ENDBRANCH  15  17
ENDBRANCH   4  13
BRANCH  12  26
HETATM   26  N   UNL     1      -6.745   3.443  68.176  1.00  0.00    -0.045 NA 
HETATM   27  H   UNL     1      -5.765   3.703  68.068  1.00  0.00     0.000 HD 
BRANCH  26  28
HETATM   28  C   UNL     1      -7.398   3.115  66.968  1.00  0.00    -0.062 A  
HETATM   29  C   UNL     1      -6.707   3.317  65.760  1.00  0.00    -0.041 A  
HETATM   30  C   UNL     1      -7.362   3.203  64.528  1.00  0.00    -0.070 A  
HETATM   31  C   UNL     1      -9.410   2.639  65.656  1.00  0.00    -0.024 A  
HETATM   32  C   UNL     1      -8.752   2.754  66.884  1.00  0.00    -0.129 A  
HETATM   33  C   UNL     1      -8.715   2.884  64.483  1.00  0.00    -0.102 A  
HETATM   34  F   UNL     1      -9.372   2.819  63.317  1.00  0.00    -0.094 F  
HETATM   35 CL   UNL     1      -6.487   3.499  63.075  1.00  0.00    -0.022 Cl 
ENDBRANCH  26  28
ENDBRANCH  12  26
ENDBRANCH   2   3
TORSDOF 7
ENDMDL
MODEL      175
REMARK 921   NORMALIZED FREE ENERGY PREDICTED BY IDOCK:   -3.37 KCAL/MOL
REMARK 922        TOTAL FREE ENERGY PREDICTED BY IDOCK:   -5.67 KCAL/MOL
REMARK 923 INTER-LIGAND FREE ENERGY PREDICTED BY IDOCK:   -6.26 KCAL/MOL
REMARK 924 INTRA-LIGAND FREE ENERGY PREDICTED BY IDOCK:    0.59 KCAL/MOL
REMARK 927      BINDING AFFINITY PREDICTED BY RF-SCORE:    0.00 PKD
ROOT
HETATM    1  C   UNL     1      -5.269  12.464  68.077  1.00  0.00    -0.073 C  
HETATM    2  O   UNL     1      -6.182  12.954  67.096  1.00  0.00    -0.281 OA 
ENDROOT
BRANCH   2   3
HETATM    3  C   UNL     1      -7.057  13.924  67.518  1.00  0.00    -0.158 A  
HETATM    4  C   UNL     1      -8.311  13.494  67.962  1.00  0.00    -0.168 A  
HETATM    5  N   UNL     1      -7.210  17.486  68.140  1.00  0.00    -0.208 NA 
HETATM    6  C   UNL     1      -9.253  14.443  68.391  1.00  0.00    -0.195 A  
HETATM    7  C   UNL     1      -7.643  16.225  68.076  1.00  0.00    -0.136 A  
HETATM    8  C   UNL     1      -8.084  18.389  68.572  1.00  0.00    -0.319 A  
HETATM    9  C   UNL     1      -8.932  15.824  68.456  1.00  0.00    -0.194 A  
HETATM   10  C   UNL     1      -6.742  15.282  67.613  1.00  0.00    -0.198 A  
HETATM   11  N   UNL     1      -9.344  18.145  68.927  1.00  0.00    -0.228 NA 
HETATM   12  C   UNL     1      -9.791  16.873  68.865  1.00  0.00    -0.267 A  
BRANCH   4  13
HETATM   13  N   UNL     1      -8.587  12.103  67.988  1.00  0.00    -0.167 N  
HETATM   14  H   UNL     1      -9.117  11.694  67.218  1.00  0.00     0.000 HD 
HETATM   15  C   UNL     1      -8.166  11.280  69.012  1.00  0.00    -0.021 C  
HETATM   16  O   UNL     1      -7.580  11.660  70.023  1.00  0.00     0.607 OA 
BRANCH  15  17
HETATM   17  C   UNL     1      -8.373   9.824  68.750  1.00  0.00    -0.113 C  
HETATM   18  C   UNL     1      -8.736   9.459  67.507  1.00  0.00    -0.123 C  
BRANCH  18  19
HETATM   19  C   UNL     1      -9.159   8.090  67.057  1.00  0.00    -0.144 C  
BRANCH  19  20
HETATM   20  N   UNL     1      -8.269   7.429  66.089  1.00  0.00    -0.123 NA 
HETATM   21  C   UNL     1      -5.731   8.977  65.957  1.00  0.00    -0.050 C  
HETATM   22  C   UNL     1      -7.973   8.327  64.953  1.00  0.00    -0.144 C  
HETATM   23  C   UNL     1      -6.040   8.014  67.097  1.00  0.00    -0.054 C  
HETATM   24  C   UNL     1      -7.010   9.477  65.290  1.00  0.00    -0.091 C  
HETATM   25  C   UNL     1      -7.004   6.918  66.640  1.00  0.00    -0.063 C  
ENDBRANCH  19  20
ENDBRANCH  18  19
ENDBRANCH  15  17
ENDBRANCH   4  13
BRANCH  12  26
HETATM   26  N   UNL     1     -11.164  16.627  69.084  1.00  0.00    -0.255 NA 
HETATM   27  H   UNL     1     -11.789  17.138  68.459  1.00  0.00     0.000 HD 
BRANCH  26  28
HETATM   28  C   UNL     1     -11.823  15.798  70.017  1.00  0.00    -0.354 A  
HETATM   29  C   UNL     1     -11.814  16.179  71.370  1.00  0.00    -0.490 A  
HETATM   30  C   UNL     1     -12.272  15.308  72.366  1.00  0.00    -0.383 A  
HETATM   31  C   UNL     1     -12.805  13.661  70.697  1.00  0.00    -0.224 A  
HETATM   32  C   UNL     1     -12.348  14.533  69.706  1.00  0.00    -0.317 A  
HETATM   33  C   UNL     1     -12.746  14.046  72.026  1.00  0.00    -0.277 A  
HETATM   34  F   UNL     1     -13.142  13.178  72.968  1.00  0.00    -0.386 F  
HETATM   35 CL   UNL     1     -12.204  15.799  74.015  1.00  0.00    -0.662 Cl 
ENDBRANCH  26  28
ENDBRANCH  12  26
ENDBRANCH   2   3
TORSDOF 7
ENDMDL
MODEL      176
REMARK 921   NORMALIZED FREE ENERGY PREDICTED BY IDOCK:   -3.34 KCAL/MOL
REMARK 922        TOTAL FREE ENERGY PREDICTED BY IDOCK:   -5.63 KCAL/MOL
REMARK 923 INTER-LIGAND FREE ENERGY PREDICTED BY IDOCK:   -4.69 KCAL/MOL
REMARK 924 INTRA-LIGAND FREE ENERGY PREDICTED BY IDOCK:   -0.94 KCAL/MOL
REMARK 927      BINDING AFFINITY PREDICTED BY RF-SCORE:    0.00 PKD
ROOT
HETATM    1  C   UNL     1     -12.466  10.688  70.930  1.00  0.00    -0.397 C  
HETATM    2  O   UNL     1     -11.068  10.683  70.646  1.00  0.00    -0.243 OA 
ENDROOT
BRANCH   2   3
HETATM    3  C   UNL     1     -10.442   9.463  70.722  1.00  0.00    -0.304 A  
HETATM    4  C   UNL     1      -9.264   9.310  69.984  1.00  0.00    -0.210 A  
HETATM    5  N   UNL     1     -10.661   6.301  72.468  1.00  0.00    -0.203 NA 
HETATM    6  C   UNL     1      -8.588   8.080  70.011  1.00  0.00    -0.134 A  
HETATM    7  C   UNL     1     -10.176   7.213  71.622  1.00  0.00    -0.193 A  
HETATM    8  C   UNL     1     -10.013   5.142  72.524  1.00  0.00    -0.172 A  
HETATM    9  C   UNL     1      -9.034   7.011  70.833  1.00  0.00    -0.152 A  
HETATM   10  C   UNL     1     -10.856   8.415  71.549  1.00  0.00    -0.323 A  
HETATM   11  N   UNL     1      -8.943   4.814  71.803  1.00  0.00    -0.129 NA 
HETATM   12  C   UNL     1      -8.445   5.728  70.944  1.00  0.00    -0.126 A  
BRANCH   4  13
HETATM   13  N   UNL     1      -8.772  10.417  69.245  1.00  0.00    -0.220 N  
HETATM   14  H   UNL     1      -8.822  11.346  69.663  1.00  0.00     0.000 HD 
HETATM   15  C   UNL     1      -8.229  10.286  67.983  1.00  0.00    -0.113 C  
HETATM   16  O   UNL     1      -8.174   9.236  67.348  1.00  0.00    -0.116 OA 
BRANCH  15  17
HETATM   17  C   UNL     1      -7.583  11.529  67.465  1.00  0.00    -0.121 C  
HETATM   18  C   UNL     1      -8.047  12.709  67.916  1.00  0.00    -0.165 C  
BRANCH  18  19
HETATM   19  C   UNL     1      -7.673  14.075  67.417  1.00  0.00    -0.158 C  
BRANCH  19  20
HETATM   20  N   UNL     1      -8.724  15.101  67.508  1.00  0.00    -0.170 NA 
HETATM   21  C   UNL     1      -7.523  17.725  66.782  1.00  0.00    -0.244 C  
HETATM   22  C   UNL     1      -8.387  16.106  68.539  1.00  0.00    -0.195 C  
HETATM   23  C   UNL     1      -7.916  16.691  65.734  1.00  0.00     0.535 C  
HETATM   24  C   UNL     1      -7.261  17.072  68.137  1.00  0.00    -0.186 C  
HETATM   25  C   UNL     1      -9.042  15.793  66.248  1.00  0.00    -0.338 C  
ENDBRANCH  19  20
ENDBRANCH  18  19
ENDBRANCH  15  17
ENDBRANCH   4  13
BRANCH  12  26
HETATM   26  N   UNL     1      -7.414   5.337  70.062  1.00  0.00    -0.063 NA 
HETATM   27  H   UNL     1      -6.483   5.332  70.479  1.00  0.00     0.000 HD 
BRANCH  26  28
HETATM   28  C   UNL     1      -7.448   4.953  68.704  1.00  0.00    -0.069 A  
HETATM   29  C   UNL     1      -6.455   5.454  67.844  1.00  0.00    -0.048 A  
HETATM   30  C   UNL     1      -6.545   5.275  66.459  1.00  0.00    -0.052 A  
HETATM   31  C   UNL     1      -8.596   4.052  66.739  1.00  0.00    -0.106 A  
HETATM   32  C   UNL     1      -8.502   4.233  68.121  1.00  0.00    -0.102 A  
HETATM   33  C   UNL     1      -7.625   4.592  65.912  1.00  0.00    -0.090 A  
HETATM   34  F   UNL     1      -7.757   4.453  64.585  1.00  0.00    -0.073 F  
HETATM   35 CL   UNL     1      -5.328   5.941  65.439  1.00  0.00    -0.013 Cl 
ENDBRANCH  26  28
ENDBRANCH  12  26
ENDBRANCH   2   3
TORSDOF 7
ENDMDL
MODEL      177
REMARK 921   NORMALIZED FREE ENERGY PREDICTED BY IDOCK:   -3.32 KCAL/MOL
REMARK 922        TOTAL FREE ENERGY PREDICTED BY IDOCK:   -5.59 KCAL/MOL
REMARK 923 INTER-LIGAND FREE ENERGY PREDICTED BY IDOCK:   -6.16 KCAL/MOL
REMARK 924 INTRA-LIGAND FREE ENERGY PREDICTED BY IDOCK:    0.57 KCAL/MOL
REMARK 927      BINDING AFFINITY PREDICTED BY RF-SCORE:    0.00 PKD
ROOT
HETATM    1  C   UNL     1     -10.597   8.974  66.799  1.00  0.00    -0.131 C  
HETATM    2  O   UNL     1     -11.274   9.919  67.627  1.00  0.00    -0.211 OA 
ENDROOT
BRANCH   2   3
HETATM    3  C   UNL     1     -11.037  11.243  67.348  1.00  0.00    -0.297 A  
HETATM    4  C   UNL     1     -10.188  11.931  68.220  1.00  0.00    -0.204 A  
HETATM    5  N   UNL     1     -11.723  13.744  64.825  1.00  0.00    -0.363 NA 
HETATM    6  C   UNL     1      -9.922  13.291  67.994  1.00  0.00    -0.233 A  
HETATM    7  C   UNL     1     -11.225  13.234  65.953  1.00  0.00    -0.290 A  
HETATM    8  C   UNL     1     -11.455  15.023  64.585  1.00  0.00    -0.381 A  
HETATM    9  C   UNL     1     -10.437  13.963  66.855  1.00  0.00    -0.276 A  
HETATM   10  C   UNL     1     -11.515  11.907  66.215  1.00  0.00    -0.367 A  
HETATM   11  N   UNL     1     -10.751  15.832  65.375  1.00  0.00    -0.391 NA 
HETATM   12  C   UNL     1     -10.245  15.326  66.519  1.00  0.00    -0.275 A  
BRANCH   4  13
HETATM   13  N   UNL     1      -9.599  11.223  69.300  1.00  0.00    -0.409 N  
HETATM   14  H   UNL     1     -10.210  10.788  69.991  1.00  0.00     0.000 HD 
HETATM   15  C   UNL     1      -8.233  11.101  69.452  1.00  0.00     0.192 C  
HETATM   16  O   UNL     1      -7.395  11.634  68.728  1.00  0.00    -0.108 OA 
BRANCH  15  17
HETATM   17  C   UNL     1      -7.821  10.149  70.526  1.00  0.00     0.375 C  
HETATM   18  C   UNL     1      -8.601   9.073  70.739  1.00  0.00    -0.259 C  
BRANCH  18  19
HETATM   19  C   UNL     1      -8.481   8.081  71.861  1.00  0.00    -0.136 C  
BRANCH  19  20
HETATM   20  N   UNL     1      -7.133   7.912  72.426  1.00  0.00    -0.080 NA 
HETATM   21  C   UNL     1      -5.534   6.265  70.533  1.00  0.00    -0.018 C  
HETATM   22  C   UNL     1      -6.853   6.485  72.693  1.00  0.00    -0.065 C  
HETATM   23  C   UNL     1      -5.801   7.748  70.299  1.00  0.00    -0.023 C  
HETATM   24  C   UNL     1      -6.599   5.644  71.432  1.00  0.00    -0.045 C  
HETATM   25  C   UNL     1      -6.036   8.475  71.624  1.00  0.00    -0.051 C  
ENDBRANCH  19  20
ENDBRANCH  18  19
ENDBRANCH  15  17
ENDBRANCH   4  13
BRANCH  12  26
HETATM   26  N   UNL     1      -9.637  16.209  67.439  1.00  0.00    -0.228 NA 
HETATM   27  H   UNL     1     -10.159  16.339  68.306  1.00  0.00     0.000 HD 
BRANCH  26  28
HETATM   28  C   UNL     1      -8.433  16.942  67.367  1.00  0.00    -0.190 A  
HETATM   29  C   UNL     1      -8.483  18.330  67.585  1.00  0.00    -0.260 A  
HETATM   30  C   UNL     1      -7.369  19.139  67.334  1.00  0.00    -0.228 A  
HETATM   31  C   UNL     1      -6.097  17.205  66.680  1.00  0.00    -0.247 A  
HETATM   32  C   UNL     1      -7.212  16.401  66.933  1.00  0.00    -0.266 A  
HETATM   33  C   UNL     1      -6.188  18.575  66.864  1.00  0.00    -0.173 A  
HETATM   34  F   UNL     1      -5.125  19.337  66.569  1.00  0.00    -0.152 F  
HETATM   35 CL   UNL     1      -7.487  20.840  67.574  1.00  0.00    -0.363 Cl 
ENDBRANCH  26  28
ENDBRANCH  12  26
ENDBRANCH   2   3
TORSDOF 7
ENDMDL
MODEL      178
REMARK 921   NORMALIZED FREE ENERGY PREDICTED BY IDOCK:   -3.31 KCAL/MOL
REMARK 922        TOTAL FREE ENERGY PREDICTED BY IDOCK:   -5.58 KCAL/MOL
REMARK 923 INTER-LIGAND FREE ENERGY PREDICTED BY IDOCK:   -5.34 KCAL/MOL
REMARK 924 INTRA-LIGAND FREE ENERGY PREDICTED BY IDOCK:   -0.25 KCAL/MOL
REMARK 927      BINDING AFFINITY PREDICTED BY RF-SCORE:    0.00 PKD
ROOT
HETATM    1  C   UNL     1      -9.334   2.939  68.272  1.00  0.00    -0.195 C  
HETATM    2  O   UNL     1      -8.212   3.771  68.564  1.00  0.00    -0.073 OA 
ENDROOT
BRANCH   2   3
HETATM    3  C   UNL     1      -8.203   5.005  67.961  1.00  0.00    -0.097 A  
HETATM    4  C   UNL     1      -8.131   6.119  68.802  1.00  0.00    -0.105 A  
HETATM    5  N   UNL     1      -8.080   6.522  64.678  1.00  0.00    -0.116 NA 
HETATM    6  C   UNL     1      -8.135   7.407  68.243  1.00  0.00    -0.125 A  
HETATM    7  C   UNL     1      -8.130   6.467  66.010  1.00  0.00    -0.120 A  
HETATM    8  C   UNL     1      -8.055   7.736  64.137  1.00  0.00    -0.068 A  
HETATM    9  C   UNL     1      -8.133   7.600  66.836  1.00  0.00    -0.116 A  
HETATM   10  C   UNL     1      -8.173   5.206  66.578  1.00  0.00    -0.108 A  
HETATM   11  N   UNL     1      -8.090   8.886  64.806  1.00  0.00    -0.136 NA 
HETATM   12  C   UNL     1      -8.141   8.841  66.154  1.00  0.00    -0.107 A  
BRANCH   4  13
HETATM   13  N   UNL     1      -8.032   5.913  70.203  1.00  0.00    -0.100 N  
HETATM   14  H   UNL     1      -8.642   5.222  70.640  1.00  0.00     0.000 HD 
HETATM   15  C   UNL     1      -7.144   6.609  70.996  1.00  0.00    -0.072 C  
HETATM   16  O   UNL     1      -6.406   7.509  70.602  1.00  0.00    -0.038 OA 
BRANCH  15  17
HETATM   17  C   UNL     1      -7.048   6.100  72.397  1.00  0.00    -0.084 C  
HETATM   18  C   UNL     1      -7.551   4.879  72.653  1.00  0.00    -0.092 C  
BRANCH  18  19
HETATM   19  C   UNL     1      -7.718   4.237  74.001  1.00  0.00    -0.084 C  
BRANCH  19  20
HETATM   20  N   UNL     1      -9.090   3.839  74.356  1.00  0.00    -0.089 NA 
HETATM   21  C   UNL     1     -10.153   2.125  72.168  1.00  0.00    -0.229 C  
HETATM   22  C   UNL     1     -10.058   4.362  73.370  1.00  0.00    -0.153 C  
HETATM   23  C   UNL     1      -9.185   1.597  73.221  1.00  0.00    -0.074 C  
HETATM   24  C   UNL     1     -10.033   3.639  72.014  1.00  0.00    -0.232 C  
HETATM   25  C   UNL     1      -9.305   2.393  74.521  1.00  0.00    -0.082 C  
ENDBRANCH  19  20
ENDBRANCH  18  19
ENDBRANCH  15  17
ENDBRANCH   4  13
BRANCH  12  26
HETATM   26  N   UNL     1      -8.340  10.045  66.865  1.00  0.00    -0.124 NA 
HETATM   27  H   UNL     1      -7.515  10.383  67.360  1.00  0.00     0.000 HD 
BRANCH  26  28
HETATM   28  C   UNL     1      -9.483  10.862  67.008  1.00  0.00    -0.164 A  
HETATM   29  C   UNL     1     -10.312  11.052  65.889  1.00  0.00    -0.315 A  
HETATM   30  C   UNL     1     -11.341  12.001  65.908  1.00  0.00    -0.337 A  
HETATM   31  C   UNL     1     -10.784  12.576  68.176  1.00  0.00    -0.246 A  
HETATM   32  C   UNL     1      -9.758  11.628  68.153  1.00  0.00    -0.189 A  
HETATM   33  C   UNL     1     -11.559  12.772  67.045  1.00  0.00    -0.360 A  
HETATM   34  F   UNL     1     -12.505  13.721  67.067  1.00  0.00    -0.418 F  
HETATM   35 CL   UNL     1     -12.306  12.231  64.501  1.00  0.00    -0.487 Cl 
ENDBRANCH  26  28
ENDBRANCH  12  26
ENDBRANCH   2   3
TORSDOF 7
ENDMDL
MODEL      179
REMARK 921   NORMALIZED FREE ENERGY PREDICTED BY IDOCK:   -3.21 KCAL/MOL
REMARK 922        TOTAL FREE ENERGY PREDICTED BY IDOCK:   -5.44 KCAL/MOL
REMARK 923 INTER-LIGAND FREE ENERGY PREDICTED BY IDOCK:   -4.58 KCAL/MOL
REMARK 924 INTRA-LIGAND FREE ENERGY PREDICTED BY IDOCK:   -0.86 KCAL/MOL
REMARK 927      BINDING AFFINITY PREDICTED BY RF-SCORE:    0.00 PKD
ROOT
HETATM    1  C   UNL     1      -8.109  12.701  68.223  1.00  0.00    -0.161 C  
HETATM    2  O   UNL     1      -7.096  11.776  68.613  1.00  0.00    -0.088 OA 
ENDROOT
BRANCH   2   3
HETATM    3  C   UNL     1      -6.808  10.781  67.710  1.00  0.00    -0.073 A  
HETATM    4  C   UNL     1      -7.062   9.467  68.115  1.00  0.00    -0.079 A  
HETATM    5  N   UNL     1      -5.729  10.326  64.286  1.00  0.00    -0.132 NA 
HETATM    6  C   UNL     1      -6.773   8.408  67.240  1.00  0.00    -0.063 A  
HETATM    7  C   UNL     1      -6.122   9.977  65.513  1.00  0.00    -0.089 A  
HETATM    8  C   UNL     1      -5.480   9.333  63.440  1.00  0.00    -0.067 A  
HETATM    9  C   UNL     1      -6.299   8.648  65.923  1.00  0.00    -0.056 A  
HETATM   10  C   UNL     1      -6.369  11.007  66.403  1.00  0.00    -0.133 A  
HETATM   11  N   UNL     1      -5.574   8.034  63.715  1.00  0.00    -0.052 NA 
HETATM   12  C   UNL     1      -5.969   7.670  64.953  1.00  0.00    -0.038 A  
BRANCH   4  13
HETATM   13  N   UNL     1      -7.629   9.245  69.396  1.00  0.00    -0.077 N  
HETATM   14  H   UNL     1      -7.010   9.012  70.172  1.00  0.00     0.000 HD 
HETATM   15  C   UNL     1      -8.986   9.331  69.634  1.00  0.00    -0.160 C  
HETATM   16  O   UNL     1      -9.838   9.537  68.774  1.00  0.00    -0.161 OA 
BRANCH  15  17
HETATM   17  C   UNL     1      -9.358   9.270  71.080  1.00  0.00    -0.298 C  
HETATM   18  C   UNL     1      -8.565   8.553  71.898  1.00  0.00    -0.254 C  
BRANCH  18  19
HETATM   19  C   UNL     1      -8.829   8.213  73.337  1.00  0.00    -0.253 C  
BRANCH  19  20
HETATM   20  N   UNL     1      -8.983   6.782  73.640  1.00  0.00    -0.134 NA 
HETATM   21  C   UNL     1     -10.799   5.594  71.605  1.00  0.00    -0.301 C  
HETATM   22  C   UNL     1     -10.391   6.462  73.957  1.00  0.00    -0.323 C  
HETATM   23  C   UNL     1      -9.333   5.893  71.313  1.00  0.00    -0.172 C  
HETATM   24  C   UNL     1     -11.330   6.465  72.740  1.00  0.00    -0.226 C  
HETATM   25  C   UNL     1      -8.503   5.860  72.597  1.00  0.00    -0.119 C  
ENDBRANCH  19  20
ENDBRANCH  18  19
ENDBRANCH  15  17
ENDBRANCH   4  13
BRANCH  12  26
HETATM   26  N   UNL     1      -5.918   6.303  65.306  1.00  0.00    -0.025 NA 
HETATM   27  H   UNL     1      -5.075   5.819  64.995  1.00  0.00     0.000 HD 
BRANCH  26  28
HETATM   28  C   UNL     1      -6.830   5.491  66.013  1.00  0.00    -0.058 A  
HETATM   29  C   UNL     1      -8.189   5.546  65.656  1.00  0.00    -0.127 A  
HETATM   30  C   UNL     1      -9.166   4.923  66.441  1.00  0.00    -0.138 A  
HETATM   31  C   UNL     1      -7.466   4.129  67.946  1.00  0.00    -0.068 A  
HETATM   32  C   UNL     1      -6.494   4.752  67.159  1.00  0.00    -0.045 A  
HETATM   33  C   UNL     1      -8.801   4.234  67.593  1.00  0.00    -0.111 A  
HETATM   34  F   UNL     1      -9.725   3.673  68.385  1.00  0.00    -0.226 F  
HETATM   35 CL   UNL     1     -10.822   5.051  65.989  1.00  0.00    -0.271 Cl 
ENDBRANCH  26  28
ENDBRANCH  12  26
ENDBRANCH   2   3
TORSDOF 7
ENDMDL
MODEL      180
REMARK 921   NORMALIZED FREE ENERGY PREDICTED BY IDOCK:   -3.15 KCAL/MOL
REMARK 922        TOTAL FREE ENERGY PREDICTED BY IDOCK:   -5.35 KCAL/MOL
REMARK 923 INTER-LIGAND FREE ENERGY PREDICTED BY IDOCK:   -5.01 KCAL/MOL
REMARK 924 INTRA-LIGAND FREE ENERGY PREDICTED BY IDOCK:   -0.34 KCAL/MOL
REMARK 927      BINDING AFFINITY PREDICTED BY RF-SCORE:    0.00 PKD
ROOT
HETATM    1  C   UNL     1     -11.848  10.883  70.119  1.00  0.00    -0.353 C  
HETATM    2  O   UNL     1     -10.474  10.522  69.993  1.00  0.00    -0.233 OA 
ENDROOT
BRANCH   2   3
HETATM    3  C   UNL     1     -10.136   9.270  70.444  1.00  0.00    -0.236 A  
HETATM    4  C   UNL     1      -9.001   8.680  69.882  1.00  0.00    -0.149 A  
HETATM    5  N   UNL     1     -11.104   6.830  72.936  1.00  0.00    -0.261 NA 
HETATM    6  C   UNL     1      -8.616   7.393  70.293  1.00  0.00    -0.145 A  
HETATM    7  C   UNL     1     -10.404   7.352  71.927  1.00  0.00    -0.192 A  
HETATM    8  C   UNL     1     -10.732   5.625  73.354  1.00  0.00    -0.278 A  
HETATM    9  C   UNL     1      -9.313   6.710  71.324  1.00  0.00    -0.159 A  
HETATM   10  C   UNL     1     -10.797   8.600  71.478  1.00  0.00    -0.352 A  
HETATM   11  N   UNL     1      -9.740   4.898  72.844  1.00  0.00    -0.143 NA 
HETATM   12  C   UNL     1      -9.027   5.415  71.822  1.00  0.00    -0.135 A  
BRANCH   4  13
HETATM   13  N   UNL     1      -8.254   9.412  68.923  1.00  0.00    -0.109 N  
HETATM   14  H   UNL     1      -8.157  10.420  69.045  1.00  0.00     0.000 HD 
HETATM   15  C   UNL     1      -7.653   8.815  67.834  1.00  0.00    -0.097 C  
HETATM   16  O   UNL     1      -7.751   7.626  67.542  1.00  0.00    -0.112 OA 
BRANCH  15  17
HETATM   17  C   UNL     1      -6.745   9.719  67.066  1.00  0.00    -0.075 C  
HETATM   18  C   UNL     1      -6.972   9.856  65.746  1.00  0.00    -0.109 C  
BRANCH  18  19
HETATM   19  C   UNL     1      -6.100  10.568  64.751  1.00  0.00    -0.057 C  
BRANCH  19  20
HETATM   20  N   UNL     1      -6.054   9.980  63.403  1.00  0.00    -0.124 NA 
HETATM   21  C   UNL     1      -8.848   9.439  62.532  1.00  0.00    -0.243 C  
HETATM   22  C   UNL     1      -6.612   8.611  63.409  1.00  0.00    -0.089 C  
HETATM   23  C   UNL     1      -8.238  10.836  62.495  1.00  0.00    -0.224 C  
HETATM   24  C   UNL     1      -8.141   8.551  63.553  1.00  0.00    -0.155 C  
HETATM   25  C   UNL     1      -6.718  10.765  62.349  1.00  0.00    -0.063 C  
ENDBRANCH  19  20
ENDBRANCH  18  19
ENDBRANCH  15  17
ENDBRANCH   4  13
BRANCH  12  26
HETATM   26  N   UNL     1      -8.082   4.592  71.171  1.00  0.00    -0.084 NA 
HETATM   27  H   UNL     1      -7.189   4.509  71.657  1.00  0.00     0.000 HD 
BRANCH  26  28
HETATM   28  C   UNL     1      -8.159   3.864  69.964  1.00  0.00    -0.053 A  
HETATM   29  C   UNL     1      -7.098   3.976  69.049  1.00  0.00    -0.050 A  
HETATM   30  C   UNL     1      -7.201   3.444  67.758  1.00  0.00    -0.054 A  
HETATM   31  C   UNL     1      -9.409   2.630  68.257  1.00  0.00    -0.258 A  
HETATM   32  C   UNL     1      -9.301   3.163  69.545  1.00  0.00    -0.228 A  
HETATM   33  C   UNL     1      -8.364   2.791  67.362  1.00  0.00    -0.085 A  
HETATM   34  F   UNL     1      -8.503   2.319  66.116  1.00  0.00    -0.083 F  
HETATM   35 CL   UNL     1      -5.893   3.640  66.655  1.00  0.00    -0.022 Cl 
ENDBRANCH  26  28
ENDBRANCH  12  26
ENDBRANCH   2   3
TORSDOF 7
ENDMDL
MODEL      181
REMARK 921   NORMALIZED FREE ENERGY PREDICTED BY IDOCK:   -3.08 KCAL/MOL
REMARK 922        TOTAL FREE ENERGY PREDICTED BY IDOCK:   -5.26 KCAL/MOL
REMARK 923 INTER-LIGAND FREE ENERGY PREDICTED BY IDOCK:   -4.86 KCAL/MOL
REMARK 924 INTRA-LIGAND FREE ENERGY PREDICTED BY IDOCK:   -0.40 KCAL/MOL
REMARK 927      BINDING AFFINITY PREDICTED BY RF-SCORE:    0.00 PKD
ROOT
HETATM    1  C   UNL     1      -5.797  16.400  69.939  1.00  0.00    -0.199 C  
HETATM    2  O   UNL     1      -6.937  15.745  69.383  1.00  0.00    -0.179 OA 
ENDROOT
BRANCH   2   3
HETATM    3  C   UNL     1      -6.901  14.372  69.382  1.00  0.00    -0.132 A  
HETATM    4  C   UNL     1      -7.718  13.720  68.454  1.00  0.00    -0.134 A  
HETATM    5  N   UNL     1      -5.139  11.610  70.919  1.00  0.00    -0.117 NA 
HETATM    6  C   UNL     1      -7.735  12.316  68.418  1.00  0.00    -0.141 A  
HETATM    7  C   UNL     1      -6.018  12.224  70.123  1.00  0.00    -0.148 A  
HETATM    8  C   UNL     1      -5.126  10.282  70.873  1.00  0.00    -0.067 A  
HETATM    9  C   UNL     1      -6.883  11.546  69.253  1.00  0.00    -0.114 A  
HETATM   10  C   UNL     1      -6.047  13.606  70.179  1.00  0.00    -0.131 A  
HETATM   11  N   UNL     1      -5.918   9.523  70.119  1.00  0.00    -0.043 NA 
HETATM   12  C   UNL     1      -6.811  10.133  69.312  1.00  0.00    -0.063 A  
BRANCH   4  13
HETATM   13  N   UNL     1      -8.491  14.500  67.556  1.00  0.00    -0.177 N  
HETATM   14  H   UNL     1      -8.316  15.504  67.504  1.00  0.00     0.000 HD 
HETATM   15  C   UNL     1      -9.470  13.956  66.751  1.00  0.00    -0.279 C  
HETATM   16  O   UNL     1      -9.821  12.779  66.769  1.00  0.00    -0.230 OA 
BRANCH  15  17
HETATM   17  C   UNL     1     -10.021  14.902  65.734  1.00  0.00    -0.376 C  
HETATM   18  C   UNL     1      -9.844  16.219  65.948  1.00  0.00    -0.365 C  
BRANCH  18  19
HETATM   19  C   UNL     1     -10.448  17.348  65.161  1.00  0.00     0.307 C  
BRANCH  19  20
HETATM   20  N   UNL     1     -11.265  18.300  65.931  1.00  0.00     0.524 NA 
HETATM   21  C   UNL     1      -9.439  20.283  67.190  1.00  0.00    -0.557 C  
HETATM   22  C   UNL     1     -10.931  18.234  67.369  1.00  0.00    -0.099 C  
HETATM   23  C   UNL     1      -9.831  20.355  65.718  1.00  0.00    -0.093 C  
HETATM   24  C   UNL     1      -9.576  18.863  67.733  1.00  0.00    -0.357 C  
HETATM   25  C   UNL     1     -11.192  19.700  65.483  1.00  0.00     0.410 C  
ENDBRANCH  19  20
ENDBRANCH  18  19
ENDBRANCH  15  17
ENDBRANCH   4  13
BRANCH  12  26
HETATM   26  N   UNL     1      -7.761   9.340  68.631  1.00  0.00    -0.084 NA 
HETATM   27  H   UNL     1      -7.558   9.196  67.642  1.00  0.00     0.000 HD 
BRANCH  26  28
HETATM   28  C   UNL     1      -8.942   8.713  69.082  1.00  0.00    -0.142 A  
HETATM   29  C   UNL     1      -9.330   8.904  70.420  1.00  0.00    -0.223 A  
HETATM   30  C   UNL     1     -10.372   8.157  70.981  1.00  0.00    -0.195 A  
HETATM   31  C   UNL     1     -10.710   7.030  68.883  1.00  0.00    -0.227 A  
HETATM   32  C   UNL     1      -9.669   7.779  68.327  1.00  0.00    -0.169 A  
HETATM   33  C   UNL     1     -11.044   7.210  70.215  1.00  0.00    -0.274 A  
HETATM   34  F   UNL     1     -12.010   6.448  70.747  1.00  0.00    -0.408 F  
HETATM   35 CL   UNL     1     -10.787   8.393  72.635  1.00  0.00    -0.380 Cl 
ENDBRANCH  26  28
ENDBRANCH  12  26
ENDBRANCH   2   3
TORSDOF 7
ENDMDL
MODEL      182
REMARK 921   NORMALIZED FREE ENERGY PREDICTED BY IDOCK:   -3.06 KCAL/MOL
REMARK 922        TOTAL FREE ENERGY PREDICTED BY IDOCK:   -5.23 KCAL/MOL
REMARK 923 INTER-LIGAND FREE ENERGY PREDICTED BY IDOCK:   -5.97 KCAL/MOL
REMARK 924 INTRA-LIGAND FREE ENERGY PREDICTED BY IDOCK:    0.74 KCAL/MOL
REMARK 927      BINDING AFFINITY PREDICTED BY RF-SCORE:    0.00 PKD
ROOT
HETATM    1  C   UNL     1      -5.146  15.895  70.980  1.00  0.00    -0.162 C  
HETATM    2  O   UNL     1      -6.269  15.535  70.177  1.00  0.00    -0.153 OA 
ENDROOT
BRANCH   2   3
HETATM    3  C   UNL     1      -6.472  14.190  69.992  1.00  0.00    -0.103 A  
HETATM    4  C   UNL     1      -7.232  13.812  68.880  1.00  0.00    -0.095 A  
HETATM    5  N   UNL     1      -5.479  10.989  71.358  1.00  0.00    -0.329 NA 
HETATM    6  C   UNL     1      -7.485  12.450  68.649  1.00  0.00    -0.095 A  
HETATM    7  C   UNL     1      -6.101  11.843  70.543  1.00  0.00     0.050 A  
HETATM    8  C   UNL     1      -5.688   9.697  71.131  1.00  0.00    -0.075 A  
HETATM    9  C   UNL     1      -6.922  11.444  69.478  1.00  0.00    -0.063 A  
HETATM   10  C   UNL     1      -5.900  13.190  70.783  1.00  0.00    -0.111 A  
HETATM   11  N   UNL     1      -6.470   9.190  70.180  1.00  0.00    -0.043 NA 
HETATM   12  C   UNL     1      -7.104  10.046  69.351  1.00  0.00    -0.074 A  
BRANCH   4  13
HETATM   13  N   UNL     1      -7.706  14.820  68.002  1.00  0.00    -0.115 N  
HETATM   14  H   UNL     1      -8.699  15.053  68.015  1.00  0.00     0.000 HD 
HETATM   15  C   UNL     1      -6.878  15.499  67.132  1.00  0.00    -0.041 C  
HETATM   16  O   UNL     1      -5.682  15.266  66.975  1.00  0.00    -0.181 OA 
BRANCH  15  17
HETATM   17  C   UNL     1      -7.527  16.658  66.449  1.00  0.00    -0.260 C  
HETATM   18  C   UNL     1      -8.867  16.758  66.529  1.00  0.00    -0.311 C  
BRANCH  18  19
HETATM   19  C   UNL     1      -9.743  17.730  65.792  1.00  0.00     0.143 C  
BRANCH  19  20
HETATM   20  N   UNL     1      -9.428  19.154  65.987  1.00  0.00    -0.454 NA 
HETATM   21  C   UNL     1      -9.983  19.846  68.827  1.00  0.00    -0.462 C  
HETATM   22  C   UNL     1     -10.638  19.910  66.373  1.00  0.00    -0.420 C  
HETATM   23  C   UNL     1      -8.722  19.103  68.400  1.00  0.00    -0.387 C  
HETATM   24  C   UNL     1     -11.109  19.657  67.814  1.00  0.00    -0.032 C  
HETATM   25  C   UNL     1      -8.355  19.436  66.954  1.00  0.00    -0.287 C  
ENDBRANCH  19  20
ENDBRANCH  18  19
ENDBRANCH  15  17
ENDBRANCH   4  13
BRANCH  12  26
HETATM   26  N   UNL     1      -8.057   9.529  68.445  1.00  0.00    -0.101 NA 
HETATM   27  H   UNL     1      -8.417   8.607  68.692  1.00  0.00     0.000 HD 
BRANCH  26  28
HETATM   28  C   UNL     1      -8.598  10.067  67.257  1.00  0.00    -0.125 A  
HETATM   29  C   UNL     1      -9.812  10.771  67.336  1.00  0.00    -0.204 A  
HETATM   30  C   UNL     1     -10.498  11.155  66.178  1.00  0.00    -0.253 A  
HETATM   31  C   UNL     1      -8.767  10.187  64.818  1.00  0.00    -0.202 A  
HETATM   32  C   UNL     1      -8.085   9.806  65.976  1.00  0.00    -0.114 A  
HETATM   33  C   UNL     1      -9.982  10.844  64.925  1.00  0.00    -0.303 A  
HETATM   34  F   UNL     1     -10.647  11.157  63.804  1.00  0.00    -0.368 F  
HETATM   35 CL   UNL     1     -12.003  11.980  66.320  1.00  0.00    -0.245 Cl 
ENDBRANCH  26  28
ENDBRANCH  12  26
ENDBRANCH   2   3
TORSDOF 7
ENDMDL
MODEL      183
REMARK 921   NORMALIZED FREE ENERGY PREDICTED BY IDOCK:   -2.90 KCAL/MOL
REMARK 922        TOTAL FREE ENERGY PREDICTED BY IDOCK:   -5.01 KCAL/MOL
REMARK 923 INTER-LIGAND FREE ENERGY PREDICTED BY IDOCK:   -3.57 KCAL/MOL
REMARK 924 INTRA-LIGAND FREE ENERGY PREDICTED BY IDOCK:   -1.44 KCAL/MOL
REMARK 927      BINDING AFFINITY PREDICTED BY RF-SCORE:    0.00 PKD
ROOT
HETATM    1  C   UNL     1      -7.283  10.329  69.925  1.00  0.00    -0.159 C  
HETATM    2  O   UNL     1      -6.557   9.253  69.332  1.00  0.00    -0.043 OA 
ENDROOT
BRANCH   2   3
HETATM    3  C   UNL     1      -6.887   8.945  68.036  1.00  0.00    -0.070 A  
HETATM    4  C   UNL     1      -7.622   7.772  67.832  1.00  0.00    -0.116 A  
HETATM    5  N   UNL     1      -6.697  10.312  64.691  1.00  0.00    -0.115 NA 
HETATM    6  C   UNL     1      -7.975   7.398  66.526  1.00  0.00    -0.111 A  
HETATM    7  C   UNL     1      -6.996   9.433  65.649  1.00  0.00    -0.086 A  
HETATM    8  C   UNL     1      -7.052   9.982  63.454  1.00  0.00    -0.129 A  
HETATM    9  C   UNL     1      -7.668   8.224  65.413  1.00  0.00    -0.103 A  
HETATM   10  C   UNL     1      -6.615   9.764  66.937  1.00  0.00    -0.067 A  
HETATM   11  N   UNL     1      -7.660   8.854  63.093  1.00  0.00    -0.102 NA 
HETATM   12  C   UNL     1      -7.965   7.957  64.055  1.00  0.00    -0.124 A  
BRANCH   4  13
HETATM   13  N   UNL     1      -8.010   7.005  68.961  1.00  0.00    -0.115 N  
HETATM   14  H   UNL     1      -7.330   6.369  69.377  1.00  0.00     0.000 HD 
HETATM   15  C   UNL     1      -9.270   7.085  69.516  1.00  0.00    -0.149 C  
HETATM   16  O   UNL     1     -10.194   7.759  69.069  1.00  0.00    -0.198 OA 
BRANCH  15  17
HETATM   17  C   UNL     1      -9.412   6.360  70.815  1.00  0.00    -0.179 C  
HETATM   18  C   UNL     1      -9.744   5.056  70.769  1.00  0.00    -0.263 C  
BRANCH  18  19
HETATM   19  C   UNL     1     -10.103   4.176  71.932  1.00  0.00    -0.154 C  
BRANCH  19  20
HETATM   20  N   UNL     1      -9.600   2.795  71.870  1.00  0.00    -0.131 NA 
HETATM   21  C   UNL     1      -7.365   2.534  73.818  1.00  0.00    -0.041 C  
HETATM   22  C   UNL     1      -8.190   2.770  71.426  1.00  0.00    -0.062 C  
HETATM   23  C   UNL     1      -8.828   2.520  74.248  1.00  0.00    -0.079 C  
HETATM   24  C   UNL     1      -7.185   3.254  72.484  1.00  0.00    -0.047 C  
HETATM   25  C   UNL     1      -9.726   2.021  73.115  1.00  0.00    -0.079 C  
ENDBRANCH  19  20
ENDBRANCH  18  19
ENDBRANCH  15  17
ENDBRANCH   4  13
BRANCH  12  26
HETATM   26  N   UNL     1      -8.461   6.693  63.668  1.00  0.00    -0.327 NA 
HETATM   27  H   UNL     1      -9.382   6.718  63.228  1.00  0.00     0.000 HD 
BRANCH  26  28
HETATM   28  C   UNL     1      -7.905   5.400  63.784  1.00  0.00    -0.097 A  
HETATM   29  C   UNL     1      -8.754   4.339  64.144  1.00  0.00    -0.127 A  
HETATM   30  C   UNL     1      -8.235   3.080  64.469  1.00  0.00    -0.086 A  
HETATM   31  C   UNL     1      -6.006   3.878  64.048  1.00  0.00    -0.014 A  
HETATM   32  C   UNL     1      -6.528   5.133  63.724  1.00  0.00    -0.026 A  
HETATM   33  C   UNL     1      -6.862   2.862  64.439  1.00  0.00    -0.040 A  
HETATM   34  F   UNL     1      -6.341   1.679  64.795  1.00  0.00    -0.016 F  
HETATM   35 CL   UNL     1      -9.308   1.820  64.944  1.00  0.00    -0.116 Cl 
ENDBRANCH  26  28
ENDBRANCH  12  26
ENDBRANCH   2   3
TORSDOF 7
ENDMDL
MODEL      184
REMARK 921   NORMALIZED FREE ENERGY PREDICTED BY IDOCK:   -2.74 KCAL/MOL
REMARK 922        TOTAL FREE ENERGY PREDICTED BY IDOCK:   -4.78 KCAL/MOL
REMARK 923 INTER-LIGAND FREE ENERGY PREDICTED BY IDOCK:   -4.98 KCAL/MOL
REMARK 924 INTRA-LIGAND FREE ENERGY PREDICTED BY IDOCK:    0.20 KCAL/MOL
REMARK 927      BINDING AFFINITY PREDICTED BY RF-SCORE:    0.00 PKD
ROOT
HETATM    1  C   UNL     1     -10.260  10.071  65.654  1.00  0.00    -0.188 C  
HETATM    2  O   UNL     1      -9.772  10.505  66.922  1.00  0.00    -0.171 OA 
ENDROOT
BRANCH   2   3
HETATM    3  C   UNL     1      -9.712  11.864  67.111  1.00  0.00    -0.185 A  
HETATM    4  C   UNL     1      -8.593  12.359  67.787  1.00  0.00    -0.172 A  
HETATM    5  N   UNL     1     -11.467  14.901  66.222  1.00  0.00    -0.312 NA 
HETATM    6  C   UNL     1      -8.485  13.739  68.024  1.00  0.00    -0.176 A  
HETATM    7  C   UNL     1     -10.526  14.139  66.782  1.00  0.00    -0.277 A  
HETATM    8  C   UNL     1     -11.360  16.211  66.414  1.00  0.00     0.372 A  
HETATM    9  C   UNL     1      -9.451  14.651  67.523  1.00  0.00    -0.198 A  
HETATM   10  C   UNL     1     -10.641  12.773  66.598  1.00  0.00    -0.272 A  
HETATM   11  N   UNL     1     -10.411  16.818  67.124  1.00  0.00    -0.317 NA 
HETATM   12  C   UNL     1      -9.455  16.056  67.696  1.00  0.00    -0.216 A  
BRANCH   4  13
HETATM   13  N   UNL     1      -7.584  11.449  68.197  1.00  0.00    -0.107 N  
HETATM   14  H   UNL     1      -7.443  11.290  69.194  1.00  0.00     0.000 HD 
HETATM   15  C   UNL     1      -6.786  10.771  67.298  1.00  0.00    -0.080 C  
HETATM   16  O   UNL     1      -6.812  10.925  66.080  1.00  0.00    -0.129 OA 
BRANCH  15  17
HETATM   17  C   UNL     1      -5.934   9.711  67.917  1.00  0.00    -0.051 C  
HETATM   18  C   UNL     1      -6.556   8.640  68.444  1.00  0.00    -0.060 C  
BRANCH  18  19
HETATM   19  C   UNL     1      -5.929   7.545  69.258  1.00  0.00    -0.030 C  
BRANCH  19  20
HETATM   20  N   UNL     1      -6.476   6.195  69.046  1.00  0.00    -0.041 NA 
HETATM   21  C   UNL     1      -6.703   5.736  66.115  1.00  0.00    -0.057 C  
HETATM   22  C   UNL     1      -7.781   6.262  68.355  1.00  0.00    -0.104 C  
HETATM   23  C   UNL     1      -5.375   5.632  66.856  1.00  0.00    -0.008 C  
HETATM   24  C   UNL     1      -7.689   6.628  66.865  1.00  0.00    -0.106 C  
HETATM   25  C   UNL     1      -5.596   5.263  68.324  1.00  0.00    -0.012 C  
ENDBRANCH  19  20
ENDBRANCH  18  19
ENDBRANCH  15  17
ENDBRANCH   4  13
BRANCH  12  26
HETATM   26  N   UNL     1      -8.540  16.670  68.581  1.00  0.00    -0.244 NA 
HETATM   27  H   UNL     1      -8.307  16.110  69.400  1.00  0.00     0.000 HD 
BRANCH  26  28
HETATM   28  C   UNL     1      -7.894  17.924  68.527  1.00  0.00    -0.298 A  
HETATM   29  C   UNL     1      -7.887  18.619  67.305  1.00  0.00    -0.240 A  
HETATM   30  C   UNL     1      -7.100  19.764  67.132  1.00  0.00    -0.215 A  
HETATM   31  C   UNL     1      -6.329  19.590  69.403  1.00  0.00    -0.355 A  
HETATM   32  C   UNL     1      -7.116  18.448  69.572  1.00  0.00     0.042 A  
HETATM   33  C   UNL     1      -6.310  20.231  68.176  1.00  0.00    -0.280 A  
HETATM   34  F   UNL     1      -5.510  21.296  68.016  1.00  0.00    -0.286 F  
HETATM   35 CL   UNL     1      -7.090  20.560  65.606  1.00  0.00    -0.211 Cl 
ENDBRANCH  26  28
ENDBRANCH  12  26
ENDBRANCH   2   3
TORSDOF 7
ENDMDL
MODEL      185
REMARK 921   NORMALIZED FREE ENERGY PREDICTED BY IDOCK:   -2.15 KCAL/MOL
REMARK 922        TOTAL FREE ENERGY PREDICTED BY IDOCK:   -3.94 KCAL/MOL
REMARK 923 INTER-LIGAND FREE ENERGY PREDICTED BY IDOCK:   -4.49 KCAL/MOL
REMARK 924 INTRA-LIGAND FREE ENERGY PREDICTED BY IDOCK:    0.55 KCAL/MOL
REMARK 927      BINDING AFFINITY PREDICTED BY RF-SCORE:    0.00 PKD
ROOT
HETATM    1  C   UNL     1     -13.081   5.607  72.317  1.00  0.00     1.069 C  
HETATM    2  O   UNL     1     -11.896   5.145  72.962  1.00  0.00    -0.273 OA 
ENDROOT
BRANCH   2   3
HETATM    3  C   UNL     1     -10.723   5.328  72.271  1.00  0.00    -0.223 A  
HETATM    4  C   UNL     1     -10.540   6.569  71.655  1.00  0.00    -0.217 A  
HETATM    5  N   UNL     1      -7.578   3.671  71.595  1.00  0.00    -0.052 NA 
HETATM    6  C   UNL     1      -9.367   6.808  70.921  1.00  0.00    -0.157 A  
HETATM    7  C   UNL     1      -8.502   4.632  71.544  1.00  0.00    -0.111 A  
HETATM    8  C   UNL     1      -6.452   3.897  70.927  1.00  0.00    -0.026 A  
HETATM    9  C   UNL     1      -8.329   5.842  70.855  1.00  0.00    -0.125 A  
HETATM   10  C   UNL     1      -9.683   4.395  72.224  1.00  0.00    -0.221 A  
HETATM   11  N   UNL     1      -6.178   4.984  70.209  1.00  0.00    -0.021 NA 
HETATM   12  C   UNL     1      -7.107   5.962  70.149  1.00  0.00    -0.071 A  
BRANCH   4  13
HETATM   13  N   UNL     1     -11.540   7.563  71.811  1.00  0.00    -0.262 N  
HETATM   14  H   UNL     1     -12.489   7.271  72.042  1.00  0.00     0.000 HD 
HETATM   15  C   UNL     1     -11.279   8.910  71.662  1.00  0.00    -0.345 C  
HETATM   16  O   UNL     1     -10.198   9.383  71.321  1.00  0.00    -0.315 OA 
BRANCH  15  17
HETATM   17  C   UNL     1     -12.408   9.800  72.070  1.00  0.00    -0.336 C  
HETATM   18  C   UNL     1     -12.321  11.104  71.751  1.00  0.00     0.010 C  
BRANCH  18  19
HETATM   19  C   UNL     1     -13.241  12.204  72.198  1.00  0.00    -0.333 C  
BRANCH  19  20
HETATM   20  N   UNL     1     -13.423  13.314  71.249  1.00  0.00    -0.081 NA 
HETATM   21  C   UNL     1     -12.069  15.718  72.362  1.00  0.00    -0.588 C  
HETATM   22  C   UNL     1     -14.192  14.413  71.869  1.00  0.00    -0.524 C  
HETATM   23  C   UNL     1     -11.300  14.592  71.681  1.00  0.00     0.368 C  
HETATM   24  C   UNL     1     -13.406  15.227  72.910  1.00  0.00    -0.616 C  
HETATM   25  C   UNL     1     -12.184  13.860  70.671  1.00  0.00    -0.373 C  
ENDBRANCH  19  20
ENDBRANCH  18  19
ENDBRANCH  15  17
ENDBRANCH   4  13
BRANCH  12  26
HETATM   26  N   UNL     1      -6.897   7.043  69.265  1.00  0.00    -0.052 NA 
HETATM   27  H   UNL     1      -6.125   7.657  69.526  1.00  0.00     0.000 HD 
BRANCH  26  28
HETATM   28  C   UNL     1      -7.569   7.420  68.082  1.00  0.00    -0.114 A  
HETATM   29  C   UNL     1      -8.143   6.410  67.290  1.00  0.00    -0.113 A  
HETATM   30  C   UNL     1      -8.646   6.694  66.015  1.00  0.00    -0.148 A  
HETATM   31  C   UNL     1      -8.062   9.011  66.288  1.00  0.00    -0.110 A  
HETATM   32  C   UNL     1      -7.562   8.724  67.560  1.00  0.00    -0.093 A  
HETATM   33  C   UNL     1      -8.585   7.989  65.512  1.00  0.00    -0.135 A  
HETATM   34  F   UNL     1      -9.015   8.273  64.275  1.00  0.00     0.022 F  
HETATM   35 CL   UNL     1      -9.303   5.419  65.062  1.00  0.00     0.072 Cl 
ENDBRANCH  26  28
ENDBRANCH  12  26
ENDBRANCH   2   3
TORSDOF 7
ENDMDL
MODEL      186
REMARK 921   NORMALIZED FREE ENERGY PREDICTED BY IDOCK:   -1.67 KCAL/MOL
REMARK 922        TOTAL FREE ENERGY PREDICTED BY IDOCK:   -3.27 KCAL/MOL
REMARK 923 INTER-LIGAND FREE ENERGY PREDICTED BY IDOCK:   -2.92 KCAL/MOL
REMARK 924 INTRA-LIGAND FREE ENERGY PREDICTED BY IDOCK:   -0.36 KCAL/MOL
REMARK 927      BINDING AFFINITY PREDICTED BY RF-SCORE:    0.00 PKD
ROOT
HETATM    1  C   UNL     1      -8.170  20.058  65.228  1.00  0.00     0.689 C  
HETATM    2  O   UNL     1      -7.284  18.940  65.204  1.00  0.00    -0.418 OA 
ENDROOT
BRANCH   2   3
HETATM    3  C   UNL     1      -7.203  18.210  66.364  1.00  0.00    -0.247 A  
HETATM    4  C   UNL     1      -8.079  17.128  66.493  1.00  0.00    -0.283 A  
HETATM    5  N   UNL     1      -5.216  17.942  69.377  1.00  0.00    -0.181 NA 
HETATM    6  C   UNL     1      -8.053  16.355  67.665  1.00  0.00    -0.170 A  
HETATM    7  C   UNL     1      -6.184  17.646  68.507  1.00  0.00    -0.182 A  
HETATM    8  C   UNL     1      -5.162  17.199  70.477  1.00  0.00    -0.254 A  
HETATM    9  C   UNL     1      -7.102  16.603  68.690  1.00  0.00    -0.183 A  
HETATM   10  C   UNL     1      -6.254  18.427  67.367  1.00  0.00    -0.187 A  
HETATM   11  N   UNL     1      -5.994  16.207  70.786  1.00  0.00     0.174 NA 
HETATM   12  C   UNL     1      -6.977  15.901  69.914  1.00  0.00     0.034 A  
BRANCH   4  13
HETATM   13  N   UNL     1      -8.957  16.828  65.420  1.00  0.00     0.709 N  
HETATM   14  H   UNL     1      -8.577  16.782  64.474  1.00  0.00     0.000 HD 
HETATM   15  C   UNL     1     -10.305  16.597  65.604  1.00  0.00    -0.290 C  
HETATM   16  O   UNL     1     -10.893  16.689  66.678  1.00  0.00    -0.184 OA 
BRANCH  15  17
HETATM   17  C   UNL     1     -11.010  16.095  64.386  1.00  0.00     0.038 C  
HETATM   18  C   UNL     1     -11.738  14.970  64.507  1.00  0.00    -0.372 C  
BRANCH  18  19
HETATM   19  C   UNL     1     -12.388  14.194  63.396  1.00  0.00     0.380 C  
BRANCH  19  20
HETATM   20  N   UNL     1     -12.699  12.787  63.694  1.00  0.00    -0.733 NA 
HETATM   21  C   UNL     1     -10.232  11.491  64.737  1.00  0.00    -0.331 C  
HETATM   22  C   UNL     1     -11.890  11.882  62.851  1.00  0.00     0.306 C  
HETATM   23  C   UNL     1     -11.105  12.395  65.600  1.00  0.00    -0.343 C  
HETATM   24  C   UNL     1     -10.408  11.800  63.252  1.00  0.00    -0.446 C  
HETATM   25  C   UNL     1     -12.552  12.392  65.104  1.00  0.00    -0.134 C  
ENDBRANCH  19  20
ENDBRANCH  18  19
ENDBRANCH  15  17
ENDBRANCH   4  13
BRANCH  12  26
HETATM   26  N   UNL     1      -7.958  14.962  70.302  1.00  0.00    -0.079 NA 
HETATM   27  H   UNL     1      -7.587  14.127  70.756  1.00  0.00     0.000 HD 
BRANCH  26  28
HETATM   28  C   UNL     1      -9.364  14.977  70.169  1.00  0.00     0.493 A  
HETATM   29  C   UNL     1     -10.121  15.604  71.174  1.00  0.00     1.181 A  
HETATM   30  C   UNL     1     -11.516  15.483  71.206  1.00  0.00    -0.404 A  
HETATM   31  C   UNL     1     -11.456  14.142  69.210  1.00  0.00    -0.337 A  
HETATM   32  C   UNL     1     -10.064  14.266  69.182  1.00  0.00    -0.067 A  
HETATM   33  C   UNL     1     -12.174  14.736  70.235  1.00  0.00    -0.338 A  
HETATM   34  F   UNL     1     -13.503  14.565  70.276  1.00  0.00    -0.227 F  
HETATM   35 CL   UNL     1     -12.401  16.233  72.478  1.00  0.00    -0.531 Cl 
ENDBRANCH  26  28
ENDBRANCH  12  26
ENDBRANCH   2   3
TORSDOF 7
ENDMDL
MODEL      187
REMARK 921   NORMALIZED FREE ENERGY PREDICTED BY IDOCK:   -1.45 KCAL/MOL
REMARK 922        TOTAL FREE ENERGY PREDICTED BY IDOCK:   -2.96 KCAL/MOL
REMARK 923 INTER-LIGAND FREE ENERGY PREDICTED BY IDOCK:   -2.64 KCAL/MOL
REMARK 924 INTRA-LIGAND FREE ENERGY PREDICTED BY IDOCK:   -0.32 KCAL/MOL
REMARK 927      BINDING AFFINITY PREDICTED BY RF-SCORE:    0.00 PKD
ROOT
HETATM    1  C   UNL     1      -9.216  14.822  70.485  1.00  0.00     1.582 C  
HETATM    2  O   UNL     1      -8.148  15.113  69.584  1.00  0.00    -0.214 OA 
ENDROOT
BRANCH   2   3
HETATM    3  C   UNL     1      -7.720  14.070  68.801  1.00  0.00    -0.112 A  
HETATM    4  C   UNL     1      -8.124  14.077  67.462  1.00  0.00    -0.186 A  
HETATM    5  N   UNL     1      -5.560  11.169  68.926  1.00  0.00    -0.040 NA 
HETATM    6  C   UNL     1      -7.730  13.027  66.617  1.00  0.00     0.599 A  
HETATM    7  C   UNL     1      -6.411  12.051  68.399  1.00  0.00    -0.055 A  
HETATM    8  C   UNL     1      -5.157  10.186  68.127  1.00  0.00    -0.035 A  
HETATM    9  C   UNL     1      -6.866  11.998  67.074  1.00  0.00    -0.097 A  
HETATM   10  C   UNL     1      -6.846  13.067  69.231  1.00  0.00    -0.019 A  
HETATM   11  N   UNL     1      -5.540  10.003  66.865  1.00  0.00    -0.045 NA 
HETATM   12  C   UNL     1      -6.402  10.889  66.324  1.00  0.00    -0.132 A  
BRANCH   4  13
HETATM   13  N   UNL     1      -8.906  15.163  66.991  1.00  0.00    -0.218 N  
HETATM   14  H   UNL     1      -8.448  16.058  66.820  1.00  0.00     0.000 HD 
HETATM   15  C   UNL     1     -10.261  15.056  66.754  1.00  0.00    -0.260 C  
HETATM   16  O   UNL     1     -10.937  14.056  66.982  1.00  0.00    -0.290 OA 
BRANCH  15  17
HETATM   17  C   UNL     1     -10.856  16.241  66.066  1.00  0.00    -0.123 C  
HETATM   18  C   UNL     1     -10.191  17.408  66.148  1.00  0.00    -0.334 C  
BRANCH  18  19
HETATM   19  C   UNL     1     -10.673  18.754  65.686  1.00  0.00    -0.111 C  
BRANCH  19  20
HETATM   20  N   UNL     1     -10.588  19.840  66.676  1.00  0.00    -0.476 NA 
HETATM   21  C   UNL     1      -7.953  19.642  68.044  1.00  0.00    -0.339 C  
HETATM   22  C   UNL     1     -10.470  19.293  68.044  1.00  0.00    -0.386 C  
HETATM   23  C   UNL     1      -8.105  20.240  66.651  1.00  0.00    -0.297 C  
HETATM   24  C   UNL     1      -9.096  18.682  68.365  1.00  0.00    -0.352 C  
HETATM   25  C   UNL     1      -9.508  20.815  66.453  1.00  0.00     0.222 C  
ENDBRANCH  19  20
ENDBRANCH  18  19
ENDBRANCH  15  17
ENDBRANCH   4  13
BRANCH  12  26
HETATM   26  N   UNL     1      -6.938  10.617  65.046  1.00  0.00    -0.355 NA 
HETATM   27  H   UNL     1      -6.871  11.394  64.387  1.00  0.00     0.000 HD 
BRANCH  26  28
HETATM   28  C   UNL     1      -7.551   9.458  64.522  1.00  0.00    -0.110 A  
HETATM   29  C   UNL     1      -7.849   8.405  65.404  1.00  0.00    -0.108 A  
HETATM   30  C   UNL     1      -8.270   7.160  64.922  1.00  0.00    -0.071 A  
HETATM   31  C   UNL     1      -8.153   7.981  62.664  1.00  0.00    -0.152 A  
HETATM   32  C   UNL     1      -7.734   9.223  63.150  1.00  0.00    -0.118 A  
HETATM   33  C   UNL     1      -8.401   6.949  63.554  1.00  0.00     0.214 A  
HETATM   34  F   UNL     1      -8.753   5.750  63.069  1.00  0.00    -0.081 F  
HETATM   35 CL   UNL     1      -8.585   5.885  66.035  1.00  0.00    -0.136 Cl 
ENDBRANCH  26  28
ENDBRANCH  12  26
ENDBRANCH   2   3
TORSDOF 7
ENDMDL
MODEL      188
REMARK 921   NORMALIZED FREE ENERGY PREDICTED BY IDOCK:   -1.30 KCAL/MOL
REMARK 922        TOTAL FREE ENERGY PREDICTED BY IDOCK:   -2.75 KCAL/MOL
REMARK 923 INTER-LIGAND FREE ENERGY PREDICTED BY IDOCK:   -1.86 KCAL/MOL
REMARK 924 INTRA-LIGAND FREE ENERGY PREDICTED BY IDOCK:   -0.89 KCAL/MOL
REMARK 927      BINDING AFFINITY PREDICTED BY RF-SCORE:    0.00 PKD
ROOT
HETATM    1  C   UNL     1      -9.033   7.424  62.817  1.00  0.00     0.972 C  
HETATM    2  O   UNL     1      -9.512   6.139  63.208  1.00  0.00     1.313 OA 
ENDROOT
BRANCH   2   3
HETATM    3  C   UNL     1      -8.587   5.298  63.777  1.00  0.00    -0.050 A  
HETATM    4  C   UNL     1      -8.392   5.414  65.156  1.00  0.00    -0.144 A  
HETATM    5  N   UNL     1      -6.441   2.508  62.938  1.00  0.00    -0.021 NA 
HETATM    6  C   UNL     1      -7.447   4.592  65.791  1.00  0.00    -0.081 A  
HETATM    7  C   UNL     1      -7.006   3.442  63.704  1.00  0.00    -0.048 A  
HETATM    8  C   UNL     1      -5.566   1.705  63.533  1.00  0.00    -0.008 A  
HETATM    9  C   UNL     1      -6.740   3.592  65.073  1.00  0.00    -0.044 A  
HETATM   10  C   UNL     1      -7.907   4.292  63.086  1.00  0.00    -0.071 A  
HETATM   11  N   UNL     1      -5.200   1.765  64.812  1.00  0.00    -0.004 NA 
HETATM   12  C   UNL     1      -5.765   2.707  65.595  1.00  0.00    -0.018 A  
BRANCH   4  13
HETATM   13  N   UNL     1      -9.176   6.349  65.881  1.00  0.00    -0.346 N  
HETATM   14  H   UNL     1      -9.116   7.336  65.631  1.00  0.00     0.000 HD 
HETATM   15  C   UNL     1     -10.015   5.976  66.910  1.00  0.00    -0.169 C  
HETATM   16  O   UNL     1     -10.124   4.833  67.349  1.00  0.00    -0.174 OA 
BRANCH  15  17
HETATM   17  C   UNL     1     -10.904   7.071  67.402  1.00  0.00    -0.371 C  
HETATM   18  C   UNL     1     -10.322   8.119  68.013  1.00  0.00    -0.267 C  
BRANCH  18  19
HETATM   19  C   UNL     1     -11.015   9.243  68.730  1.00  0.00    -0.007 C  
BRANCH  19  20
HETATM   20  N   UNL     1     -10.377   9.700  69.974  1.00  0.00    -0.238 NA 
HETATM   21  C   UNL     1     -11.790   8.426  72.262  1.00  0.00    -0.456 C  
HETATM   22  C   UNL     1     -11.336  10.458  70.806  1.00  0.00    -0.284 C  
HETATM   23  C   UNL     1     -10.767   7.677  71.416  1.00  0.00    -0.247 C  
HETATM   24  C   UNL     1     -12.405   9.590  71.489  1.00  0.00    -0.465 C  
HETATM   25  C   UNL     1      -9.760   8.644  70.793  1.00  0.00    -0.194 C  
ENDBRANCH  19  20
ENDBRANCH  18  19
ENDBRANCH  15  17
ENDBRANCH   4  13
BRANCH  12  26
HETATM   26  N   UNL     1      -5.269   2.884  66.906  1.00  0.00    -0.008 NA 
HETATM   27  H   UNL     1      -4.252   2.926  66.970  1.00  0.00     0.000 HD 
BRANCH  26  28
HETATM   28  C   UNL     1      -5.937   3.014  68.143  1.00  0.00    -0.024 A  
HETATM   29  C   UNL     1      -7.082   2.230  68.367  1.00  0.00    -0.044 A  
HETATM   30  C   UNL     1      -7.900   2.452  69.482  1.00  0.00    -0.042 A  
HETATM   31  C   UNL     1      -6.440   4.218  70.214  1.00  0.00    -0.031 A  
HETATM   32  C   UNL     1      -5.627   3.992  69.101  1.00  0.00    -0.017 A  
HETATM   33  C   UNL     1      -7.585   3.458  70.389  1.00  0.00    -0.044 A  
HETATM   34  F   UNL     1      -8.382   3.721  71.435  1.00  0.00    -0.067 F  
HETATM   35 CL   UNL     1      -9.316   1.496  69.696  1.00  0.00    -0.163 Cl 
ENDBRANCH  26  28
ENDBRANCH  12  26
ENDBRANCH   2   3
TORSDOF 7
ENDMDL
MODEL      189
REMARK 921   NORMALIZED FREE ENERGY PREDICTED BY IDOCK:   -1.27 KCAL/MOL
REMARK 922        TOTAL FREE ENERGY PREDICTED BY IDOCK:   -2.70 KCAL/MOL
REMARK 923 INTER-LIGAND FREE ENERGY PREDICTED BY IDOCK:   -2.32 KCAL/MOL
REMARK 924 INTRA-LIGAND FREE ENERGY PREDICTED BY IDOCK:   -0.39 KCAL/MOL
REMARK 927      BINDING AFFINITY PREDICTED BY RF-SCORE:    0.00 PKD
ROOT
HETATM    1  C   UNL     1      -9.988   6.744  65.121  1.00  0.00     2.238 C  
HETATM    2  O   UNL     1     -10.524   5.614  65.808  1.00  0.00     0.126 OA 
ENDROOT
BRANCH   2   3
HETATM    3  C   UNL     1      -9.754   5.107  66.826  1.00  0.00    -0.165 A  
HETATM    4  C   UNL     1      -9.658   5.876  67.990  1.00  0.00    -0.116 A  
HETATM    5  N   UNL     1      -7.894   2.135  67.725  1.00  0.00    -0.059 NA 
HETATM    6  C   UNL     1      -8.872   5.416  69.058  1.00  0.00    -0.108 A  
HETATM    7  C   UNL     1      -8.404   3.361  67.864  1.00  0.00    -0.084 A  
HETATM    8  C   UNL     1      -7.171   1.677  68.741  1.00  0.00    -0.039 A  
HETATM    9  C   UNL     1      -8.233   4.149  69.011  1.00  0.00    -0.078 A  
HETATM   10  C   UNL     1      -9.145   3.849  66.802  1.00  0.00    -0.161 A  
HETATM   11  N   UNL     1      -6.905   2.337  69.866  1.00  0.00    -0.033 NA 
HETATM   12  C   UNL     1      -7.415   3.577  70.016  1.00  0.00    -0.044 A  
BRANCH   4  13
HETATM   13  N   UNL     1     -10.381   7.095  68.064  1.00  0.00    -0.185 N  
HETATM   14  H   UNL     1     -11.381   7.084  67.865  1.00  0.00     0.000 HD 
HETATM   15  C   UNL     1      -9.785   8.294  68.396  1.00  0.00    -0.158 C  
HETATM   16  O   UNL     1      -8.582   8.450  68.592  1.00  0.00    -0.130 OA 
BRANCH  15  17
HETATM   17  C   UNL     1     -10.748   9.413  68.624  1.00  0.00    -0.196 C  
HETATM   18  C   UNL     1     -10.495  10.587  68.018  1.00  0.00    -0.232 C  
BRANCH  18  19
HETATM   19  C   UNL     1     -11.220  11.886  68.231  1.00  0.00    -0.261 C  
BRANCH  19  20
HETATM   20  N   UNL     1     -10.840  12.987  67.332  1.00  0.00    -0.248 NA 
HETATM   21  C   UNL     1      -8.900  14.728  68.766  1.00  0.00    -0.179 C  
HETATM   22  C   UNL     1     -11.247  14.290  67.899  1.00  0.00    -0.285 C  
HETATM   23  C   UNL     1      -8.494  13.400  68.138  1.00  0.00    -0.172 C  
HETATM   24  C   UNL     1     -10.392  14.757  69.087  1.00  0.00    -0.237 C  
HETATM   25  C   UNL     1      -9.415  13.044  66.970  1.00  0.00    -0.237 C  
ENDBRANCH  19  20
ENDBRANCH  18  19
ENDBRANCH  15  17
ENDBRANCH   4  13
BRANCH  12  26
HETATM   26  N   UNL     1      -7.009   4.346  71.129  1.00  0.00    -0.035 NA 
HETATM   27  H   UNL     1      -6.009   4.308  71.325  1.00  0.00     0.000 HD 
BRANCH  26  28
HETATM   28  C   UNL     1      -7.748   5.158  72.017  1.00  0.00    -0.099 A  
HETATM   29  C   UNL     1      -8.806   4.572  72.733  1.00  0.00    -0.118 A  
HETATM   30  C   UNL     1      -9.697   5.358  73.473  1.00  0.00    -0.148 A  
HETATM   31  C   UNL     1      -8.486   7.340  72.848  1.00  0.00    -0.134 A  
HETATM   32  C   UNL     1      -7.598   6.551  72.111  1.00  0.00    -0.097 A  
HETATM   33  C   UNL     1      -9.544   6.740  73.510  1.00  0.00    -0.179 A  
HETATM   34  F   UNL     1     -10.415   7.515  74.171  1.00  0.00    -0.282 F  
HETATM   35 CL   UNL     1     -11.004   4.603  74.302  1.00  0.00    -0.181 Cl 
ENDBRANCH  26  28
ENDBRANCH  12  26
ENDBRANCH   2   3
TORSDOF 7
ENDMDL
MODEL      190
REMARK 921   NORMALIZED FREE ENERGY PREDICTED BY IDOCK:   -0.89 KCAL/MOL
REMARK 922        TOTAL FREE ENERGY PREDICTED BY IDOCK:   -2.18 KCAL/MOL
REMARK 923 INTER-LIGAND FREE ENERGY PREDICTED BY IDOCK:   -2.11 KCAL/MOL
REMARK 924 INTRA-LIGAND FREE ENERGY PREDICTED BY IDOCK:   -0.06 KCAL/MOL
REMARK 927      BINDING AFFINITY PREDICTED BY RF-SCORE:    0.00 PKD
ROOT
HETATM    1  C   UNL     1     -11.277  10.415  63.688  1.00  0.00     2.276 C  
HETATM    2  O   UNL     1     -11.108  10.777  65.057  1.00  0.00     0.012 OA 
ENDROOT
BRANCH   2   3
HETATM    3  C   UNL     1     -10.074  10.162  65.720  1.00  0.00    -0.254 A  
HETATM    4  C   UNL     1      -9.621  10.775  66.892  1.00  0.00    -0.171 A  
HETATM    5  N   UNL     1      -8.073   7.148  65.617  1.00  0.00    -0.126 NA 
HETATM    6  C   UNL     1      -8.556  10.201  67.603  1.00  0.00    -0.118 A  
HETATM    7  C   UNL     1      -8.500   8.331  66.064  1.00  0.00    -0.139 A  
HETATM    8  C   UNL     1      -7.084   6.581  66.299  1.00  0.00    -0.067 A  
HETATM    9  C   UNL     1      -7.979   8.967  67.200  1.00  0.00    -0.102 A  
HETATM   10  C   UNL     1      -9.519   8.935  65.348  1.00  0.00    -0.086 A  
HETATM   11  N   UNL     1      -6.482   7.095  67.369  1.00  0.00    -0.055 NA 
HETATM   12  C   UNL     1      -6.905   8.291  67.827  1.00  0.00    -0.070 A  
BRANCH   4  13
HETATM   13  N   UNL     1     -10.270  11.954  67.341  1.00  0.00    -0.195 N  
HETATM   14  H   UNL     1      -9.718  12.805  67.453  1.00  0.00     0.000 HD 
HETATM   15  C   UNL     1     -11.618  11.996  67.631  1.00  0.00    -0.321 C  
HETATM   16  O   UNL     1     -12.374  11.028  67.600  1.00  0.00     0.099 OA 
BRANCH  15  17
HETATM   17  C   UNL     1     -12.146  13.370  67.884  1.00  0.00    -0.289 C  
HETATM   18  C   UNL     1     -11.352  14.231  68.547  1.00  0.00    -0.309 C  
BRANCH  18  19
HETATM   19  C   UNL     1     -11.728  15.593  69.057  1.00  0.00    -0.395 C  
BRANCH  19  20
HETATM   20  N   UNL     1     -10.661  16.337  69.746  1.00  0.00    -0.322 NA 
HETATM   21  C   UNL     1      -8.541  16.972  67.756  1.00  0.00    -0.213 C  
HETATM   22  C   UNL     1      -9.390  15.584  69.708  1.00  0.00    -0.132 C  
HETATM   23  C   UNL     1      -9.842  17.761  67.841  1.00  0.00    -0.306 C  
HETATM   24  C   UNL     1      -8.705  15.567  68.332  1.00  0.00    -0.174 C  
HETATM   25  C   UNL     1     -10.425  17.704  69.254  1.00  0.00    -0.026 C  
ENDBRANCH  19  20
ENDBRANCH  18  19
ENDBRANCH  15  17
ENDBRANCH   4  13
BRANCH  12  26
HETATM   26  N   UNL     1      -6.171   8.919  68.858  1.00  0.00    -0.044 NA 
HETATM   27  H   UNL     1      -5.597   9.704  68.549  1.00  0.00     0.000 HD 
BRANCH  26  28
HETATM   28  C   UNL     1      -6.094   8.649  70.242  1.00  0.00    -0.033 A  
HETATM   29  C   UNL     1      -7.124   7.897  70.833  1.00  0.00    -0.049 A  
HETATM   30  C   UNL     1      -7.212   7.764  72.224  1.00  0.00    -0.081 A  
HETATM   31  C   UNL     1      -5.223   9.090  72.487  1.00  0.00    -0.068 A  
HETATM   32  C   UNL     1      -5.139   9.220  71.098  1.00  0.00    -0.033 A  
HETATM   33  C   UNL     1      -6.272   8.378  73.044  1.00  0.00    -0.094 A  
HETATM   34  F   UNL     1      -6.366   8.305  74.380  1.00  0.00    -0.103 F  
HETATM   35 CL   UNL     1      -8.514   6.869  72.907  1.00  0.00    -0.124 Cl 
ENDBRANCH  26  28
ENDBRANCH  12  26
ENDBRANCH   2   3
TORSDOF 7
ENDMDL
MODEL      191
REMARK 921   NORMALIZED FREE ENERGY PREDICTED BY IDOCK:   -0.78 KCAL/MOL
REMARK 922        TOTAL FREE ENERGY PREDICTED BY IDOCK:   -2.01 KCAL/MOL
REMARK 923 INTER-LIGAND FREE ENERGY PREDICTED BY IDOCK:   -1.13 KCAL/MOL
REMARK 924 INTRA-LIGAND FREE ENERGY PREDICTED BY IDOCK:   -0.89 KCAL/MOL
REMARK 927      BINDING AFFINITY PREDICTED BY RF-SCORE:    0.00 PKD
ROOT
HETATM    1  C   UNL     1      -8.960   8.159  62.341  1.00  0.00     0.409 C  
HETATM    2  O   UNL     1      -9.439   6.875  62.738  1.00  0.00     1.654 OA 
ENDROOT
BRANCH   2   3
HETATM    3  C   UNL     1      -8.510   6.029  63.291  1.00  0.00     0.132 A  
HETATM    4  C   UNL     1      -8.278   6.155  64.664  1.00  0.00    -0.094 A  
HETATM    5  N   UNL     1      -6.418   3.206  62.425  1.00  0.00    -0.018 NA 
HETATM    6  C   UNL     1      -7.327   5.328  65.282  1.00  0.00    -0.068 A  
HETATM    7  C   UNL     1      -6.953   4.154  63.197  1.00  0.00    -0.043 A  
HETATM    8  C   UNL     1      -5.537   2.399  63.005  1.00  0.00    -0.008 A  
HETATM    9  C   UNL     1      -6.650   4.313  64.556  1.00  0.00    -0.043 A  
HETATM   10  C   UNL     1      -7.859   5.008  62.593  1.00  0.00    -0.072 A  
HETATM   11  N   UNL     1      -5.138   2.466  64.274  1.00  0.00    -0.007 NA 
HETATM   12  C   UNL     1      -5.672   3.422  65.062  1.00  0.00    -0.017 A  
BRANCH   4  13
HETATM   13  N   UNL     1      -9.033   7.106  65.400  1.00  0.00    -0.373 N  
HETATM   14  H   UNL     1      -8.821   8.096  65.282  1.00  0.00     0.000 HD 
HETATM   15  C   UNL     1     -10.042   6.743  66.267  1.00  0.00     0.140 C  
HETATM   16  O   UNL     1     -10.348   5.586  66.545  1.00  0.00    -0.222 OA 
BRANCH  15  17
HETATM   17  C   UNL     1     -10.849   7.891  66.780  1.00  0.00     0.105 C  
HETATM   18  C   UNL     1     -10.253   9.097  66.834  1.00  0.00    -0.336 C  
BRANCH  18  19
HETATM   19  C   UNL     1     -10.803  10.345  67.463  1.00  0.00    -0.301 C  
BRANCH  19  20
HETATM   20  N   UNL     1     -11.066  11.464  66.544  1.00  0.00    -0.281 NA 
HETATM   21  C   UNL     1      -9.495  13.815  67.470  1.00  0.00    -0.220 C  
HETATM   22  C   UNL     1     -11.709  12.588  67.257  1.00  0.00    -0.362 C  
HETATM   23  C   UNL     1      -8.861  12.664  66.697  1.00  0.00    -0.129 C  
HETATM   24  C   UNL     1     -10.767  13.369  68.186  1.00  0.00    -0.267 C  
HETATM   25  C   UNL     1      -9.894  11.967  65.810  1.00  0.00    -0.242 C  
ENDBRANCH  19  20
ENDBRANCH  18  19
ENDBRANCH  15  17
ENDBRANCH   4  13
BRANCH  12  26
HETATM   26  N   UNL     1      -5.141   3.606  66.358  1.00  0.00    -0.008 NA 
HETATM   27  H   UNL     1      -4.122   3.606  66.400  1.00  0.00     0.000 HD 
BRANCH  26  28
HETATM   28  C   UNL     1      -5.776   3.788  67.606  1.00  0.00    -0.022 A  
HETATM   29  C   UNL     1      -6.902   3.001  67.902  1.00  0.00    -0.049 A  
HETATM   30  C   UNL     1      -7.692   3.268  69.027  1.00  0.00    -0.051 A  
HETATM   31  C   UNL     1      -6.240   5.089  69.628  1.00  0.00    -0.026 A  
HETATM   32  C   UNL     1      -5.455   4.818  68.504  1.00  0.00    -0.015 A  
HETATM   33  C   UNL     1      -7.368   4.323  69.873  1.00  0.00    -0.049 A  
HETATM   34  F   UNL     1      -8.139   4.627  70.927  1.00  0.00    -0.074 F  
HETATM   35 CL   UNL     1      -9.086   2.304  69.330  1.00  0.00    -0.167 Cl 
ENDBRANCH  26  28
ENDBRANCH  12  26
ENDBRANCH   2   3
TORSDOF 7
ENDMDL
MODEL      192
REMARK 921   NORMALIZED FREE ENERGY PREDICTED BY IDOCK:   -0.64 KCAL/MOL
REMARK 922        TOTAL FREE ENERGY PREDICTED BY IDOCK:   -1.82 KCAL/MOL
REMARK 923 INTER-LIGAND FREE ENERGY PREDICTED BY IDOCK:   -1.77 KCAL/MOL
REMARK 924 INTRA-LIGAND FREE ENERGY PREDICTED BY IDOCK:   -0.05 KCAL/MOL
REMARK 927      BINDING AFFINITY PREDICTED BY RF-SCORE:    0.00 PKD
ROOT
HETATM    1  C   UNL     1      -9.448  14.995  70.768  1.00  0.00     1.577 C  
HETATM    2  O   UNL     1      -8.614  15.217  69.632  1.00  0.00    -0.237 OA 
ENDROOT
BRANCH   2   3
HETATM    3  C   UNL     1      -7.991  14.108  69.115  1.00  0.00     0.096 A  
HETATM    4  C   UNL     1      -7.361  14.256  67.876  1.00  0.00    -0.156 A  
HETATM    5  N   UNL     1      -7.145  10.701  69.994  1.00  0.00    -0.148 NA 
HETATM    6  C   UNL     1      -6.721  13.152  67.291  1.00  0.00     0.020 A  
HETATM    7  C   UNL     1      -7.206  11.802  69.244  1.00  0.00     0.009 A  
HETATM    8  C   UNL     1      -6.517   9.658  69.464  1.00  0.00    -0.045 A  
HETATM    9  C   UNL     1      -6.633  11.907  67.968  1.00  0.00    -0.063 A  
HETATM   10  C   UNL     1      -7.873  12.887  69.785  1.00  0.00     1.536 A  
HETATM   11  N   UNL     1      -5.963   9.616  68.254  1.00  0.00    -0.047 NA 
HETATM   12  C   UNL     1      -6.021  10.724  67.486  1.00  0.00    -0.044 A  
BRANCH   4  13
HETATM   13  N   UNL     1      -7.370  15.531  67.253  1.00  0.00    -0.209 N  
HETATM   14  H   UNL     1      -6.510  16.081  67.252  1.00  0.00     0.000 HD 
HETATM   15  C   UNL     1      -8.494  16.057  66.651  1.00  0.00    -0.288 C  
HETATM   16  O   UNL     1      -9.601  15.525  66.644  1.00  0.00    -0.229 OA 
BRANCH  15  17
HETATM   17  C   UNL     1      -8.242  17.310  65.876  1.00  0.00    -0.027 C  
HETATM   18  C   UNL     1      -7.216  18.088  66.265  1.00  0.00    -0.310 C  
BRANCH  18  19
HETATM   19  C   UNL     1      -6.880  19.459  65.752  1.00  0.00    -0.277 C  
BRANCH  19  20
HETATM   20  N   UNL     1      -7.316  20.584  66.595  1.00  0.00    -0.259 NA 
HETATM   21  C   UNL     1      -6.571  19.975  69.411  1.00  0.00    -0.348 C  
HETATM   22  C   UNL     1      -8.324  20.139  67.580  1.00  0.00    -0.332 C  
HETATM   23  C   UNL     1      -5.556  20.474  68.389  1.00  0.00    -0.312 C  
HETATM   24  C   UNL     1      -7.756  19.294  68.731  1.00  0.00    -0.397 C  
HETATM   25  C   UNL     1      -6.240  21.300  67.298  1.00  0.00    -0.351 C  
ENDBRANCH  19  20
ENDBRANCH  18  19
ENDBRANCH  15  17
ENDBRANCH   4  13
BRANCH  12  26
HETATM   26  N   UNL     1      -5.581  10.643  66.146  1.00  0.00    -0.086 NA 
HETATM   27  H   UNL     1      -4.850  11.311  65.901  1.00  0.00     0.000 HD 
BRANCH  26  28
HETATM   28  C   UNL     1      -5.979   9.799  65.087  1.00  0.00    -0.083 A  
HETATM   29  C   UNL     1      -7.167  10.105  64.400  1.00  0.00    -0.115 A  
HETATM   30  C   UNL     1      -7.719   9.206  63.480  1.00  0.00    -0.121 A  
HETATM   31  C   UNL     1      -5.899   7.681  63.862  1.00  0.00    -0.049 A  
HETATM   32  C   UNL     1      -5.352   8.581  64.779  1.00  0.00    -0.039 A  
HETATM   33  C   UNL     1      -7.093   7.990  63.230  1.00  0.00    -0.087 A  
HETATM   34  F   UNL     1      -7.631   7.093  62.391  1.00  0.00    -0.078 F  
HETATM   35 CL   UNL     1      -9.198   9.603  62.692  1.00  0.00    -0.272 Cl 
ENDBRANCH  26  28
ENDBRANCH  12  26
ENDBRANCH   2   3
TORSDOF 7
ENDMDL
MODEL      193
REMARK 921   NORMALIZED FREE ENERGY PREDICTED BY IDOCK:   -0.35 KCAL/MOL
REMARK 922        TOTAL FREE ENERGY PREDICTED BY IDOCK:   -1.41 KCAL/MOL
REMARK 923 INTER-LIGAND FREE ENERGY PREDICTED BY IDOCK:   -1.66 KCAL/MOL
REMARK 924 INTRA-LIGAND FREE ENERGY PREDICTED BY IDOCK:    0.24 KCAL/MOL
REMARK 927      BINDING AFFINITY PREDICTED BY RF-SCORE:    0.00 PKD
ROOT
HETATM    1  C   UNL     1     -13.046   5.472  72.402  1.00  0.00     1.114 C  
HETATM    2  O   UNL     1     -12.190   5.325  73.534  1.00  0.00     0.506 OA 
ENDROOT
BRANCH   2   3
HETATM    3  C   UNL     1     -10.844   5.438  73.290  1.00  0.00    -0.298 A  
HETATM    4  C   UNL     1     -10.424   6.562  72.571  1.00  0.00    -0.205 A  
HETATM    5  N   UNL     1      -7.701   3.834  74.095  1.00  0.00    -0.073 NA 
HETATM    6  C   UNL     1      -9.061   6.723  72.277  1.00  0.00    -0.137 A  
HETATM    7  C   UNL     1      -8.524   4.729  73.545  1.00  0.00    -0.106 A  
HETATM    8  C   UNL     1      -6.405   3.992  73.848  1.00  0.00    -0.037 A  
HETATM    9  C   UNL     1      -8.089   5.808  72.762  1.00  0.00    -0.108 A  
HETATM   10  C   UNL     1      -9.876   4.560  73.786  1.00  0.00    -0.172 A  
HETATM   11  N   UNL     1      -5.868   4.950  73.095  1.00  0.00    -0.017 NA 
HETATM   12  C   UNL     1      -6.692   5.859  72.533  1.00  0.00    -0.069 A  
BRANCH   4  13
HETATM   13  N   UNL     1     -11.392   7.521  72.177  1.00  0.00    -0.269 N  
HETATM   14  H   UNL     1     -12.333   7.202  71.949  1.00  0.00     0.000 HD 
HETATM   15  C   UNL     1     -11.110   8.869  72.090  1.00  0.00    -0.285 C  
HETATM   16  O   UNL     1     -10.003   9.368  72.273  1.00  0.00     0.182 OA 
BRANCH  15  17
HETATM   17  C   UNL     1     -12.310   9.730  71.864  1.00  0.00    -0.417 C  
HETATM   18  C   UNL     1     -12.103  10.980  71.410  1.00  0.00    -0.177 C  
BRANCH  18  19
HETATM   19  C   UNL     1     -13.129  12.069  71.271  1.00  0.00    -0.115 C  
BRANCH  19  20
HETATM   20  N   UNL     1     -12.616  13.383  70.850  1.00  0.00    -0.349 NA 
HETATM   21  C   UNL     1     -13.382  15.382  72.917  1.00  0.00    -0.636 C  
HETATM   22  C   UNL     1     -13.727  14.332  70.629  1.00  0.00     0.341 C  
HETATM   23  C   UNL     1     -12.214  14.421  73.106  1.00  0.00    -0.090 C  
HETATM   24  C   UNL     1     -14.398  14.833  71.918  1.00  0.00    -0.657 C  
HETATM   25  C   UNL     1     -11.632  13.997  71.757  1.00  0.00     0.995 C  
ENDBRANCH  19  20
ENDBRANCH  18  19
ENDBRANCH  15  17
ENDBRANCH   4  13
BRANCH  12  26
HETATM   26  N   UNL     1      -6.154   6.779  71.606  1.00  0.00    -0.037 NA 
HETATM   27  H   UNL     1      -5.520   7.466  72.014  1.00  0.00     0.000 HD 
BRANCH  26  28
HETATM   28  C   UNL     1      -6.340   6.911  70.213  1.00  0.00    -0.039 A  
HETATM   29  C   UNL     1      -7.072   8.015  69.740  1.00  0.00    -0.060 A  
HETATM   30  C   UNL     1      -7.460   8.099  68.397  1.00  0.00    -0.100 A  
HETATM   31  C   UNL     1      -6.369   6.006  67.938  1.00  0.00    -0.037 A  
HETATM   32  C   UNL     1      -5.982   5.926  69.278  1.00  0.00    -0.027 A  
HETATM   33  C   UNL     1      -7.124   7.084  67.508  1.00  0.00    -0.085 A  
HETATM   34  F   UNL     1      -7.530   7.120  66.231  1.00  0.00    -0.078 F  
HETATM   35 CL   UNL     1      -8.391   9.448  67.870  1.00  0.00    -0.115 Cl 
ENDBRANCH  26  28
ENDBRANCH  12  26
ENDBRANCH   2   3
TORSDOF 7
ENDMDL
MODEL      194
REMARK 921   NORMALIZED FREE ENERGY PREDICTED BY IDOCK:    0.42 KCAL/MOL
REMARK 922        TOTAL FREE ENERGY PREDICTED BY IDOCK:   -0.32 KCAL/MOL
REMARK 923 INTER-LIGAND FREE ENERGY PREDICTED BY IDOCK:   -0.35 KCAL/MOL
REMARK 924 INTRA-LIGAND FREE ENERGY PREDICTED BY IDOCK:    0.03 KCAL/MOL
REMARK 927      BINDING AFFINITY PREDICTED BY RF-SCORE:    0.00 PKD
ROOT
HETATM    1  C   UNL     1     -12.343   8.705  69.105  1.00  0.00     2.975 C  
HETATM    2  O   UNL     1     -11.015   9.174  69.333  1.00  0.00    -0.197 OA 
ENDROOT
BRANCH   2   3
HETATM    3  C   UNL     1     -10.288   8.490  70.276  1.00  0.00    -0.205 A  
HETATM    4  C   UNL     1      -8.912   8.375  70.052  1.00  0.00    -0.138 A  
HETATM    5  N   UNL     1     -10.663   6.922  73.515  1.00  0.00    -0.333 NA 
HETATM    6  C   UNL     1      -8.120   7.672  70.973  1.00  0.00    -0.095 A  
HETATM    7  C   UNL     1     -10.042   7.333  72.408  1.00  0.00    -0.185 A  
HETATM    8  C   UNL     1      -9.918   6.280  74.409  1.00  0.00    -0.332 A  
HETATM    9  C   UNL     1      -8.674   7.141  72.168  1.00  0.00    -0.132 A  
HETATM   10  C   UNL     1     -10.817   7.988  71.468  1.00  0.00    -0.278 A  
HETATM   11  N   UNL     1      -8.621   6.004  74.285  1.00  0.00    -0.118 NA 
HETATM   12  C   UNL     1      -7.984   6.414  73.168  1.00  0.00    -0.105 A  
BRANCH   4  13
HETATM   13  N   UNL     1      -8.353   8.996  68.905  1.00  0.00    -0.123 N  
HETATM   14  H   UNL     1      -8.856   9.770  68.473  1.00  0.00     0.000 HD 
HETATM   15  C   UNL     1      -7.154   8.593  68.352  1.00  0.00    -0.077 C  
HETATM   16  O   UNL     1      -6.489   7.636  68.738  1.00  0.00    -0.045 OA 
BRANCH  15  17
HETATM   17  C   UNL     1      -6.639   9.503  67.284  1.00  0.00    -0.071 C  
HETATM   18  C   UNL     1      -7.233   9.449  66.079  1.00  0.00    -0.092 C  
BRANCH  18  19
HETATM   19  C   UNL     1      -6.784  10.136  64.821  1.00  0.00    -0.121 C  
BRANCH  19  20
HETATM   20  N   UNL     1      -7.040   9.411  63.566  1.00  0.00    -0.095 NA 
HETATM   21  C   UNL     1      -6.490   6.524  64.036  1.00  0.00    -0.034 C  
HETATM   22  C   UNL     1      -5.804   8.772  63.069  1.00  0.00    -0.085 C  
HETATM   23  C   UNL     1      -7.776   7.195  64.503  1.00  0.00    -0.113 C  
HETATM   24  C   UNL     1      -5.361   7.539  63.874  1.00  0.00    -0.033 C  
HETATM   25  C   UNL     1      -8.112   8.403  63.627  1.00  0.00    -0.142 C  
ENDBRANCH  19  20
ENDBRANCH  18  19
ENDBRANCH  15  17
ENDBRANCH   4  13
BRANCH  12  26
HETATM   26  N   UNL     1      -6.654   5.988  72.953  1.00  0.00    -0.064 NA 
HETATM   27  H   UNL     1      -5.947   6.579  73.390  1.00  0.00     0.000 HD 
BRANCH  26  28
HETATM   28  C   UNL     1      -6.135   4.888  72.237  1.00  0.00    -0.025 A  
HETATM   29  C   UNL     1      -6.064   4.977  70.836  1.00  0.00    -0.018 A  
HETATM   30  C   UNL     1      -5.748   3.856  70.059  1.00  0.00    -0.017 A  
HETATM   31  C   UNL     1      -5.520   2.525  72.049  1.00  0.00    -0.004 A  
HETATM   32  C   UNL     1      -5.835   3.646  72.821  1.00  0.00    -0.008 A  
HETATM   33  C   UNL     1      -5.498   2.632  70.668  1.00  0.00    -0.012 A  
HETATM   34  F   UNL     1      -5.243   1.535  69.940  1.00  0.00    -0.006 F  
HETATM   35 CL   UNL     1      -5.713   4.000  68.343  1.00  0.00    -0.024 Cl 
ENDBRANCH  26  28
ENDBRANCH  12  26
ENDBRANCH   2   3
TORSDOF 7
ENDMDL
MODEL      195
REMARK 921   NORMALIZED FREE ENERGY PREDICTED BY IDOCK:    0.95 KCAL/MOL
REMARK 922        TOTAL FREE ENERGY PREDICTED BY IDOCK:    0.41 KCAL/MOL
REMARK 923 INTER-LIGAND FREE ENERGY PREDICTED BY IDOCK:   -1.10 KCAL/MOL
REMARK 924 INTRA-LIGAND FREE ENERGY PREDICTED BY IDOCK:    1.52 KCAL/MOL
REMARK 927      BINDING AFFINITY PREDICTED BY RF-SCORE:    0.00 PKD
ROOT
HETATM    1  C   UNL     1      -8.986  14.995  64.955  1.00  0.00     2.365 C  
HETATM    2  O   UNL     1     -10.073  14.683  65.825  1.00  0.00    -0.304 OA 
ENDROOT
BRANCH   2   3
HETATM    3  C   UNL     1     -10.189  15.464  66.949  1.00  0.00    -0.273 A  
HETATM    4  C   UNL     1     -10.197  14.803  68.181  1.00  0.00    -0.228 A  
HETATM    5  N   UNL     1     -10.278  18.940  67.951  1.00  0.00    -0.374 NA 
HETATM    6  C   UNL     1     -10.329  15.549  69.363  1.00  0.00    -0.258 A  
HETATM    7  C   UNL     1     -10.292  17.614  68.096  1.00  0.00    -0.386 A  
HETATM    8  C   UNL     1     -10.374  19.658  69.065  1.00  0.00    -0.125 A  
HETATM    9  C   UNL     1     -10.378  16.968  69.338  1.00  0.00    -0.230 A  
HETATM   10  C   UNL     1     -10.208  16.862  66.938  1.00  0.00    -0.296 A  
HETATM   11  N   UNL     1     -10.496  19.169  70.297  1.00  0.00     1.159 NA 
HETATM   12  C   UNL     1     -10.512  17.829  70.454  1.00  0.00     1.450 A  
BRANCH   4  13
HETATM   13  N   UNL     1     -10.047  13.393  68.200  1.00  0.00    -0.238 N  
HETATM   14  H   UNL     1     -10.883  12.811  68.139  1.00  0.00     0.000 HD 
HETATM   15  C   UNL     1      -8.817  12.777  68.297  1.00  0.00    -0.168 C  
HETATM   16  O   UNL     1      -7.747  13.363  68.442  1.00  0.00    -0.127 OA 
BRANCH  15  17
HETATM   17  C   UNL     1      -8.856  11.297  68.090  1.00  0.00    -0.159 C  
HETATM   18  C   UNL     1      -7.979  10.766  67.218  1.00  0.00    -0.117 C  
BRANCH  18  19
HETATM   19  C   UNL     1      -7.945   9.347  66.727  1.00  0.00    -0.108 C  
BRANCH  19  20
HETATM   20  N   UNL     1      -8.958   8.446  67.300  1.00  0.00    -0.129 NA 
HETATM   21  C   UNL     1      -7.940   5.657  67.093  1.00  0.00    -0.102 C  
HETATM   22  C   UNL     1      -9.469   7.513  66.273  1.00  0.00    -0.096 C  
HETATM   23  C   UNL     1      -7.458   6.623  68.170  1.00  0.00    -0.095 C  
HETATM   24  C   UNL     1      -8.480   6.404  65.877  1.00  0.00    -0.147 C  
HETATM   25  C   UNL     1      -8.525   7.675  68.476  1.00  0.00    -0.129 C  
ENDBRANCH  19  20
ENDBRANCH  18  19
ENDBRANCH  15  17
ENDBRANCH   4  13
BRANCH  12  26
HETATM   26  N   UNL     1     -10.802  17.300  71.732  1.00  0.00     1.346 NA 
HETATM   27  H   UNL     1     -10.393  17.823  72.507  1.00  0.00     0.000 HD 
BRANCH  26  28
HETATM   28  C   UNL     1     -11.558  16.174  72.123  1.00  0.00    -0.360 A  
HETATM   29  C   UNL     1     -11.607  15.070  71.254  1.00  0.00    -0.384 A  
HETATM   30  C   UNL     1     -12.492  14.010  71.486  1.00  0.00    -0.322 A  
HETATM   31  C   UNL     1     -13.282  15.092  73.484  1.00  0.00    -0.351 A  
HETATM   32  C   UNL     1     -12.398  16.148  73.248  1.00  0.00    -0.647 A  
HETATM   33  C   UNL     1     -13.339  14.036  72.589  1.00  0.00    -0.543 A  
HETATM   34  F   UNL     1     -14.229  13.056  72.802  1.00  0.00    -0.544 F  
HETATM   35 CL   UNL     1     -12.549  12.697  70.374  1.00  0.00    -0.183 Cl 
ENDBRANCH  26  28
ENDBRANCH  12  26
ENDBRANCH   2   3
TORSDOF 7
ENDMDL
MODEL      196
REMARK 921   NORMALIZED FREE ENERGY PREDICTED BY IDOCK:    0.95 KCAL/MOL
REMARK 922        TOTAL FREE ENERGY PREDICTED BY IDOCK:    0.42 KCAL/MOL
REMARK 923 INTER-LIGAND FREE ENERGY PREDICTED BY IDOCK:   -0.64 KCAL/MOL
REMARK 924 INTRA-LIGAND FREE ENERGY PREDICTED BY IDOCK:    1.07 KCAL/MOL
REMARK 927      BINDING AFFINITY PREDICTED BY RF-SCORE:    0.00 PKD
ROOT
HETATM    1  C   UNL     1     -11.277  10.415  63.688  1.00  0.00     2.276 C  
HETATM    2  O   UNL     1     -11.108  10.777  65.057  1.00  0.00     0.012 OA 
ENDROOT
BRANCH   2   3
HETATM    3  C   UNL     1     -10.074  10.162  65.720  1.00  0.00    -0.254 A  
HETATM    4  C   UNL     1      -9.621  10.775  66.892  1.00  0.00    -0.171 A  
HETATM    5  N   UNL     1      -8.073   7.148  65.617  1.00  0.00    -0.126 NA 
HETATM    6  C   UNL     1      -8.556  10.201  67.603  1.00  0.00    -0.118 A  
HETATM    7  C   UNL     1      -8.500   8.331  66.064  1.00  0.00    -0.139 A  
HETATM    8  C   UNL     1      -7.084   6.581  66.299  1.00  0.00    -0.067 A  
HETATM    9  C   UNL     1      -7.979   8.967  67.200  1.00  0.00    -0.102 A  
HETATM   10  C   UNL     1      -9.519   8.935  65.348  1.00  0.00    -0.086 A  
HETATM   11  N   UNL     1      -6.482   7.095  67.369  1.00  0.00    -0.055 NA 
HETATM   12  C   UNL     1      -6.905   8.291  67.827  1.00  0.00    -0.070 A  
BRANCH   4  13
HETATM   13  N   UNL     1     -10.270  11.954  67.341  1.00  0.00    -0.195 N  
HETATM   14  H   UNL     1      -9.718  12.805  67.453  1.00  0.00     0.000 HD 
HETATM   15  C   UNL     1     -11.618  11.996  67.631  1.00  0.00    -0.321 C  
HETATM   16  O   UNL     1     -12.374  11.028  67.600  1.00  0.00     0.099 OA 
BRANCH  15  17
HETATM   17  C   UNL     1     -12.146  13.370  67.884  1.00  0.00    -0.289 C  
HETATM   18  C   UNL     1     -11.352  14.231  68.547  1.00  0.00    -0.309 C  
BRANCH  18  19
HETATM   19  C   UNL     1     -11.728  15.593  69.057  1.00  0.00    -0.395 C  
BRANCH  19  20
HETATM   20  N   UNL     1     -12.920  15.649  69.918  1.00  0.00    -0.004 NA 
HETATM   21  C   UNL     1     -12.318  14.176  72.432  1.00  0.00    -0.116 C  
HETATM   22  C   UNL     1     -13.453  14.292  70.162  1.00  0.00     0.803 C  
HETATM   23  C   UNL     1     -11.814  15.592  72.176  1.00  0.00    -0.551 C  
HETATM   24  C   UNL     1     -12.607  13.444  71.125  1.00  0.00    -0.430 C  
HETATM   25  C   UNL     1     -12.737  16.333  71.208  1.00  0.00     0.595 C  
ENDBRANCH  19  20
ENDBRANCH  18  19
ENDBRANCH  15  17
ENDBRANCH   4  13
BRANCH  12  26
HETATM   26  N   UNL     1      -6.171   8.919  68.858  1.00  0.00    -0.044 NA 
HETATM   27  H   UNL     1      -5.597   9.704  68.549  1.00  0.00     0.000 HD 
BRANCH  26  28
HETATM   28  C   UNL     1      -6.094   8.649  70.242  1.00  0.00    -0.033 A  
HETATM   29  C   UNL     1      -7.124   7.897  70.833  1.00  0.00    -0.049 A  
HETATM   30  C   UNL     1      -7.212   7.764  72.224  1.00  0.00    -0.081 A  
HETATM   31  C   UNL     1      -5.223   9.090  72.487  1.00  0.00    -0.068 A  
HETATM   32  C   UNL     1      -5.139   9.220  71.098  1.00  0.00    -0.033 A  
HETATM   33  C   UNL     1      -6.272   8.378  73.044  1.00  0.00    -0.094 A  
HETATM   34  F   UNL     1      -6.366   8.305  74.380  1.00  0.00    -0.103 F  
HETATM   35 CL   UNL     1      -8.514   6.869  72.907  1.00  0.00    -0.124 Cl 
ENDBRANCH  26  28
ENDBRANCH  12  26
ENDBRANCH   2   3
TORSDOF 7
ENDMDL
MODEL      197
REMARK 921   NORMALIZED FREE ENERGY PREDICTED BY IDOCK:    1.60 KCAL/MOL
REMARK 922        TOTAL FREE ENERGY PREDICTED BY IDOCK:    1.33 KCAL/MOL
REMARK 923 INTER-LIGAND FREE ENERGY PREDICTED BY IDOCK:   -1.11 KCAL/MOL
REMARK 924 INTRA-LIGAND FREE ENERGY PREDICTED BY IDOCK:    2.44 KCAL/MOL
REMARK 927      BINDING AFFINITY PREDICTED BY RF-SCORE:    0.00 PKD
ROOT
HETATM    1  C   UNL     1     -12.101  10.458  65.156  1.00  0.00     4.615 C  
HETATM    2  O   UNL     1     -11.014  11.060  64.454  1.00  0.00    -0.293 OA 
ENDROOT
BRANCH   2   3
HETATM    3  C   UNL     1     -10.659  12.322  64.861  1.00  0.00    -0.293 A  
HETATM    4  C   UNL     1      -9.490  12.438  65.618  1.00  0.00    -0.036 A  
HETATM    5  N   UNL     1     -11.648  15.780  64.459  1.00  0.00    -0.333 NA 
HETATM    6  C   UNL     1      -9.086  13.702  66.076  1.00  0.00     0.205 A  
HETATM    7  C   UNL     1     -10.927  14.746  64.898  1.00  0.00    -0.412 A  
HETATM    8  C   UNL     1     -11.259  16.985  64.862  1.00  0.00     0.260 A  
HETATM    9  C   UNL     1      -9.800  14.877  65.721  1.00  0.00    -0.380 A  
HETATM   10  C   UNL     1     -11.338  13.488  64.494  1.00  0.00    -0.386 A  
HETATM   11  N   UNL     1     -10.231  17.241  65.669  1.00  0.00    -0.613 NA 
HETATM   12  C   UNL     1      -9.497  16.202  66.119  1.00  0.00    -0.327 A  
BRANCH   4  13
HETATM   13  N   UNL     1      -8.730  11.269  65.884  1.00  0.00    -0.292 N  
HETATM   14  H   UNL     1      -9.121  10.362  65.627  1.00  0.00     0.000 HD 
HETATM   15  C   UNL     1      -7.484  11.311  66.474  1.00  0.00    -0.105 C  
HETATM   16  O   UNL     1      -6.936  12.330  66.888  1.00  0.00    -0.082 OA 
BRANCH  15  17
HETATM   17  C   UNL     1      -6.764  10.001  66.475  1.00  0.00    -0.082 C  
HETATM   18  C   UNL     1      -5.905   9.761  65.468  1.00  0.00    -0.064 C  
BRANCH  18  19
HETATM   19  C   UNL     1      -5.205   8.466  65.170  1.00  0.00    -0.035 C  
BRANCH  19  20
HETATM   20  N   UNL     1      -6.059   7.268  65.140  1.00  0.00    -0.037 NA 
HETATM   21  C   UNL     1      -6.986   6.721  67.914  1.00  0.00    -0.083 C  
HETATM   22  C   UNL     1      -5.467   6.183  65.950  1.00  0.00    -0.013 C  
HETATM   23  C   UNL     1      -7.610   7.807  67.045  1.00  0.00    -0.100 C  
HETATM   24  C   UNL     1      -5.561   6.403  67.469  1.00  0.00    -0.009 C  
HETATM   25  C   UNL     1      -7.454   7.475  65.561  1.00  0.00    -0.084 C  
ENDBRANCH  19  20
ENDBRANCH  18  19
ENDBRANCH  15  17
ENDBRANCH   4  13
BRANCH  12  26
HETATM   26  N   UNL     1      -8.509  16.445  67.099  1.00  0.00    -0.174 NA 
HETATM   27  H   UNL     1      -8.212  15.615  67.613  1.00  0.00     0.000 HD 
BRANCH  26  28
HETATM   28  C   UNL     1      -7.861  17.637  67.490  1.00  0.00    -0.202 A  
HETATM   29  C   UNL     1      -7.148  18.358  66.518  1.00  0.00    -0.251 A  
HETATM   30  C   UNL     1      -6.324  19.432  66.878  1.00  0.00    -0.185 A  
HETATM   31  C   UNL     1      -6.927  19.134  69.187  1.00  0.00    -0.361 A  
HETATM   32  C   UNL     1      -7.748  18.064  68.823  1.00  0.00    -0.273 A  
HETATM   33  C   UNL     1      -6.202  19.801  68.213  1.00  0.00    -0.245 A  
HETATM   34  F   UNL     1      -5.381  20.793  68.584  1.00  0.00    -0.247 F  
HETATM   35 CL   UNL     1      -5.435  20.262  65.659  1.00  0.00    -0.190 Cl 
ENDBRANCH  26  28
ENDBRANCH  12  26
ENDBRANCH   2   3
TORSDOF 7
ENDMDL
MODEL      198
REMARK 921   NORMALIZED FREE ENERGY PREDICTED BY IDOCK:    3.13 KCAL/MOL
REMARK 922        TOTAL FREE ENERGY PREDICTED BY IDOCK:    3.49 KCAL/MOL
REMARK 923 INTER-LIGAND FREE ENERGY PREDICTED BY IDOCK:   -0.59 KCAL/MOL
REMARK 924 INTRA-LIGAND FREE ENERGY PREDICTED BY IDOCK:    4.08 KCAL/MOL
REMARK 927      BINDING AFFINITY PREDICTED BY RF-SCORE:    0.00 PKD
ROOT
HETATM    1  C   UNL     1      -8.103   9.655  69.075  1.00  0.00    -0.103 C  
HETATM    2  O   UNL     1      -9.475   9.992  68.874  1.00  0.00    -0.156 OA 
ENDROOT
BRANCH   2   3
HETATM    3  C   UNL     1      -9.779  10.593  67.678  1.00  0.00    -0.165 A  
HETATM    4  C   UNL     1     -10.174  11.933  67.726  1.00  0.00    -0.200 A  
HETATM    5  N   UNL     1      -9.716   9.946  64.118  1.00  0.00    -0.143 NA 
HETATM    6  C   UNL     1     -10.512  12.595  66.535  1.00  0.00    -0.264 A  
HETATM    7  C   UNL     1      -9.919  10.634  65.243  1.00  0.00    -0.294 A  
HETATM    8  C   UNL     1     -10.006  10.572  62.982  1.00  0.00    -0.104 A  
HETATM    9  C   UNL     1     -10.389  11.955  65.274  1.00  0.00    -0.316 A  
HETATM   10  C   UNL     1      -9.634   9.981  66.429  1.00  0.00    -0.248 A  
HETATM   11  N   UNL     1     -10.491  11.808  62.877  1.00  0.00    -0.132 NA 
HETATM   12  C   UNL     1     -10.701  12.511  64.009  1.00  0.00    -0.415 A  
BRANCH   4  13
HETATM   13  N   UNL     1     -10.198  12.594  68.981  1.00  0.00    -0.428 N  
HETATM   14  H   UNL     1      -9.479  12.366  69.668  1.00  0.00     0.000 HD 
HETATM   15  C   UNL     1     -11.155  13.531  69.310  1.00  0.00    -0.179 C  
HETATM   16  O   UNL     1     -12.108  13.841  68.599  1.00  0.00    -0.359 OA 
BRANCH  15  17
HETATM   17  C   UNL     1     -10.885  14.258  70.587  1.00  0.00     0.623 C  
HETATM   18  C   UNL     1     -11.378  13.728  71.722  1.00  0.00     2.191 C  
BRANCH  18  19
HETATM   19  C   UNL     1     -11.379  14.360  73.085  1.00  0.00     1.437 C  
BRANCH  19  20
HETATM   20  N   UNL     1     -12.321  15.474  73.274  1.00  0.00    -0.432 NA 
HETATM   21  C   UNL     1     -14.022  15.674  70.841  1.00  0.00     0.221 C  
HETATM   22  C   UNL     1     -12.097  16.528  72.262  1.00  0.00    -0.214 C  
HETATM   23  C   UNL     1     -14.261  14.622  71.918  1.00  0.00    -0.628 C  
HETATM   24  C   UNL     1     -12.574  16.159  70.848  1.00  0.00     0.226 C  
HETATM   25  C   UNL     1     -13.745  15.104  73.275  1.00  0.00     0.095 C  
ENDBRANCH  19  20
ENDBRANCH  18  19
ENDBRANCH  15  17
ENDBRANCH   4  13
BRANCH  12  26
HETATM   26  N   UNL     1     -11.362  13.756  63.921  1.00  0.00    -0.584 NA 
HETATM   27  H   UNL     1     -12.172  13.759  63.302  1.00  0.00     0.000 HD 
BRANCH  26  28
HETATM   28  C   UNL     1     -11.095  14.997  64.539  1.00  0.00    -0.234 A  
HETATM   29  C   UNL     1     -10.423  14.995  65.775  1.00  0.00    -0.353 A  
HETATM   30  C   UNL     1     -10.305  16.167  66.531  1.00  0.00    -0.308 A  
HETATM   31  C   UNL     1     -11.484  17.396  64.834  1.00  0.00     1.268 A  
HETATM   32  C   UNL     1     -11.599  16.224  64.081  1.00  0.00     0.199 A  
HETATM   33  C   UNL     1     -10.854  17.357  66.066  1.00  0.00     0.016 A  
HETATM   34  F   UNL     1     -10.796  18.478  66.798  1.00  0.00    -0.401 F  
HETATM   35 CL   UNL     1      -9.511  16.111  68.058  1.00  0.00    -0.210 Cl 
ENDBRANCH  26  28
ENDBRANCH  12  26
ENDBRANCH   2   3
TORSDOF 7
ENDMDL
MODEL      199
REMARK 921   NORMALIZED FREE ENERGY PREDICTED BY IDOCK:    4.51 KCAL/MOL
REMARK 922        TOTAL FREE ENERGY PREDICTED BY IDOCK:    5.44 KCAL/MOL
REMARK 923 INTER-LIGAND FREE ENERGY PREDICTED BY IDOCK:    3.77 KCAL/MOL
REMARK 924 INTRA-LIGAND FREE ENERGY PREDICTED BY IDOCK:    1.67 KCAL/MOL
REMARK 927      BINDING AFFINITY PREDICTED BY RF-SCORE:    0.00 PKD
ROOT
HETATM    1  C   UNL     1      -6.202   9.256  70.663  1.00  0.00    -0.060 C  
HETATM    2  O   UNL     1      -5.606  10.180  69.754  1.00  0.00    -0.037 OA 
ENDROOT
BRANCH   2   3
HETATM    3  C   UNL     1      -6.462  11.066  69.148  1.00  0.00    -0.066 A  
HETATM    4  C   UNL     1      -7.426  10.528  68.290  1.00  0.00    -0.090 A  
HETATM    5  N   UNL     1      -7.317  14.582  69.141  1.00  0.00    -0.136 NA 
HETATM    6  C   UNL     1      -8.319  11.388  67.630  1.00  0.00    -0.129 A  
HETATM    7  C   UNL     1      -7.386  13.296  68.795  1.00  0.00    -0.070 A  
HETATM    8  C   UNL     1      -8.176  15.402  68.544  1.00  0.00    -0.145 A  
HETATM    9  C   UNL     1      -8.312  12.786  67.874  1.00  0.00    -0.172 A  
HETATM   10  C   UNL     1      -6.483  12.440  69.402  1.00  0.00    -0.103 A  
HETATM   11  N   UNL     1      -9.077  15.052  67.630  1.00  0.00    -0.179 NA 
HETATM   12  C   UNL     1      -9.154  13.753  67.272  1.00  0.00    -0.232 A  
BRANCH   4  13
HETATM   13  N   UNL     1      -7.489   9.120  68.131  1.00  0.00    -0.083 N  
HETATM   14  H   UNL     1      -7.025   8.528  68.820  1.00  0.00     0.000 HD 
HETATM   15  C   UNL     1      -8.152   8.519  67.080  1.00  0.00    -0.104 C  
HETATM   16  O   UNL     1      -8.690   9.120  66.154  1.00  0.00    -0.135 OA 
BRANCH  15  17
HETATM   17  C   UNL     1      -8.279   7.036  67.206  1.00  0.00    -0.119 C  
HETATM   18  C   UNL     1      -8.857   6.552  68.321  1.00  0.00    -0.119 C  
BRANCH  18  19
HETATM   19  C   UNL     1      -8.941   5.112  68.740  1.00  0.00    -0.101 C  
BRANCH  19  20
HETATM   20  N   UNL     1      -9.405   4.870  70.115  1.00  0.00    -0.142 NA 
HETATM   21  C   UNL     1     -10.690   7.362  71.111  1.00  0.00    -0.246 C  
HETATM   22  C   UNL     1      -8.714   5.765  71.066  1.00  0.00    -0.134 C  
HETATM   23  C   UNL     1     -11.399   6.403  70.163  1.00  0.00    -0.485 C  
HETATM   24  C   UNL     1      -9.173   7.231  71.003  1.00  0.00    -0.154 C  
HETATM   25  C   UNL     1     -10.859   4.981  70.319  1.00  0.00     0.294 C  
ENDBRANCH  19  20
ENDBRANCH  18  19
ENDBRANCH  15  17
ENDBRANCH   4  13
BRANCH  12  26
HETATM   26  N   UNL     1      -9.992  13.397  66.192  1.00  0.00    -0.291 NA 
HETATM   27  H   UNL     1      -9.829  12.459  65.824  1.00  0.00     0.000 HD 
BRANCH  26  28
HETATM   28  C   UNL     1     -11.014  14.113  65.533  1.00  0.00    -0.310 A  
HETATM   29  C   UNL     1     -11.865  13.411  64.661  1.00  0.00    -0.430 A  
HETATM   30  C   UNL     1     -12.765  14.090  63.831  1.00  0.00     0.271 A  
HETATM   31  C   UNL     1     -12.032  16.193  64.738  1.00  0.00     0.415 A  
HETATM   32  C   UNL     1     -11.136  15.511  65.565  1.00  0.00    -0.265 A  
HETATM   33  C   UNL     1     -12.829  15.479  63.859  1.00  0.00     1.113 A  
HETATM   34  F   UNL     1     -13.647  16.151  63.037  1.00  0.00     2.658 F  
HETATM   35 CL   UNL     1     -13.759  13.193  62.748  1.00  0.00     3.552 Cl 
ENDBRANCH  26  28
ENDBRANCH  12  26
ENDBRANCH   2   3
TORSDOF 7
ENDMDL
MODEL      200
REMARK 921   NORMALIZED FREE ENERGY PREDICTED BY IDOCK:    5.41 KCAL/MOL
REMARK 922        TOTAL FREE ENERGY PREDICTED BY IDOCK:    6.71 KCAL/MOL
REMARK 923 INTER-LIGAND FREE ENERGY PREDICTED BY IDOCK:    4.88 KCAL/MOL
REMARK 924 INTRA-LIGAND FREE ENERGY PREDICTED BY IDOCK:    1.83 KCAL/MOL
REMARK 927      BINDING AFFINITY PREDICTED BY RF-SCORE:    0.00 PKD
ROOT
HETATM    1  C   UNL     1      -6.202   9.256  70.663  1.00  0.00    -0.060 C  
HETATM    2  O   UNL     1      -5.606  10.180  69.754  1.00  0.00    -0.037 OA 
ENDROOT
BRANCH   2   3
HETATM    3  C   UNL     1      -6.462  11.066  69.148  1.00  0.00    -0.066 A  
HETATM    4  C   UNL     1      -7.426  10.528  68.290  1.00  0.00    -0.090 A  
HETATM    5  N   UNL     1      -7.317  14.582  69.141  1.00  0.00    -0.136 NA 
HETATM    6  C   UNL     1      -8.319  11.388  67.630  1.00  0.00    -0.129 A  
HETATM    7  C   UNL     1      -7.386  13.296  68.795  1.00  0.00    -0.070 A  
HETATM    8  C   UNL     1      -8.176  15.402  68.544  1.00  0.00    -0.145 A  
HETATM    9  C   UNL     1      -8.312  12.786  67.874  1.00  0.00    -0.172 A  
HETATM   10  C   UNL     1      -6.483  12.440  69.402  1.00  0.00    -0.103 A  
HETATM   11  N   UNL     1      -9.077  15.052  67.630  1.00  0.00    -0.179 NA 
HETATM   12  C   UNL     1      -9.154  13.753  67.272  1.00  0.00    -0.232 A  
BRANCH   4  13
HETATM   13  N   UNL     1      -7.489   9.120  68.131  1.00  0.00    -0.083 N  
HETATM   14  H   UNL     1      -7.025   8.528  68.820  1.00  0.00     0.000 HD 
HETATM   15  C   UNL     1      -8.152   8.519  67.080  1.00  0.00    -0.104 C  
HETATM   16  O   UNL     1      -8.690   9.120  66.154  1.00  0.00    -0.135 OA 
BRANCH  15  17
HETATM   17  C   UNL     1      -8.279   7.036  67.206  1.00  0.00    -0.119 C  
HETATM   18  C   UNL     1      -8.116   6.299  66.092  1.00  0.00    -0.116 C  
BRANCH  18  19
HETATM   19  C   UNL     1      -8.361   4.825  65.943  1.00  0.00    -0.116 C  
BRANCH  19  20
HETATM   20  N   UNL     1      -8.346   4.308  64.565  1.00  0.00    -0.104 NA 
HETATM   21  C   UNL     1      -7.057   6.348  62.824  1.00  0.00    -0.048 C  
HETATM   22  C   UNL     1      -9.144   5.174  63.672  1.00  0.00     0.195 C  
HETATM   23  C   UNL     1      -6.251   5.416  63.722  1.00  0.00    -0.022 C  
HETATM   24  C   UNL     1      -8.483   6.521  63.340  1.00  0.00     0.281 C  
HETATM   25  C   UNL     1      -7.011   4.113  63.978  1.00  0.00    -0.046 C  
ENDBRANCH  19  20
ENDBRANCH  18  19
ENDBRANCH  15  17
ENDBRANCH   4  13
BRANCH  12  26
HETATM   26  N   UNL     1      -9.992  13.397  66.192  1.00  0.00    -0.291 NA 
HETATM   27  H   UNL     1      -9.829  12.459  65.824  1.00  0.00     0.000 HD 
BRANCH  26  28
HETATM   28  C   UNL     1     -11.014  14.113  65.533  1.00  0.00    -0.310 A  
HETATM   29  C   UNL     1     -11.865  13.411  64.661  1.00  0.00    -0.430 A  
HETATM   30  C   UNL     1     -12.765  14.090  63.831  1.00  0.00     0.271 A  
HETATM   31  C   UNL     1     -12.032  16.193  64.738  1.00  0.00     0.415 A  
HETATM   32  C   UNL     1     -11.136  15.511  65.565  1.00  0.00    -0.265 A  
HETATM   33  C   UNL     1     -12.829  15.479  63.859  1.00  0.00     1.113 A  
HETATM   34  F   UNL     1     -13.647  16.151  63.037  1.00  0.00     2.658 F  
HETATM   35 CL   UNL     1     -13.759  13.193  62.748  1.00  0.00     3.552 Cl 
ENDBRANCH  26  28
ENDBRANCH  12  26
ENDBRANCH   2   3
TORSDOF 7
ENDMDL
MODEL      201
REMARK 921   NORMALIZED FREE ENERGY PREDICTED BY IDOCK:    7.40 KCAL/MOL
REMARK 922        TOTAL FREE ENERGY PREDICTED BY IDOCK:    9.51 KCAL/MOL
REMARK 923 INTER-LIGAND FREE ENERGY PREDICTED BY IDOCK:    8.91 KCAL/MOL
REMARK 924 INTRA-LIGAND FREE ENERGY PREDICTED BY IDOCK:    0.60 KCAL/MOL
REMARK 927      BINDING AFFINITY PREDICTED BY RF-SCORE:    0.00 PKD
ROOT
HETATM    1  C   UNL     1     -10.703   7.171  64.327  1.00  0.00    10.376 C  
HETATM    2  O   UNL     1     -10.606   5.873  64.912  1.00  0.00     1.986 OA 
ENDROOT
BRANCH   2   3
HETATM    3  C   UNL     1      -9.446   5.607  65.598  1.00  0.00     0.046 A  
HETATM    4  C   UNL     1      -8.967   6.612  66.443  1.00  0.00    -0.148 A  
HETATM    5  N   UNL     1      -7.102   2.918  66.207  1.00  0.00    -0.056 NA 
HETATM    6  C   UNL     1      -7.776   6.402  67.158  1.00  0.00    -0.100 A  
HETATM    7  C   UNL     1      -7.630   4.140  66.303  1.00  0.00    -0.089 A  
HETATM    8  C   UNL     1      -5.991   2.698  66.902  1.00  0.00    -0.023 A  
HETATM    9  C   UNL     1      -7.090   5.160  67.099  1.00  0.00    -0.069 A  
HETATM   10  C   UNL     1      -8.778   4.379  65.570  1.00  0.00    -0.123 A  
HETATM   11  N   UNL     1      -5.361   3.589  67.664  1.00  0.00    -0.012 NA 
HETATM   12  C   UNL     1      -5.886   4.828  67.766  1.00  0.00    -0.022 A  
BRANCH   4  13
HETATM   13  N   UNL     1      -9.714   7.811  66.571  1.00  0.00    -0.328 N  
HETATM   14  H   UNL     1     -10.725   7.748  66.688  1.00  0.00     0.000 HD 
HETATM   15  C   UNL     1      -9.127   9.059  66.543  1.00  0.00    -0.163 C  
HETATM   16  O   UNL     1      -7.933   9.270  66.342  1.00  0.00    -0.106 OA 
BRANCH  15  17
HETATM   17  C   UNL     1     -10.051  10.177  66.902  1.00  0.00    -0.279 C  
HETATM   18  C   UNL     1     -10.070  11.254  66.095  1.00  0.00    -0.279 C  
BRANCH  18  19
HETATM   19  C   UNL     1     -10.783  12.553  66.343  1.00  0.00    -0.249 C  
BRANCH  19  20
HETATM   20  N   UNL     1     -10.142  13.753  65.783  1.00  0.00    -0.308 NA 
HETATM   21  C   UNL     1     -10.383  15.949  67.777  1.00  0.00    -0.278 C  
HETATM   22  C   UNL     1     -11.127  14.842  65.614  1.00  0.00    -0.348 C  
HETATM   23  C   UNL     1      -9.347  14.838  67.909  1.00  0.00    -0.193 C  
HETATM   24  C   UNL     1     -11.572  15.503  66.929  1.00  0.00     0.099 C  
HETATM   25  C   UNL     1      -8.986  14.263  66.539  1.00  0.00    -0.132 C  
ENDBRANCH  19  20
ENDBRANCH  18  19
ENDBRANCH  15  17
ENDBRANCH   4  13
BRANCH  12  26
HETATM   26  N   UNL     1      -5.144   5.824  68.439  1.00  0.00    -0.003 NA 
HETATM   27  H   UNL     1      -4.178   5.914  68.124  1.00  0.00     0.000 HD 
BRANCH  26  28
HETATM   28  C   UNL     1      -5.508   6.717  69.470  1.00  0.00    -0.014 A  
HETATM   29  C   UNL     1      -5.698   6.199  70.764  1.00  0.00    -0.018 A  
HETATM   30  C   UNL     1      -6.248   6.988  71.781  1.00  0.00    -0.038 A  
HETATM   31  C   UNL     1      -6.401   8.852  70.269  1.00  0.00    -0.039 A  
HETATM   32  C   UNL     1      -5.851   8.062  69.257  1.00  0.00    -0.034 A  
HETATM   33  C   UNL     1      -6.615   8.304  71.523  1.00  0.00    -0.058 A  
HETATM   34  F   UNL     1      -7.191   9.060  72.469  1.00  0.00    -0.028 F  
HETATM   35 CL   UNL     1      -6.503   6.301  73.339  1.00  0.00    -0.065 Cl 
ENDBRANCH  26  28
ENDBRANCH  12  26
ENDBRANCH   2   3
TORSDOF 7
ENDMDL
MODEL      202
REMARK 921   NORMALIZED FREE ENERGY PREDICTED BY IDOCK:    7.65 KCAL/MOL
REMARK 922        TOTAL FREE ENERGY PREDICTED BY IDOCK:    9.87 KCAL/MOL
REMARK 923 INTER-LIGAND FREE ENERGY PREDICTED BY IDOCK:    9.96 KCAL/MOL
REMARK 924 INTRA-LIGAND FREE ENERGY PREDICTED BY IDOCK:   -0.10 KCAL/MOL
REMARK 927      BINDING AFFINITY PREDICTED BY RF-SCORE:    0.00 PKD
ROOT
HETATM    1  C   UNL     1     -13.280  10.352  65.333  1.00  0.00    11.622 C  
HETATM    2  O   UNL     1     -12.149  10.860  64.627  1.00  0.00     1.000 OA 
ENDROOT
BRANCH   2   3
HETATM    3  C   UNL     1     -11.817  12.167  64.882  1.00  0.00    -0.302 A  
HETATM    4  C   UNL     1     -10.914  12.398  65.925  1.00  0.00    -0.288 A  
HETATM    5  N   UNL     1     -12.329  15.500  63.569  1.00  0.00     0.011 NA 
HETATM    6  C   UNL     1     -10.550  13.716  66.242  1.00  0.00    -0.289 A  
HETATM    7  C   UNL     1     -11.864  14.555  64.388  1.00  0.00    -0.403 A  
HETATM    8  C   UNL     1     -11.967  16.750  63.842  1.00  0.00     2.377 A  
HETATM    9  C   UNL     1     -11.019  14.816  65.476  1.00  0.00    -0.350 A  
HETATM   10  C   UNL     1     -12.250  13.254  64.118  1.00  0.00    -0.465 A  
HETATM   11  N   UNL     1     -11.202  17.132  64.862  1.00  0.00    -0.689 NA 
HETATM   12  C   UNL     1     -10.728  16.184  65.697  1.00  0.00    -0.310 A  
BRANCH   4  13
HETATM   13  N   UNL     1     -10.374  11.285  66.619  1.00  0.00    -0.229 N  
HETATM   14  H   UNL     1     -10.761  10.359  66.437  1.00  0.00     0.000 HD 
HETATM   15  C   UNL     1      -9.344  11.405  67.530  1.00  0.00    -0.164 C  
HETATM   16  O   UNL     1      -8.840  12.468  67.883  1.00  0.00    -0.168 OA 
BRANCH  15  17
HETATM   17  C   UNL     1      -8.782  10.101  67.992  1.00  0.00    -0.122 C  
HETATM   18  C   UNL     1      -9.121   9.676  69.223  1.00  0.00    -0.174 C  
BRANCH  18  19
HETATM   19  C   UNL     1      -8.552   8.495  69.957  1.00  0.00    -0.134 C  
BRANCH  19  20
HETATM   20  N   UNL     1      -7.119   8.238  69.745  1.00  0.00    -0.055 NA 
HETATM   21  C   UNL     1      -6.526   5.474  70.675  1.00  0.00    -0.035 C  
HETATM   22  C   UNL     1      -6.436   7.988  71.031  1.00  0.00    -0.037 C  
HETATM   23  C   UNL     1      -7.192   5.757  69.333  1.00  0.00    -0.066 C  
HETATM   24  C   UNL     1      -6.748   6.620  71.659  1.00  0.00    -0.062 C  
HETATM   25  C   UNL     1      -6.805   7.142  68.813  1.00  0.00    -0.076 C  
ENDBRANCH  19  20
ENDBRANCH  18  19
ENDBRANCH  15  17
ENDBRANCH   4  13
BRANCH  12  26
HETATM   26  N   UNL     1     -10.052  16.591  66.868  1.00  0.00    -0.273 NA 
HETATM   27  H   UNL     1      -9.784  15.825  67.487  1.00  0.00     0.000 HD 
BRANCH  26  28
HETATM   28  C   UNL     1      -9.683  17.872  67.332  1.00  0.00    -0.288 A  
HETATM   29  C   UNL     1      -8.606  18.524  66.705  1.00  0.00    -0.295 A  
HETATM   30  C   UNL     1      -8.066  19.699  67.240  1.00  0.00    -0.282 A  
HETATM   31  C   UNL     1      -9.679  19.644  69.022  1.00  0.00    -0.428 A  
HETATM   32  C   UNL     1     -10.216  18.471  68.484  1.00  0.00    -0.389 A  
HETATM   33  C   UNL     1      -8.592  20.242  68.406  1.00  0.00     0.156 A  
HETATM   34  F   UNL     1      -8.057  21.338  68.963  1.00  0.00     1.445 F  
HETATM   35 CL   UNL     1      -6.720  20.441  66.462  1.00  0.00    -0.272 Cl 
ENDBRANCH  26  28
ENDBRANCH  12  26
ENDBRANCH   2   3
TORSDOF 7
ENDMDL
MODEL      203
REMARK 921   NORMALIZED FREE ENERGY PREDICTED BY IDOCK:   10.49 KCAL/MOL
REMARK 922        TOTAL FREE ENERGY PREDICTED BY IDOCK:   13.87 KCAL/MOL
REMARK 923 INTER-LIGAND FREE ENERGY PREDICTED BY IDOCK:   14.08 KCAL/MOL
REMARK 924 INTRA-LIGAND FREE ENERGY PREDICTED BY IDOCK:   -0.22 KCAL/MOL
REMARK 927      BINDING AFFINITY PREDICTED BY RF-SCORE:    0.00 PKD
ROOT
HETATM    1  C   UNL     1      -9.290  14.771  71.879  1.00  0.00     5.082 C  
HETATM    2  O   UNL     1      -8.368  14.905  70.799  1.00  0.00     1.290 OA 
ENDROOT
BRANCH   2   3
HETATM    3  C   UNL     1      -7.675  13.771  70.454  1.00  0.00     2.137 A  
HETATM    4  C   UNL     1      -7.194  13.697  69.144  1.00  0.00     0.005 A  
HETATM    5  N   UNL     1      -6.358  10.735  71.918  1.00  0.00     0.878 NA 
HETATM    6  C   UNL     1      -6.491  12.554  68.730  1.00  0.00    -0.084 A  
HETATM    7  C   UNL     1      -6.620  11.632  70.966  1.00  0.00     1.845 A  
HETATM    8  C   UNL     1      -5.669   9.661  71.545  1.00  0.00    -0.050 A  
HETATM    9  C   UNL     1      -6.193  11.503  69.637  1.00  0.00    -0.124 A  
HETATM   10  C   UNL     1      -7.351  12.744  71.346  1.00  0.00     6.586 A  
HETATM   11  N   UNL     1      -5.237   9.404  70.313  1.00  0.00    -0.027 NA 
HETATM   12  C   UNL     1      -5.499  10.304  69.342  1.00  0.00    -0.038 A  
BRANCH   4  13
HETATM   13  N   UNL     1      -7.411  14.797  68.274  1.00  0.00    -0.108 N  
HETATM   14  H   UNL     1      -6.647  15.453  68.114  1.00  0.00     0.000 HD 
HETATM   15  C   UNL     1      -8.615  15.013  67.636  1.00  0.00    -0.171 C  
HETATM   16  O   UNL     1      -9.627  14.336  67.797  1.00  0.00    -0.212 OA 
BRANCH  15  17
HETATM   17  C   UNL     1      -8.576  16.096  66.608  1.00  0.00    -0.311 C  
HETATM   18  C   UNL     1      -8.588  17.370  67.043  1.00  0.00    -0.250 C  
BRANCH  18  19
HETATM   19  C   UNL     1      -8.723  18.608  66.203  1.00  0.00    -0.125 C  
BRANCH  19  20
HETATM   20  N   UNL     1      -8.133  19.832  66.766  1.00  0.00    -0.291 NA 
HETATM   21  C   UNL     1      -5.171  19.586  66.621  1.00  0.00    -0.163 C  
HETATM   22  C   UNL     1      -7.327  19.521  67.965  1.00  0.00    -0.281 C  
HETATM   23  C   UNL     1      -6.020  19.947  65.407  1.00  0.00    -0.227 C  
HETATM   24  C   UNL     1      -5.988  18.828  67.665  1.00  0.00    -0.190 C  
HETATM   25  C   UNL     1      -7.320  20.629  65.833  1.00  0.00     0.037 C  
ENDBRANCH  19  20
ENDBRANCH  18  19
ENDBRANCH  15  17
ENDBRANCH   4  13
BRANCH  12  26
HETATM   26  N   UNL     1      -5.189   9.969  68.006  1.00  0.00    -0.036 NA 
HETATM   27  H   UNL     1      -4.264   9.559  67.878  1.00  0.00     0.000 HD 
BRANCH  26  28
HETATM   28  C   UNL     1      -5.938  10.103  66.816  1.00  0.00    -0.055 A  
HETATM   29  C   UNL     1      -7.336   9.976  66.890  1.00  0.00    -0.092 A  
HETATM   30  C   UNL     1      -8.114   9.900  65.729  1.00  0.00    -0.123 A  
HETATM   31  C   UNL     1      -6.138  10.117  64.376  1.00  0.00    -0.137 A  
HETATM   32  C   UNL     1      -5.365  10.193  65.537  1.00  0.00    -0.067 A  
HETATM   33  C   UNL     1      -7.509   9.950  64.478  1.00  0.00    -0.140 A  
HETATM   34  F   UNL     1      -8.231   9.828  63.355  1.00  0.00    -0.127 F  
HETATM   35 CL   UNL     1      -9.820   9.703  65.866  1.00  0.00    -0.346 Cl 
ENDBRANCH  26  28
ENDBRANCH  12  26
ENDBRANCH   2   3
TORSDOF 7
ENDMDL
MODEL      204
REMARK 921   NORMALIZED FREE ENERGY PREDICTED BY IDOCK:   11.17 KCAL/MOL
REMARK 922        TOTAL FREE ENERGY PREDICTED BY IDOCK:   14.82 KCAL/MOL
REMARK 923 INTER-LIGAND FREE ENERGY PREDICTED BY IDOCK:   11.99 KCAL/MOL
REMARK 924 INTRA-LIGAND FREE ENERGY PREDICTED BY IDOCK:    2.83 KCAL/MOL
REMARK 927      BINDING AFFINITY PREDICTED BY RF-SCORE:    0.00 PKD
ROOT
HETATM    1  C   UNL     1      -7.151  18.414  65.436  1.00  0.00     0.084 C  
HETATM    2  O   UNL     1      -6.309  17.327  65.818  1.00  0.00    -0.065 OA 
ENDROOT
BRANCH   2   3
HETATM    3  C   UNL     1      -6.540  16.796  67.063  1.00  0.00    -0.204 A  
HETATM    4  C   UNL     1      -7.593  15.883  67.176  1.00  0.00    -0.220 A  
HETATM    5  N   UNL     1      -5.140  16.755  70.400  1.00  0.00    -0.199 NA 
HETATM    6  C   UNL     1      -7.886  15.319  68.427  1.00  0.00    -0.122 A  
HETATM    7  C   UNL     1      -5.990  16.457  69.415  1.00  0.00    -0.165 A  
HETATM    8  C   UNL     1      -5.390  16.204  71.583  1.00  0.00     0.237 A  
HETATM    9  C   UNL     1      -7.087  15.597  69.567  1.00  0.00    -0.195 A  
HETATM   10  C   UNL     1      -5.743  17.040  68.185  1.00  0.00    -0.120 A  
HETATM   11  N   UNL     1      -6.415  15.402  71.867  1.00  0.00     1.566 NA 
HETATM   12  C   UNL     1      -7.280  15.097  70.878  1.00  0.00     1.216 A  
BRANCH   4  13
HETATM   13  N   UNL     1      -8.323  15.535  66.010  1.00  0.00    -0.153 N  
HETATM   14  H   UNL     1      -8.223  16.117  65.178  1.00  0.00     0.000 HD 
HETATM   15  C   UNL     1      -9.162  14.441  65.956  1.00  0.00    -0.035 C  
HETATM   16  O   UNL     1      -9.417  13.705  66.906  1.00  0.00    -0.244 OA 
BRANCH  15  17
HETATM   17  C   UNL     1      -9.671  14.128  64.587  1.00  0.00     0.652 C  
HETATM   18  C   UNL     1     -10.394  13.003  64.433  1.00  0.00    -0.397 C  
BRANCH  18  19
HETATM   19  C   UNL     1     -10.860  12.403  63.137  1.00  0.00    -0.031 C  
BRANCH  19  20
HETATM   20  N   UNL     1     -12.237  12.732  62.736  1.00  0.00     0.253 NA 
HETATM   21  C   UNL     1     -13.635  13.893  65.092  1.00  0.00     1.098 C  
HETATM   22  C   UNL     1     -13.212  11.944  63.519  1.00  0.00     0.212 C  
HETATM   23  C   UNL     1     -12.657  14.700  64.246  1.00  0.00    -0.106 C  
HETATM   24  C   UNL     1     -13.364  12.395  64.980  1.00  0.00     1.240 C  
HETATM   25  C   UNL     1     -12.595  14.157  62.817  1.00  0.00     2.030 C  
ENDBRANCH  19  20
ENDBRANCH  18  19
ENDBRANCH  15  17
ENDBRANCH   4  13
BRANCH  12  26
HETATM   26  N   UNL     1      -8.454  14.381  71.203  1.00  0.00     2.970 NA 
HETATM   27  H   UNL     1      -8.346  13.722  71.974  1.00  0.00     0.000 HD 
BRANCH  26  28
HETATM   28  C   UNL     1      -9.750  14.420  70.645  1.00  0.00     2.188 A  
HETATM   29  C   UNL     1     -10.097  13.443  69.695  1.00  0.00     0.971 A  
HETATM   30  C   UNL     1     -11.286  13.541  68.962  1.00  0.00    -0.269 A  
HETATM   31  C   UNL     1     -11.849  15.569  70.126  1.00  0.00    -0.378 A  
HETATM   32  C   UNL     1     -10.662  15.467  70.856  1.00  0.00    -0.156 A  
HETATM   33  C   UNL     1     -12.146  14.614  69.167  1.00  0.00    -0.248 A  
HETATM   34  F   UNL     1     -13.264  14.754  68.441  1.00  0.00     0.970 F  
HETATM   35 CL   UNL     1     -11.651  12.344  67.779  1.00  0.00    -0.390 Cl 
ENDBRANCH  26  28
ENDBRANCH  12  26
ENDBRANCH   2   3
TORSDOF 7
ENDMDL
MODEL      205
REMARK 921   NORMALIZED FREE ENERGY PREDICTED BY IDOCK:   12.48 KCAL/MOL
REMARK 922        TOTAL FREE ENERGY PREDICTED BY IDOCK:   16.67 KCAL/MOL
REMARK 923 INTER-LIGAND FREE ENERGY PREDICTED BY IDOCK:   13.70 KCAL/MOL
REMARK 924 INTRA-LIGAND FREE ENERGY PREDICTED BY IDOCK:    2.97 KCAL/MOL
REMARK 927      BINDING AFFINITY PREDICTED BY RF-SCORE:    0.00 PKD
ROOT
HETATM    1  C   UNL     1     -13.030   9.745  65.931  1.00  0.00    15.007 C  
HETATM    2  O   UNL     1     -11.701  10.189  65.663  1.00  0.00     1.824 OA 
ENDROOT
BRANCH   2   3
HETATM    3  C   UNL     1     -11.457  11.523  65.877  1.00  0.00    -0.014 A  
HETATM    4  C   UNL     1     -10.661  11.851  66.979  1.00  0.00    -0.240 A  
HETATM    5  N   UNL     1     -12.014  14.757  64.352  1.00  0.00    -0.447 NA 
HETATM    6  C   UNL     1     -10.391  13.201  67.257  1.00  0.00    -0.243 A  
HETATM    7  C   UNL     1     -11.577  13.878  65.256  1.00  0.00    -0.327 A  
HETATM    8  C   UNL     1     -11.740  16.035  64.589  1.00  0.00    -0.073 A  
HETATM    9  C   UNL     1     -10.845  14.236  66.397  1.00  0.00    -0.307 A  
HETATM   10  C   UNL     1     -11.874  12.547  65.023  1.00  0.00    -0.445 A  
HETATM   11  N   UNL     1     -11.086  16.507  65.648  1.00  0.00    -0.008 NA 
HETATM   12  C   UNL     1     -10.641  15.627  66.569  1.00  0.00    -0.307 A  
BRANCH   4  13
HETATM   13  N   UNL     1     -10.130  10.803  67.774  1.00  0.00    -0.170 N  
HETATM   14  H   UNL     1     -10.020  10.957  68.776  1.00  0.00     0.000 HD 
HETATM   15  C   UNL     1      -9.756   9.585  67.245  1.00  0.00    -0.167 C  
HETATM   16  O   UNL     1      -9.776   9.302  66.050  1.00  0.00    -0.254 OA 
BRANCH  15  17
HETATM   17  C   UNL     1      -9.420   8.551  68.270  1.00  0.00    -0.143 C  
HETATM   18  C   UNL     1      -9.783   8.794  69.543  1.00  0.00    -0.172 C  
BRANCH  18  19
HETATM   19  C   UNL     1      -9.408   7.991  70.756  1.00  0.00    -0.157 C  
BRANCH  19  20
HETATM   20  N   UNL     1      -9.797   8.568  72.052  1.00  0.00    -0.284 NA 
HETATM   21  C   UNL     1      -9.811   6.383  74.073  1.00  0.00    -0.275 C  
HETATM   22  C   UNL     1     -11.061   7.972  72.533  1.00  0.00    -0.375 C  
HETATM   23  C   UNL     1      -8.522   7.041  73.593  1.00  0.00    -0.151 C  
HETATM   24  C   UNL     1     -10.927   6.527  73.040  1.00  0.00    -0.270 C  
HETATM   25  C   UNL     1      -8.784   8.470  73.116  1.00  0.00    -0.028 C  
ENDBRANCH  19  20
ENDBRANCH  18  19
ENDBRANCH  15  17
ENDBRANCH   4  13
BRANCH  12  26
HETATM   26  N   UNL     1     -10.091  16.124  67.771  1.00  0.00    -0.245 NA 
HETATM   27  H   UNL     1     -10.618  16.890  68.191  1.00  0.00     0.000 HD 
BRANCH  26  28
HETATM   28  C   UNL     1      -8.938  15.746  68.492  1.00  0.00    -0.194 A  
HETATM   29  C   UNL     1      -8.395  16.662  69.411  1.00  0.00     0.137 A  
HETATM   30  C   UNL     1      -7.150  16.431  70.007  1.00  0.00     0.552 A  
HETATM   31  C   UNL     1      -6.958  14.345  68.827  1.00  0.00    -0.100 A  
HETATM   32  C   UNL     1      -8.202  14.579  68.234  1.00  0.00    -0.149 A  
HETATM   33  C   UNL     1      -6.429  15.284  69.696  1.00  0.00    -0.162 A  
HETATM   34  F   UNL     1      -5.212  15.068  70.217  1.00  0.00    -0.101 F  
HETATM   35 CL   UNL     1      -6.504  17.600  71.095  1.00  0.00     1.991 Cl 
ENDBRANCH  26  28
ENDBRANCH  12  26
ENDBRANCH   2   3
TORSDOF 7
ENDMDL
MODEL      206
REMARK 921   NORMALIZED FREE ENERGY PREDICTED BY IDOCK:   13.88 KCAL/MOL
REMARK 922        TOTAL FREE ENERGY PREDICTED BY IDOCK:   18.64 KCAL/MOL
REMARK 923 INTER-LIGAND FREE ENERGY PREDICTED BY IDOCK:   18.30 KCAL/MOL
REMARK 924 INTRA-LIGAND FREE ENERGY PREDICTED BY IDOCK:    0.33 KCAL/MOL
REMARK 927      BINDING AFFINITY PREDICTED BY RF-SCORE:    0.00 PKD
ROOT
HETATM    1  C   UNL     1     -10.687   7.979  62.874  1.00  0.00    10.998 C  
HETATM    2  O   UNL     1     -10.859   6.569  63.010  1.00  0.00     7.423 OA 
ENDROOT
BRANCH   2   3
HETATM    3  C   UNL     1      -9.725   5.850  63.300  1.00  0.00     2.143 A  
HETATM    4  C   UNL     1      -8.927   6.321  64.347  1.00  0.00     0.677 A  
HETATM    5  N   UNL     1      -8.035   2.786  62.376  1.00  0.00    -0.066 NA 
HETATM    6  C   UNL     1      -7.748   5.635  64.677  1.00  0.00    -0.099 A  
HETATM    7  C   UNL     1      -8.243   3.933  63.027  1.00  0.00    -0.081 A  
HETATM    8  C   UNL     1      -6.936   2.113  62.701  1.00  0.00    -0.027 A  
HETATM    9  C   UNL     1      -7.388   4.428  64.022  1.00  0.00    -0.055 A  
HETATM   10  C   UNL     1      -9.377   4.646  62.681  1.00  0.00    -0.061 A  
HETATM   11  N   UNL     1      -6.030   2.491  63.599  1.00  0.00    -0.010 NA 
HETATM   12  C   UNL     1      -6.230   3.650  64.261  1.00  0.00    -0.023 A  
BRANCH   4  13
HETATM   13  N   UNL     1      -9.348   7.473  65.061  1.00  0.00     0.274 N  
HETATM   14  H   UNL     1     -10.346   7.615  65.216  1.00  0.00     0.000 HD 
HETATM   15  C   UNL     1      -8.460   8.407  65.554  1.00  0.00    -0.168 C  
HETATM   16  O   UNL     1      -7.245   8.384  65.377  1.00  0.00    -0.079 OA 
BRANCH  15  17
HETATM   17  C   UNL     1      -9.083   9.427  66.451  1.00  0.00    -0.199 C  
HETATM   18  C   UNL     1      -8.729  10.713  66.273  1.00  0.00    -0.163 C  
BRANCH  18  19
HETATM   19  C   UNL     1      -9.090  11.877  67.152  1.00  0.00    -0.178 C  
BRANCH  19  20
HETATM   20  N   UNL     1      -9.463  13.117  66.453  1.00  0.00    -0.248 NA 
HETATM   21  C   UNL     1     -12.361  13.607  66.916  1.00  0.00    -0.309 C  
HETATM   22  C   UNL     1     -10.467  12.845  65.404  1.00  0.00    -0.292 C  
HETATM   23  C   UNL     1     -11.303  13.919  67.969  1.00  0.00    -0.317 C  
HETATM   24  C   UNL     1     -11.875  12.540  65.939  1.00  0.00    -0.489 C  
HETATM   25  C   UNL     1      -9.950  14.205  67.315  1.00  0.00    -0.249 C  
ENDBRANCH  19  20
ENDBRANCH  18  19
ENDBRANCH  15  17
ENDBRANCH   4  13
BRANCH  12  26
HETATM   26  N   UNL     1      -5.200   4.139  65.096  1.00  0.00    -0.009 NA 
HETATM   27  H   UNL     1      -4.294   4.232  64.636  1.00  0.00     0.000 HD 
BRANCH  26  28
HETATM   28  C   UNL     1      -5.208   4.521  66.455  1.00  0.00    -0.009 A  
HETATM   29  C   UNL     1      -5.289   3.513  67.430  1.00  0.00    -0.016 A  
HETATM   30  C   UNL     1      -5.501   3.830  68.778  1.00  0.00    -0.013 A  
HETATM   31  C   UNL     1      -5.514   6.173  68.236  1.00  0.00    -0.008 A  
HETATM   32  C   UNL     1      -5.303   5.852  66.892  1.00  0.00    -0.005 A  
HETATM   33  C   UNL     1      -5.632   5.157  69.170  1.00  0.00    -0.008 A  
HETATM   34  F   UNL     1      -5.885   5.480  70.446  1.00  0.00    -0.017 F  
HETATM   35 CL   UNL     1      -5.636   2.561  69.934  1.00  0.00    -0.016 Cl 
ENDBRANCH  26  28
ENDBRANCH  12  26
ENDBRANCH   2   3
TORSDOF 7
ENDMDL
MODEL      207
REMARK 921   NORMALIZED FREE ENERGY PREDICTED BY IDOCK:   14.01 KCAL/MOL
REMARK 922        TOTAL FREE ENERGY PREDICTED BY IDOCK:   18.82 KCAL/MOL
REMARK 923 INTER-LIGAND FREE ENERGY PREDICTED BY IDOCK:   18.36 KCAL/MOL
REMARK 924 INTRA-LIGAND FREE ENERGY PREDICTED BY IDOCK:    0.46 KCAL/MOL
REMARK 927      BINDING AFFINITY PREDICTED BY RF-SCORE:    0.00 PKD
ROOT
HETATM    1  C   UNL     1     -10.748   7.983  62.881  1.00  0.00    10.998 C  
HETATM    2  O   UNL     1     -10.832   6.560  62.950  1.00  0.00     7.013 OA 
ENDROOT
BRANCH   2   3
HETATM    3  C   UNL     1      -9.689   5.907  63.340  1.00  0.00     2.197 A  
HETATM    4  C   UNL     1      -9.128   6.291  64.562  1.00  0.00     0.796 A  
HETATM    5  N   UNL     1      -7.544   3.167  62.348  1.00  0.00    -0.052 NA 
HETATM    6  C   UNL     1      -7.950   5.670  65.006  1.00  0.00    -0.115 A  
HETATM    7  C   UNL     1      -7.980   4.186  63.091  1.00  0.00    -0.079 A  
HETATM    8  C   UNL     1      -6.445   2.553  62.772  1.00  0.00    -0.018 A  
HETATM    9  C   UNL     1      -7.358   4.606  64.276  1.00  0.00    -0.062 A  
HETATM   10  C   UNL     1      -9.114   4.840  62.645  1.00  0.00    -0.087 A  
HETATM   11  N   UNL     1      -5.744   2.875  63.857  1.00  0.00    -0.009 NA 
HETATM   12  C   UNL     1      -6.175   3.904  64.615  1.00  0.00    -0.023 A  
BRANCH   4  13
HETATM   13  N   UNL     1      -9.784   7.287  65.332  1.00  0.00     0.401 N  
HETATM   14  H   UNL     1     -10.491   7.868  64.881  1.00  0.00     0.000 HD 
HETATM   15  C   UNL     1      -9.502   7.501  66.665  1.00  0.00    -0.191 C  
HETATM   16  O   UNL     1      -8.629   6.917  67.302  1.00  0.00    -0.120 OA 
BRANCH  15  17
HETATM   17  C   UNL     1     -10.441   8.445  67.344  1.00  0.00    -0.354 C  
HETATM   18  C   UNL     1     -10.206   8.735  68.637  1.00  0.00    -0.214 C  
BRANCH  18  19
HETATM   19  C   UNL     1     -11.099   9.514  69.561  1.00  0.00    -0.142 C  
BRANCH  19  20
HETATM   20  N   UNL     1     -10.586   9.720  70.925  1.00  0.00    -0.310 NA 
HETATM   21  C   UNL     1      -9.952   7.055  72.089  1.00  0.00    -0.179 C  
HETATM   22  C   UNL     1     -11.474   9.082  71.920  1.00  0.00    -0.370 C  
HETATM   23  C   UNL     1      -9.030   7.750  71.093  1.00  0.00    -0.146 C  
HETATM   24  C   UNL     1     -11.390   7.548  71.952  1.00  0.00    -0.298 C  
HETATM   25  C   UNL     1      -9.204   9.268  71.155  1.00  0.00    -0.155 C  
ENDBRANCH  19  20
ENDBRANCH  18  19
ENDBRANCH  15  17
ENDBRANCH   4  13
BRANCH  12  26
HETATM   26  N   UNL     1      -5.355   4.357  65.672  1.00  0.00    -0.009 NA 
HETATM   27  H   UNL     1      -4.474   4.774  65.373  1.00  0.00     0.000 HD 
BRANCH  26  28
HETATM   28  C   UNL     1      -5.544   4.331  67.071  1.00  0.00    -0.021 A  
HETATM   29  C   UNL     1      -5.471   5.545  67.776  1.00  0.00    -0.012 A  
HETATM   30  C   UNL     1      -5.451   5.564  69.176  1.00  0.00    -0.007 A  
HETATM   31  C   UNL     1      -5.617   3.165  69.223  1.00  0.00    -0.018 A  
HETATM   32  C   UNL     1      -5.637   3.151  67.826  1.00  0.00    -0.018 A  
HETATM   33  C   UNL     1      -5.503   4.373  69.892  1.00  0.00    -0.012 A  
HETATM   34  F   UNL     1      -5.434   4.366  71.230  1.00  0.00    -0.008 F  
HETATM   35 CL   UNL     1      -5.319   7.071  69.999  1.00  0.00    -0.018 Cl 
ENDBRANCH  26  28
ENDBRANCH  12  26
ENDBRANCH   2   3
TORSDOF 7
ENDMDL
MODEL      208
REMARK 921   NORMALIZED FREE ENERGY PREDICTED BY IDOCK:   15.35 KCAL/MOL
REMARK 922        TOTAL FREE ENERGY PREDICTED BY IDOCK:   20.72 KCAL/MOL
REMARK 923 INTER-LIGAND FREE ENERGY PREDICTED BY IDOCK:   21.54 KCAL/MOL
REMARK 924 INTRA-LIGAND FREE ENERGY PREDICTED BY IDOCK:   -0.82 KCAL/MOL
REMARK 927      BINDING AFFINITY PREDICTED BY RF-SCORE:    0.00 PKD
ROOT
HETATM    1  C   UNL     1     -11.767  10.015  63.342  1.00  0.00     6.209 C  
HETATM    2  O   UNL     1     -11.692  10.086  64.765  1.00  0.00     3.455 OA 
ENDROOT
BRANCH   2   3
HETATM    3  C   UNL     1     -11.075   9.030  65.389  1.00  0.00     4.439 A  
HETATM    4  C   UNL     1     -10.223   9.335  66.455  1.00  0.00    -0.228 A  
HETATM    5  N   UNL     1     -11.026   5.411  65.390  1.00  0.00     0.654 NA 
HETATM    6  C   UNL     1      -9.552   8.297  67.121  1.00  0.00    -0.234 A  
HETATM    7  C   UNL     1     -10.695   6.650  65.761  1.00  0.00     1.956 A  
HETATM    8  C   UNL     1     -10.419   4.419  66.033  1.00  0.00    -0.099 A  
HETATM    9  C   UNL     1      -9.779   6.937  66.784  1.00  0.00    -0.232 A  
HETATM   10  C   UNL     1     -11.313   7.687  65.085  1.00  0.00     9.446 A  
HETATM   11  N   UNL     1      -9.508   4.558  66.994  1.00  0.00    -0.156 NA 
HETATM   12  C   UNL     1      -9.165   5.806  67.375  1.00  0.00    -0.109 A  
BRANCH   4  13
HETATM   13  N   UNL     1     -10.080  10.691  66.848  1.00  0.00    -0.206 N  
HETATM   14  H   UNL     1     -10.826  11.124  67.392  1.00  0.00     0.000 HD 
HETATM   15  C   UNL     1      -8.972  11.446  66.524  1.00  0.00    -0.189 C  
HETATM   16  O   UNL     1      -8.041  11.061  65.820  1.00  0.00    -0.135 OA 
BRANCH  15  17
HETATM   17  C   UNL     1      -8.917  12.775  67.204  1.00  0.00    -0.214 C  
HETATM   18  C   UNL     1     -10.058  13.485  67.277  1.00  0.00    -0.235 C  
BRANCH  18  19
HETATM   19  C   UNL     1     -10.209  14.901  67.757  1.00  0.00    -0.236 C  
BRANCH  19  20
HETATM   20  N   UNL     1      -8.973  15.559  68.211  1.00  0.00    -0.182 NA 
HETATM   21  C   UNL     1      -8.654  18.091  66.681  1.00  0.00    -0.281 C  
HETATM   22  C   UNL     1      -8.002  15.672  67.103  1.00  0.00    -0.219 C  
HETATM   23  C   UNL     1      -9.619  17.963  67.854  1.00  0.00    -0.286 C  
HETATM   24  C   UNL     1      -8.364  16.731  66.050  1.00  0.00    -0.187 C  
HETATM   25  C   UNL     1      -9.153  16.882  68.830  1.00  0.00    -0.254 C  
ENDBRANCH  19  20
ENDBRANCH  18  19
ENDBRANCH  15  17
ENDBRANCH   4  13
BRANCH  12  26
HETATM   26  N   UNL     1      -8.089   5.967  68.276  1.00  0.00    -0.109 NA 
HETATM   27  H   UNL     1      -7.207   6.231  67.835  1.00  0.00     0.000 HD 
BRANCH  26  28
HETATM   28  C   UNL     1      -8.021   5.826  69.679  1.00  0.00    -0.100 A  
HETATM   29  C   UNL     1      -8.227   6.966  70.474  1.00  0.00    -0.120 A  
HETATM   30  C   UNL     1      -7.978   6.937  71.852  1.00  0.00    -0.099 A  
HETATM   31  C   UNL     1      -7.352   4.620  71.702  1.00  0.00    -0.069 A  
HETATM   32  C   UNL     1      -7.602   4.653  70.327  1.00  0.00    -0.051 A  
HETATM   33  C   UNL     1      -7.523   5.769  72.455  1.00  0.00    -0.096 A  
HETATM   34  F   UNL     1      -7.231   5.734  73.763  1.00  0.00    -0.082 F  
HETATM   35 CL   UNL     1      -8.203   8.368  72.782  1.00  0.00    -0.216 Cl 
ENDBRANCH  26  28
ENDBRANCH  12  26
ENDBRANCH   2   3
TORSDOF 7
ENDMDL
MODEL      209
REMARK 921   NORMALIZED FREE ENERGY PREDICTED BY IDOCK:   15.40 KCAL/MOL
REMARK 922        TOTAL FREE ENERGY PREDICTED BY IDOCK:   20.79 KCAL/MOL
REMARK 923 INTER-LIGAND FREE ENERGY PREDICTED BY IDOCK:   21.02 KCAL/MOL
REMARK 924 INTRA-LIGAND FREE ENERGY PREDICTED BY IDOCK:   -0.23 KCAL/MOL
REMARK 927      BINDING AFFINITY PREDICTED BY RF-SCORE:    0.00 PKD
ROOT
HETATM    1  C   UNL     1     -10.312  10.044  65.635  1.00  0.00    -0.101 C  
HETATM    2  O   UNL     1      -9.945  10.384  66.972  1.00  0.00    -0.190 OA 
ENDROOT
BRANCH   2   3
HETATM    3  C   UNL     1     -10.004  11.718  67.292  1.00  0.00    -0.192 A  
HETATM    4  C   UNL     1      -8.960  12.229  68.069  1.00  0.00    -0.190 A  
HETATM    5  N   UNL     1     -11.962  14.684  66.607  1.00  0.00    -0.332 NA 
HETATM    6  C   UNL     1      -8.975  13.583  68.440  1.00  0.00    -0.146 A  
HETATM    7  C   UNL     1     -10.987  13.945  67.140  1.00  0.00    -0.291 A  
HETATM    8  C   UNL     1     -11.971  15.973  66.928  1.00  0.00     1.074 A  
HETATM    9  C   UNL     1      -9.990  14.462  67.980  1.00  0.00    -0.225 A  
HETATM   10  C   UNL     1     -10.982  12.599  66.821  1.00  0.00    -0.296 A  
HETATM   11  N   UNL     1     -11.106  16.578  67.740  1.00  0.00    -0.242 NA 
HETATM   12  C   UNL     1     -10.117  15.839  68.285  1.00  0.00    -0.222 A  
BRANCH   4  13
HETATM   13  N   UNL     1      -7.899  11.364  68.440  1.00  0.00    -0.127 N  
HETATM   14  H   UNL     1      -7.709  11.219  69.432  1.00  0.00     0.000 HD 
HETATM   15  C   UNL     1      -7.113  10.710  67.513  1.00  0.00    -0.089 C  
HETATM   16  O   UNL     1      -7.197  10.852  66.296  1.00  0.00    -0.138 OA 
BRANCH  15  17
HETATM   17  C   UNL     1      -6.194   9.690  68.102  1.00  0.00    -0.055 C  
HETATM   18  C   UNL     1      -6.686   8.889  69.065  1.00  0.00    -0.052 C  
BRANCH  18  19
HETATM   19  C   UNL     1      -5.913   7.917  69.911  1.00  0.00    -0.023 C  
BRANCH  19  20
HETATM   20  N   UNL     1      -6.711   6.885  70.592  1.00  0.00    -0.052 NA 
HETATM   21  C   UNL     1      -6.606   7.413  73.519  1.00  0.00    -0.065 C  
HETATM   22  C   UNL     1      -5.861   6.076  71.491  1.00  0.00    -0.027 C  
HETATM   23  C   UNL     1      -7.506   8.207  72.578  1.00  0.00    -0.149 C  
HETATM   24  C   UNL     1      -5.423   6.803  72.772  1.00  0.00    -0.038 C  
HETATM   25  C   UNL     1      -7.873   7.380  71.346  1.00  0.00    -0.095 C  
ENDBRANCH  19  20
ENDBRANCH  18  19
ENDBRANCH  15  17
ENDBRANCH   4  13
BRANCH  12  26
HETATM   26  N   UNL     1      -9.295  16.431  69.270  1.00  0.00    -0.222 NA 
HETATM   27  H   UNL     1      -8.383  15.987  69.379  1.00  0.00     0.000 HD 
BRANCH  26  28
HETATM   28  C   UNL     1      -9.516  17.529  70.129  1.00  0.00     1.927 A  
HETATM   29  C   UNL     1      -8.952  18.770  69.783  1.00  0.00     0.900 A  
HETATM   30  C   UNL     1      -8.965  19.842  70.684  1.00  0.00     1.778 A  
HETATM   31  C   UNL     1     -10.141  18.493  72.291  1.00  0.00     5.367 A  
HETATM   32  C   UNL     1     -10.126  17.426  71.389  1.00  0.00     4.361 A  
HETATM   33  C   UNL     1      -9.542  19.692  71.940  1.00  0.00     3.426 A  
HETATM   34  F   UNL     1      -9.520  20.689  72.836  1.00  0.00     1.160 F  
HETATM   35 CL   UNL     1      -8.227  21.332  70.236  1.00  0.00     4.584 Cl 
ENDBRANCH  26  28
ENDBRANCH  12  26
ENDBRANCH   2   3
TORSDOF 7
ENDMDL
MODEL      210
REMARK 921   NORMALIZED FREE ENERGY PREDICTED BY IDOCK:   15.90 KCAL/MOL
REMARK 922        TOTAL FREE ENERGY PREDICTED BY IDOCK:   21.48 KCAL/MOL
REMARK 923 INTER-LIGAND FREE ENERGY PREDICTED BY IDOCK:   22.39 KCAL/MOL
REMARK 924 INTRA-LIGAND FREE ENERGY PREDICTED BY IDOCK:   -0.90 KCAL/MOL
REMARK 927      BINDING AFFINITY PREDICTED BY RF-SCORE:    0.00 PKD
ROOT
HETATM    1  C   UNL     1      -8.668  14.616  72.714  1.00  0.00     8.515 C  
HETATM    2  O   UNL     1      -7.825  14.586  71.562  1.00  0.00     2.626 OA 
ENDROOT
BRANCH   2   3
HETATM    3  C   UNL     1      -7.273  13.368  71.252  1.00  0.00     4.131 A  
HETATM    4  C   UNL     1      -6.910  13.160  69.918  1.00  0.00     0.343 A  
HETATM    5  N   UNL     1      -6.133  10.319  72.833  1.00  0.00     0.589 NA 
HETATM    6  C   UNL     1      -6.355  11.928  69.538  1.00  0.00    -0.122 A  
HETATM    7  C   UNL     1      -6.387  11.173  71.840  1.00  0.00     2.454 A  
HETATM    8  C   UNL     1      -5.582   9.160  72.490  1.00  0.00    -0.061 A  
HETATM    9  C   UNL     1      -6.084  10.915  70.495  1.00  0.00    -0.102 A  
HETATM   10  C   UNL     1      -6.976  12.375  72.190  1.00  0.00     7.456 A  
HETATM   11  N   UNL     1      -5.279   8.779  71.251  1.00  0.00    -0.032 NA 
HETATM   12  C   UNL     1      -5.533   9.635  70.239  1.00  0.00    -0.041 A  
BRANCH   4  13
HETATM   13  N   UNL     1      -7.093  14.216  68.988  1.00  0.00    -0.111 N  
HETATM   14  H   UNL     1      -6.284  14.772  68.712  1.00  0.00     0.000 HD 
HETATM   15  C   UNL     1      -8.323  14.520  68.441  1.00  0.00    -0.153 C  
HETATM   16  O   UNL     1      -9.380  13.971  68.741  1.00  0.00    -0.164 OA 
BRANCH  15  17
HETATM   17  C   UNL     1      -8.268  15.521  67.333  1.00  0.00    -0.199 C  
HETATM   18  C   UNL     1      -8.606  16.791  67.623  1.00  0.00    -0.211 C  
BRANCH  18  19
HETATM   19  C   UNL     1      -8.787  17.920  66.648  1.00  0.00    -0.268 C  
BRANCH  19  20
HETATM   20  N   UNL     1     -10.137  18.502  66.584  1.00  0.00    -0.365 NA 
HETATM   21  C   UNL     1     -10.338  20.607  68.677  1.00  0.00     0.184 C  
HETATM   22  C   UNL     1     -10.869  18.266  67.846  1.00  0.00    -0.206 C  
HETATM   23  C   UNL     1      -9.624  20.842  67.351  1.00  0.00    -0.484 C  
HETATM   24  C   UNL     1     -10.386  19.122  69.028  1.00  0.00    -0.086 C  
HETATM   25  C   UNL     1     -10.192  19.936  66.257  1.00  0.00    -0.502 C  
ENDBRANCH  19  20
ENDBRANCH  18  19
ENDBRANCH  15  17
ENDBRANCH   4  13
BRANCH  12  26
HETATM   26  N   UNL     1      -5.367   9.183  68.911  1.00  0.00    -0.037 NA 
HETATM   27  H   UNL     1      -4.426   9.309  68.538  1.00  0.00     0.000 HD 
BRANCH  26  28
HETATM   28  C   UNL     1      -6.277   8.587  68.011  1.00  0.00    -0.052 A  
HETATM   29  C   UNL     1      -7.443   8.001  68.533  1.00  0.00    -0.102 A  
HETATM   30  C   UNL     1      -8.283   7.225  67.725  1.00  0.00    -0.119 A  
HETATM   31  C   UNL     1      -6.850   7.624  65.834  1.00  0.00    -0.057 A  
HETATM   32  C   UNL     1      -6.015   8.398  66.645  1.00  0.00    -0.049 A  
HETATM   33  C   UNL     1      -7.971   7.024  66.384  1.00  0.00    -0.109 A  
HETATM   34  F   UNL     1      -8.733   6.243  65.606  1.00  0.00    -0.147 F  
HETATM   35 CL   UNL     1      -9.679   6.491  68.414  1.00  0.00    -0.131 Cl 
ENDBRANCH  26  28
ENDBRANCH  12  26
ENDBRANCH   2   3
TORSDOF 7
ENDMDL
MODEL      211
REMARK 921   NORMALIZED FREE ENERGY PREDICTED BY IDOCK:   18.29 KCAL/MOL
REMARK 922        TOTAL FREE ENERGY PREDICTED BY IDOCK:   24.85 KCAL/MOL
REMARK 923 INTER-LIGAND FREE ENERGY PREDICTED BY IDOCK:   25.16 KCAL/MOL
REMARK 924 INTRA-LIGAND FREE ENERGY PREDICTED BY IDOCK:   -0.31 KCAL/MOL
REMARK 927      BINDING AFFINITY PREDICTED BY RF-SCORE:    0.00 PKD
ROOT
HETATM    1  C   UNL     1     -13.524  10.092  65.440  1.00  0.00    16.451 C  
HETATM    2  O   UNL     1     -12.608  10.952  64.764  1.00  0.00     1.859 OA 
ENDROOT
BRANCH   2   3
HETATM    3  C   UNL     1     -12.316  12.136  65.395  1.00  0.00     0.081 A  
HETATM    4  C   UNL     1     -11.290  12.110  66.344  1.00  0.00    -0.356 A  
HETATM    5  N   UNL     1     -13.192  15.646  65.318  1.00  0.00     1.560 NA 
HETATM    6  C   UNL     1     -10.958  13.288  67.032  1.00  0.00    -0.291 A  
HETATM    7  C   UNL     1     -12.565  14.540  65.722  1.00  0.00    -0.180 A  
HETATM    8  C   UNL     1     -12.866  16.773  65.942  1.00  0.00     6.072 A  
HETATM    9  C   UNL     1     -11.591  14.522  66.730  1.00  0.00    -0.388 A  
HETATM   10  C   UNL     1     -12.912  13.361  65.085  1.00  0.00    -0.249 A  
HETATM   11  N   UNL     1     -11.986  16.884  66.936  1.00  0.00     1.786 NA 
HETATM   12  C   UNL     1     -11.348  15.771  67.352  1.00  0.00    -0.106 A  
BRANCH   4  13
HETATM   13  N   UNL     1     -10.596  10.893  66.567  1.00  0.00    -0.250 N  
HETATM   14  H   UNL     1     -10.950  10.041  66.132  1.00  0.00     0.000 HD 
HETATM   15  C   UNL     1      -9.461  10.816  67.348  1.00  0.00    -0.154 C  
HETATM   16  O   UNL     1      -8.976  11.754  67.977  1.00  0.00    -0.162 OA 
BRANCH  15  17
HETATM   17  C   UNL     1      -8.766   9.495  67.287  1.00  0.00    -0.132 C  
HETATM   18  C   UNL     1      -8.915   8.663  68.335  1.00  0.00    -0.142 C  
BRANCH  18  19
HETATM   19  C   UNL     1      -8.185   7.372  68.570  1.00  0.00    -0.125 C  
BRANCH  19  20
HETATM   20  N   UNL     1      -6.774   7.347  68.151  1.00  0.00    -0.053 NA 
HETATM   21  C   UNL     1      -5.884   4.509  68.063  1.00  0.00    -0.022 C  
HETATM   22  C   UNL     1      -5.923   6.773  69.215  1.00  0.00    -0.022 C  
HETATM   23  C   UNL     1      -6.727   5.133  66.957  1.00  0.00    -0.055 C  
HETATM   24  C   UNL     1      -6.061   5.252  69.384  1.00  0.00    -0.025 C  
HETATM   25  C   UNL     1      -6.503   6.645  66.887  1.00  0.00    -0.043 C  
ENDBRANCH  19  20
ENDBRANCH  18  19
ENDBRANCH  15  17
ENDBRANCH   4  13
BRANCH  12  26
HETATM   26  N   UNL     1     -10.537  15.848  68.506  1.00  0.00    -0.252 NA 
HETATM   27  H   UNL     1     -11.021  15.631  69.377  1.00  0.00     0.000 HD 
BRANCH  26  28
HETATM   28  C   UNL     1      -9.172  16.173  68.663  1.00  0.00    -0.220 A  
HETATM   29  C   UNL     1      -8.212  15.304  68.116  1.00  0.00    -0.141 A  
HETATM   30  C   UNL     1      -6.851  15.460  68.404  1.00  0.00    -0.115 A  
HETATM   31  C   UNL     1      -7.348  17.382  69.762  1.00  0.00     0.656 A  
HETATM   32  C   UNL     1      -8.706  17.223  69.471  1.00  0.00     0.620 A  
HETATM   33  C   UNL     1      -6.429  16.486  69.242  1.00  0.00    -0.201 A  
HETATM   34  F   UNL     1      -5.136  16.623  69.572  1.00  0.00    -0.122 F  
HETATM   35 CL   UNL     1      -5.714  14.348  67.746  1.00  0.00    -0.114 Cl 
ENDBRANCH  26  28
ENDBRANCH  12  26
ENDBRANCH   2   3
TORSDOF 7
ENDMDL
MODEL      212
REMARK 921   NORMALIZED FREE ENERGY PREDICTED BY IDOCK:   21.44 KCAL/MOL
REMARK 922        TOTAL FREE ENERGY PREDICTED BY IDOCK:   29.30 KCAL/MOL
REMARK 923 INTER-LIGAND FREE ENERGY PREDICTED BY IDOCK:   26.09 KCAL/MOL
REMARK 924 INTRA-LIGAND FREE ENERGY PREDICTED BY IDOCK:    3.21 KCAL/MOL
REMARK 927      BINDING AFFINITY PREDICTED BY RF-SCORE:    0.00 PKD
ROOT
HETATM    1  C   UNL     1      -7.664  13.927  63.326  1.00  0.00    17.398 C  
HETATM    2  O   UNL     1      -7.682  13.642  64.724  1.00  0.00     7.606 OA 
ENDROOT
BRANCH   2   3
HETATM    3  C   UNL     1      -8.429  14.491  65.503  1.00  0.00     2.670 A  
HETATM    4  C   UNL     1      -9.053  13.936  66.624  1.00  0.00    -0.190 A  
HETATM    5  N   UNL     1      -9.258  17.998  65.830  1.00  0.00    -0.501 NA 
HETATM    6  C   UNL     1      -9.843  14.753  67.448  1.00  0.00    -0.222 A  
HETATM    7  C   UNL     1      -9.264  16.697  66.124  1.00  0.00    -0.277 A  
HETATM    8  C   UNL     1      -9.979  18.786  66.620  1.00  0.00    -0.365 A  
HETATM    9  C   UNL     1      -9.959  16.148  67.211  1.00  0.00    -0.248 A  
HETATM   10  C   UNL     1      -8.527  15.869  65.295  1.00  0.00     2.576 A  
HETATM   11  N   UNL     1     -10.710  18.387  67.659  1.00  0.00    -0.409 NA 
HETATM   12  C   UNL     1     -10.724  17.073  67.963  1.00  0.00    -0.365 A  
BRANCH   4  13
HETATM   13  N   UNL     1      -8.849  12.561  66.909  1.00  0.00    -0.215 N  
HETATM   14  H   UNL     1      -9.657  11.986  67.148  1.00  0.00     0.000 HD 
HETATM   15  C   UNL     1      -7.602  11.972  66.875  1.00  0.00    -0.060 C  
HETATM   16  O   UNL     1      -6.549  12.569  66.667  1.00  0.00     0.081 OA 
BRANCH  15  17
HETATM   17  C   UNL     1      -7.626  10.483  66.998  1.00  0.00    -0.107 C  
HETATM   18  C   UNL     1      -6.445   9.845  67.083  1.00  0.00    -0.069 C  
BRANCH  18  19
HETATM   19  C   UNL     1      -6.217   8.361  67.043  1.00  0.00    -0.056 C  
BRANCH  19  20
HETATM   20  N   UNL     1      -7.416   7.524  67.213  1.00  0.00    -0.097 NA 
HETATM   21  C   UNL     1      -7.212   6.135  69.837  1.00  0.00    -0.074 C  
HETATM   22  C   UNL     1      -7.048   6.095  67.302  1.00  0.00    -0.070 C  
HETATM   23  C   UNL     1      -7.630   7.596  69.718  1.00  0.00    -0.093 C  
HETATM   24  C   UNL     1      -6.388   5.693  68.630  1.00  0.00    -0.041 C  
HETATM   25  C   UNL     1      -8.272   7.872  68.358  1.00  0.00    -0.124 C  
ENDBRANCH  19  20
ENDBRANCH  18  19
ENDBRANCH  15  17
ENDBRANCH   4  13
BRANCH  12  26
HETATM   26  N   UNL     1     -11.618  16.617  68.958  1.00  0.00    -0.157 NA 
HETATM   27  H   UNL     1     -12.213  17.345  69.354  1.00  0.00     0.000 HD 
BRANCH  26  28
HETATM   28  C   UNL     1     -11.829  15.331  69.499  1.00  0.00    -0.345 A  
HETATM   29  C   UNL     1     -11.969  14.249  68.612  1.00  0.00    -0.348 A  
HETATM   30  C   UNL     1     -12.376  12.990  69.071  1.00  0.00     0.133 A  
HETATM   31  C   UNL     1     -12.478  13.831  71.322  1.00  0.00    -0.428 A  
HETATM   32  C   UNL     1     -12.071  15.085  70.860  1.00  0.00    -0.380 A  
HETATM   33  C   UNL     1     -12.648  12.793  70.420  1.00  0.00    -0.053 A  
HETATM   34  F   UNL     1     -13.087  11.610  70.872  1.00  0.00    -0.324 F  
HETATM   35 CL   UNL     1     -12.576  11.704  67.944  1.00  0.00     1.238 Cl 
ENDBRANCH  26  28
ENDBRANCH  12  26
ENDBRANCH   2   3
TORSDOF 7
ENDMDL
MODEL      213
REMARK 921   NORMALIZED FREE ENERGY PREDICTED BY IDOCK:   29.10 KCAL/MOL
REMARK 922        TOTAL FREE ENERGY PREDICTED BY IDOCK:   40.09 KCAL/MOL
REMARK 923 INTER-LIGAND FREE ENERGY PREDICTED BY IDOCK:   40.17 KCAL/MOL
REMARK 924 INTRA-LIGAND FREE ENERGY PREDICTED BY IDOCK:   -0.08 KCAL/MOL
REMARK 927      BINDING AFFINITY PREDICTED BY RF-SCORE:    0.00 PKD
ROOT
HETATM    1  C   UNL     1     -12.483   7.669  69.302  1.00  0.00     2.804 C  
HETATM    2  O   UNL     1     -12.124   9.024  69.569  1.00  0.00     0.780 OA 
ENDROOT
BRANCH   2   3
HETATM    3  C   UNL     1     -11.413   9.664  68.584  1.00  0.00     0.291 A  
HETATM    4  C   UNL     1     -11.114  11.014  68.796  1.00  0.00    -0.239 A  
HETATM    5  N   UNL     1      -9.712   8.989  65.462  1.00  0.00    -0.128 NA 
HETATM    6  C   UNL     1     -10.403  11.724  67.815  1.00  0.00    -0.211 A  
HETATM    7  C   UNL     1     -10.161   9.710  66.491  1.00  0.00    -0.224 A  
HETATM    8  C   UNL     1      -9.013   9.645  64.541  1.00  0.00    -0.235 A  
HETATM    9  C   UNL     1      -9.914  11.081  66.647  1.00  0.00    -0.249 A  
HETATM   10  C   UNL     1     -10.903   9.035  67.445  1.00  0.00    -0.116 A  
HETATM   11  N   UNL     1      -8.741  10.948  64.554  1.00  0.00    -0.085 NA 
HETATM   12  C   UNL     1      -9.191  11.685  65.590  1.00  0.00    -0.138 A  
BRANCH   4  13
HETATM   13  N   UNL     1     -11.520  11.621  70.012  1.00  0.00    -0.484 N  
HETATM   14  H   UNL     1     -12.044  11.063  70.686  1.00  0.00     0.000 HD 
HETATM   15  C   UNL     1     -11.235  12.935  70.318  1.00  0.00     0.635 C  
HETATM   16  O   UNL     1     -10.672  13.726  69.565  1.00  0.00    -0.063 OA 
BRANCH  15  17
HETATM   17  C   UNL     1     -11.563  13.320  71.724  1.00  0.00     2.245 C  
HETATM   18  C   UNL     1     -11.258  14.571  72.116  1.00  0.00     0.947 C  
BRANCH  18  19
HETATM   19  C   UNL     1     -11.338  15.123  73.510  1.00  0.00     0.616 C  
BRANCH  19  20
HETATM   20  N   UNL     1     -10.350  16.160  73.848  1.00  0.00     6.571 NA 
HETATM   21  C   UNL     1     -10.609  18.367  71.869  1.00  0.00     3.487 C  
HETATM   22  C   UNL     1      -9.374  16.329  72.751  1.00  0.00    11.491 C  
HETATM   23  C   UNL     1     -11.580  18.197  73.032  1.00  0.00     2.474 C  
HETATM   24  C   UNL     1      -9.933  17.046  71.511  1.00  0.00     4.973 C  
HETATM   25  C   UNL     1     -10.909  17.474  74.202  1.00  0.00     3.309 C  
ENDBRANCH  19  20
ENDBRANCH  18  19
ENDBRANCH  15  17
ENDBRANCH   4  13
BRANCH  12  26
HETATM   26  N   UNL     1      -9.048  13.090  65.534  1.00  0.00    -0.109 NA 
HETATM   27  H   UNL     1      -8.185  13.442  65.949  1.00  0.00     0.000 HD 
BRANCH  26  28
HETATM   28  C   UNL     1      -9.892  14.090  65.005  1.00  0.00    -0.039 A  
HETATM   29  C   UNL     1      -9.597  15.433  65.296  1.00  0.00    -0.026 A  
HETATM   30  C   UNL     1     -10.499  16.455  64.972  1.00  0.00    -0.080 A  
HETATM   31  C   UNL     1     -12.002  14.840  64.015  1.00  0.00    -0.153 A  
HETATM   32  C   UNL     1     -11.099  13.824  64.340  1.00  0.00    -0.356 A  
HETATM   33  C   UNL     1     -11.705  16.150  64.351  1.00  0.00    -0.059 A  
HETATM   34  F   UNL     1     -12.604  17.106  64.078  1.00  0.00     2.161 F  
HETATM   35 CL   UNL     1     -10.117  18.082  65.385  1.00  0.00     0.382 Cl 
ENDBRANCH  26  28
ENDBRANCH  12  26
ENDBRANCH   2   3
TORSDOF 7
ENDMDL
MODEL      214
REMARK 921   NORMALIZED FREE ENERGY PREDICTED BY IDOCK:   41.78 KCAL/MOL
REMARK 922        TOTAL FREE ENERGY PREDICTED BY IDOCK:   57.96 KCAL/MOL
REMARK 923 INTER-LIGAND FREE ENERGY PREDICTED BY IDOCK:   56.59 KCAL/MOL
REMARK 924 INTRA-LIGAND FREE ENERGY PREDICTED BY IDOCK:    1.37 KCAL/MOL
REMARK 927      BINDING AFFINITY PREDICTED BY RF-SCORE:    0.00 PKD
ROOT
HETATM    1  C   UNL     1      -7.081  17.118  65.910  1.00  0.00     0.092 C  
HETATM    2  O   UNL     1      -6.444  15.883  66.231  1.00  0.00     0.434 OA 
ENDROOT
BRANCH   2   3
HETATM    3  C   UNL     1      -6.761  15.340  67.452  1.00  0.00    -0.123 A  
HETATM    4  C   UNL     1      -7.791  14.395  67.476  1.00  0.00    -0.190 A  
HETATM    5  N   UNL     1      -5.643  15.332  70.894  1.00  0.00    -0.092 NA 
HETATM    6  C   UNL     1      -8.170  13.819  68.699  1.00  0.00    -0.077 A  
HETATM    7  C   UNL     1      -6.398  15.012  69.841  1.00  0.00    -0.162 A  
HETATM    8  C   UNL     1      -5.973  14.771  72.051  1.00  0.00     0.447 A  
HETATM    9  C   UNL     1      -7.477  14.118  69.901  1.00  0.00     0.433 A  
HETATM   10  C   UNL     1      -6.068  15.606  68.636  1.00  0.00    -0.100 A  
HETATM   11  N   UNL     1      -6.992  13.937  72.249  1.00  0.00     2.567 NA 
HETATM   12  C   UNL     1      -7.763  13.608  71.191  1.00  0.00     5.072 A  
BRANCH   4  13
HETATM   13  N   UNL     1      -8.411  14.029  66.253  1.00  0.00     0.081 N  
HETATM   14  H   UNL     1      -8.741  14.767  65.631  1.00  0.00     0.000 HD 
HETATM   15  C   UNL     1      -8.584  12.714  65.872  1.00  0.00     0.751 C  
HETATM   16  O   UNL     1      -8.291  11.739  66.559  1.00  0.00    -0.164 OA 
BRANCH  15  17
HETATM   17  C   UNL     1      -9.063  12.544  64.467  1.00  0.00     1.014 C  
HETATM   18  C   UNL     1     -10.381  12.356  64.276  1.00  0.00    -0.388 C  
BRANCH  18  19
HETATM   19  C   UNL     1     -11.063  11.997  62.986  1.00  0.00     0.011 C  
BRANCH  19  20
HETATM   20  N   UNL     1     -11.794  10.720  62.980  1.00  0.00     1.588 NA 
HETATM   21  C   UNL     1     -10.376   8.833  64.792  1.00  0.00     3.446 C  
HETATM   22  C   UNL     1     -10.944   9.633  62.449  1.00  0.00     4.740 C  
HETATM   23  C   UNL     1     -11.290   9.935  65.316  1.00  0.00     2.952 C  
HETATM   24  C   UNL     1      -9.834   9.172  63.407  1.00  0.00     2.151 C  
HETATM   25  C   UNL     1     -12.350  10.305  64.278  1.00  0.00     6.461 C  
ENDBRANCH  19  20
ENDBRANCH  18  19
ENDBRANCH  15  17
ENDBRANCH   4  13
BRANCH  12  26
HETATM   26  N   UNL     1      -8.937  12.856  71.417  1.00  0.00    12.788 NA 
HETATM   27  H   UNL     1      -8.885  12.222  72.214  1.00  0.00     0.000 HD 
BRANCH  26  28
HETATM   28  C   UNL     1     -10.171  12.830  70.730  1.00  0.00     5.500 A  
HETATM   29  C   UNL     1     -11.352  12.983  71.477  1.00  0.00     3.081 A  
HETATM   30  C   UNL     1     -12.606  12.769  70.891  1.00  0.00    -0.255 A  
HETATM   31  C   UNL     1     -11.553  12.283  68.785  1.00  0.00    -0.380 A  
HETATM   32  C   UNL     1     -10.303  12.498  69.372  1.00  0.00     0.442 A  
HETATM   33  C   UNL     1     -12.699  12.401  69.554  1.00  0.00     0.710 A  
HETATM   34  F   UNL     1     -13.886  12.142  68.987  1.00  0.00     3.866 F  
HETATM   35 CL   UNL     1     -14.026  12.927  71.853  1.00  0.00    -0.104 Cl 
ENDBRANCH  26  28
ENDBRANCH  12  26
ENDBRANCH   2   3
TORSDOF 7
ENDMDL
