MODEL        1
REMARK 921   NORMALIZED FREE ENERGY PREDICTED BY IDOCK:   -5.63 KCAL/MOL
REMARK 922        TOTAL FREE ENERGY PREDICTED BY IDOCK:   -8.75 KCAL/MOL
REMARK 923 INTER-LIGAND FREE ENERGY PREDICTED BY IDOCK:   -7.61 KCAL/MOL
REMARK 924 INTRA-LIGAND FREE ENERGY PREDICTED BY IDOCK:   -1.14 KCAL/MOL
REMARK 927      BINDING AFFINITY PREDICTED BY RF-SCORE:    0.00 PKD
ROOT
HETATM    1  C   UNL     1     -10.733   3.030  73.453  1.00  0.00    -0.295 C  
HETATM    2  C   UNL     1      -9.306   3.504  73.155  1.00  0.00    -0.101 C  
ENDROOT
BRANCH   2   3
HETATM    3  N   UNL     1      -9.162   4.964  73.072  1.00  0.00    -0.120 NA 
BRANCH   3   4
HETATM    4  C   UNL     1      -8.234   5.398  72.005  1.00  0.00    -0.115 C  
HETATM    5  C   UNL     1      -8.025   4.415  70.856  1.00  0.00    -0.068 C  
ENDBRANCH   3   4
BRANCH   3   6
HETATM    6  C   UNL     1     -10.489   5.621  73.049  1.00  0.00    -0.216 C  
BRANCH   6   7
HETATM    7  C   UNL     1     -10.355   6.965  72.372  1.00  0.00    -0.202 C  
BRANCH   7   8
HETATM    8  S   UNL     1     -11.299   7.250  70.884  1.00  0.00    -0.289 S  
HETATM    9  O   UNL     1     -11.365   5.968  70.157  1.00  0.00    -0.372 OA 
HETATM   10  O   UNL     1     -12.478   8.007  71.206  1.00  0.00    -0.304 OA 
BRANCH   8  11
HETATM   11  C   UNL     1     -10.133   8.272  70.069  1.00  0.00    -0.196 C  
HETATM   12  C   UNL     1      -9.647   9.414  70.960  1.00  0.00    -0.272 C  
HETATM   13  C   UNL     1      -9.436  10.590  70.057  1.00  0.00     0.391 C  
HETATM   14  N   UNL     1     -10.358  10.399  68.947  1.00  0.00    -0.196 N  
HETATM   15  C   UNL     1     -10.494   8.779  68.639  1.00  0.00    -0.183 C  
HETATM   16  C   UNL     1      -9.439   7.709  67.714  1.00  0.00    -0.142 C  
HETATM   17  O   UNL     1      -9.866   7.021  66.574  1.00  0.00    -0.175 OA 
HETATM   18  O   UNL     1      -8.293   7.508  68.146  1.00  0.00    -0.123 OA 
HETATM   19  C   UNL     1      -9.070   6.078  65.506  1.00  0.00     0.040 C  
HETATM   20  C   UNL     1      -7.762   6.587  64.632  1.00  0.00    -0.108 C  
HETATM   21  C   UNL     1      -9.165   4.485  65.486  1.00  0.00    -0.152 C  
HETATM   22  C   UNL     1      -9.023   3.689  66.770  1.00  0.00    -0.153 C  
HETATM   23  C   UNL     1     -10.364   3.934  64.674  1.00  0.00    -0.213 C  
HETATM   24  C   UNL     1      -7.178   5.683  63.527  1.00  0.00    -0.053 C  
HETATM   25  C   UNL     1      -6.532   7.231  65.230  1.00  0.00    -0.044 C  
HETATM   26  C   UNL     1      -6.193   7.286  66.518  1.00  0.00    -0.040 C  
HETATM   27  C   UNL     1      -5.997   8.675  67.054  1.00  0.00    -0.053 C  
HETATM   28  O   UNL     1      -5.207   8.914  67.933  1.00  0.00    -0.034 OA 
HETATM   29  N   UNL     1      -6.949   9.615  66.638  1.00  0.00    -0.084 N  
HETATM   30  C   UNL     1      -7.895   9.529  65.505  1.00  0.00    -0.108 C  
HETATM   31  H   UNL     1      -6.995  10.472  67.189  1.00  0.00     0.000 HD 
HETATM   32  C   UNL     1      -8.916  10.543  65.572  1.00  0.00    -0.203 C  
HETATM   33  C   UNL     1      -9.991  10.950  64.915  1.00  0.00    -0.361 C  
HETATM   34  C   UNL     1     -10.598  12.217  65.286  1.00  0.00    -0.319 C  
HETATM   35  C   UNL     1     -10.029  13.120  66.114  1.00  0.00    -0.291 C  
HETATM   36  C   UNL     1     -11.898  12.602  64.613  1.00  0.00    -0.437 C  
HETATM   37  C   UNL     1      -8.801  13.136  67.021  1.00  0.00    -0.210 C  
HETATM   38  C   UNL     1      -7.695  14.099  66.850  1.00  0.00     0.328 C  
HETATM   39  O   UNL     1      -8.423  12.073  67.874  1.00  0.00    -0.143 OA 
HETATM   40  H   UNL     1      -7.659  12.082  68.438  1.00  0.00     0.000 HD 
HETATM   41  C   UNL     1      -8.283  15.487  67.033  1.00  0.00    -0.240 C  
HETATM   42  O   UNL     1      -7.812  16.369  66.297  1.00  0.00    -0.296 OA 
HETATM   43  C   UNL     1      -9.361  15.891  68.125  1.00  0.00    -0.198 C  
HETATM   44  C   UNL     1     -10.355  14.880  68.869  1.00  0.00    -0.244 A  
HETATM   45  N   UNL     1     -10.157  13.678  69.446  1.00  0.00     0.324 NA 
HETATM   46  C   UNL     1     -11.314  12.901  69.139  1.00  0.00    -0.273 A  
HETATM   47  C   UNL     1     -12.280  13.836  68.780  1.00  0.00    -0.186 A  
HETATM   48  C   UNL     1     -11.493  11.349  68.942  1.00  0.00    -0.298 C  
HETATM   49  O   UNL     1     -11.685  15.061  68.560  1.00  0.00    -0.320 OA 
HETATM   50  O   UNL     1     -12.610  10.918  68.648  1.00  0.00    -0.255 OA 
ENDBRANCH   8  11
ENDBRANCH   7   8
ENDBRANCH   6   7
ENDBRANCH   3   6
ENDBRANCH   2   3
TORSDOF 6
ENDMDL
MODEL        2
REMARK 921   NORMALIZED FREE ENERGY PREDICTED BY IDOCK:   -5.46 KCAL/MOL
REMARK 922        TOTAL FREE ENERGY PREDICTED BY IDOCK:   -8.52 KCAL/MOL
REMARK 923 INTER-LIGAND FREE ENERGY PREDICTED BY IDOCK:   -7.65 KCAL/MOL
REMARK 924 INTRA-LIGAND FREE ENERGY PREDICTED BY IDOCK:   -0.86 KCAL/MOL
REMARK 927      BINDING AFFINITY PREDICTED BY RF-SCORE:    0.00 PKD
ROOT
HETATM    1  C   UNL     1      -8.272   7.799  62.492  1.00  0.00    -0.112 C  
HETATM    2  C   UNL     1      -8.102   6.642  63.484  1.00  0.00    -0.002 C  
ENDROOT
BRANCH   2   3
HETATM    3  N   UNL     1      -6.961   5.763  63.194  1.00  0.00    -0.042 NA 
BRANCH   3   4
HETATM    4  C   UNL     1      -5.758   6.498  62.744  1.00  0.00    -0.027 C  
HETATM    5  C   UNL     1      -5.157   7.478  63.748  1.00  0.00    -0.033 C  
ENDBRANCH   3   4
BRANCH   3   6
HETATM    6  C   UNL     1      -6.731   4.817  64.310  1.00  0.00    -0.044 C  
BRANCH   6   7
HETATM    7  C   UNL     1      -7.513   5.285  65.515  1.00  0.00    -0.077 C  
BRANCH   7   8
HETATM    8  S   UNL     1      -8.750   4.188  66.188  1.00  0.00    -0.118 S  
HETATM    9  O   UNL     1      -9.647   3.811  65.079  1.00  0.00    -0.159 OA 
HETATM   10  O   UNL     1      -8.114   3.208  67.022  1.00  0.00    -0.078 OA 
BRANCH   8  11
HETATM   11  C   UNL     1      -9.584   5.369  67.177  1.00  0.00    -0.137 C  
HETATM   12  C   UNL     1     -10.807   5.950  66.471  1.00  0.00    -0.214 C  
HETATM   13  C   UNL     1     -10.895   7.384  66.894  1.00  0.00    -0.153 C  
HETATM   14  N   UNL     1      -9.529   7.783  67.200  1.00  0.00    -0.147 N  
HETATM   15  C   UNL     1      -8.725   6.487  67.843  1.00  0.00    -0.116 C  
HETATM   16  C   UNL     1      -8.723   5.862  69.493  1.00  0.00    -0.116 C  
HETATM   17  O   UNL     1      -7.566   5.792  70.276  1.00  0.00    -0.085 OA 
HETATM   18  O   UNL     1      -9.783   5.397  69.940  1.00  0.00    -0.158 OA 
HETATM   19  C   UNL     1      -7.327   5.364  71.833  1.00  0.00    -0.091 C  
HETATM   20  C   UNL     1      -8.073   6.101  73.111  1.00  0.00    -0.111 C  
HETATM   21  C   UNL     1      -6.714   3.960  72.283  1.00  0.00    -0.029 C  
HETATM   22  C   UNL     1      -7.229   2.666  71.680  1.00  0.00    -0.036 C  
HETATM   23  C   UNL     1      -5.165   3.928  72.313  1.00  0.00     0.000 C  
HETATM   24  C   UNL     1      -7.660   5.741  74.553  1.00  0.00    -0.094 C  
HETATM   25  C   UNL     1      -9.565   6.309  73.226  1.00  0.00    -0.153 C  
HETATM   26  C   UNL     1     -10.520   5.756  72.477  1.00  0.00    -0.246 C  
HETATM   27  C   UNL     1     -11.412   6.739  71.775  1.00  0.00    -0.281 C  
HETATM   28  O   UNL     1     -12.570   6.496  71.543  1.00  0.00    -0.292 OA 
HETATM   29  N   UNL     1     -10.757   7.839  71.207  1.00  0.00    -0.227 N  
HETATM   30  C   UNL     1      -9.395   8.344  71.482  1.00  0.00    -0.200 C  
HETATM   31  H   UNL     1     -11.291   8.362  70.512  1.00  0.00     0.000 HD 
HETATM   32  C   UNL     1      -8.961   9.301  70.496  1.00  0.00    -0.296 C  
HETATM   33  C   UNL     1      -7.908  10.044  70.192  1.00  0.00    -0.141 C  
HETATM   34  C   UNL     1      -8.042  11.056  69.160  1.00  0.00    -0.066 C  
HETATM   35  C   UNL     1      -9.219  11.446  68.624  1.00  0.00    -0.149 C  
HETATM   36  C   UNL     1      -6.796  11.804  68.738  1.00  0.00    -0.095 C  
HETATM   37  C   UNL     1     -10.663  10.957  68.707  1.00  0.00    -0.207 C  
HETATM   38  C   UNL     1     -11.764  11.802  69.208  1.00  0.00    -0.398 C  
HETATM   39  O   UNL     1     -11.051   9.598  68.644  1.00  0.00    -0.424 OA 
HETATM   40  H   UNL     1     -11.949   9.293  68.696  1.00  0.00     0.000 HD 
HETATM   41  C   UNL     1     -11.855  13.005  68.286  1.00  0.00    -0.343 C  
HETATM   42  O   UNL     1     -12.137  14.081  68.837  1.00  0.00    -0.351 OA 
HETATM   43  C   UNL     1     -11.706  12.964  66.707  1.00  0.00    -0.445 C  
HETATM   44  C   UNL     1     -10.974  11.812  65.871  1.00  0.00    -0.304 A  
HETATM   45  N   UNL     1     -11.032  10.467  65.943  1.00  0.00     0.109 NA 
HETATM   46  C   UNL     1      -9.704  10.005  65.701  1.00  0.00    -0.272 A  
HETATM   47  C   UNL     1      -9.065  11.076  65.084  1.00  0.00    -0.181 A  
HETATM   48  C   UNL     1      -8.946   8.724  66.217  1.00  0.00    -0.173 C  
HETATM   49  O   UNL     1      -9.826  12.218  65.228  1.00  0.00    -0.250 OA 
HETATM   50  O   UNL     1      -7.771   8.561  65.882  1.00  0.00    -0.093 OA 
ENDBRANCH   8  11
ENDBRANCH   7   8
ENDBRANCH   6   7
ENDBRANCH   3   6
ENDBRANCH   2   3
TORSDOF 6
ENDMDL
MODEL        3
REMARK 921   NORMALIZED FREE ENERGY PREDICTED BY IDOCK:   -5.00 KCAL/MOL
REMARK 922        TOTAL FREE ENERGY PREDICTED BY IDOCK:   -7.90 KCAL/MOL
REMARK 923 INTER-LIGAND FREE ENERGY PREDICTED BY IDOCK:   -6.92 KCAL/MOL
REMARK 924 INTRA-LIGAND FREE ENERGY PREDICTED BY IDOCK:   -0.98 KCAL/MOL
REMARK 927      BINDING AFFINITY PREDICTED BY RF-SCORE:    0.00 PKD
ROOT
HETATM    1  C   UNL     1      -7.055   1.556  64.071  1.00  0.00    -0.035 C  
HETATM    2  C   UNL     1      -8.258   1.612  63.121  1.00  0.00    -0.065 C  
ENDROOT
BRANCH   2   3
HETATM    3  N   UNL     1      -8.974   2.895  63.131  1.00  0.00    -0.092 NA 
BRANCH   3   4
HETATM    4  C   UNL     1     -10.287   2.835  62.454  1.00  0.00    -0.114 C  
HETATM    5  C   UNL     1     -11.199   1.680  62.860  1.00  0.00    -0.254 C  
ENDBRANCH   3   4
BRANCH   3   6
HETATM    6  C   UNL     1      -9.002   3.469  64.497  1.00  0.00    -0.121 C  
BRANCH   6   7
HETATM    7  C   UNL     1      -9.283   4.949  64.396  1.00  0.00     0.023 C  
BRANCH   7   8
HETATM    8  S   UNL     1      -7.978   6.011  63.802  1.00  0.00    -0.087 S  
HETATM    9  O   UNL     1      -6.839   5.143  63.444  1.00  0.00    -0.039 OA 
HETATM   10  O   UNL     1      -8.525   6.970  62.883  1.00  0.00     0.058 OA 
BRANCH   8  11
HETATM   11  C   UNL     1      -7.604   6.786  65.327  1.00  0.00    -0.092 C  
HETATM   12  C   UNL     1      -6.528   6.033  66.107  1.00  0.00    -0.046 C  
HETATM   13  C   UNL     1      -6.884   6.172  67.555  1.00  0.00    -0.063 C  
HETATM   14  N   UNL     1      -8.330   6.335  67.586  1.00  0.00    -0.116 N  
HETATM   15  C   UNL     1      -8.800   7.184  66.245  1.00  0.00    -0.148 C  
HETATM   16  C   UNL     1      -8.789   8.923  65.944  1.00  0.00    -0.179 C  
HETATM   17  O   UNL     1      -9.951   9.654  65.678  1.00  0.00    -0.305 OA 
HETATM   18  O   UNL     1      -7.689   9.496  65.893  1.00  0.00    -0.098 OA 
HETATM   19  C   UNL     1     -10.211  11.253  65.477  1.00  0.00    -0.260 C  
HETATM   20  C   UNL     1      -9.827  12.394  66.610  1.00  0.00    -0.231 C  
HETATM   21  C   UNL     1     -10.451  11.941  64.056  1.00  0.00    -0.417 C  
HETATM   22  C   UNL     1      -9.540  11.624  62.884  1.00  0.00    -0.223 C  
HETATM   23  C   UNL     1     -11.924  11.911  63.581  1.00  0.00    -0.578 C  
HETATM   24  C   UNL     1     -10.261  13.859  66.403  1.00  0.00    -0.292 C  
HETATM   25  C   UNL     1      -8.469  12.530  67.261  1.00  0.00    -0.185 C  
HETATM   26  C   UNL     1      -7.331  11.944  66.888  1.00  0.00    -0.075 C  
HETATM   27  C   UNL     1      -6.683  11.103  67.950  1.00  0.00    -0.063 C  
HETATM   28  O   UNL     1      -5.487  10.972  68.018  1.00  0.00    -0.043 OA 
HETATM   29  N   UNL     1      -7.560  10.304  68.695  1.00  0.00    -0.085 N  
HETATM   30  C   UNL     1      -9.028  10.417  68.821  1.00  0.00    -0.157 C  
HETATM   31  H   UNL     1      -7.127   9.543  69.221  1.00  0.00     0.000 HD 
HETATM   32  C   UNL     1      -9.613   9.246  69.423  1.00  0.00    -0.170 C  
HETATM   33  C   UNL     1     -10.797   8.758  69.762  1.00  0.00    -0.196 C  
HETATM   34  C   UNL     1     -10.851   7.555  70.573  1.00  0.00    -0.252 C  
HETATM   35  C   UNL     1      -9.783   7.004  71.190  1.00  0.00    -0.173 C  
HETATM   36  C   UNL     1     -12.208   6.943  70.841  1.00  0.00    -0.404 C  
HETATM   37  C   UNL     1      -8.274   7.243  71.164  1.00  0.00    -0.107 C  
HETATM   38  C   UNL     1      -7.505   7.616  72.368  1.00  0.00    -0.089 C  
HETATM   39  O   UNL     1      -7.520   7.463  69.988  1.00  0.00    -0.081 OA 
HETATM   40  H   UNL     1      -6.582   7.611  69.972  1.00  0.00     0.000 HD 
HETATM   41  C   UNL     1      -7.663   6.482  73.365  1.00  0.00    -0.092 C  
HETATM   42  O   UNL     1      -7.746   6.824  74.555  1.00  0.00    -0.111 OA 
HETATM   43  C   UNL     1      -7.641   4.936  73.008  1.00  0.00    -0.092 C  
HETATM   44  C   UNL     1      -7.939   4.310  71.565  1.00  0.00    -0.082 A  
HETATM   45  N   UNL     1      -7.518   4.645  70.329  1.00  0.00    -0.050 NA 
HETATM   46  C   UNL     1      -8.636   4.442  69.466  1.00  0.00    -0.076 A  
HETATM   47  C   UNL     1      -9.483   3.601  70.180  1.00  0.00    -0.187 A  
HETATM   48  C   UNL     1      -9.053   5.164  68.130  1.00  0.00    -0.112 C  
HETATM   49  O   UNL     1      -9.088   3.552  71.501  1.00  0.00    -0.098 OA 
HETATM   50  O   UNL     1     -10.099   4.818  67.576  1.00  0.00    -0.162 OA 
ENDBRANCH   8  11
ENDBRANCH   7   8
ENDBRANCH   6   7
ENDBRANCH   3   6
ENDBRANCH   2   3
TORSDOF 6
ENDMDL
MODEL        4
REMARK 921   NORMALIZED FREE ENERGY PREDICTED BY IDOCK:   -4.99 KCAL/MOL
REMARK 922        TOTAL FREE ENERGY PREDICTED BY IDOCK:   -7.89 KCAL/MOL
REMARK 923 INTER-LIGAND FREE ENERGY PREDICTED BY IDOCK:   -6.95 KCAL/MOL
REMARK 924 INTRA-LIGAND FREE ENERGY PREDICTED BY IDOCK:   -0.94 KCAL/MOL
REMARK 927      BINDING AFFINITY PREDICTED BY RF-SCORE:    0.00 PKD
ROOT
HETATM    1  C   UNL     1     -11.829  14.777  66.597  1.00  0.00    -0.255 C  
HETATM    2  C   UNL     1     -11.522  13.339  67.031  1.00  0.00    -0.339 C  
ENDROOT
BRANCH   2   3
HETATM    3  N   UNL     1     -11.932  12.317  66.060  1.00  0.00    -0.609 NA 
BRANCH   3   4
HETATM    4  C   UNL     1     -12.564  12.883  64.848  1.00  0.00    -0.458 C  
HETATM    5  C   UNL     1     -12.302  12.135  63.544  1.00  0.00    -0.682 C  
ENDBRANCH   3   4
BRANCH   3   6
HETATM    6  C   UNL     1     -10.826  11.366  65.800  1.00  0.00    -0.230 C  
BRANCH   6   7
HETATM    7  C   UNL     1     -10.439  10.702  67.101  1.00  0.00    -0.245 C  
BRANCH   7   8
HETATM    8  S   UNL     1      -8.916  11.211  67.879  1.00  0.00    -0.148 S  
HETATM    9  O   UNL     1      -8.124  11.928  66.861  1.00  0.00    -0.165 OA 
HETATM   10  O   UNL     1      -9.206  11.785  69.164  1.00  0.00     0.147 OA 
BRANCH   8  11
HETATM   11  C   UNL     1      -8.219   9.616  68.077  1.00  0.00    -0.110 C  
HETATM   12  C   UNL     1      -6.800   9.535  67.521  1.00  0.00    -0.083 C  
HETATM   13  C   UNL     1      -6.651   8.160  66.947  1.00  0.00    -0.057 C  
HETATM   14  N   UNL     1      -7.993   7.755  66.555  1.00  0.00    -0.104 N  
HETATM   15  C   UNL     1      -9.078   8.394  67.629  1.00  0.00    -0.135 C  
HETATM   16  C   UNL     1      -9.564   7.821  69.225  1.00  0.00    -0.159 C  
HETATM   17  O   UNL     1     -10.878   7.456  69.533  1.00  0.00    -0.236 OA 
HETATM   18  O   UNL     1      -8.709   7.818  70.126  1.00  0.00    -0.138 OA 
HETATM   19  C   UNL     1     -11.544   6.807  70.875  1.00  0.00    -0.353 C  
HETATM   20  C   UNL     1     -11.057   5.374  71.539  1.00  0.00    -0.095 C  
HETATM   21  C   UNL     1     -12.412   7.640  71.926  1.00  0.00    -0.338 C  
HETATM   22  C   UNL     1     -11.920   8.980  72.439  1.00  0.00    -0.255 C  
HETATM   23  C   UNL     1     -13.912   7.754  71.557  1.00  0.00    -0.468 C  
HETATM   24  C   UNL     1     -11.854   4.759  72.708  1.00  0.00     0.051 C  
HETATM   25  C   UNL     1      -9.626   5.036  71.888  1.00  0.00    -0.199 C  
HETATM   26  C   UNL     1      -8.587   5.871  71.944  1.00  0.00    -0.137 C  
HETATM   27  C   UNL     1      -7.439   5.502  71.049  1.00  0.00    -0.089 C  
HETATM   28  O   UNL     1      -6.298   5.756  71.341  1.00  0.00    -0.040 OA 
HETATM   29  N   UNL     1      -7.799   5.068  69.767  1.00  0.00    -0.070 N  
HETATM   30  C   UNL     1      -9.116   4.601  69.287  1.00  0.00    -0.109 C  
HETATM   31  H   UNL     1      -7.051   5.074  69.072  1.00  0.00     0.000 HD 
HETATM   32  C   UNL     1      -9.176   4.527  67.850  1.00  0.00    -0.162 C  
HETATM   33  C   UNL     1     -10.026   4.225  66.880  1.00  0.00    -0.178 C  
HETATM   34  C   UNL     1      -9.522   4.099  65.524  1.00  0.00    -0.176 C  
HETATM   35  C   UNL     1      -8.211   4.059  65.199  1.00  0.00    -0.101 C  
HETATM   36  C   UNL     1     -10.527   3.882  64.413  1.00  0.00    -0.238 C  
HETATM   37  C   UNL     1      -6.901   4.280  65.953  1.00  0.00    -0.057 C  
HETATM   38  C   UNL     1      -5.866   3.234  66.077  1.00  0.00    -0.023 C  
HETATM   39  O   UNL     1      -6.673   5.334  66.867  1.00  0.00    -0.058 OA 
HETATM   40  H   UNL     1      -5.858   5.472  67.336  1.00  0.00     0.000 HD 
HETATM   41  C   UNL     1      -5.408   2.894  64.670  1.00  0.00    -0.009 C  
HETATM   42  O   UNL     1      -5.147   1.698  64.467  1.00  0.00    -0.004 OA 
HETATM   43  C   UNL     1      -5.164   3.944  63.505  1.00  0.00    -0.008 C  
HETATM   44  C   UNL     1      -5.797   5.412  63.428  1.00  0.00    -0.017 A  
HETATM   45  N   UNL     1      -5.919   6.393  64.345  1.00  0.00    -0.022 NA 
HETATM   46  C   UNL     1      -7.191   6.995  64.107  1.00  0.00    -0.069 A  
HETATM   47  C   UNL     1      -7.525   6.613  62.812  1.00  0.00    -0.078 A  
HETATM   48  C   UNL     1      -8.198   7.702  65.091  1.00  0.00    -0.128 C  
HETATM   49  O   UNL     1      -6.694   5.591  62.398  1.00  0.00    -0.028 OA 
HETATM   50  O   UNL     1      -9.265   8.122  64.638  1.00  0.00     0.514 OA 
ENDBRANCH   8  11
ENDBRANCH   7   8
ENDBRANCH   6   7
ENDBRANCH   3   6
ENDBRANCH   2   3
TORSDOF 6
ENDMDL
MODEL        5
REMARK 921   NORMALIZED FREE ENERGY PREDICTED BY IDOCK:   -4.75 KCAL/MOL
REMARK 922        TOTAL FREE ENERGY PREDICTED BY IDOCK:   -7.56 KCAL/MOL
REMARK 923 INTER-LIGAND FREE ENERGY PREDICTED BY IDOCK:   -6.55 KCAL/MOL
REMARK 924 INTRA-LIGAND FREE ENERGY PREDICTED BY IDOCK:   -1.01 KCAL/MOL
REMARK 927      BINDING AFFINITY PREDICTED BY RF-SCORE:    0.00 PKD
ROOT
HETATM    1  C   UNL     1     -13.346  14.960  72.974  1.00  0.00    -0.556 C  
HETATM    2  C   UNL     1     -13.819  13.782  72.114  1.00  0.00    -0.554 C  
ENDROOT
BRANCH   2   3
HETATM    3  N   UNL     1     -13.062  13.604  70.868  1.00  0.00    -0.177 NA 
BRANCH   3   4
HETATM    4  C   UNL     1     -12.548  14.874  70.311  1.00  0.00    -0.313 C  
HETATM    5  C   UNL     1     -11.037  15.075  70.383  1.00  0.00    -0.263 C  
ENDBRANCH   3   4
BRANCH   3   6
HETATM    6  C   UNL     1     -12.049  12.534  71.018  1.00  0.00     0.085 C  
BRANCH   6   7
HETATM    7  C   UNL     1     -12.504  11.321  70.241  1.00  0.00    -0.250 C  
BRANCH   7   8
HETATM    8  S   UNL     1     -13.020   9.882  71.164  1.00  0.00    -0.354 S  
HETATM    9  O   UNL     1     -12.605  10.090  72.564  1.00  0.00    -0.072 OA 
HETATM   10  O   UNL     1     -14.372   9.549  70.810  1.00  0.00     0.167 OA 
BRANCH   8  11
HETATM   11  C   UNL     1     -11.910   8.738  70.438  1.00  0.00     0.058 C  
HETATM   12  C   UNL     1     -12.449   7.310  70.476  1.00  0.00     0.006 C  
HETATM   13  C   UNL     1     -11.265   6.418  70.685  1.00  0.00    -0.339 C  
HETATM   14  N   UNL     1     -10.291   7.228  71.403  1.00  0.00    -0.199 N  
HETATM   15  C   UNL     1     -10.418   8.796  70.890  1.00  0.00    -0.221 C  
HETATM   16  C   UNL     1      -9.746   9.577  69.457  1.00  0.00    -0.190 C  
HETATM   17  O   UNL     1      -8.845  10.644  69.527  1.00  0.00    -0.099 OA 
HETATM   18  O   UNL     1     -10.155   9.204  68.346  1.00  0.00    -0.182 OA 
HETATM   19  C   UNL     1      -8.016  11.449  68.374  1.00  0.00    -0.142 C  
HETATM   20  C   UNL     1      -6.974  10.721  67.317  1.00  0.00    -0.086 C  
HETATM   21  C   UNL     1      -8.413  12.905  67.849  1.00  0.00    -0.181 C  
HETATM   22  C   UNL     1      -9.849  13.225  67.481  1.00  0.00    -0.220 C  
HETATM   23  C   UNL     1      -7.834  14.062  68.700  1.00  0.00    -0.130 C  
HETATM   24  C   UNL     1      -6.111  11.583  66.373  1.00  0.00    -0.022 C  
HETATM   25  C   UNL     1      -7.321   9.524  66.463  1.00  0.00    -0.090 C  
HETATM   26  C   UNL     1      -8.533   9.013  66.239  1.00  0.00    -0.132 C  
HETATM   27  C   UNL     1      -8.682   7.568  66.620  1.00  0.00    -0.138 C  
HETATM   28  O   UNL     1      -9.427   6.827  66.030  1.00  0.00    -0.070 OA 
HETATM   29  N   UNL     1      -8.087   7.208  67.836  1.00  0.00    -0.118 N  
HETATM   30  C   UNL     1      -7.066   7.939  68.616  1.00  0.00    -0.076 C  
HETATM   31  H   UNL     1      -8.401   6.323  68.237  1.00  0.00     0.000 HD 
HETATM   32  C   UNL     1      -6.922   7.415  69.950  1.00  0.00    -0.060 C  
HETATM   33  C   UNL     1      -6.240   7.635  71.063  1.00  0.00    -0.035 C  
HETATM   34  C   UNL     1      -6.303   6.650  72.128  1.00  0.00    -0.049 C  
HETATM   35  C   UNL     1      -6.839   5.418  71.994  1.00  0.00    -0.066 C  
HETATM   36  C   UNL     1      -5.622   6.981  73.438  1.00  0.00    -0.046 C  
HETATM   37  C   UNL     1      -7.646   4.698  70.916  1.00  0.00    -0.068 C  
HETATM   38  C   UNL     1      -7.176   3.463  70.258  1.00  0.00    -0.041 C  
HETATM   39  O   UNL     1      -8.724   5.276  70.205  1.00  0.00    -0.117 OA 
HETATM   40  H   UNL     1      -9.226   4.829  69.534  1.00  0.00     0.000 HD 
HETATM   41  C   UNL     1      -7.025   2.412  71.343  1.00  0.00    -0.032 C  
HETATM   42  O   UNL     1      -6.064   1.638  71.208  1.00  0.00    -0.016 OA 
HETATM   43  C   UNL     1      -8.031   2.187  72.549  1.00  0.00    -0.053 C  
HETATM   44  C   UNL     1      -9.061   3.273  73.116  1.00  0.00    -0.090 A  
HETATM   45  N   UNL     1      -9.917   4.114  72.503  1.00  0.00    -0.155 NA 
HETATM   46  C   UNL     1      -9.881   5.326  73.255  1.00  0.00    -0.161 A  
HETATM   47  C   UNL     1      -9.344   4.962  74.485  1.00  0.00    -0.124 A  
HETATM   48  C   UNL     1     -10.100   6.823  72.813  1.00  0.00    -0.178 C  
HETATM   49  O   UNL     1      -8.785   3.703  74.396  1.00  0.00    -0.087 OA 
HETATM   50  O   UNL     1      -9.986   7.709  73.662  1.00  0.00    -0.312 OA 
ENDBRANCH   8  11
ENDBRANCH   7   8
ENDBRANCH   6   7
ENDBRANCH   3   6
ENDBRANCH   2   3
TORSDOF 6
ENDMDL
MODEL        6
REMARK 921   NORMALIZED FREE ENERGY PREDICTED BY IDOCK:   -4.53 KCAL/MOL
REMARK 922        TOTAL FREE ENERGY PREDICTED BY IDOCK:   -7.26 KCAL/MOL
REMARK 923 INTER-LIGAND FREE ENERGY PREDICTED BY IDOCK:   -6.55 KCAL/MOL
REMARK 924 INTRA-LIGAND FREE ENERGY PREDICTED BY IDOCK:   -0.71 KCAL/MOL
REMARK 927      BINDING AFFINITY PREDICTED BY RF-SCORE:    0.00 PKD
ROOT
HETATM    1  C   UNL     1     -12.527  15.317  63.956  1.00  0.00     0.173 C  
HETATM    2  C   UNL     1     -11.269  14.546  64.375  1.00  0.00    -0.195 C  
ENDROOT
BRANCH   2   3
HETATM    3  N   UNL     1     -11.521  13.452  65.322  1.00  0.00    -0.294 NA 
BRANCH   3   4
HETATM    4  C   UNL     1     -12.535  12.487  64.843  1.00  0.00    -0.450 C  
HETATM    5  C   UNL     1     -12.308  11.913  63.447  1.00  0.00    -0.577 C  
ENDBRANCH   3   4
BRANCH   3   6
HETATM    6  C   UNL     1     -10.247  12.845  65.772  1.00  0.00    -0.288 C  
BRANCH   6   7
HETATM    7  C   UNL     1     -10.542  11.504  66.402  1.00  0.00    -0.259 C  
BRANCH   7   8
HETATM    8  S   UNL     1     -10.555  11.401  68.184  1.00  0.00    -0.200 S  
HETATM    9  O   UNL     1      -9.275  11.960  68.661  1.00  0.00    -0.160 OA 
HETATM   10  O   UNL     1     -11.822  11.863  68.679  1.00  0.00    -0.306 OA 
BRANCH   8  11
HETATM   11  C   UNL     1     -10.461   9.656  68.310  1.00  0.00    -0.219 C  
HETATM   12  C   UNL     1     -11.579   9.081  69.176  1.00  0.00     0.676 C  
HETATM   13  C   UNL     1     -10.989   7.914  69.905  1.00  0.00    -0.178 C  
HETATM   14  N   UNL     1      -9.568   8.209  70.025  1.00  0.00    -0.171 N  
HETATM   15  C   UNL     1      -9.079   9.034  68.677  1.00  0.00    -0.137 C  
HETATM   16  C   UNL     1      -8.636   8.431  67.078  1.00  0.00    -0.122 C  
HETATM   17  O   UNL     1      -7.366   8.615  66.522  1.00  0.00    -0.079 OA 
HETATM   18  O   UNL     1      -9.520   7.888  66.397  1.00  0.00    -0.200 OA 
HETATM   19  C   UNL     1      -6.692   8.073  65.138  1.00  0.00    -0.051 C  
HETATM   20  C   UNL     1      -6.561   6.471  64.749  1.00  0.00    -0.038 C  
HETATM   21  C   UNL     1      -6.478   8.979  63.841  1.00  0.00    -0.088 C  
HETATM   22  C   UNL     1      -7.603   9.851  63.318  1.00  0.00    -0.137 C  
HETATM   23  C   UNL     1      -5.161   9.795  63.851  1.00  0.00    -0.074 C  
HETATM   24  C   UNL     1      -5.761   6.047  63.500  1.00  0.00    -0.021 C  
HETATM   25  C   UNL     1      -7.711   5.491  64.766  1.00  0.00    -0.092 C  
HETATM   26  C   UNL     1      -9.011   5.770  64.859  1.00  0.00     0.150 C  
HETATM   27  C   UNL     1      -9.708   5.122  66.021  1.00  0.00    -0.165 C  
HETATM   28  O   UNL     1     -10.868   4.799  65.969  1.00  0.00    -0.287 OA 
HETATM   29  N   UNL     1      -8.997   5.139  67.228  1.00  0.00    -0.112 N  
HETATM   30  C   UNL     1      -7.556   5.386  67.445  1.00  0.00    -0.088 C  
HETATM   31  H   UNL     1      -9.546   4.956  68.068  1.00  0.00     0.000 HD 
HETATM   32  C   UNL     1      -7.248   5.623  68.833  1.00  0.00    -0.077 C  
HETATM   33  C   UNL     1      -6.217   5.908  69.613  1.00  0.00    -0.030 C  
HETATM   34  C   UNL     1      -6.391   5.839  71.053  1.00  0.00    -0.039 C  
HETATM   35  C   UNL     1      -7.469   5.303  71.665  1.00  0.00    -0.093 C  
HETATM   36  C   UNL     1      -5.242   6.294  71.927  1.00  0.00    -0.026 C  
HETATM   37  C   UNL     1      -8.832   4.789  71.206  1.00  0.00    -0.127 C  
HETATM   38  C   UNL     1      -9.276   3.398  71.424  1.00  0.00    -0.193 C  
HETATM   39  O   UNL     1      -9.657   5.446  70.264  1.00  0.00    -0.160 OA 
HETATM   40  H   UNL     1     -10.505   5.127  69.978  1.00  0.00     0.000 HD 
HETATM   41  C   UNL     1      -9.303   3.171  72.925  1.00  0.00    -0.092 C  
HETATM   42  O   UNL     1      -8.950   2.042  73.301  1.00  0.00    -0.066 OA 
HETATM   43  C   UNL     1      -9.820   4.216  74.002  1.00  0.00    -0.158 C  
HETATM   44  C   UNL     1      -9.930   5.798  73.785  1.00  0.00    -0.197 A  
HETATM   45  N   UNL     1     -10.416   6.540  72.770  1.00  0.00    -0.205 NA 
HETATM   46  C   UNL     1      -9.544   7.663  72.654  1.00  0.00    -0.181 A  
HETATM   47  C   UNL     1      -8.877   7.718  73.873  1.00  0.00    -0.272 A  
HETATM   48  C   UNL     1      -9.139   8.531  71.404  1.00  0.00    -0.206 C  
HETATM   49  O   UNL     1      -9.069   6.539  74.564  1.00  0.00    -0.162 OA 
HETATM   50  O   UNL     1      -8.330   9.448  71.561  1.00  0.00    -0.270 OA 
ENDBRANCH   8  11
ENDBRANCH   7   8
ENDBRANCH   6   7
ENDBRANCH   3   6
ENDBRANCH   2   3
TORSDOF 6
ENDMDL
MODEL        7
REMARK 921   NORMALIZED FREE ENERGY PREDICTED BY IDOCK:   -4.40 KCAL/MOL
REMARK 922        TOTAL FREE ENERGY PREDICTED BY IDOCK:   -7.09 KCAL/MOL
REMARK 923 INTER-LIGAND FREE ENERGY PREDICTED BY IDOCK:   -5.99 KCAL/MOL
REMARK 924 INTRA-LIGAND FREE ENERGY PREDICTED BY IDOCK:   -1.10 KCAL/MOL
REMARK 927      BINDING AFFINITY PREDICTED BY RF-SCORE:    0.00 PKD
ROOT
HETATM    1  C   UNL     1     -14.243   9.068  72.326  1.00  0.00    -0.432 C  
HETATM    2  C   UNL     1     -13.095   8.176  71.839  1.00  0.00    -0.327 C  
ENDROOT
BRANCH   2   3
HETATM    3  N   UNL     1     -11.862   8.297  72.629  1.00  0.00    -0.381 NA 
BRANCH   3   4
HETATM    4  C   UNL     1     -11.246   6.991  72.952  1.00  0.00    -0.236 C  
HETATM    5  C   UNL     1     -10.148   7.012  74.012  1.00  0.00    -0.355 C  
ENDBRANCH   3   4
BRANCH   3   6
HETATM    6  C   UNL     1     -10.943   9.286  72.019  1.00  0.00    -0.063 C  
BRANCH   6   7
HETATM    7  C   UNL     1     -10.341   8.686  70.771  1.00  0.00    -0.204 C  
BRANCH   7   8
HETATM    8  S   UNL     1      -8.571   8.459  70.722  1.00  0.00    -0.157 S  
HETATM    9  O   UNL     1      -8.024   9.027  71.969  1.00  0.00    -0.356 OA 
HETATM   10  O   UNL     1      -8.274   7.119  70.298  1.00  0.00    -0.126 OA 
BRANCH   8  11
HETATM   11  C   UNL     1      -8.235   9.587  69.424  1.00  0.00    -0.126 C  
HETATM   12  C   UNL     1      -7.780  10.948  69.948  1.00  0.00     0.326 C  
HETATM   13  C   UNL     1      -8.341  11.969  69.008  1.00  0.00     0.288 C  
HETATM   14  N   UNL     1      -9.546  11.369  68.455  1.00  0.00    -0.190 N  
HETATM   15  C   UNL     1      -9.309   9.738  68.304  1.00  0.00    -0.129 C  
HETATM   16  C   UNL     1      -8.488   8.826  67.036  1.00  0.00    -0.109 C  
HETATM   17  O   UNL     1      -9.137   7.870  66.247  1.00  0.00    -0.169 OA 
HETATM   18  O   UNL     1      -7.265   8.993  66.899  1.00  0.00    -0.084 OA 
HETATM   19  C   UNL     1      -8.635   6.990  64.967  1.00  0.00     0.117 C  
HETATM   20  C   UNL     1      -8.049   7.653  63.571  1.00  0.00    -0.036 C  
HETATM   21  C   UNL     1      -8.248   5.443  65.052  1.00  0.00    -0.137 C  
HETATM   22  C   UNL     1      -7.336   4.937  66.154  1.00  0.00    -0.078 C  
HETATM   23  C   UNL     1      -9.453   4.481  64.905  1.00  0.00    -0.143 C  
HETATM   24  C   UNL     1      -7.756   6.751  62.355  1.00  0.00    -0.098 C  
HETATM   25  C   UNL     1      -6.938   8.676  63.512  1.00  0.00    -0.089 C  
HETATM   26  C   UNL     1      -6.111   9.032  64.496  1.00  0.00    -0.070 C  
HETATM   27  C   UNL     1      -6.130  10.495  64.830  1.00  0.00    -0.068 C  
HETATM   28  O   UNL     1      -5.151  11.069  65.236  1.00  0.00    -0.189 OA 
HETATM   29  N   UNL     1      -7.401  11.083  64.865  1.00  0.00    -0.180 N  
HETATM   30  C   UNL     1      -8.668  10.573  64.300  1.00  0.00    -0.176 C  
HETATM   31  H   UNL     1      -7.460  11.982  65.344  1.00  0.00     0.000 HD 
HETATM   32  C   UNL     1      -9.813  11.296  64.792  1.00  0.00    -0.312 C  
HETATM   33  C   UNL     1     -11.133  11.304  64.691  1.00  0.00    -0.223 C  
HETATM   34  C   UNL     1     -11.869  12.423  65.253  1.00  0.00    -0.451 C  
HETATM   35  C   UNL     1     -11.300  13.566  65.692  1.00  0.00    -0.312 C  
HETATM   36  C   UNL     1     -13.381  12.351  65.241  1.00  0.00     1.749 C  
HETATM   37  C   UNL     1      -9.868  14.042  65.929  1.00  0.00    -0.281 C  
HETATM   38  C   UNL     1      -9.289  15.208  65.233  1.00  0.00     0.406 C  
HETATM   39  O   UNL     1      -8.861  13.267  66.551  1.00  0.00    -0.430 OA 
HETATM   40  H   UNL     1      -7.971  13.562  66.699  1.00  0.00     0.000 HD 
HETATM   41  C   UNL     1     -10.127  16.415  65.616  1.00  0.00    -0.286 C  
HETATM   42  O   UNL     1     -10.306  17.249  64.714  1.00  0.00    -0.056 OA 
HETATM   43  C   UNL     1     -10.695  16.715  67.067  1.00  0.00    -0.174 C  
HETATM   44  C   UNL     1     -10.919  15.629  68.221  1.00  0.00    -0.315 A  
HETATM   45  N   UNL     1     -10.143  14.630  68.685  1.00  0.00    -0.232 NA 
HETATM   46  C   UNL     1     -11.027  13.548  68.975  1.00  0.00    -0.225 A  
HETATM   47  C   UNL     1     -12.284  14.137  69.067  1.00  0.00    -0.239 A  
HETATM   48  C   UNL     1     -10.799  11.990  68.939  1.00  0.00    -0.211 C  
HETATM   49  O   UNL     1     -12.239  15.416  68.553  1.00  0.00    -0.154 OA 
HETATM   50  O   UNL     1     -11.748  11.250  69.209  1.00  0.00    -0.275 OA 
ENDBRANCH   8  11
ENDBRANCH   7   8
ENDBRANCH   6   7
ENDBRANCH   3   6
ENDBRANCH   2   3
TORSDOF 6
ENDMDL
MODEL        8
REMARK 921   NORMALIZED FREE ENERGY PREDICTED BY IDOCK:   -3.57 KCAL/MOL
REMARK 922        TOTAL FREE ENERGY PREDICTED BY IDOCK:   -5.97 KCAL/MOL
REMARK 923 INTER-LIGAND FREE ENERGY PREDICTED BY IDOCK:   -4.88 KCAL/MOL
REMARK 924 INTRA-LIGAND FREE ENERGY PREDICTED BY IDOCK:   -1.09 KCAL/MOL
REMARK 927      BINDING AFFINITY PREDICTED BY RF-SCORE:    0.00 PKD
ROOT
HETATM    1  C   UNL     1     -10.648   3.302  65.031  1.00  0.00     0.592 C  
HETATM    2  C   UNL     1      -9.334   2.788  65.632  1.00  0.00    -0.047 C  
ENDROOT
BRANCH   2   3
HETATM    3  N   UNL     1      -8.312   2.442  64.636  1.00  0.00    -0.086 NA 
BRANCH   3   4
HETATM    4  C   UNL     1      -8.525   3.099  63.328  1.00  0.00    -0.086 C  
HETATM    5  C   UNL     1      -7.270   3.373  62.503  1.00  0.00    -0.040 C  
ENDBRANCH   3   4
BRANCH   3   6
HETATM    6  C   UNL     1      -6.952   2.606  65.202  1.00  0.00    -0.052 C  
BRANCH   6   7
HETATM    7  C   UNL     1      -7.039   3.478  66.432  1.00  0.00    -0.063 C  
BRANCH   7   8
HETATM    8  S   UNL     1      -6.197   5.051  66.403  1.00  0.00    -0.036 S  
HETATM    9  O   UNL     1      -5.315   5.096  67.585  1.00  0.00    -0.010 OA 
HETATM   10  O   UNL     1      -5.709   5.306  65.076  1.00  0.00    -0.016 OA 
BRANCH   8  11
HETATM   11  C   UNL     1      -7.591   6.060  66.734  1.00  0.00    -0.095 C  
HETATM   12  C   UNL     1      -8.570   6.089  65.562  1.00  0.00    -0.145 C  
HETATM   13  C   UNL     1      -9.145   7.472  65.530  1.00  0.00     0.198 C  
HETATM   14  N   UNL     1      -8.123   8.331  66.109  1.00  0.00    -0.106 N  
HETATM   15  C   UNL     1      -7.328   7.491  67.293  1.00  0.00    -0.098 C  
HETATM   16  C   UNL     1      -7.781   7.198  68.973  1.00  0.00    -0.109 C  
HETATM   17  O   UNL     1      -7.011   7.638  70.055  1.00  0.00    -0.049 OA 
HETATM   18  O   UNL     1      -8.789   6.506  69.191  1.00  0.00    -0.128 OA 
HETATM   19  C   UNL     1      -7.265   7.587  71.666  1.00  0.00    -0.067 C  
HETATM   20  C   UNL     1      -8.580   8.261  72.409  1.00  0.00    -0.270 C  
HETATM   21  C   UNL     1      -6.544   6.552  72.646  1.00  0.00    -0.064 C  
HETATM   22  C   UNL     1      -6.479   5.077  72.294  1.00  0.00    -0.043 C  
HETATM   23  C   UNL     1      -5.155   7.019  73.147  1.00  0.00    -0.037 C  
HETATM   24  C   UNL     1      -8.651   8.309  73.949  1.00  0.00    -0.214 C  
HETATM   25  C   UNL     1     -10.014   8.001  72.009  1.00  0.00    -0.275 C  
HETATM   26  C   UNL     1     -10.467   7.051  71.190  1.00  0.00    -0.229 C  
HETATM   27  C   UNL     1     -11.246   7.561  70.012  1.00  0.00    -0.157 C  
HETATM   28  O   UNL     1     -12.144   6.927  69.519  1.00  0.00     0.128 OA 
HETATM   29  N   UNL     1     -10.710   8.695  69.388  1.00  0.00    -0.337 N  
HETATM   30  C   UNL     1      -9.705   9.646  69.909  1.00  0.00    -0.231 C  
HETATM   31  H   UNL     1     -11.059   8.890  68.449  1.00  0.00     0.000 HD 
HETATM   32  C   UNL     1      -9.181  10.503  68.876  1.00  0.00    -0.188 C  
HETATM   33  C   UNL     1      -8.299  11.477  68.711  1.00  0.00    -0.069 C  
HETATM   34  C   UNL     1      -8.281  12.197  67.450  1.00  0.00    -0.175 C  
HETATM   35  C   UNL     1      -9.236  12.093  66.501  1.00  0.00    -0.216 C  
HETATM   36  C   UNL     1      -7.184  13.216  67.233  1.00  0.00    -0.045 C  
HETATM   37  C   UNL     1     -10.450  11.192  66.278  1.00  0.00    -0.259 C  
HETATM   38  C   UNL     1     -11.825  11.718  66.174  1.00  0.00     0.033 C  
HETATM   39  O   UNL     1     -10.453   9.792  66.476  1.00  0.00    -0.211 OA 
HETATM   40  H   UNL     1     -11.207   9.232  66.338  1.00  0.00     0.000 HD 
HETATM   41  C   UNL     1     -11.855  12.649  64.974  1.00  0.00    -0.395 C  
HETATM   42  O   UNL     1     -12.566  13.659  65.098  1.00  0.00    -0.518 OA 
HETATM   43  C   UNL     1     -11.133  12.382  63.587  1.00  0.00    -0.535 C  
HETATM   44  C   UNL     1      -9.894  11.394  63.358  1.00  0.00    -0.396 A  
HETATM   45  N   UNL     1      -9.652  10.135  63.775  1.00  0.00    -0.281 NA 
HETATM   46  C   UNL     1      -8.259  10.084  64.079  1.00  0.00    -0.156 A  
HETATM   47  C   UNL     1      -7.713  11.177  63.413  1.00  0.00     0.677 A  
HETATM   48  C   UNL     1      -7.462   9.221  65.129  1.00  0.00    -0.105 C  
HETATM   49  O   UNL     1      -8.722  12.025  63.004  1.00  0.00     0.192 OA 
HETATM   50  O   UNL     1      -6.243   9.384  65.220  1.00  0.00    -0.063 OA 
ENDBRANCH   8  11
ENDBRANCH   7   8
ENDBRANCH   6   7
ENDBRANCH   3   6
ENDBRANCH   2   3
TORSDOF 6
ENDMDL
MODEL        9
REMARK 921   NORMALIZED FREE ENERGY PREDICTED BY IDOCK:   -3.51 KCAL/MOL
REMARK 922        TOTAL FREE ENERGY PREDICTED BY IDOCK:   -5.88 KCAL/MOL
REMARK 923 INTER-LIGAND FREE ENERGY PREDICTED BY IDOCK:   -5.04 KCAL/MOL
REMARK 924 INTRA-LIGAND FREE ENERGY PREDICTED BY IDOCK:   -0.85 KCAL/MOL
REMARK 927      BINDING AFFINITY PREDICTED BY RF-SCORE:    0.00 PKD
ROOT
HETATM    1  C   UNL     1     -12.699  15.626  71.034  1.00  0.00    -0.517 C  
HETATM    2  C   UNL     1     -11.248  15.950  70.656  1.00  0.00    -0.378 C  
ENDROOT
BRANCH   2   3
HETATM    3  N   UNL     1     -10.817  15.372  69.377  1.00  0.00    -0.246 NA 
BRANCH   3   4
HETATM    4  C   UNL     1      -9.440  15.759  68.996  1.00  0.00    -0.247 C  
HETATM    5  C   UNL     1      -9.219  17.239  68.695  1.00  0.00    -0.266 C  
ENDBRANCH   3   4
BRANCH   3   6
HETATM    6  C   UNL     1     -11.087  13.916  69.340  1.00  0.00    -0.180 C  
BRANCH   6   7
HETATM    7  C   UNL     1      -9.825  13.197  68.925  1.00  0.00     0.135 C  
BRANCH   7   8
HETATM    8  S   UNL     1      -9.750  12.525  67.273  1.00  0.00    -0.206 S  
HETATM    9  O   UNL     1     -11.128  12.170  66.884  1.00  0.00    -0.265 OA 
HETATM   10  O   UNL     1      -8.918  13.364  66.456  1.00  0.00    -0.173 OA 
BRANCH   8  11
HETATM   11  C   UNL     1      -8.904  11.044  67.670  1.00  0.00    -0.131 C  
HETATM   12  C   UNL     1      -7.491  11.015  67.090  1.00  0.00    -0.117 C  
HETATM   13  C   UNL     1      -7.223   9.592  66.708  1.00  0.00    -0.090 C  
HETATM   14  N   UNL     1      -8.527   9.016  66.414  1.00  0.00    -0.118 N  
HETATM   15  C   UNL     1      -9.651   9.698  67.418  1.00  0.00    -0.148 C  
HETATM   16  C   UNL     1     -10.056   9.312  69.092  1.00  0.00    -0.199 C  
HETATM   17  O   UNL     1     -11.326   8.876  69.484  1.00  0.00     0.014 OA 
HETATM   18  O   UNL     1      -9.192   9.513  69.960  1.00  0.00    -0.200 OA 
HETATM   19  C   UNL     1     -11.907   8.365  70.921  1.00  0.00    -0.217 C  
HETATM   20  C   UNL     1     -11.278   7.089  71.763  1.00  0.00    -0.278 C  
HETATM   21  C   UNL     1     -12.833   9.254  71.871  1.00  0.00    -0.485 C  
HETATM   22  C   UNL     1     -12.461  10.692  72.180  1.00  0.00     0.212 C  
HETATM   23  C   UNL     1     -14.343   9.178  71.532  1.00  0.00    -0.115 C  
HETATM   24  C   UNL     1     -11.995   6.573  73.027  1.00  0.00     0.515 C  
HETATM   25  C   UNL     1      -9.816   6.934  72.114  1.00  0.00    -0.159 C  
HETATM   26  C   UNL     1      -8.860   7.860  72.025  1.00  0.00    -0.187 C  
HETATM   27  C   UNL     1      -7.696   7.475  71.158  1.00  0.00    -0.089 C  
HETATM   28  O   UNL     1      -6.579   7.869  71.379  1.00  0.00    -0.041 OA 
HETATM   29  N   UNL     1      -8.032   6.834  69.959  1.00  0.00    -0.114 N  
HETATM   30  C   UNL     1      -9.308   6.187  69.585  1.00  0.00    -0.146 C  
HETATM   31  H   UNL     1      -7.299   6.811  69.249  1.00  0.00     0.000 HD 
HETATM   32  C   UNL     1      -9.382   5.908  68.174  1.00  0.00    -0.117 C  
HETATM   33  C   UNL     1     -10.214   5.397  67.279  1.00  0.00    -0.258 C  
HETATM   34  C   UNL     1      -9.721   5.128  65.940  1.00  0.00    -0.159 C  
HETATM   35  C   UNL     1      -8.418   5.163  65.587  1.00  0.00    -0.134 C  
HETATM   36  C   UNL     1     -10.718   4.667  64.899  1.00  0.00     0.073 C  
HETATM   37  C   UNL     1      -7.123   5.605  66.266  1.00  0.00    -0.072 C  
HETATM   38  C   UNL     1      -5.993   4.685  66.504  1.00  0.00    -0.027 C  
HETATM   39  O   UNL     1      -6.981   6.793  67.019  1.00  0.00    -0.066 OA 
HETATM   40  H   UNL     1      -6.176   7.068  67.442  1.00  0.00     0.000 HD 
HETATM   41  C   UNL     1      -5.526   4.194  65.145  1.00  0.00    -0.013 C  
HETATM   42  O   UNL     1      -5.157   3.010  65.102  1.00  0.00    -0.007 OA 
HETATM   43  C   UNL     1      -5.400   5.088  63.840  1.00  0.00    -0.010 C  
HETATM   44  C   UNL     1      -6.169   6.468  63.579  1.00  0.00    -0.034 A  
HETATM   45  N   UNL     1      -6.368   7.552  64.354  1.00  0.00    -0.044 NA 
HETATM   46  C   UNL     1      -7.694   7.997  64.072  1.00  0.00    -0.137 A  
HETATM   47  C   UNL     1      -8.010   7.408  62.852  1.00  0.00    -0.114 A  
HETATM   48  C   UNL     1      -8.748   8.740  64.977  1.00  0.00    -0.148 C  
HETATM   49  O   UNL     1      -7.094   6.419  62.560  1.00  0.00    -0.041 OA 
HETATM   50  O   UNL     1      -9.857   8.994  64.500  1.00  0.00     0.707 OA 
ENDBRANCH   8  11
ENDBRANCH   7   8
ENDBRANCH   6   7
ENDBRANCH   3   6
ENDBRANCH   2   3
TORSDOF 6
ENDMDL
MODEL       10
REMARK 921   NORMALIZED FREE ENERGY PREDICTED BY IDOCK:   -3.34 KCAL/MOL
REMARK 922        TOTAL FREE ENERGY PREDICTED BY IDOCK:   -5.65 KCAL/MOL
REMARK 923 INTER-LIGAND FREE ENERGY PREDICTED BY IDOCK:   -4.51 KCAL/MOL
REMARK 924 INTRA-LIGAND FREE ENERGY PREDICTED BY IDOCK:   -1.14 KCAL/MOL
REMARK 927      BINDING AFFINITY PREDICTED BY RF-SCORE:    0.00 PKD
ROOT
HETATM    1  C   UNL     1     -11.987  12.967  70.173  1.00  0.00    -0.373 C  
HETATM    2  C   UNL     1     -12.423  11.998  71.279  1.00  0.00    -0.198 C  
ENDROOT
BRANCH   2   3
HETATM    3  N   UNL     1     -12.220  10.580  70.951  1.00  0.00    -0.353 NA 
BRANCH   3   4
HETATM    4  C   UNL     1     -13.409   9.743  71.222  1.00  0.00    -0.339 C  
HETATM    5  C   UNL     1     -13.144   8.402  71.902  1.00  0.00    -0.383 C  
ENDBRANCH   3   4
BRANCH   3   6
HETATM    6  C   UNL     1     -11.650  10.432  69.592  1.00  0.00    -0.239 C  
BRANCH   6   7
HETATM    7  C   UNL     1     -10.602   9.344  69.619  1.00  0.00    -0.225 C  
BRANCH   7   8
HETATM    8  S   UNL     1      -9.001   9.741  70.303  1.00  0.00    -0.052 S  
HETATM    9  O   UNL     1      -8.499  10.923  69.577  1.00  0.00     0.001 OA 
HETATM   10  O   UNL     1      -9.072   9.698  71.737  1.00  0.00     0.157 OA 
BRANCH   8  11
HETATM   11  C   UNL     1      -8.145   8.336  69.701  1.00  0.00    -0.116 C  
HETATM   12  C   UNL     1      -6.904   8.719  68.899  1.00  0.00    -0.061 C  
HETATM   13  C   UNL     1      -6.784   7.707  67.801  1.00  0.00    -0.067 C  
HETATM   14  N   UNL     1      -8.142   7.250  67.544  1.00  0.00    -0.113 N  
HETATM   15  C   UNL     1      -8.981   7.241  68.970  1.00  0.00    -0.134 C  
HETATM   16  C   UNL     1      -9.009   6.036  70.260  1.00  0.00    -0.148 C  
HETATM   17  O   UNL     1     -10.172   5.359  70.640  1.00  0.00    -0.219 OA 
HETATM   18  O   UNL     1      -7.963   5.846  70.901  1.00  0.00    -0.107 OA 
HETATM   19  C   UNL     1     -10.432   4.150  71.705  1.00  0.00     0.085 C  
HETATM   20  C   UNL     1      -9.677   2.681  71.626  1.00  0.00    -0.226 C  
HETATM   21  C   UNL     1     -11.082   4.363  73.148  1.00  0.00    -0.326 C  
HETATM   22  C   UNL     1     -10.595   5.477  74.054  1.00  0.00    -0.283 C  
HETATM   23  C   UNL     1     -12.631   4.342  73.151  1.00  0.00     0.842 C  
HETATM   24  C   UNL     1     -10.107   1.544  72.576  1.00  0.00    -0.199 C  
HETATM   25  C   UNL     1      -8.180   2.493  71.527  1.00  0.00    -0.068 C  
HETATM   26  C   UNL     1      -7.234   3.415  71.716  1.00  0.00    -0.043 C  
HETATM   27  C   UNL     1      -6.314   3.614  70.547  1.00  0.00    -0.027 C  
HETATM   28  O   UNL     1      -5.161   3.936  70.691  1.00  0.00    -0.003 OA 
HETATM   29  N   UNL     1      -6.938   3.635  69.293  1.00  0.00    -0.045 N  
HETATM   30  C   UNL     1      -8.289   3.159  68.928  1.00  0.00    -0.061 C  
HETATM   31  H   UNL     1      -6.387   4.032  68.531  1.00  0.00     0.000 HD 
HETATM   32  C   UNL     1      -8.693   3.619  67.624  1.00  0.00    -0.125 C  
HETATM   33  C   UNL     1      -9.726   3.559  66.797  1.00  0.00    -0.045 C  
HETATM   34  C   UNL     1      -9.561   4.039  65.437  1.00  0.00    -0.188 C  
HETATM   35  C   UNL     1      -8.371   4.354  64.879  1.00  0.00    -0.118 C  
HETATM   36  C   UNL     1     -10.785   4.081  64.548  1.00  0.00    -0.181 C  
HETATM   37  C   UNL     1      -6.940   4.502  65.391  1.00  0.00    -0.062 C  
HETATM   38  C   UNL     1      -5.821   3.685  64.881  1.00  0.00    -0.022 C  
HETATM   39  O   UNL     1      -6.585   5.160  66.592  1.00  0.00    -0.046 OA 
HETATM   40  H   UNL     1      -5.695   5.253  66.911  1.00  0.00     0.000 HD 
HETATM   41  C   UNL     1      -5.695   3.982  63.398  1.00  0.00    -0.013 C  
HETATM   42  O   UNL     1      -5.391   3.014  62.683  1.00  0.00    -0.004 OA 
HETATM   43  C   UNL     1      -5.835   5.416  62.734  1.00  0.00    -0.014 C  
HETATM   44  C   UNL     1      -6.589   6.671  63.380  1.00  0.00    -0.041 A  
HETATM   45  N   UNL     1      -6.565   7.200  64.619  1.00  0.00    -0.039 NA 
HETATM   46  C   UNL     1      -7.903   7.615  64.894  1.00  0.00    -0.128 A  
HETATM   47  C   UNL     1      -8.510   7.692  63.645  1.00  0.00     0.279 A  
HETATM   48  C   UNL     1      -8.694   7.714  66.252  1.00  0.00    -0.152 C  
HETATM   49  O   UNL     1      -7.723   7.063  62.703  1.00  0.00    -0.096 OA 
HETATM   50  O   UNL     1      -9.872   8.080  66.221  1.00  0.00    -0.195 OA 
ENDBRANCH   8  11
ENDBRANCH   7   8
ENDBRANCH   6   7
ENDBRANCH   3   6
ENDBRANCH   2   3
TORSDOF 6
ENDMDL
MODEL       11
REMARK 921   NORMALIZED FREE ENERGY PREDICTED BY IDOCK:   -3.26 KCAL/MOL
REMARK 922        TOTAL FREE ENERGY PREDICTED BY IDOCK:   -5.55 KCAL/MOL
REMARK 923 INTER-LIGAND FREE ENERGY PREDICTED BY IDOCK:   -4.79 KCAL/MOL
REMARK 924 INTRA-LIGAND FREE ENERGY PREDICTED BY IDOCK:   -0.76 KCAL/MOL
REMARK 927      BINDING AFFINITY PREDICTED BY RF-SCORE:    0.00 PKD
ROOT
HETATM    1  C   UNL     1     -10.783   2.042  73.245  1.00  0.00    -0.243 C  
HETATM    2  C   UNL     1      -9.951   2.867  72.256  1.00  0.00    -0.168 C  
ENDROOT
BRANCH   2   3
HETATM    3  N   UNL     1      -9.873   4.297  72.581  1.00  0.00    -0.143 NA 
BRANCH   3   4
HETATM    4  C   UNL     1      -9.469   4.556  73.980  1.00  0.00    -0.117 C  
HETATM    5  C   UNL     1      -7.976   4.762  74.220  1.00  0.00    -0.100 C  
ENDBRANCH   3   4
BRANCH   3   6
HETATM    6  C   UNL     1      -9.084   5.025  71.560  1.00  0.00    -0.140 C  
BRANCH   6   7
HETATM    7  C   UNL     1      -9.687   6.395  71.364  1.00  0.00    -0.172 C  
BRANCH   7   8
HETATM    8  S   UNL     1     -10.473   6.749  69.801  1.00  0.00    -0.222 S  
HETATM    9  O   UNL     1      -9.988   5.746  68.833  1.00  0.00    -0.140 OA 
HETATM   10  O   UNL     1     -11.873   6.990  70.015  1.00  0.00    -0.194 OA 
BRANCH   8  11
HETATM   11  C   UNL     1      -9.648   8.259  69.470  1.00  0.00    -0.171 C  
HETATM   12  C   UNL     1      -9.476   9.108  70.727  1.00  0.00    -0.334 C  
HETATM   13  C   UNL     1      -9.613  10.535  70.293  1.00  0.00     0.711 C  
HETATM   14  N   UNL     1     -10.470  10.502  69.116  1.00  0.00    -0.214 N  
HETATM   15  C   UNL     1     -10.162   9.113  68.271  1.00  0.00    -0.206 C  
HETATM   16  C   UNL     1      -8.872   8.748  67.123  1.00  0.00    -0.127 C  
HETATM   17  O   UNL     1      -9.118   8.408  65.788  1.00  0.00    -0.185 OA 
HETATM   18  O   UNL     1      -7.707   8.719  67.549  1.00  0.00    -0.099 OA 
HETATM   19  C   UNL     1      -8.114   8.138  64.530  1.00  0.00    -0.142 C  
HETATM   20  C   UNL     1      -7.013   9.242  63.981  1.00  0.00    -0.091 C  
HETATM   21  C   UNL     1      -7.770   6.684  63.967  1.00  0.00    -0.112 C  
HETATM   22  C   UNL     1      -7.389   5.562  64.915  1.00  0.00    -0.068 C  
HETATM   23  C   UNL     1      -8.788   6.151  62.927  1.00  0.00     0.467 C  
HETATM   24  C   UNL     1      -6.226   8.963  62.685  1.00  0.00    -0.094 C  
HETATM   25  C   UNL     1      -5.996   9.941  64.854  1.00  0.00    -0.097 C  
HETATM   26  C   UNL     1      -5.659   9.636  66.108  1.00  0.00    -0.052 C  
HETATM   27  C   UNL     1      -5.841  10.754  67.094  1.00  0.00    -0.050 C  
HETATM   28  O   UNL     1      -5.130  10.874  68.059  1.00  0.00    -0.037 OA 
HETATM   29  N   UNL     1      -7.022  11.492  66.946  1.00  0.00    -0.165 N  
HETATM   30  C   UNL     1      -7.931  11.556  65.782  1.00  0.00     0.364 C  
HETATM   31  H   UNL     1      -7.291  12.062  67.749  1.00  0.00     0.000 HD 
HETATM   32  C   UNL     1      -9.189  12.177  66.108  1.00  0.00    -0.155 C  
HETATM   33  C   UNL     1     -10.348  12.486  65.547  1.00  0.00    -0.303 C  
HETATM   34  C   UNL     1     -11.271  13.339  66.274  1.00  0.00    -0.321 C  
HETATM   35  C   UNL     1     -10.956  14.017  67.399  1.00  0.00    -0.302 C  
HETATM   36  C   UNL     1     -12.639  13.575  65.673  1.00  0.00    -0.512 C  
HETATM   37  C   UNL     1      -9.761  14.043  68.350  1.00  0.00    -0.223 C  
HETATM   38  C   UNL     1      -8.965  15.262  68.599  1.00  0.00    -0.193 C  
HETATM   39  O   UNL     1      -9.090  12.891  68.822  1.00  0.00    -0.388 OA 
HETATM   40  H   UNL     1      -8.346  12.906  69.413  1.00  0.00     0.000 HD 
HETATM   41  C   UNL     1      -9.908  16.293  69.193  1.00  0.00    -0.258 C  
HETATM   42  O   UNL     1      -9.711  17.465  68.836  1.00  0.00    -0.283 OA 
HETATM   43  C   UNL     1     -11.033  15.995  70.272  1.00  0.00    -0.360 C  
HETATM   44  C   UNL     1     -11.697  14.566  70.553  1.00  0.00    -0.276 A  
HETATM   45  N   UNL     1     -11.166  13.336  70.704  1.00  0.00     0.835 NA 
HETATM   46  C   UNL     1     -12.071  12.437  70.066  1.00  0.00    -0.263 A  
HETATM   47  C   UNL     1     -13.263  13.148  69.970  1.00  0.00     1.117 A  
HETATM   48  C   UNL     1     -11.821  11.060  69.344  1.00  0.00    -0.335 C  
HETATM   49  O   UNL     1     -13.032  14.484  70.221  1.00  0.00    -0.289 OA 
HETATM   50  O   UNL     1     -12.783  10.478  68.837  1.00  0.00     0.062 OA 
ENDBRANCH   8  11
ENDBRANCH   7   8
ENDBRANCH   6   7
ENDBRANCH   3   6
ENDBRANCH   2   3
TORSDOF 6
ENDMDL
MODEL       12
REMARK 921   NORMALIZED FREE ENERGY PREDICTED BY IDOCK:   -2.96 KCAL/MOL
REMARK 922        TOTAL FREE ENERGY PREDICTED BY IDOCK:   -5.14 KCAL/MOL
REMARK 923 INTER-LIGAND FREE ENERGY PREDICTED BY IDOCK:   -4.82 KCAL/MOL
REMARK 924 INTRA-LIGAND FREE ENERGY PREDICTED BY IDOCK:   -0.32 KCAL/MOL
REMARK 927      BINDING AFFINITY PREDICTED BY RF-SCORE:    0.00 PKD
ROOT
HETATM    1  C   UNL     1     -11.514  11.870  64.244  1.00  0.00    -0.423 C  
HETATM    2  C   UNL     1     -10.147  12.479  64.578  1.00  0.00    -0.247 C  
ENDROOT
BRANCH   2   3
HETATM    3  N   UNL     1     -10.084  13.133  65.892  1.00  0.00    -0.288 NA 
BRANCH   3   4
HETATM    4  C   UNL     1     -11.251  13.999  66.169  1.00  0.00    -0.318 C  
HETATM    5  C   UNL     1     -11.714  14.056  67.622  1.00  0.00    -0.412 C  
ENDBRANCH   3   4
BRANCH   3   6
HETATM    6  C   UNL     1      -9.772  12.148  66.953  1.00  0.00    -0.206 C  
BRANCH   6   7
HETATM    7  C   UNL     1      -8.397  12.445  67.503  1.00  0.00    -0.173 C  
BRANCH   7   8
HETATM    8  S   UNL     1      -7.129  11.204  67.299  1.00  0.00    -0.117 S  
HETATM    9  O   UNL     1      -6.896  11.054  65.849  1.00  0.00    -0.078 OA 
HETATM   10  O   UNL     1      -6.059  11.461  68.221  1.00  0.00    -0.046 OA 
BRANCH   8  11
HETATM   11  C   UNL     1      -8.070   9.829  67.838  1.00  0.00    -0.112 C  
HETATM   12  C   UNL     1      -9.034  10.196  68.964  1.00  0.00    -0.168 C  
HETATM   13  C   UNL     1      -9.095   9.006  69.870  1.00  0.00    -0.168 C  
HETATM   14  N   UNL     1      -7.812   8.335  69.718  1.00  0.00    -0.098 N  
HETATM   15  C   UNL     1      -7.301   8.509  68.153  1.00  0.00    -0.092 C  
HETATM   16  C   UNL     1      -7.748   7.600  66.708  1.00  0.00    -0.102 C  
HETATM   17  O   UNL     1      -6.823   6.870  65.955  1.00  0.00    -0.057 OA 
HETATM   18  O   UNL     1      -8.921   7.680  66.310  1.00  0.00    -0.158 OA 
HETATM   19  C   UNL     1      -7.001   5.881  64.669  1.00  0.00    -0.052 C  
HETATM   20  C   UNL     1      -7.964   4.536  64.673  1.00  0.00    -0.092 C  
HETATM   21  C   UNL     1      -6.637   6.298  63.171  1.00  0.00    -0.040 C  
HETATM   22  C   UNL     1      -7.104   7.628  62.608  1.00  0.00    -0.078 C  
HETATM   23  C   UNL     1      -5.150   6.079  62.798  1.00  0.00    -0.017 C  
HETATM   24  C   UNL     1      -7.940   3.571  63.470  1.00  0.00    -0.083 C  
HETATM   25  C   UNL     1      -9.416   4.527  65.090  1.00  0.00    -0.166 C  
HETATM   26  C   UNL     1     -10.209   5.581  65.289  1.00  0.00     0.685 C  
HETATM   27  C   UNL     1     -10.819   5.655  66.659  1.00  0.00    -0.204 C  
HETATM   28  O   UNL     1     -11.903   6.144  66.848  1.00  0.00     0.716 OA 
HETATM   29  N   UNL     1      -9.954   5.339  67.714  1.00  0.00    -0.156 N  
HETATM   30  C   UNL     1      -8.658   4.628  67.664  1.00  0.00    -0.103 C  
HETATM   31  H   UNL     1     -10.258   5.639  68.641  1.00  0.00     0.000 HD 
HETATM   32  C   UNL     1      -7.920   4.757  68.894  1.00  0.00    -0.076 C  
HETATM   33  C   UNL     1      -6.764   4.396  69.431  1.00  0.00    -0.045 C  
HETATM   34  C   UNL     1      -6.558   4.606  70.853  1.00  0.00    -0.031 C  
HETATM   35  C   UNL     1      -7.534   4.951  71.721  1.00  0.00    -0.087 C  
HETATM   36  C   UNL     1      -5.188   4.308  71.421  1.00  0.00     0.000 C  
HETATM   37  C   UNL     1      -8.994   5.383  71.595  1.00  0.00    -0.136 C  
HETATM   38  C   UNL     1     -10.105   4.630  72.208  1.00  0.00    -0.250 C  
HETATM   39  O   UNL     1      -9.472   6.313  70.641  1.00  0.00    -0.166 OA 
HETATM   40  H   UNL     1     -10.380   6.582  70.562  1.00  0.00     0.000 HD 
HETATM   41  C   UNL     1      -9.868   4.632  73.708  1.00  0.00    -0.144 C  
HETATM   42  O   UNL     1     -10.178   3.586  74.299  1.00  0.00    -0.145 OA 
HETATM   43  C   UNL     1      -9.350   5.870  74.554  1.00  0.00    -0.159 C  
HETATM   44  C   UNL     1      -8.543   7.123  73.970  1.00  0.00    -0.172 A  
HETATM   45  N   UNL     1      -8.732   7.893  72.880  1.00  0.00    -0.165 NA 
HETATM   46  C   UNL     1      -7.430   8.179  72.372  1.00  0.00    -0.116 A  
HETATM   47  C   UNL     1      -6.572   7.921  73.436  1.00  0.00    -0.091 A  
HETATM   48  C   UNL     1      -6.932   8.450  70.902  1.00  0.00    -0.052 C  
HETATM   49  O   UNL     1      -7.243   7.219  74.416  1.00  0.00    -0.104 OA 
HETATM   50  O   UNL     1      -5.729   8.648  70.715  1.00  0.00    -0.031 OA 
ENDBRANCH   8  11
ENDBRANCH   7   8
ENDBRANCH   6   7
ENDBRANCH   3   6
ENDBRANCH   2   3
TORSDOF 6
ENDMDL
MODEL       13
REMARK 921   NORMALIZED FREE ENERGY PREDICTED BY IDOCK:   -2.96 KCAL/MOL
REMARK 922        TOTAL FREE ENERGY PREDICTED BY IDOCK:   -5.14 KCAL/MOL
REMARK 923 INTER-LIGAND FREE ENERGY PREDICTED BY IDOCK:   -4.08 KCAL/MOL
REMARK 924 INTRA-LIGAND FREE ENERGY PREDICTED BY IDOCK:   -1.05 KCAL/MOL
REMARK 927      BINDING AFFINITY PREDICTED BY RF-SCORE:    0.00 PKD
ROOT
HETATM    1  C   UNL     1     -11.286   4.057  63.762  1.00  0.00     0.368 C  
HETATM    2  C   UNL     1      -9.967   3.653  64.433  1.00  0.00    -0.197 C  
ENDROOT
BRANCH   2   3
HETATM    3  N   UNL     1      -8.948   3.149  63.502  1.00  0.00    -0.092 NA 
BRANCH   3   4
HETATM    4  C   UNL     1      -8.730   4.037  62.339  1.00  0.00    -0.090 C  
HETATM    5  C   UNL     1      -7.487   4.920  62.394  1.00  0.00    -0.043 C  
ENDBRANCH   3   4
BRANCH   3   6
HETATM    6  C   UNL     1      -7.718   2.763  64.231  1.00  0.00    -0.076 C  
BRANCH   6   7
HETATM    7  C   UNL     1      -7.902   3.077  65.697  1.00  0.00    -0.085 C  
BRANCH   7   8
HETATM    8  S   UNL     1      -6.648   4.055  66.507  1.00  0.00    -0.046 S  
HETATM    9  O   UNL     1      -6.131   3.256  67.634  1.00  0.00    -0.027 OA 
HETATM   10  O   UNL     1      -5.779   4.630  65.518  1.00  0.00    -0.017 OA 
BRANCH   8  11
HETATM   11  C   UNL     1      -7.709   5.286  67.162  1.00  0.00    -0.096 C  
HETATM   12  C   UNL     1      -8.358   6.128  66.066  1.00  0.00    -0.136 C  
HETATM   13  C   UNL     1      -8.468   7.518  66.613  1.00  0.00    -0.130 C  
HETATM   14  N   UNL     1      -7.383   7.642  67.576  1.00  0.00    -0.093 N  
HETATM   15  C   UNL     1      -7.152   6.179  68.313  1.00  0.00    -0.082 C  
HETATM   16  C   UNL     1      -8.023   5.438  69.657  1.00  0.00    -0.095 C  
HETATM   17  O   UNL     1      -7.407   5.103  70.868  1.00  0.00    -0.068 OA 
HETATM   18  O   UNL     1      -9.214   5.136  69.482  1.00  0.00    -0.111 OA 
HETATM   19  C   UNL     1      -8.004   4.521  72.271  1.00  0.00    -0.097 C  
HETATM   20  C   UNL     1      -9.180   5.278  73.151  1.00  0.00    -0.134 C  
HETATM   21  C   UNL     1      -7.857   2.999  72.734  1.00  0.00    -0.062 C  
HETATM   22  C   UNL     1      -8.166   1.869  71.770  1.00  0.00    -0.047 C  
HETATM   23  C   UNL     1      -6.532   2.691  73.476  1.00  0.00    -0.021 C  
HETATM   24  C   UNL     1      -9.563   4.741  74.545  1.00  0.00    -0.157 C  
HETATM   25  C   UNL     1     -10.505   5.739  72.588  1.00  0.00    -0.243 C  
HETATM   26  C   UNL     1     -11.037   5.424  71.406  1.00  0.00    -0.077 C  
HETATM   27  C   UNL     1     -11.354   6.601  70.530  1.00  0.00    -0.358 C  
HETATM   28  O   UNL     1     -12.274   6.587  69.752  1.00  0.00    -0.010 OA 
HETATM   29  N   UNL     1     -10.380   7.608  70.508  1.00  0.00    -0.209 N  
HETATM   30  C   UNL     1      -9.272   7.839  71.458  1.00  0.00    -0.137 C  
HETATM   31  H   UNL     1     -10.444   8.268  69.732  1.00  0.00     0.000 HD 
HETATM   32  C   UNL     1      -8.305   8.777  70.946  1.00  0.00    -0.196 C  
HETATM   33  C   UNL     1      -7.156   9.342  71.285  1.00  0.00    -0.015 C  
HETATM   34  C   UNL     1      -6.651  10.438  70.477  1.00  0.00    -0.074 C  
HETATM   35  C   UNL     1      -7.366  11.071  69.522  1.00  0.00    -0.064 C  
HETATM   36  C   UNL     1      -5.278  10.983  70.803  1.00  0.00    -0.106 C  
HETATM   37  C   UNL     1      -8.717  10.842  68.848  1.00  0.00    -0.152 C  
HETATM   38  C   UNL     1      -9.814  11.828  68.901  1.00  0.00    -0.019 C  
HETATM   39  O   UNL     1      -9.185   9.582  68.405  1.00  0.00    -0.130 OA 
HETATM   40  H   UNL     1     -10.026   9.439  67.986  1.00  0.00     0.000 HD 
HETATM   41  C   UNL     1      -9.303  13.096  68.239  1.00  0.00    -0.201 C  
HETATM   42  O   UNL     1      -9.685  14.159  68.752  1.00  0.00    -0.215 OA 
HETATM   43  C   UNL     1      -8.416  13.151  66.925  1.00  0.00    -0.081 C  
HETATM   44  C   UNL     1      -7.514  11.955  66.360  1.00  0.00     0.270 A  
HETATM   45  N   UNL     1      -7.759  10.640  66.191  1.00  0.00    -0.142 NA 
HETATM   46  C   UNL     1      -6.545   9.969  66.528  1.00  0.00    -0.074 A  
HETATM   47  C   UNL     1      -5.566  10.953  66.450  1.00  0.00    -0.109 A  
HETATM   48  C   UNL     1      -6.291   8.537  67.134  1.00  0.00    -0.057 C  
HETATM   49  O   UNL     1      -6.159  12.198  66.397  1.00  0.00    -0.023 OA 
HETATM   50  O   UNL     1      -5.129   8.194  67.364  1.00  0.00    -0.030 OA 
ENDBRANCH   8  11
ENDBRANCH   7   8
ENDBRANCH   6   7
ENDBRANCH   3   6
ENDBRANCH   2   3
TORSDOF 6
ENDMDL
MODEL       14
REMARK 921   NORMALIZED FREE ENERGY PREDICTED BY IDOCK:   -2.78 KCAL/MOL
REMARK 922        TOTAL FREE ENERGY PREDICTED BY IDOCK:   -4.90 KCAL/MOL
REMARK 923 INTER-LIGAND FREE ENERGY PREDICTED BY IDOCK:   -3.88 KCAL/MOL
REMARK 924 INTRA-LIGAND FREE ENERGY PREDICTED BY IDOCK:   -1.02 KCAL/MOL
REMARK 927      BINDING AFFINITY PREDICTED BY RF-SCORE:    0.00 PKD
ROOT
HETATM    1  C   UNL     1     -12.953  14.127  65.395  1.00  0.00    -0.300 C  
HETATM    2  C   UNL     1     -12.087  13.015  65.999  1.00  0.00    -0.432 C  
ENDROOT
BRANCH   2   3
HETATM    3  N   UNL     1     -10.943  13.501  66.782  1.00  0.00    -0.289 NA 
BRANCH   3   4
HETATM    4  C   UNL     1     -11.235  14.740  67.534  1.00  0.00    -0.332 C  
HETATM    5  C   UNL     1     -10.708  14.796  68.965  1.00  0.00    -0.251 C  
ENDBRANCH   3   4
BRANCH   3   6
HETATM    6  C   UNL     1     -10.357  12.405  67.588  1.00  0.00    -0.216 C  
BRANCH   6   7
HETATM    7  C   UNL     1      -9.117  11.898  66.892  1.00  0.00    -0.196 C  
BRANCH   7   8
HETATM    8  S   UNL     1      -7.541  12.167  67.686  1.00  0.00    -0.153 S  
HETATM    9  O   UNL     1      -6.527  12.269  66.620  1.00  0.00    -0.048 OA 
HETATM   10  O   UNL     1      -7.685  13.173  68.702  1.00  0.00    -0.128 OA 
BRANCH   8  11
HETATM   11  C   UNL     1      -7.388  10.586  68.425  1.00  0.00    -0.086 C  
HETATM   12  C   UNL     1      -5.964  10.042  68.330  1.00  0.00    -0.042 C  
HETATM   13  C   UNL     1      -6.091   8.561  68.144  1.00  0.00    -0.051 C  
HETATM   14  N   UNL     1      -7.374   8.361  67.486  1.00  0.00    -0.091 N  
HETATM   15  C   UNL     1      -8.439   9.503  68.034  1.00  0.00    -0.119 C  
HETATM   16  C   UNL     1      -9.404   9.535  69.511  1.00  0.00    -0.190 C  
HETATM   17  O   UNL     1     -10.802   9.569  69.504  1.00  0.00    -0.231 OA 
HETATM   18  O   UNL     1      -8.804   9.608  70.596  1.00  0.00    -0.200 OA 
HETATM   19  C   UNL     1     -11.901   9.497  70.709  1.00  0.00    -0.277 C  
HETATM   20  C   UNL     1     -11.999   8.247  71.787  1.00  0.00    -0.364 C  
HETATM   21  C   UNL     1     -12.703  10.765  71.255  1.00  0.00    -0.546 C  
HETATM   22  C   UNL     1     -11.974  12.056  71.576  1.00  0.00     0.888 C  
HETATM   23  C   UNL     1     -13.991  11.089  70.458  1.00  0.00     2.291 C  
HETATM   24  C   UNL     1     -13.172   8.184  72.785  1.00  0.00     0.216 C  
HETATM   25  C   UNL     1     -10.835   7.722  72.596  1.00  0.00    -0.413 C  
HETATM   26  C   UNL     1      -9.640   8.293  72.759  1.00  0.00    -0.338 C  
HETATM   27  C   UNL     1      -8.478   7.441  72.335  1.00  0.00    -0.112 C  
HETATM   28  O   UNL     1      -7.404   7.514  72.876  1.00  0.00    -0.071 OA 
HETATM   29  N   UNL     1      -8.657   6.743  71.134  1.00  0.00    -0.132 N  
HETATM   30  C   UNL     1      -9.916   6.454  70.414  1.00  0.00    -0.183 C  
HETATM   31  H   UNL     1      -7.806   6.385  70.699  1.00  0.00     0.000 HD 
HETATM   32  C   UNL     1      -9.679   5.982  69.074  1.00  0.00    -0.161 C  
HETATM   33  C   UNL     1     -10.347   5.604  67.994  1.00  0.00    -0.258 C  
HETATM   34  C   UNL     1      -9.616   4.985  66.903  1.00  0.00    -0.162 C  
HETATM   35  C   UNL     1      -8.333   4.570  66.983  1.00  0.00    -0.105 C  
HETATM   36  C   UNL     1     -10.374   4.679  65.629  1.00  0.00    -0.266 C  
HETATM   37  C   UNL     1      -7.212   4.710  68.011  1.00  0.00    -0.065 C  
HETATM   38  C   UNL     1      -6.570   3.547  68.654  1.00  0.00    -0.041 C  
HETATM   39  O   UNL     1      -6.898   5.909  68.693  1.00  0.00    -0.061 OA 
HETATM   40  H   UNL     1      -6.201   5.996  69.332  1.00  0.00     0.000 HD 
HETATM   41  C   UNL     1      -5.932   2.724  67.550  1.00  0.00    -0.023 C  
HETATM   42  O   UNL     1      -5.984   1.493  67.702  1.00  0.00    -0.019 OA 
HETATM   43  C   UNL     1      -5.152   3.313  66.300  1.00  0.00    -0.008 C  
HETATM   44  C   UNL     1      -5.308   4.797  65.720  1.00  0.00    -0.013 A  
HETATM   45  N   UNL     1      -5.343   6.003  66.321  1.00  0.00    -0.009 NA 
HETATM   46  C   UNL     1      -6.307   6.771  65.603  1.00  0.00    -0.042 A  
HETATM   47  C   UNL     1      -6.445   6.112  64.386  1.00  0.00    -0.034 A  
HETATM   48  C   UNL     1      -7.261   7.932  66.074  1.00  0.00    -0.073 C  
HETATM   49  O   UNL     1      -5.870   4.860  64.464  1.00  0.00    -0.017 OA 
HETATM   50  O   UNL     1      -8.039   8.425  65.253  1.00  0.00    -0.123 OA 
ENDBRANCH   8  11
ENDBRANCH   7   8
ENDBRANCH   6   7
ENDBRANCH   3   6
ENDBRANCH   2   3
TORSDOF 6
ENDMDL
MODEL       15
REMARK 921   NORMALIZED FREE ENERGY PREDICTED BY IDOCK:   -2.09 KCAL/MOL
REMARK 922        TOTAL FREE ENERGY PREDICTED BY IDOCK:   -3.97 KCAL/MOL
REMARK 923 INTER-LIGAND FREE ENERGY PREDICTED BY IDOCK:   -3.06 KCAL/MOL
REMARK 924 INTRA-LIGAND FREE ENERGY PREDICTED BY IDOCK:   -0.91 KCAL/MOL
REMARK 927      BINDING AFFINITY PREDICTED BY RF-SCORE:    0.00 PKD
ROOT
HETATM    1  C   UNL     1     -12.133  15.060  67.272  1.00  0.00     0.092 C  
HETATM    2  C   UNL     1     -10.804  14.694  66.600  1.00  0.00    -0.312 C  
ENDROOT
BRANCH   2   3
HETATM    3  N   UNL     1      -9.724  14.368  67.541  1.00  0.00    -0.213 NA 
BRANCH   3   4
HETATM    4  C   UNL     1     -10.172  14.316  68.949  1.00  0.00    -0.200 C  
HETATM    5  C   UNL     1      -9.446  15.244  69.919  1.00  0.00    -0.020 C  
ENDBRANCH   3   4
BRANCH   3   6
HETATM    6  C   UNL     1      -8.970  13.178  67.082  1.00  0.00    -0.228 C  
BRANCH   6   7
HETATM    7  C   UNL     1      -9.584  11.945  67.702  1.00  0.00    -0.185 C  
BRANCH   7   8
HETATM    8  S   UNL     1     -11.097  11.316  66.993  1.00  0.00    -0.254 S  
HETATM    9  O   UNL     1     -12.179  11.599  67.954  1.00  0.00    -0.560 OA 
HETATM   10  O   UNL     1     -11.177  11.711  65.614  1.00  0.00    -0.292 OA 
BRANCH   8  11
HETATM   11  C   UNL     1     -10.708   9.611  67.107  1.00  0.00    -0.188 C  
HETATM   12  C   UNL     1     -11.767   8.831  67.884  1.00  0.00     2.259 C  
HETATM   13  C   UNL     1     -11.034   7.768  68.641  1.00  0.00     0.166 C  
HETATM   14  N   UNL     1      -9.698   8.302  68.867  1.00  0.00    -0.161 N  
HETATM   15  C   UNL     1      -9.268   9.230  67.566  1.00  0.00    -0.124 C  
HETATM   16  C   UNL     1      -8.617   8.749  65.998  1.00  0.00    -0.148 C  
HETATM   17  O   UNL     1      -7.363   9.164  65.537  1.00  0.00    -0.087 OA 
HETATM   18  O   UNL     1      -9.343   8.077  65.249  1.00  0.00     0.228 OA 
HETATM   19  C   UNL     1      -6.510   8.778  64.200  1.00  0.00    -0.072 C  
HETATM   20  C   UNL     1      -6.075   7.233  63.805  1.00  0.00    -0.045 C  
HETATM   21  C   UNL     1      -6.368   9.737  62.931  1.00  0.00    -0.110 C  
HETATM   22  C   UNL     1      -7.590  10.412  62.337  1.00  0.00    -0.166 C  
HETATM   23  C   UNL     1      -5.218  10.769  63.045  1.00  0.00    -0.179 C  
HETATM   24  C   UNL     1      -5.128   6.983  62.613  1.00  0.00    -0.032 C  
HETATM   25  C   UNL     1      -7.034   6.068  63.728  1.00  0.00    -0.043 C  
HETATM   26  C   UNL     1      -8.367   6.115  63.730  1.00  0.00     0.081 C  
HETATM   27  C   UNL     1      -9.019   5.330  64.832  1.00  0.00    -0.040 C  
HETATM   28  O   UNL     1     -10.098   4.811  64.692  1.00  0.00     0.081 OA 
HETATM   29  N   UNL     1      -8.407   5.442  66.087  1.00  0.00    -0.114 N  
HETATM   30  C   UNL     1      -7.050   5.931  66.410  1.00  0.00    -0.068 C  
HETATM   31  H   UNL     1      -8.973   5.148  66.883  1.00  0.00     0.000 HD 
HETATM   32  C   UNL     1      -6.885   6.185  67.819  1.00  0.00    -0.063 C  
HETATM   33  C   UNL     1      -5.977   6.627  68.675  1.00  0.00    -0.022 C  
HETATM   34  C   UNL     1      -6.235   6.496  70.098  1.00  0.00    -0.035 C  
HETATM   35  C   UNL     1      -7.243   5.767  70.625  1.00  0.00    -0.082 C  
HETATM   36  C   UNL     1      -5.246   7.123  71.057  1.00  0.00    -0.027 C  
HETATM   37  C   UNL     1      -8.461   5.036  70.063  1.00  0.00    -0.091 C  
HETATM   38  C   UNL     1      -8.668   3.584  70.233  1.00  0.00    -0.120 C  
HETATM   39  O   UNL     1      -9.320   5.561  69.070  1.00  0.00    -0.116 OA 
HETATM   40  H   UNL     1     -10.077   5.106  68.720  1.00  0.00     0.000 HD 
HETATM   41  C   UNL     1      -8.760   3.321  71.726  1.00  0.00    -0.084 C  
HETATM   42  O   UNL     1      -8.242   2.262  72.115  1.00  0.00    -0.053 OA 
HETATM   43  C   UNL     1      -9.524   4.235  72.774  1.00  0.00    -0.158 C  
HETATM   44  C   UNL     1      -9.894   5.779  72.566  1.00  0.00    -0.162 A  
HETATM   45  N   UNL     1     -10.430   6.448  71.526  1.00  0.00    -0.214 NA 
HETATM   46  C   UNL     1      -9.761   7.709  71.486  1.00  0.00    -0.165 A  
HETATM   47  C   UNL     1      -9.200   7.850  72.750  1.00  0.00    -0.221 A  
HETATM   48  C   UNL     1      -9.429   8.662  70.276  1.00  0.00    -0.167 C  
HETATM   49  O   UNL     1      -9.232   6.640  73.413  1.00  0.00    -0.127 OA 
HETATM   50  O   UNL     1      -8.805   9.702  70.502  1.00  0.00    -0.225 OA 
ENDBRANCH   8  11
ENDBRANCH   7   8
ENDBRANCH   6   7
ENDBRANCH   3   6
ENDBRANCH   2   3
TORSDOF 6
ENDMDL
MODEL       16
REMARK 921   NORMALIZED FREE ENERGY PREDICTED BY IDOCK:   -1.77 KCAL/MOL
REMARK 922        TOTAL FREE ENERGY PREDICTED BY IDOCK:   -3.54 KCAL/MOL
REMARK 923 INTER-LIGAND FREE ENERGY PREDICTED BY IDOCK:   -2.95 KCAL/MOL
REMARK 924 INTRA-LIGAND FREE ENERGY PREDICTED BY IDOCK:   -0.58 KCAL/MOL
REMARK 927      BINDING AFFINITY PREDICTED BY RF-SCORE:    0.00 PKD
ROOT
HETATM    1  C   UNL     1     -10.537   3.935  74.197  1.00  0.00    -0.278 C  
HETATM    2  C   UNL     1     -11.420   4.361  73.018  1.00  0.00    -0.060 C  
ENDROOT
BRANCH   2   3
HETATM    3  N   UNL     1     -11.529   5.815  72.843  1.00  0.00    -0.252 NA 
BRANCH   3   4
HETATM    4  C   UNL     1     -10.219   6.483  72.677  1.00  0.00    -0.186 C  
HETATM    5  C   UNL     1      -9.705   7.260  73.885  1.00  0.00    -0.323 C  
ENDBRANCH   3   4
BRANCH   3   6
HETATM    6  C   UNL     1     -12.532   6.144  71.804  1.00  0.00     0.144 C  
BRANCH   6   7
HETATM    7  C   UNL     1     -12.040   7.331  71.010  1.00  0.00    -0.324 C  
BRANCH   7   8
HETATM    8  S   UNL     1     -12.770   8.925  71.349  1.00  0.00    -0.271 S  
HETATM    9  O   UNL     1     -13.837   9.136  70.353  1.00  0.00     0.541 OA 
HETATM   10  O   UNL     1     -13.007   9.050  72.760  1.00  0.00    -0.358 OA 
BRANCH   8  11
HETATM   11  C   UNL     1     -11.396   9.907  70.882  1.00  0.00    -0.370 C  
HETATM   12  C   UNL     1     -11.551  11.360  71.324  1.00  0.00     0.973 C  
HETATM   13  C   UNL     1     -10.922  12.195  70.252  1.00  0.00     1.086 C  
HETATM   14  N   UNL     1     -11.047  11.415  69.029  1.00  0.00    -0.225 N  
HETATM   15  C   UNL     1     -10.910   9.809  69.404  1.00  0.00    -0.232 C  
HETATM   16  C   UNL     1      -9.468   8.827  69.671  1.00  0.00    -0.170 C  
HETATM   17  O   UNL     1      -9.145   7.721  68.878  1.00  0.00    -0.141 OA 
HETATM   18  O   UNL     1      -8.758   9.094  70.654  1.00  0.00    -0.192 OA 
HETATM   19  C   UNL     1      -7.842   6.738  68.856  1.00  0.00    -0.111 C  
HETATM   20  C   UNL     1      -6.295   7.273  68.629  1.00  0.00    -0.036 C  
HETATM   21  C   UNL     1      -7.836   5.260  69.459  1.00  0.00    -0.084 C  
HETATM   22  C   UNL     1      -8.406   4.989  70.838  1.00  0.00    -0.112 C  
HETATM   23  C   UNL     1      -8.341   4.175  68.475  1.00  0.00    -0.092 C  
HETATM   24  C   UNL     1      -5.148   6.256  68.457  1.00  0.00    -0.007 C  
HETATM   25  C   UNL     1      -5.649   8.383  69.426  1.00  0.00    -0.031 C  
HETATM   26  C   UNL     1      -6.098   8.939  70.552  1.00  0.00    -0.037 C  
HETATM   27  C   UNL     1      -6.304  10.425  70.477  1.00  0.00    -0.101 C  
HETATM   28  O   UNL     1      -6.159  11.137  71.438  1.00  0.00    -0.199 OA 
HETATM   29  N   UNL     1      -6.897  10.885  69.295  1.00  0.00    -0.092 N  
HETATM   30  C   UNL     1      -7.034  10.187  67.999  1.00  0.00    -0.082 C  
HETATM   31  H   UNL     1      -7.286  11.828  69.333  1.00  0.00     0.000 HD 
HETATM   32  C   UNL     1      -7.960  10.853  67.119  1.00  0.00    -0.127 C  
HETATM   33  C   UNL     1      -8.495  10.720  65.914  1.00  0.00    -0.166 C  
HETATM   34  C   UNL     1      -9.263  11.824  65.366  1.00  0.00    -0.023 C  
HETATM   35  C   UNL     1      -9.303  13.064  65.901  1.00  0.00     0.047 C  
HETATM   36  C   UNL     1      -9.973  11.605  64.047  1.00  0.00    -0.328 C  
HETATM   37  C   UNL     1      -8.803  13.702  67.195  1.00  0.00    -0.230 C  
HETATM   38  C   UNL     1      -7.840  14.821  67.212  1.00  0.00    -0.223 C  
HETATM   39  O   UNL     1      -8.924  13.114  68.475  1.00  0.00    -0.311 OA 
HETATM   40  H   UNL     1      -8.613  13.511  69.281  1.00  0.00     0.000 HD 
HETATM   41  C   UNL     1      -8.493  15.980  66.479  1.00  0.00    -0.313 C  
HETATM   42  O   UNL     1      -7.730  16.671  65.786  1.00  0.00    -0.041 OA 
HETATM   43  C   UNL     1     -10.016  16.405  66.606  1.00  0.00    -0.281 C  
HETATM   44  C   UNL     1     -11.208  15.457  67.099  1.00  0.00    -0.256 A  
HETATM   45  N   UNL     1     -11.315  14.605  68.139  1.00  0.00    -0.288 NA 
HETATM   46  C   UNL     1     -12.060  13.489  67.654  1.00  0.00    -0.283 A  
HETATM   47  C   UNL     1     -12.696  13.959  66.511  1.00  0.00    -0.029 A  
HETATM   48  C   UNL     1     -12.023  11.968  68.064  1.00  0.00    -0.144 C  
HETATM   49  O   UNL     1     -12.139  15.162  66.128  1.00  0.00     0.045 OA 
HETATM   50  O   UNL     1     -12.759  11.180  67.465  1.00  0.00     1.625 OA 
ENDBRANCH   8  11
ENDBRANCH   7   8
ENDBRANCH   6   7
ENDBRANCH   3   6
ENDBRANCH   2   3
TORSDOF 6
ENDMDL
MODEL       17
REMARK 921   NORMALIZED FREE ENERGY PREDICTED BY IDOCK:   -1.71 KCAL/MOL
REMARK 922        TOTAL FREE ENERGY PREDICTED BY IDOCK:   -3.46 KCAL/MOL
REMARK 923 INTER-LIGAND FREE ENERGY PREDICTED BY IDOCK:   -3.60 KCAL/MOL
REMARK 924 INTRA-LIGAND FREE ENERGY PREDICTED BY IDOCK:    0.14 KCAL/MOL
REMARK 927      BINDING AFFINITY PREDICTED BY RF-SCORE:    0.00 PKD
ROOT
HETATM    1  C   UNL     1     -10.333   5.748  74.023  1.00  0.00    -0.295 C  
HETATM    2  C   UNL     1     -11.029   6.970  73.412  1.00  0.00    -0.216 C  
ENDROOT
BRANCH   2   3
HETATM    3  N   UNL     1     -11.809   6.677  72.203  1.00  0.00    -0.307 NA 
BRANCH   3   4
HETATM    4  C   UNL     1     -13.270   6.700  72.431  1.00  0.00     0.368 C  
HETATM    5  C   UNL     1     -14.143   6.790  71.182  1.00  0.00     0.206 C  
ENDBRANCH   3   4
BRANCH   3   6
HETATM    6  C   UNL     1     -11.343   7.502  71.065  1.00  0.00    -0.273 C  
BRANCH   6   7
HETATM    7  C   UNL     1     -11.104   8.912  71.552  1.00  0.00    -0.326 C  
BRANCH   7   8
HETATM    8  S   UNL     1     -12.230  10.187  71.008  1.00  0.00    -0.406 S  
HETATM    9  O   UNL     1     -13.598   9.669  71.196  1.00  0.00    -0.340 OA 
HETATM   10  O   UNL     1     -11.812  11.452  71.545  1.00  0.00     0.302 OA 
BRANCH   8  11
HETATM   11  C   UNL     1     -11.854  10.106  69.299  1.00  0.00     0.078 C  
HETATM   12  C   UNL     1     -12.148   8.728  68.710  1.00  0.00     2.641 C  
HETATM   13  C   UNL     1     -11.094   8.479  67.676  1.00  0.00     0.401 C  
HETATM   14  N   UNL     1      -9.936   9.249  68.108  1.00  0.00    -0.170 N  
HETATM   15  C   UNL     1     -10.461  10.636  68.841  1.00  0.00    -0.210 C  
HETATM   16  C   UNL     1     -10.988  12.163  68.131  1.00  0.00    -0.230 C  
HETATM   17  O   UNL     1     -10.339  13.378  68.375  1.00  0.00    -0.242 OA 
HETATM   18  O   UNL     1     -12.024  12.160  67.448  1.00  0.00    -0.563 OA 
HETATM   19  C   UNL     1     -10.562  14.876  67.767  1.00  0.00    -0.262 C  
HETATM   20  C   UNL     1     -10.484  15.230  66.154  1.00  0.00    -0.318 C  
HETATM   21  C   UNL     1     -11.285  16.058  68.560  1.00  0.00    -0.374 C  
HETATM   22  C   UNL     1     -12.602  15.812  69.274  1.00  0.00     0.343 C  
HETATM   23  C   UNL     1     -10.343  16.863  69.489  1.00  0.00    -0.189 C  
HETATM   24  C   UNL     1     -10.542  16.699  65.687  1.00  0.00    -0.282 C  
HETATM   25  C   UNL     1     -11.257  14.500  65.080  1.00  0.00    -0.384 C  
HETATM   26  C   UNL     1     -12.266  13.646  65.248  1.00  0.00    -0.466 C  
HETATM   27  C   UNL     1     -12.040  12.285  64.654  1.00  0.00    -0.374 C  
HETATM   28  O   UNL     1     -12.947  11.619  64.223  1.00  0.00    -0.200 OA 
HETATM   29  N   UNL     1     -10.758  11.755  64.849  1.00  0.00    -0.284 N  
HETATM   30  C   UNL     1      -9.520  12.459  65.245  1.00  0.00     0.115 C  
HETATM   31  H   UNL     1     -10.667  10.750  64.698  1.00  0.00     0.000 HD 
HETATM   32  C   UNL     1      -8.478  11.545  65.639  1.00  0.00     0.193 C  
HETATM   33  C   UNL     1      -7.233  11.554  66.090  1.00  0.00     0.237 C  
HETATM   34  C   UNL     1      -6.501  10.300  66.143  1.00  0.00    -0.103 C  
HETATM   35  C   UNL     1      -6.919   9.150  65.572  1.00  0.00    -0.081 C  
HETATM   36  C   UNL     1      -5.128  10.310  66.780  1.00  0.00    -0.040 C  
HETATM   37  C   UNL     1      -8.205   8.680  64.897  1.00  0.00    -0.157 C  
HETATM   38  C   UNL     1      -8.246   8.208  63.498  1.00  0.00    -0.058 C  
HETATM   39  O   UNL     1      -9.507   8.945  65.384  1.00  0.00    -0.430 OA 
HETATM   40  H   UNL     1     -10.307   8.654  64.964  1.00  0.00     0.000 HD 
HETATM   41  C   UNL     1      -7.342   6.992  63.414  1.00  0.00    -0.081 C  
HETATM   42  O   UNL     1      -6.691   6.881  62.362  1.00  0.00    -0.046 OA 
HETATM   43  C   UNL     1      -7.242   5.844  64.505  1.00  0.00    -0.063 C  
HETATM   44  C   UNL     1      -7.663   5.984  66.043  1.00  0.00    -0.095 A  
HETATM   45  N   UNL     1      -8.750   6.515  66.638  1.00  0.00    -0.124 NA 
HETATM   46  C   UNL     1      -8.275   7.158  67.819  1.00  0.00    -0.115 A  
HETATM   47  C   UNL     1      -7.025   6.592  68.050  1.00  0.00    -0.080 A  
HETATM   48  C   UNL     1      -8.814   8.418  68.597  1.00  0.00    -0.136 C  
HETATM   49  O   UNL     1      -6.612   5.900  66.930  1.00  0.00    -0.052 OA 
HETATM   50  O   UNL     1      -8.198   8.801  69.595  1.00  0.00    -0.107 OA 
ENDBRANCH   8  11
ENDBRANCH   7   8
ENDBRANCH   6   7
ENDBRANCH   3   6
ENDBRANCH   2   3
TORSDOF 6
ENDMDL
MODEL       18
REMARK 921   NORMALIZED FREE ENERGY PREDICTED BY IDOCK:   -1.68 KCAL/MOL
REMARK 922        TOTAL FREE ENERGY PREDICTED BY IDOCK:   -3.42 KCAL/MOL
REMARK 923 INTER-LIGAND FREE ENERGY PREDICTED BY IDOCK:   -2.58 KCAL/MOL
REMARK 924 INTRA-LIGAND FREE ENERGY PREDICTED BY IDOCK:   -0.83 KCAL/MOL
REMARK 927      BINDING AFFINITY PREDICTED BY RF-SCORE:    0.00 PKD
ROOT
HETATM    1  C   UNL     1     -10.252  11.937  65.716  1.00  0.00    -0.276 C  
HETATM    2  C   UNL     1      -9.289  12.974  66.308  1.00  0.00    -0.140 C  
ENDROOT
BRANCH   2   3
HETATM    3  N   UNL     1      -8.285  12.411  67.220  1.00  0.00    -0.177 NA 
BRANCH   3   4
HETATM    4  C   UNL     1      -7.123  13.301  67.431  1.00  0.00    -0.099 C  
HETATM    5  C   UNL     1      -7.242  14.298  68.580  1.00  0.00    -0.125 C  
ENDBRANCH   3   4
BRANCH   3   6
HETATM    6  C   UNL     1      -8.924  11.915  68.461  1.00  0.00    -0.115 C  
BRANCH   6   7
HETATM    7  C   UNL     1      -8.229  10.645  68.893  1.00  0.00    -0.145 C  
BRANCH   7   8
HETATM    8  S   UNL     1      -9.163   9.466  69.855  1.00  0.00    -0.224 S  
HETATM    9  O   UNL     1      -8.893   9.753  71.277  1.00  0.00     0.045 OA 
HETATM   10  O   UNL     1     -10.499   9.377  69.334  1.00  0.00    -0.206 OA 
BRANCH   8  11
HETATM   11  C   UNL     1      -8.249   8.039  69.411  1.00  0.00    -0.122 C  
HETATM   12  C   UNL     1      -7.011   8.382  68.585  1.00  0.00    -0.068 C  
HETATM   13  C   UNL     1      -6.841   7.267  67.600  1.00  0.00    -0.074 C  
HETATM   14  N   UNL     1      -8.178   6.736  67.379  1.00  0.00    -0.121 N  
HETATM   15  C   UNL     1      -9.036   6.844  68.790  1.00  0.00    -0.130 C  
HETATM   16  C   UNL     1      -9.039   5.779  70.197  1.00  0.00    -0.140 C  
HETATM   17  O   UNL     1     -10.183   5.102  70.633  1.00  0.00    -0.237 OA 
HETATM   18  O   UNL     1      -7.996   5.695  70.864  1.00  0.00    -0.105 OA 
HETATM   19  C   UNL     1     -10.414   4.002  71.816  1.00  0.00     0.123 C  
HETATM   20  C   UNL     1      -9.606   2.561  71.898  1.00  0.00    -0.208 C  
HETATM   21  C   UNL     1     -11.091   4.339  73.222  1.00  0.00    -0.342 C  
HETATM   22  C   UNL     1     -10.656   5.558  74.013  1.00  0.00    -0.283 C  
HETATM   23  C   UNL     1     -12.638   4.262  73.213  1.00  0.00     0.871 C  
HETATM   24  C   UNL     1     -10.010   1.514  72.956  1.00  0.00    -0.151 C  
HETATM   25  C   UNL     1      -8.103   2.419  71.834  1.00  0.00    -0.053 C  
HETATM   26  C   UNL     1      -7.193   3.389  71.935  1.00  0.00    -0.046 C  
HETATM   27  C   UNL     1      -6.264   3.500  70.761  1.00  0.00    -0.019 C  
HETATM   28  O   UNL     1      -5.126   3.877  70.882  1.00  0.00     0.000 OA 
HETATM   29  N   UNL     1      -6.872   3.368  69.506  1.00  0.00    -0.040 N  
HETATM   30  C   UNL     1      -8.200   2.808  69.178  1.00  0.00    -0.054 C  
HETATM   31  H   UNL     1      -6.325   3.704  68.712  1.00  0.00     0.000 HD 
HETATM   32  C   UNL     1      -8.602   3.116  67.829  1.00  0.00    -0.118 C  
HETATM   33  C   UNL     1      -9.621   2.932  67.003  1.00  0.00     0.057 C  
HETATM   34  C   UNL     1      -9.455   3.275  65.602  1.00  0.00    -0.097 C  
HETATM   35  C   UNL     1      -8.269   3.574  65.027  1.00  0.00    -0.094 C  
HETATM   36  C   UNL     1     -10.667   3.180  64.702  1.00  0.00     0.429 C  
HETATM   37  C   UNL     1      -6.851   3.826  65.535  1.00  0.00    -0.053 C  
HETATM   38  C   UNL     1      -5.698   3.002  65.123  1.00  0.00    -0.018 C  
HETATM   39  O   UNL     1      -6.536   4.617  66.664  1.00  0.00    -0.047 OA 
HETATM   40  H   UNL     1      -5.654   4.775  66.980  1.00  0.00     0.000 HD 
HETATM   41  C   UNL     1      -5.562   3.148  63.618  1.00  0.00    -0.009 C  
HETATM   42  O   UNL     1      -5.214   2.123  63.010  1.00  0.00    -0.006 OA 
HETATM   43  C   UNL     1      -5.743   4.500  62.807  1.00  0.00    -0.013 C  
HETATM   44  C   UNL     1      -6.550   5.787  63.312  1.00  0.00    -0.032 A  
HETATM   45  N   UNL     1      -6.561   6.442  64.490  1.00  0.00    -0.034 NA 
HETATM   46  C   UNL     1      -7.916   6.833  64.707  1.00  0.00    -0.120 A  
HETATM   47  C   UNL     1      -8.509   6.759  63.451  1.00  0.00     0.329 A  
HETATM   48  C   UNL     1      -8.729   7.044  66.040  1.00  0.00    -0.144 C  
HETATM   49  O   UNL     1      -7.688   6.065  62.587  1.00  0.00    -0.069 OA 
HETATM   50  O   UNL     1      -9.918   7.361  65.960  1.00  0.00     0.114 OA 
ENDBRANCH   8  11
ENDBRANCH   7   8
ENDBRANCH   6   7
ENDBRANCH   3   6
ENDBRANCH   2   3
TORSDOF 6
ENDMDL
MODEL       19
REMARK 921   NORMALIZED FREE ENERGY PREDICTED BY IDOCK:   -1.40 KCAL/MOL
REMARK 922        TOTAL FREE ENERGY PREDICTED BY IDOCK:   -3.03 KCAL/MOL
REMARK 923 INTER-LIGAND FREE ENERGY PREDICTED BY IDOCK:   -2.83 KCAL/MOL
REMARK 924 INTRA-LIGAND FREE ENERGY PREDICTED BY IDOCK:   -0.20 KCAL/MOL
REMARK 927      BINDING AFFINITY PREDICTED BY RF-SCORE:    0.00 PKD
ROOT
HETATM    1  C   UNL     1     -13.620  15.793  72.909  1.00  0.00    -0.660 C  
HETATM    2  C   UNL     1     -12.718  14.838  72.118  1.00  0.00    -0.326 C  
ENDROOT
BRANCH   2   3
HETATM    3  N   UNL     1     -12.856  14.948  70.660  1.00  0.00    -0.359 NA 
BRANCH   3   4
HETATM    4  C   UNL     1     -12.075  16.063  70.081  1.00  0.00    -0.138 C  
HETATM    5  C   UNL     1     -10.629  15.746  69.710  1.00  0.00    -0.312 C  
ENDBRANCH   3   4
BRANCH   3   6
HETATM    6  C   UNL     1     -12.640  13.633  70.012  1.00  0.00    -0.110 C  
BRANCH   6   7
HETATM    7  C   UNL     1     -12.297  12.617  71.075  1.00  0.00    -0.211 C  
BRANCH   7   8
HETATM    8  S   UNL     1     -12.254  10.896  70.605  1.00  0.00    -0.404 S  
HETATM    9  O   UNL     1     -12.197  10.105  71.850  1.00  0.00    -0.332 OA 
HETATM   10  O   UNL     1     -13.242  10.654  69.591  1.00  0.00     0.039 OA 
BRANCH   8  11
HETATM   11  C   UNL     1     -10.653  10.896  69.895  1.00  0.00     0.014 C  
HETATM   12  C   UNL     1     -10.391  12.151  69.066  1.00  0.00    -0.014 C  
HETATM   13  C   UNL     1      -9.540  11.724  67.911  1.00  0.00    -0.187 C  
HETATM   14  N   UNL     1      -9.870  10.324  67.683  1.00  0.00    -0.167 N  
HETATM   15  C   UNL     1     -10.200   9.609  69.138  1.00  0.00    -0.202 C  
HETATM   16  C   UNL     1      -9.101   8.966  70.359  1.00  0.00    -0.190 C  
HETATM   17  O   UNL     1      -9.099   7.622  70.746  1.00  0.00    -0.151 OA 
HETATM   18  O   UNL     1      -8.354   9.764  70.947  1.00  0.00    -0.210 OA 
HETATM   19  C   UNL     1      -8.131   6.778  71.753  1.00  0.00    -0.102 C  
HETATM   20  C   UNL     1      -6.492   6.661  71.565  1.00  0.00    -0.042 C  
HETATM   21  C   UNL     1      -8.552   6.339  73.230  1.00  0.00    -0.122 C  
HETATM   22  C   UNL     1      -9.190   7.339  74.176  1.00  0.00    -0.272 C  
HETATM   23  C   UNL     1      -9.336   5.005  73.292  1.00  0.00    -0.137 C  
HETATM   24  C   UNL     1      -5.682   5.707  72.466  1.00  0.00    -0.026 C  
HETATM   25  C   UNL     1      -5.565   7.842  71.397  1.00  0.00    -0.035 C  
HETATM   26  C   UNL     1      -5.848   9.129  71.599  1.00  0.00    -0.073 C  
HETATM   27  C   UNL     1      -5.621  10.014  70.407  1.00  0.00    -0.056 C  
HETATM   28  O   UNL     1      -5.289  11.167  70.524  1.00  0.00    -0.088 OA 
HETATM   29  N   UNL     1      -6.046   9.485  69.182  1.00  0.00    -0.041 N  
HETATM   30  C   UNL     1      -6.364   8.082  68.844  1.00  0.00    -0.040 C  
HETATM   31  H   UNL     1      -6.150  10.158  68.422  1.00  0.00     0.000 HD 
HETATM   32  C   UNL     1      -7.053   7.969  67.584  1.00  0.00    -0.083 C  
HETATM   33  C   UNL     1      -7.591   7.050  66.796  1.00  0.00    -0.090 C  
HETATM   34  C   UNL     1      -8.007   7.434  65.459  1.00  0.00    -0.122 C  
HETATM   35  C   UNL     1      -7.697   8.611  64.874  1.00  0.00    -0.106 C  
HETATM   36  C   UNL     1      -8.737   6.405  64.623  1.00  0.00     0.294 C  
HETATM   37  C   UNL     1      -7.049   9.914  65.337  1.00  0.00    -0.121 C  
HETATM   38  C   UNL     1      -5.807  10.443  64.739  1.00  0.00    -0.129 C  
HETATM   39  O   UNL     1      -7.345  10.565  66.557  1.00  0.00    -0.111 OA 
HETATM   40  H   UNL     1      -6.942  11.375  66.845  1.00  0.00     0.000 HD 
HETATM   41  C   UNL     1      -6.094  10.698  63.270  1.00  0.00    -0.010 C  
HETATM   42  O   UNL     1      -5.160  10.452  62.492  1.00  0.00    -0.093 OA 
HETATM   43  C   UNL     1      -7.435  11.320  62.692  1.00  0.00     0.362 C  
HETATM   44  C   UNL     1      -8.852  11.330  63.435  1.00  0.00     0.050 A  
HETATM   45  N   UNL     1      -9.208  11.631  64.700  1.00  0.00     0.041 NA 
HETATM   46  C   UNL     1     -10.235  10.705  65.049  1.00  0.00    -0.310 A  
HETATM   47  C   UNL     1     -10.700  10.219  63.831  1.00  0.00     1.253 A  
HETATM   48  C   UNL     1     -10.638  10.086  66.441  1.00  0.00    -0.068 C  
HETATM   49  O   UNL     1      -9.819  10.560  62.826  1.00  0.00    -0.294 OA 
HETATM   50  O   UNL     1     -11.562   9.270  66.476  1.00  0.00     1.657 OA 
ENDBRANCH   8  11
ENDBRANCH   7   8
ENDBRANCH   6   7
ENDBRANCH   3   6
ENDBRANCH   2   3
TORSDOF 6
ENDMDL
MODEL       20
REMARK 921   NORMALIZED FREE ENERGY PREDICTED BY IDOCK:   -0.35 KCAL/MOL
REMARK 922        TOTAL FREE ENERGY PREDICTED BY IDOCK:   -1.62 KCAL/MOL
REMARK 923 INTER-LIGAND FREE ENERGY PREDICTED BY IDOCK:   -0.63 KCAL/MOL
REMARK 924 INTRA-LIGAND FREE ENERGY PREDICTED BY IDOCK:   -0.98 KCAL/MOL
REMARK 927      BINDING AFFINITY PREDICTED BY RF-SCORE:    0.00 PKD
ROOT
HETATM    1  C   UNL     1      -8.263   8.088  63.534  1.00  0.00    -0.038 C  
HETATM    2  C   UNL     1      -9.181   9.289  63.790  1.00  0.00     0.227 C  
ENDROOT
BRANCH   2   3
HETATM    3  N   UNL     1      -8.622  10.577  63.359  1.00  0.00    -0.178 NA 
BRANCH   3   4
HETATM    4  C   UNL     1      -7.546  10.439  62.354  1.00  0.00    -0.143 C  
HETATM    5  C   UNL     1      -6.158  10.904  62.789  1.00  0.00     0.023 C  
ENDBRANCH   3   4
BRANCH   3   6
HETATM    6  C   UNL     1      -9.703  11.521  62.989  1.00  0.00    -0.359 C  
BRANCH   6   7
HETATM    7  C   UNL     1     -10.988  11.069  63.642  1.00  0.00     0.014 C  
BRANCH   7   8
HETATM    8  S   UNL     1     -12.402  12.154  63.546  1.00  0.00    -0.509 S  
HETATM    9  O   UNL     1     -12.063  13.228  62.592  1.00  0.00     0.185 OA 
HETATM   10  O   UNL     1     -13.598  11.369  63.417  1.00  0.00     0.058 OA 
BRANCH   8  11
HETATM   11  C   UNL     1     -12.289  12.816  65.163  1.00  0.00    -0.496 C  
HETATM   12  C   UNL     1     -13.183  14.041  65.347  1.00  0.00    -0.029 C  
HETATM   13  C   UNL     1     -12.447  14.964  66.268  1.00  0.00     0.363 C  
HETATM   14  N   UNL     1     -11.036  14.675  66.062  1.00  0.00    -0.318 N  
HETATM   15  C   UNL     1     -10.863  13.060  65.744  1.00  0.00    -0.272 C  
HETATM   16  C   UNL     1     -10.799  11.689  66.853  1.00  0.00    -0.278 C  
HETATM   17  O   UNL     1      -9.688  10.844  66.953  1.00  0.00    -0.176 OA 
HETATM   18  O   UNL     1     -11.818  11.426  67.512  1.00  0.00    -0.614 OA 
HETATM   19  C   UNL     1      -9.350   9.601  67.955  1.00  0.00    -0.132 C  
HETATM   20  C   UNL     1      -9.318   9.734  69.603  1.00  0.00    -0.237 C  
HETATM   21  C   UNL     1      -9.433   8.066  67.524  1.00  0.00    -0.177 C  
HETATM   22  C   UNL     1     -10.645   7.542  66.776  1.00  0.00    -0.269 C  
HETATM   23  C   UNL     1      -8.146   7.528  66.851  1.00  0.00    -0.116 C  
HETATM   24  C   UNL     1      -8.826   8.550  70.460  1.00  0.00    -0.168 C  
HETATM   25  C   UNL     1     -10.439  10.315  70.435  1.00  0.00    -0.141 C  
HETATM   26  C   UNL     1     -11.683  10.589  70.040  1.00  0.00    -0.394 C  
HETATM   27  C   UNL     1     -12.099  12.019  70.232  1.00  0.00    -0.312 C  
HETATM   28  O   UNL     1     -13.241  12.324  70.464  1.00  0.00     0.354 OA 
HETATM   29  N   UNL     1     -11.131  12.972  69.892  1.00  0.00    -0.429 N  
HETATM   30  C   UNL     1      -9.677  12.783  69.702  1.00  0.00     1.675 C  
HETATM   31  H   UNL     1     -11.475  13.924  69.757  1.00  0.00     0.000 HD 
HETATM   32  C   UNL     1      -9.060  13.919  69.065  1.00  0.00     0.212 C  
HETATM   33  C   UNL     1      -7.877  14.324  68.630  1.00  0.00    -0.140 C  
HETATM   34  C   UNL     1      -7.718  15.711  68.227  1.00  0.00    -0.130 C  
HETATM   35  C   UNL     1      -8.631  16.680  68.458  1.00  0.00    -0.234 C  
HETATM   36  C   UNL     1      -6.398  16.121  67.612  1.00  0.00    -0.181 C  
HETATM   37  C   UNL     1     -10.065  16.716  68.981  1.00  0.00    -0.293 C  
HETATM   38  C   UNL     1     -10.453  17.463  70.194  1.00  0.00     0.701 C  
HETATM   39  O   UNL     1     -11.080  15.811  68.593  1.00  0.00    -0.287 OA 
HETATM   40  H   UNL     1     -11.973  15.833  68.918  1.00  0.00     0.000 HD 
HETATM   41  C   UNL     1     -10.139  18.925  69.934  1.00  0.00     0.774 C  
HETATM   42  O   UNL     1      -9.714  19.563  70.910  1.00  0.00     1.268 OA 
HETATM   43  C   UNL     1     -10.391  19.689  68.566  1.00  0.00    -0.459 C  
HETATM   44  C   UNL     1     -10.541  19.000  67.129  1.00  0.00    -0.462 A  
HETATM   45  N   UNL     1     -11.242  17.928  66.710  1.00  0.00     0.430 NA 
HETATM   46  C   UNL     1     -10.414  17.269  65.751  1.00  0.00    -0.229 A  
HETATM   47  C   UNL     1      -9.486  18.232  65.368  1.00  0.00     1.300 A  
HETATM   48  C   UNL     1     -10.302  15.749  65.356  1.00  0.00    -0.389 C  
HETATM   49  O   UNL     1      -9.522  19.292  66.250  1.00  0.00    -0.342 OA 
HETATM   50  O   UNL     1      -9.474  15.423  64.502  1.00  0.00     0.711 OA 
ENDBRANCH   8  11
ENDBRANCH   7   8
ENDBRANCH   6   7
ENDBRANCH   3   6
ENDBRANCH   2   3
TORSDOF 6
ENDMDL
MODEL       21
REMARK 921   NORMALIZED FREE ENERGY PREDICTED BY IDOCK:   -0.14 KCAL/MOL
REMARK 922        TOTAL FREE ENERGY PREDICTED BY IDOCK:   -1.34 KCAL/MOL
REMARK 923 INTER-LIGAND FREE ENERGY PREDICTED BY IDOCK:   -3.50 KCAL/MOL
REMARK 924 INTRA-LIGAND FREE ENERGY PREDICTED BY IDOCK:    2.17 KCAL/MOL
REMARK 927      BINDING AFFINITY PREDICTED BY RF-SCORE:    0.00 PKD
ROOT
HETATM    1  C   UNL     1      -8.223  11.714  63.363  1.00  0.00     1.096 C  
HETATM    2  C   UNL     1      -7.960  10.242  63.026  1.00  0.00    -0.150 C  
ENDROOT
BRANCH   2   3
HETATM    3  N   UNL     1      -6.546   9.851  63.097  1.00  0.00    -0.120 NA 
BRANCH   3   4
HETATM    4  C   UNL     1      -5.998   9.891  64.471  1.00  0.00    -0.106 C  
HETATM    5  C   UNL     1      -5.151  11.112  64.819  1.00  0.00     0.258 C  
ENDBRANCH   3   4
BRANCH   3   6
HETATM    6  C   UNL     1      -6.316   8.581  62.370  1.00  0.00    -0.095 C  
BRANCH   6   7
HETATM    7  C   UNL     1      -6.632   7.428  63.293  1.00  0.00    -0.054 C  
BRANCH   7   8
HETATM    8  S   UNL     1      -8.323   7.226  63.829  1.00  0.00     0.308 S  
HETATM    9  O   UNL     1      -9.129   8.239  63.122  1.00  0.00     0.552 OA 
HETATM   10  O   UNL     1      -8.665   5.830  63.812  1.00  0.00     0.063 OA 
BRANCH   8  11
HETATM   11  C   UNL     1      -8.103   7.769  65.480  1.00  0.00    -0.128 C  
HETATM   12  C   UNL     1      -6.935   7.065  66.167  1.00  0.00    -0.065 C  
HETATM   13  C   UNL     1      -7.332   6.891  67.600  1.00  0.00    -0.096 C  
HETATM   14  N   UNL     1      -8.786   6.822  67.594  1.00  0.00    -0.118 N  
HETATM   15  C   UNL     1      -9.363   7.810  66.399  1.00  0.00    -0.181 C  
HETATM   16  C   UNL     1      -9.623   9.555  66.400  1.00  0.00    -0.213 C  
HETATM   17  O   UNL     1     -10.882  10.135  66.211  1.00  0.00    -0.044 OA 
HETATM   18  O   UNL     1      -8.628  10.291  66.496  1.00  0.00    -0.129 OA 
HETATM   19  C   UNL     1     -11.390  11.685  66.275  1.00  0.00    -0.227 C  
HETATM   20  C   UNL     1     -11.212  12.654  67.602  1.00  0.00    -0.329 C  
HETATM   21  C   UNL     1     -11.713  12.567  64.983  1.00  0.00    -0.407 C  
HETATM   22  C   UNL     1     -10.744  12.604  63.816  1.00  0.00    -0.454 C  
HETATM   23  C   UNL     1     -13.155  12.394  64.445  1.00  0.00    -0.050 C  
HETATM   24  C   UNL     1     -11.870  14.049  67.629  1.00  0.00    -0.430 C  
HETATM   25  C   UNL     1      -9.905  12.881  68.326  1.00  0.00    -0.228 C  
HETATM   26  C   UNL     1      -8.681  12.552  67.909  1.00  0.00    -0.180 C  
HETATM   27  C   UNL     1      -7.926  11.647  68.840  1.00  0.00    -0.026 C  
HETATM   28  O   UNL     1      -6.725  11.692  68.937  1.00  0.00    -0.074 OA 
HETATM   29  N   UNL     1      -8.677  10.605  69.398  1.00  0.00    -0.361 N  
HETATM   30  C   UNL     1     -10.146  10.466  69.477  1.00  0.00    -0.219 C  
HETATM   31  H   UNL     1      -8.137   9.839  69.804  1.00  0.00     0.000 HD 
HETATM   32  C   UNL     1     -10.547   9.132  69.843  1.00  0.00    -0.246 C  
HETATM   33  C   UNL     1     -11.644   8.416  70.041  1.00  0.00     0.191 C  
HETATM   34  C   UNL     1     -11.519   7.095  70.632  1.00  0.00    -0.346 C  
HETATM   35  C   UNL     1     -10.387   6.616  71.191  1.00  0.00    -0.232 C  
HETATM   36  C   UNL     1     -12.766   6.244  70.730  1.00  0.00     0.821 C  
HETATM   37  C   UNL     1      -8.935   7.084  71.274  1.00  0.00    -0.137 C  
HETATM   38  C   UNL     1      -8.256   7.354  72.556  1.00  0.00    -0.123 C  
HETATM   39  O   UNL     1      -8.206   7.621  70.187  1.00  0.00    -0.120 OA 
HETATM   40  H   UNL     1      -7.303   7.913  70.238  1.00  0.00     0.000 HD 
HETATM   41  C   UNL     1      -8.248   6.052  73.337  1.00  0.00    -0.114 C  
HETATM   42  O   UNL     1      -8.405   6.163  74.563  1.00  0.00    -0.121 OA 
HETATM   43  C   UNL     1      -7.974   4.615  72.722  1.00  0.00    -0.096 C  
HETATM   44  C   UNL     1      -8.145   4.214  71.182  1.00  0.00    -0.072 A  
HETATM   45  N   UNL     1      -7.761   4.822  70.042  1.00  0.00    -0.055 NA 
HETATM   46  C   UNL     1      -8.817   4.603  69.108  1.00  0.00    -0.093 A  
HETATM   47  C   UNL     1      -9.532   3.530  69.629  1.00  0.00    -0.165 A  
HETATM   48  C   UNL     1      -9.322   5.477  67.898  1.00  0.00    -0.110 C  
HETATM   49  O   UNL     1      -9.156   3.312  70.939  1.00  0.00    -0.090 OA 
HETATM   50  O   UNL     1     -10.290   5.076  67.247  1.00  0.00    -0.188 OA 
ENDBRANCH   8  11
ENDBRANCH   7   8
ENDBRANCH   6   7
ENDBRANCH   3   6
ENDBRANCH   2   3
TORSDOF 6
ENDMDL
MODEL       22
REMARK 921   NORMALIZED FREE ENERGY PREDICTED BY IDOCK:   -0.08 KCAL/MOL
REMARK 922        TOTAL FREE ENERGY PREDICTED BY IDOCK:   -1.26 KCAL/MOL
REMARK 923 INTER-LIGAND FREE ENERGY PREDICTED BY IDOCK:   -1.90 KCAL/MOL
REMARK 924 INTRA-LIGAND FREE ENERGY PREDICTED BY IDOCK:    0.64 KCAL/MOL
REMARK 927      BINDING AFFINITY PREDICTED BY RF-SCORE:    0.00 PKD
ROOT
HETATM    1  C   UNL     1      -8.636  15.723  65.918  1.00  0.00     0.164 C  
HETATM    2  C   UNL     1      -9.679  15.180  64.934  1.00  0.00     0.357 C  
ENDROOT
BRANCH   2   3
HETATM    3  N   UNL     1     -11.015  15.771  65.086  1.00  0.00    -0.394 NA 
BRANCH   3   4
HETATM    4  C   UNL     1     -11.087  17.177  64.633  1.00  0.00     0.578 C  
HETATM    5  C   UNL     1     -10.589  18.226  65.623  1.00  0.00    -0.107 C  
ENDBRANCH   3   4
BRANCH   3   6
HETATM    6  C   UNL     1     -12.051  14.879  64.515  1.00  0.00    -0.407 C  
BRANCH   6   7
HETATM    7  C   UNL     1     -11.399  13.584  64.091  1.00  0.00    -0.340 C  
BRANCH   7   8
HETATM    8  S   UNL     1     -11.992  12.068  64.824  1.00  0.00    -0.166 S  
HETATM    9  O   UNL     1     -12.744  12.437  66.039  1.00  0.00    -0.230 OA 
HETATM   10  O   UNL     1     -12.558  11.234  63.800  1.00  0.00     0.181 OA 
BRANCH   8  11
HETATM   11  C   UNL     1     -10.438  11.435  65.324  1.00  0.00    -0.283 C  
HETATM   12  C   UNL     1      -9.902  10.389  64.349  1.00  0.00    -0.395 C  
HETATM   13  C   UNL     1      -9.177   9.374  65.178  1.00  0.00    -0.225 C  
HETATM   14  N   UNL     1      -9.819   9.410  66.485  1.00  0.00    -0.237 N  
HETATM   15  C   UNL     1     -10.295  10.962  66.803  1.00  0.00    -0.241 C  
HETATM   16  C   UNL     1      -9.363  12.327  67.421  1.00  0.00    -0.183 C  
HETATM   17  O   UNL     1      -9.666  12.969  68.627  1.00  0.00    -0.163 OA 
HETATM   18  O   UNL     1      -8.451  12.778  66.710  1.00  0.00    -0.144 OA 
HETATM   19  C   UNL     1      -8.908  14.158  69.450  1.00  0.00     0.518 C  
HETATM   20  C   UNL     1      -7.341  14.060  69.967  1.00  0.00     0.538 C  
HETATM   21  C   UNL     1      -9.410  15.674  69.480  1.00  0.00    -0.263 C  
HETATM   22  C   UNL     1      -9.797  16.382  68.195  1.00  0.00    -0.238 C  
HETATM   23  C   UNL     1     -10.476  15.964  70.565  1.00  0.00     0.012 C  
HETATM   24  C   UNL     1      -6.763  15.161  70.879  1.00  0.00     0.602 C  
HETATM   25  C   UNL     1      -6.170  13.703  69.081  1.00  0.00    -0.098 C  
HETATM   26  C   UNL     1      -6.151  13.639  67.749  1.00  0.00    -0.143 C  
HETATM   27  C   UNL     1      -5.736  12.308  67.193  1.00  0.00    -0.103 C  
HETATM   28  O   UNL     1      -5.149  12.211  66.145  1.00  0.00    -0.160 OA 
HETATM   29  N   UNL     1      -6.277  11.193  67.845  1.00  0.00    -0.053 N  
HETATM   30  C   UNL     1      -6.909  11.123  69.180  1.00  0.00    -0.102 C  
HETATM   31  H   UNL     1      -6.230  10.313  67.331  1.00  0.00     0.000 HD 
HETATM   32  C   UNL     1      -7.613   9.882  69.383  1.00  0.00    -0.113 C  
HETATM   33  C   UNL     1      -8.352   9.268  70.295  1.00  0.00    -0.204 C  
HETATM   34  C   UNL     1      -8.677   7.866  70.101  1.00  0.00    -0.136 C  
HETATM   35  C   UNL     1      -8.111   7.076  69.164  1.00  0.00    -0.121 C  
HETATM   36  C   UNL     1      -9.627   7.219  71.085  1.00  0.00    -0.160 C  
HETATM   37  C   UNL     1      -7.180   7.301  67.974  1.00  0.00    -0.091 C  
HETATM   38  C   UNL     1      -5.854   6.661  67.867  1.00  0.00    -0.023 C  
HETATM   39  O   UNL     1      -7.313   8.359  67.045  1.00  0.00    -0.082 OA 
HETATM   40  H   UNL     1      -6.734   8.499  66.305  1.00  0.00     0.000 HD 
HETATM   41  C   UNL     1      -6.085   5.161  67.851  1.00  0.00    -0.027 C  
HETATM   42  O   UNL     1      -5.235   4.483  68.450  1.00  0.00    -0.006 OA 
HETATM   43  C   UNL     1      -7.252   4.420  67.071  1.00  0.00    -0.069 C  
HETATM   44  C   UNL     1      -8.625   5.091  66.596  1.00  0.00    -0.109 A  
HETATM   45  N   UNL     1      -8.895   6.258  65.978  1.00  0.00    -0.154 NA 
HETATM   46  C   UNL     1     -10.104   6.740  66.563  1.00  0.00    -0.066 A  
HETATM   47  C   UNL     1     -10.675   5.623  67.163  1.00  0.00    -0.232 A  
HETATM   48  C   UNL     1     -10.629   8.209  66.786  1.00  0.00    -0.153 C  
HETATM   49  O   UNL     1      -9.745   4.605  67.235  1.00  0.00    -0.163 OA 
HETATM   50  O   UNL     1     -11.714   8.366  67.350  1.00  0.00     1.738 OA 
ENDBRANCH   8  11
ENDBRANCH   7   8
ENDBRANCH   6   7
ENDBRANCH   3   6
ENDBRANCH   2   3
TORSDOF 6
ENDMDL
MODEL       23
REMARK 921   NORMALIZED FREE ENERGY PREDICTED BY IDOCK:    1.39 KCAL/MOL
REMARK 922        TOTAL FREE ENERGY PREDICTED BY IDOCK:    0.74 KCAL/MOL
REMARK 923 INTER-LIGAND FREE ENERGY PREDICTED BY IDOCK:    0.13 KCAL/MOL
REMARK 924 INTRA-LIGAND FREE ENERGY PREDICTED BY IDOCK:    0.60 KCAL/MOL
REMARK 927      BINDING AFFINITY PREDICTED BY RF-SCORE:    0.00 PKD
ROOT
HETATM    1  C   UNL     1     -13.085  13.362  66.319  1.00  0.00     0.835 C  
HETATM    2  C   UNL     1     -12.102  12.542  65.475  1.00  0.00    -0.419 C  
ENDROOT
BRANCH   2   3
HETATM    3  N   UNL     1     -12.474  12.428  64.058  1.00  0.00    -0.604 NA 
BRANCH   3   4
HETATM    4  C   UNL     1     -12.690  13.738  63.405  1.00  0.00     0.567 C  
HETATM    5  C   UNL     1     -11.960  14.925  64.026  1.00  0.00    -0.115 C  
ENDBRANCH   3   4
BRANCH   3   6
HETATM    6  C   UNL     1     -11.547  11.520  63.344  1.00  0.00    -0.127 C  
BRANCH   6   7
HETATM    7  C   UNL     1     -10.139  11.792  63.817  1.00  0.00    -0.391 C  
BRANCH   7   8
HETATM    8  S   UNL     1      -8.868  10.618  63.377  1.00  0.00    -0.181 S  
HETATM    9  O   UNL     1      -9.547   9.378  62.957  1.00  0.00     0.304 OA 
HETATM   10  O   UNL     1      -7.885  11.267  62.554  1.00  0.00    -0.010 OA 
BRANCH   8  11
HETATM   11  C   UNL     1      -8.229  10.363  64.988  1.00  0.00    -0.152 C  
HETATM   12  C   UNL     1      -7.259   9.185  65.042  1.00  0.00    -0.096 C  
HETATM   13  C   UNL     1      -7.462   8.534  66.375  1.00  0.00    -0.087 C  
HETATM   14  N   UNL     1      -8.842   8.819  66.740  1.00  0.00    -0.126 N  
HETATM   15  C   UNL     1      -9.247  10.317  66.168  1.00  0.00    -0.158 C  
HETATM   16  C   UNL     1      -8.925  11.914  66.847  1.00  0.00    -0.196 C  
HETATM   17  O   UNL     1      -9.942  12.799  67.222  1.00  0.00    -0.215 OA 
HETATM   18  O   UNL     1      -7.743  12.287  66.920  1.00  0.00    -0.118 OA 
HETATM   19  C   UNL     1      -9.904  14.256  67.956  1.00  0.00    -0.224 C  
HETATM   20  C   UNL     1      -9.216  14.519  69.437  1.00  0.00     0.200 C  
HETATM   21  C   UNL     1     -10.121  15.641  67.192  1.00  0.00    -0.256 C  
HETATM   22  C   UNL     1      -9.388  15.927  65.895  1.00  0.00    -0.353 C  
HETATM   23  C   UNL     1     -11.607  16.052  67.040  1.00  0.00     0.435 C  
HETATM   24  C   UNL     1      -9.375  15.890  70.125  1.00  0.00     0.593 C  
HETATM   25  C   UNL     1      -7.810  14.111  69.810  1.00  0.00     0.589 C  
HETATM   26  C   UNL     1      -6.840  13.705  68.990  1.00  0.00    -0.110 C  
HETATM   27  C   UNL     1      -6.282  12.346  69.305  1.00  0.00    -0.101 C  
HETATM   28  O   UNL     1      -5.132  12.062  69.083  1.00  0.00    -0.052 OA 
HETATM   29  N   UNL     1      -7.233  11.376  69.646  1.00  0.00    -0.354 N  
HETATM   30  C   UNL     1      -8.637  11.569  70.067  1.00  0.00     2.293 C  
HETATM   31  H   UNL     1      -6.914  10.408  69.598  1.00  0.00     0.000 HD 
HETATM   32  C   UNL     1      -9.386  10.338  70.040  1.00  0.00     0.061 C  
HETATM   33  C   UNL     1     -10.610   9.886  70.266  1.00  0.00    -0.359 C  
HETATM   34  C   UNL     1     -10.828   8.450  70.302  1.00  0.00    -0.244 C  
HETATM   35  C   UNL     1      -9.839   7.530  70.330  1.00  0.00    -0.183 C  
HETATM   36  C   UNL     1     -12.252   7.955  70.432  1.00  0.00     0.312 C  
HETATM   37  C   UNL     1      -8.321   7.566  70.174  1.00  0.00    -0.134 C  
HETATM   38  C   UNL     1      -7.399   7.114  71.234  1.00  0.00    -0.079 C  
HETATM   39  O   UNL     1      -7.636   8.314  69.188  1.00  0.00    -0.084 OA 
HETATM   40  H   UNL     1      -6.691   8.337  69.090  1.00  0.00     0.000 HD 
HETATM   41  C   UNL     1      -7.690   5.644  71.479  1.00  0.00    -0.107 C  
HETATM   42  O   UNL     1      -7.609   5.272  72.661  1.00  0.00    -0.094 OA 
HETATM   43  C   UNL     1      -7.996   4.569  70.353  1.00  0.00    -0.059 C  
HETATM   44  C   UNL     1      -8.526   4.892  68.878  1.00  0.00    -0.082 A  
HETATM   45  N   UNL     1      -8.150   5.807  67.962  1.00  0.00    -0.104 NA 
HETATM   46  C   UNL     1      -9.352   6.250  67.334  1.00  0.00    -0.115 A  
HETATM   47  C   UNL     1     -10.285   5.259  67.622  1.00  0.00    -0.170 A  
HETATM   48  C   UNL     1      -9.730   7.636  66.689  1.00  0.00    -0.213 C  
HETATM   49  O   UNL     1      -9.801   4.437  68.619  1.00  0.00    -0.144 OA 
HETATM   50  O   UNL     1     -10.865   7.781  66.229  1.00  0.00     0.563 OA 
ENDBRANCH   8  11
ENDBRANCH   7   8
ENDBRANCH   6   7
ENDBRANCH   3   6
ENDBRANCH   2   3
TORSDOF 6
ENDMDL
MODEL       24
REMARK 921   NORMALIZED FREE ENERGY PREDICTED BY IDOCK:    1.44 KCAL/MOL
REMARK 922        TOTAL FREE ENERGY PREDICTED BY IDOCK:    0.80 KCAL/MOL
REMARK 923 INTER-LIGAND FREE ENERGY PREDICTED BY IDOCK:   -2.37 KCAL/MOL
REMARK 924 INTRA-LIGAND FREE ENERGY PREDICTED BY IDOCK:    3.17 KCAL/MOL
REMARK 927      BINDING AFFINITY PREDICTED BY RF-SCORE:    0.00 PKD
ROOT
HETATM    1  C   UNL     1     -10.794   7.291  72.605  1.00  0.00    -0.331 C  
HETATM    2  C   UNL     1     -11.601   8.589  72.726  1.00  0.00    -0.067 C  
ENDROOT
BRANCH   2   3
HETATM    3  N   UNL     1     -12.432   8.893  71.553  1.00  0.00    -0.312 NA 
BRANCH   3   4
HETATM    4  C   UNL     1     -13.879   8.710  71.801  1.00  0.00    -0.425 C  
HETATM    5  C   UNL     1     -14.408   7.285  71.665  1.00  0.00    -0.583 C  
ENDBRANCH   3   4
BRANCH   3   6
HETATM    6  C   UNL     1     -12.060  10.203  70.971  1.00  0.00    -0.377 C  
BRANCH   6   7
HETATM    7  C   UNL     1     -12.672  11.300  71.810  1.00  0.00    -0.273 C  
BRANCH   7   8
HETATM    8  S   UNL     1     -12.570  12.975  71.201  1.00  0.00    -0.203 S  
HETATM    9  O   UNL     1     -13.950  13.487  71.102  1.00  0.00     0.135 OA 
HETATM   10  O   UNL     1     -11.543  13.680  71.917  1.00  0.00     1.089 OA 
BRANCH   8  11
HETATM   11  C   UNL     1     -12.020  12.594  69.582  1.00  0.00    -0.286 C  
HETATM   12  C   UNL     1     -12.721  11.364  69.011  1.00  0.00     0.813 C  
HETATM   13  C   UNL     1     -11.704  10.649  68.176  1.00  0.00    -0.009 C  
HETATM   14  N   UNL     1     -10.414  10.987  68.761  1.00  0.00    -0.190 N  
HETATM   15  C   UNL     1     -10.480  12.536  69.340  1.00  0.00     0.367 C  
HETATM   16  C   UNL     1     -10.296  14.072  68.489  1.00  0.00    -0.247 C  
HETATM   17  O   UNL     1      -9.282  14.987  68.787  1.00  0.00    -0.186 OA 
HETATM   18  O   UNL     1     -11.155  14.375  67.645  1.00  0.00    -0.282 OA 
HETATM   19  C   UNL     1      -8.845  16.396  68.087  1.00  0.00    -0.192 C  
HETATM   20  C   UNL     1      -8.418  16.536  66.496  1.00  0.00    -0.328 C  
HETATM   21  C   UNL     1      -9.177  17.832  68.701  1.00  0.00    -0.264 C  
HETATM   22  C   UNL     1     -10.575  18.152  69.197  1.00  0.00     0.292 C  
HETATM   23  C   UNL     1      -8.141  18.331  69.739  1.00  0.00     1.078 C  
HETATM   24  C   UNL     1      -7.860  17.872  65.965  1.00  0.00    -0.189 C  
HETATM   25  C   UNL     1      -9.251  16.031  65.341  1.00  0.00     0.406 C  
HETATM   26  C   UNL     1     -10.520  15.621  65.375  1.00  0.00    -0.435 C  
HETATM   27  C   UNL     1     -10.737  14.218  64.884  1.00  0.00    -0.432 C  
HETATM   28  O   UNL     1     -11.758  13.886  64.338  1.00  0.00    -0.388 OA 
HETATM   29  N   UNL     1      -9.785  13.283  65.310  1.00  0.00    -0.518 N  
HETATM   30  C   UNL     1      -8.441  13.527  65.875  1.00  0.00     1.504 C  
HETATM   31  H   UNL     1     -10.055  12.303  65.218  1.00  0.00     0.000 HD 
HETATM   32  C   UNL     1      -7.880  12.343  66.474  1.00  0.00     0.328 C  
HETATM   33  C   UNL     1      -6.796  11.945  67.123  1.00  0.00    -0.144 C  
HETATM   34  C   UNL     1      -6.599  10.524  67.348  1.00  0.00    -0.067 C  
HETATM   35  C   UNL     1      -7.333   9.552  66.765  1.00  0.00    -0.090 C  
HETATM   36  C   UNL     1      -5.424  10.100  68.202  1.00  0.00    -0.038 C  
HETATM   37  C   UNL     1      -8.595   9.514  65.906  1.00  0.00    -0.132 C  
HETATM   38  C   UNL     1      -8.615   8.952  64.541  1.00  0.00    -0.155 C  
HETATM   39  O   UNL     1      -9.757  10.279  66.160  1.00  0.00    -0.189 OA 
HETATM   40  H   UNL     1     -10.543  10.256  65.626  1.00  0.00     0.000 HD 
HETATM   41  C   UNL     1      -8.227   7.489  64.657  1.00  0.00    -0.049 C  
HETATM   42  O   UNL     1      -7.527   7.047  63.733  1.00  0.00    -0.081 OA 
HETATM   43  C   UNL     1      -8.714   6.498  65.797  1.00  0.00    -0.129 C  
HETATM   44  C   UNL     1      -9.260   6.933  67.237  1.00  0.00    -0.127 A  
HETATM   45  N   UNL     1     -10.142   7.877  67.622  1.00  0.00    -0.187 NA 
HETATM   46  C   UNL     1      -9.629   8.420  68.838  1.00  0.00    -0.153 A  
HETATM   47  C   UNL     1      -8.725   7.467  69.295  1.00  0.00    -0.137 A  
HETATM   48  C   UNL     1      -9.762   9.860  69.463  1.00  0.00    -0.220 C  
HETATM   49  O   UNL     1      -8.450   6.564  68.288  1.00  0.00    -0.116 OA 
HETATM   50  O   UNL     1      -9.192  10.092  70.531  1.00  0.00     0.144 OA 
ENDBRANCH   8  11
ENDBRANCH   7   8
ENDBRANCH   6   7
ENDBRANCH   3   6
ENDBRANCH   2   3
TORSDOF 6
ENDMDL
MODEL       25
REMARK 921   NORMALIZED FREE ENERGY PREDICTED BY IDOCK:    2.11 KCAL/MOL
REMARK 922        TOTAL FREE ENERGY PREDICTED BY IDOCK:    1.70 KCAL/MOL
REMARK 923 INTER-LIGAND FREE ENERGY PREDICTED BY IDOCK:   -2.03 KCAL/MOL
REMARK 924 INTRA-LIGAND FREE ENERGY PREDICTED BY IDOCK:    3.73 KCAL/MOL
REMARK 927      BINDING AFFINITY PREDICTED BY RF-SCORE:    0.00 PKD
ROOT
HETATM    1  C   UNL     1      -5.125   6.658  66.491  1.00  0.00    -0.016 C  
HETATM    2  C   UNL     1      -5.997   5.662  65.717  1.00  0.00    -0.025 C  
ENDROOT
BRANCH   2   3
HETATM    3  N   UNL     1      -6.588   6.207  64.488  1.00  0.00    -0.037 NA 
BRANCH   3   4
HETATM    4  C   UNL     1      -6.622   5.234  63.375  1.00  0.00    -0.026 C  
HETATM    5  C   UNL     1      -7.330   3.912  63.662  1.00  0.00    -0.051 C  
ENDBRANCH   3   4
BRANCH   3   6
HETATM    6  C   UNL     1      -7.881   6.870  64.777  1.00  0.00    -0.119 C  
BRANCH   6   7
HETATM    7  C   UNL     1      -8.045   8.046  63.844  1.00  0.00    -0.097 C  
BRANCH   7   8
HETATM    8  S   UNL     1      -6.806   9.331  63.892  1.00  0.00    -0.094 S  
HETATM    9  O   UNL     1      -5.489   8.668  63.853  1.00  0.00    -0.056 OA 
HETATM   10  O   UNL     1      -7.164  10.372  62.970  1.00  0.00    -0.140 OA 
BRANCH   8  11
HETATM   11  C   UNL     1      -7.094   9.860  65.537  1.00  0.00    -0.118 C  
HETATM   12  C   UNL     1      -5.897   9.589  66.446  1.00  0.00    -0.058 C  
HETATM   13  C   UNL     1      -6.460   9.238  67.788  1.00  0.00    -0.059 C  
HETATM   14  N   UNL     1      -7.770   8.663  67.522  1.00  0.00    -0.097 N  
HETATM   15  C   UNL     1      -8.431   9.425  66.210  1.00  0.00    -0.126 C  
HETATM   16  C   UNL     1      -9.285  10.966  66.107  1.00  0.00    -0.184 C  
HETATM   17  O   UNL     1     -10.611  11.072  65.676  1.00  0.00    -0.252 OA 
HETATM   18  O   UNL     1      -8.647  12.001  66.359  1.00  0.00    -0.145 OA 
HETATM   19  C   UNL     1     -11.634  12.342  65.596  1.00  0.00    -0.392 C  
HETATM   20  C   UNL     1     -12.051  13.266  66.902  1.00  0.00    -0.389 C  
HETATM   21  C   UNL     1     -12.006  13.097  64.240  1.00  0.00    -0.470 C  
HETATM   22  C   UNL     1     -10.919  13.513  63.267  1.00  0.00     1.176 C  
HETATM   23  C   UNL     1     -13.173  12.448  63.455  1.00  0.00     0.278 C  
HETATM   24  C   UNL     1     -13.151  14.339  66.764  1.00  0.00     1.502 C  
HETATM   25  C   UNL     1     -11.060  13.913  67.843  1.00  0.00    -0.278 C  
HETATM   26  C   UNL     1      -9.745  14.050  67.665  1.00  0.00    -0.228 C  
HETATM   27  C   UNL     1      -8.902  13.437  68.746  1.00  0.00     0.124 C  
HETATM   28  O   UNL     1      -7.833  13.898  69.058  1.00  0.00    -0.065 OA 
HETATM   29  N   UNL     1      -9.326  12.179  69.192  1.00  0.00    -0.199 N  
HETATM   30  C   UNL     1     -10.641  11.530  69.008  1.00  0.00    -0.173 C  
HETATM   31  H   UNL     1      -8.635  11.638  69.714  1.00  0.00     0.000 HD 
HETATM   32  C   UNL     1     -10.607  10.128  69.339  1.00  0.00    -0.261 C  
HETATM   33  C   UNL     1     -11.398   9.066  69.358  1.00  0.00     0.224 C  
HETATM   34  C   UNL     1     -10.925   7.855  70.004  1.00  0.00    -0.208 C  
HETATM   35  C   UNL     1      -9.818   7.785  70.774  1.00  0.00    -0.183 C  
HETATM   36  C   UNL     1     -11.789   6.616  69.902  1.00  0.00    -0.238 C  
HETATM   37  C   UNL     1      -8.665   8.731  71.103  1.00  0.00    -0.212 C  
HETATM   38  C   UNL     1      -8.367   9.178  72.478  1.00  0.00     0.838 C  
HETATM   39  O   UNL     1      -7.987   9.526  70.150  1.00  0.00    -0.124 OA 
HETATM   40  H   UNL     1      -7.270  10.114  70.354  1.00  0.00     0.000 HD 
HETATM   41  C   UNL     1      -8.043   7.936  73.289  1.00  0.00    -0.167 C  
HETATM   42  O   UNL     1      -8.448   7.943  74.462  1.00  0.00    -0.215 OA 
HETATM   43  C   UNL     1      -7.175   6.709  72.781  1.00  0.00    -0.080 C  
HETATM   44  C   UNL     1      -6.913   6.326  71.249  1.00  0.00    -0.072 A  
HETATM   45  N   UNL     1      -6.568   7.068  70.178  1.00  0.00    -0.046 NA 
HETATM   46  C   UNL     1      -7.293   6.524  69.075  1.00  0.00    -0.093 A  
HETATM   47  C   UNL     1      -7.666   5.252  69.493  1.00  0.00    -0.073 A  
HETATM   48  C   UNL     1      -7.845   7.205  67.766  1.00  0.00    -0.114 C  
HETATM   49  O   UNL     1      -7.481   5.134  70.856  1.00  0.00    -0.073 OA 
HETATM   50  O   UNL     1      -8.476   6.512  66.964  1.00  0.00    -0.112 OA 
ENDBRANCH   8  11
ENDBRANCH   7   8
ENDBRANCH   6   7
ENDBRANCH   3   6
ENDBRANCH   2   3
TORSDOF 6
ENDMDL
MODEL       26
REMARK 921   NORMALIZED FREE ENERGY PREDICTED BY IDOCK:    2.73 KCAL/MOL
REMARK 922        TOTAL FREE ENERGY PREDICTED BY IDOCK:    2.54 KCAL/MOL
REMARK 923 INTER-LIGAND FREE ENERGY PREDICTED BY IDOCK:    3.37 KCAL/MOL
REMARK 924 INTRA-LIGAND FREE ENERGY PREDICTED BY IDOCK:   -0.83 KCAL/MOL
REMARK 927      BINDING AFFINITY PREDICTED BY RF-SCORE:    0.00 PKD
ROOT
HETATM    1  C   UNL     1     -13.194  13.765  65.941  1.00  0.00     0.302 C  
HETATM    2  C   UNL     1     -12.093  14.798  66.209  1.00  0.00    -0.094 C  
ENDROOT
BRANCH   2   3
HETATM    3  N   UNL     1     -10.995  14.302  67.049  1.00  0.00    -0.298 NA 
BRANCH   3   4
HETATM    4  C   UNL     1     -10.026  15.355  67.424  1.00  0.00    -0.229 C  
HETATM    5  C   UNL     1     -10.622  16.661  67.940  1.00  0.00    -0.342 C  
ENDBRANCH   3   4
BRANCH   3   6
HETATM    6  C   UNL     1     -11.520  13.505  68.182  1.00  0.00    -0.303 C  
BRANCH   6   7
HETATM    7  C   UNL     1     -10.445  12.550  68.645  1.00  0.00    -0.200 C  
BRANCH   7   8
HETATM    8  S   UNL     1     -10.935  11.171  69.667  1.00  0.00    -0.140 S  
HETATM    9  O   UNL     1     -10.697  11.562  71.070  1.00  0.00     2.236 OA 
HETATM   10  O   UNL     1     -12.206  10.673  69.219  1.00  0.00    -0.280 OA 
BRANCH   8  11
HETATM   11  C   UNL     1      -9.658  10.071  69.191  1.00  0.00    -0.210 C  
HETATM   12  C   UNL     1      -8.593  10.760  68.340  1.00  0.00    -0.141 C  
HETATM   13  C   UNL     1      -8.130   9.744  67.342  1.00  0.00    -0.114 C  
HETATM   14  N   UNL     1      -9.261   8.848  67.147  1.00  0.00    -0.136 N  
HETATM   15  C   UNL     1     -10.079   8.701  68.578  1.00  0.00    -0.190 C  
HETATM   16  C   UNL     1      -9.739   7.678  69.976  1.00  0.00    -0.172 C  
HETATM   17  O   UNL     1     -10.626   6.698  70.432  1.00  0.00    -0.208 OA 
HETATM   18  O   UNL     1      -8.700   7.899  70.618  1.00  0.00    -0.131 OA 
HETATM   19  C   UNL     1     -10.499   5.576  71.611  1.00  0.00    -0.231 C  
HETATM   20  C   UNL     1      -9.306   4.431  71.662  1.00  0.00    -0.199 C  
HETATM   21  C   UNL     1     -11.211   5.699  73.035  1.00  0.00    -0.319 C  
HETATM   22  C   UNL     1     -11.129   6.992  73.825  1.00  0.00     0.335 C  
HETATM   23  C   UNL     1     -12.669   5.177  73.059  1.00  0.00     0.882 C  
HETATM   24  C   UNL     1      -9.363   3.310  72.720  1.00  0.00    -0.137 C  
HETATM   25  C   UNL     1      -7.829   4.732  71.562  1.00  0.00    -0.100 C  
HETATM   26  C   UNL     1      -7.237   5.924  71.651  1.00  0.00    -0.087 C  
HETATM   27  C   UNL     1      -6.409   6.302  70.457  1.00  0.00    -0.039 C  
HETATM   28  O   UNL     1      -5.427   6.992  70.556  1.00  0.00    -0.023 OA 
HETATM   29  N   UNL     1      -6.983   6.001  69.215  1.00  0.00    -0.062 N  
HETATM   30  C   UNL     1      -8.098   5.080  68.913  1.00  0.00    -0.084 C  
HETATM   31  H   UNL     1      -6.576   6.482  68.412  1.00  0.00     0.000 HD 
HETATM   32  C   UNL     1      -8.605   5.260  67.576  1.00  0.00    -0.104 C  
HETATM   33  C   UNL     1      -9.547   4.790  66.772  1.00  0.00    -0.184 C  
HETATM   34  C   UNL     1      -9.521   5.168  65.371  1.00  0.00    -0.055 C  
HETATM   35  C   UNL     1      -8.487   5.799  64.771  1.00  0.00    -0.079 C  
HETATM   36  C   UNL     1     -10.675   4.727  64.498  1.00  0.00     0.510 C  
HETATM   37  C   UNL     1      -7.192   6.451  65.249  1.00  0.00    -0.070 C  
HETATM   38  C   UNL     1      -5.859   5.998  64.804  1.00  0.00    -0.025 C  
HETATM   39  O   UNL     1      -7.092   7.298  66.377  1.00  0.00    -0.073 OA 
HETATM   40  H   UNL     1      -6.287   7.704  66.675  1.00  0.00     0.000 HD 
HETATM   41  C   UNL     1      -5.808   6.180  63.298  1.00  0.00    -0.022 C  
HETATM   42  O   UNL     1      -5.192   5.301  62.674  1.00  0.00    -0.012 OA 
HETATM   43  C   UNL     1      -6.393   7.422  62.503  1.00  0.00    -0.062 C  
HETATM   44  C   UNL     1      -7.526   8.418  63.037  1.00  0.00    -0.109 A  
HETATM   45  N   UNL     1      -7.699   9.040  64.220  1.00  0.00    -0.117 NA 
HETATM   46  C   UNL     1      -9.103   9.021  64.471  1.00  0.00     0.081 A  
HETATM   47  C   UNL     1      -9.679   8.780  63.228  1.00  0.00     2.642 A  
HETATM   48  C   UNL     1      -9.910   8.984  65.824  1.00  0.00    -0.111 C  
HETATM   49  O   UNL     1      -8.713   8.355  62.340  1.00  0.00    -0.153 OA 
HETATM   50  O   UNL     1     -11.141   8.943  65.773  1.00  0.00     2.033 OA 
ENDBRANCH   8  11
ENDBRANCH   7   8
ENDBRANCH   6   7
ENDBRANCH   3   6
ENDBRANCH   2   3
TORSDOF 6
ENDMDL
MODEL       27
REMARK 921   NORMALIZED FREE ENERGY PREDICTED BY IDOCK:    2.86 KCAL/MOL
REMARK 922        TOTAL FREE ENERGY PREDICTED BY IDOCK:    2.72 KCAL/MOL
REMARK 923 INTER-LIGAND FREE ENERGY PREDICTED BY IDOCK:    3.50 KCAL/MOL
REMARK 924 INTRA-LIGAND FREE ENERGY PREDICTED BY IDOCK:   -0.78 KCAL/MOL
REMARK 927      BINDING AFFINITY PREDICTED BY RF-SCORE:    0.00 PKD
ROOT
HETATM    1  C   UNL     1     -13.617  14.249  65.258  1.00  0.00     1.131 C  
HETATM    2  C   UNL     1     -12.124  14.285  65.603  1.00  0.00    -0.393 C  
ENDROOT
BRANCH   2   3
HETATM    3  N   UNL     1     -11.840  14.377  67.041  1.00  0.00    -0.406 NA 
BRANCH   3   4
HETATM    4  C   UNL     1     -11.889  15.763  67.557  1.00  0.00     0.311 C  
HETATM    5  C   UNL     1     -10.541  16.422  67.837  1.00  0.00    -0.320 C  
ENDBRANCH   3   4
BRANCH   3   6
HETATM    6  C   UNL     1     -12.655  13.400  67.800  1.00  0.00     0.626 C  
BRANCH   6   7
HETATM    7  C   UNL     1     -11.869  12.944  69.006  1.00  0.00    -0.306 C  
BRANCH   7   8
HETATM    8  S   UNL     1     -12.608  11.717  70.071  1.00  0.00     0.107 S  
HETATM    9  O   UNL     1     -12.140  11.993  71.444  1.00  0.00     0.045 OA 
HETATM   10  O   UNL     1     -14.002  11.586  69.752  1.00  0.00     3.149 OA 
BRANCH   8  11
HETATM   11  C   UNL     1     -11.721  10.332  69.469  1.00  0.00    -0.122 C  
HETATM   12  C   UNL     1     -12.560   9.056  69.496  1.00  0.00     2.266 C  
HETATM   13  C   UNL     1     -11.617   7.940  69.825  1.00  0.00     0.357 C  
HETATM   14  N   UNL     1     -10.548   8.550  70.603  1.00  0.00    -0.204 N  
HETATM   15  C   UNL     1     -10.292  10.086  70.043  1.00  0.00    -0.272 C  
HETATM   16  C   UNL     1      -9.357  10.644  68.654  1.00  0.00    -0.177 C  
HETATM   17  O   UNL     1      -8.254  11.495  68.774  1.00  0.00    -0.145 OA 
HETATM   18  O   UNL     1      -9.752  10.322  67.522  1.00  0.00    -0.164 OA 
HETATM   19  C   UNL     1      -7.184  12.054  67.675  1.00  0.00    -0.117 C  
HETATM   20  C   UNL     1      -6.247  11.075  66.728  1.00  0.00    -0.110 C  
HETATM   21  C   UNL     1      -7.212  13.537  67.084  1.00  0.00     0.164 C  
HETATM   22  C   UNL     1      -8.512  14.143  66.588  1.00  0.00     0.094 C  
HETATM   23  C   UNL     1      -6.462  14.577  67.953  1.00  0.00    -0.175 C  
HETATM   24  C   UNL     1      -5.147  11.691  65.839  1.00  0.00     0.353 C  
HETATM   25  C   UNL     1      -6.780   9.946  65.876  1.00  0.00    -0.097 C  
HETATM   26  C   UNL     1      -8.052   9.698  65.564  1.00  0.00    -0.122 C  
HETATM   27  C   UNL     1      -8.541   8.337  65.966  1.00  0.00    -0.149 C  
HETATM   28  O   UNL     1      -9.382   7.749  65.333  1.00  0.00     0.214 OA 
HETATM   29  N   UNL     1      -8.135   7.908  67.236  1.00  0.00    -0.117 N  
HETATM   30  C   UNL     1      -7.042   8.435  68.081  1.00  0.00    -0.085 C  
HETATM   31  H   UNL     1      -8.663   7.129  67.630  1.00  0.00     0.000 HD 
HETATM   32  C   UNL     1      -7.119   7.947  69.434  1.00  0.00    -0.064 C  
HETATM   33  C   UNL     1      -6.492   8.063  70.595  1.00  0.00    -0.037 C  
HETATM   34  C   UNL     1      -6.849   7.159  71.675  1.00  0.00    -0.056 C  
HETATM   35  C   UNL     1      -7.629   6.066  71.526  1.00  0.00    -0.099 C  
HETATM   36  C   UNL     1      -6.216   7.391  73.029  1.00  0.00    -0.059 C  
HETATM   37  C   UNL     1      -8.489   5.493  70.401  1.00  0.00    -0.122 C  
HETATM   38  C   UNL     1      -8.249   4.160  69.815  1.00  0.00    -0.068 C  
HETATM   39  O   UNL     1      -9.357   6.259  69.589  1.00  0.00    -0.143 OA 
HETATM   40  H   UNL     1      -9.891   5.903  68.889  1.00  0.00     0.000 HD 
HETATM   41  C   UNL     1      -8.415   3.146  70.933  1.00  0.00    -0.065 C  
HETATM   42  O   UNL     1      -7.638   2.179  70.899  1.00  0.00    -0.033 OA 
HETATM   43  C   UNL     1      -9.536   3.194  72.056  1.00  0.00    -0.203 C  
HETATM   44  C   UNL     1     -10.344   4.499  72.509  1.00  0.00    -0.195 A  
HETATM   45  N   UNL     1     -10.947   5.478  71.805  1.00  0.00    -0.219 NA 
HETATM   46  C   UNL     1     -10.706   6.684  72.529  1.00  0.00    -0.229 A  
HETATM   47  C   UNL     1     -10.358   6.264  73.808  1.00  0.00    -0.290 A  
HETATM   48  C   UNL     1     -10.559   8.173  72.033  1.00  0.00    -0.269 C  
HETATM   49  O   UNL     1     -10.081   4.912  73.796  1.00  0.00    -0.154 OA 
HETATM   50  O   UNL     1     -10.320   9.049  72.868  1.00  0.00     0.465 OA 
ENDBRANCH   8  11
ENDBRANCH   7   8
ENDBRANCH   6   7
ENDBRANCH   3   6
ENDBRANCH   2   3
TORSDOF 6
ENDMDL
MODEL       28
REMARK 921   NORMALIZED FREE ENERGY PREDICTED BY IDOCK:    2.97 KCAL/MOL
REMARK 922        TOTAL FREE ENERGY PREDICTED BY IDOCK:    2.86 KCAL/MOL
REMARK 923 INTER-LIGAND FREE ENERGY PREDICTED BY IDOCK:    2.06 KCAL/MOL
REMARK 924 INTRA-LIGAND FREE ENERGY PREDICTED BY IDOCK:    0.80 KCAL/MOL
REMARK 927      BINDING AFFINITY PREDICTED BY RF-SCORE:    0.00 PKD
ROOT
HETATM    1  C   UNL     1     -13.164  15.391  65.314  1.00  0.00     1.556 C  
HETATM    2  C   UNL     1     -12.253  14.745  64.263  1.00  0.00    -0.379 C  
ENDROOT
BRANCH   2   3
HETATM    3  N   UNL     1     -11.120  13.999  64.827  1.00  0.00    -0.371 NA 
BRANCH   3   4
HETATM    4  C   UNL     1     -11.126  13.958  66.306  1.00  0.00    -0.304 C  
HETATM    5  C   UNL     1     -10.321  15.047  67.010  1.00  0.00    -0.269 C  
ENDBRANCH   3   4
BRANCH   3   6
HETATM    6  C   UNL     1     -10.981  12.680  64.167  1.00  0.00    -0.387 C  
BRANCH   6   7
HETATM    7  C   UNL     1      -9.739  12.001  64.694  1.00  0.00    -0.083 C  
BRANCH   7   8
HETATM    8  S   UNL     1      -8.677  11.172  63.522  1.00  0.00     0.189 S  
HETATM    9  O   UNL     1      -9.548  10.388  62.624  1.00  0.00    -0.310 OA 
HETATM   10  O   UNL     1      -7.704  12.102  63.020  1.00  0.00     1.814 OA 
BRANCH   8  11
HETATM   11  C   UNL     1      -7.923  10.061  64.646  1.00  0.00    -0.145 C  
HETATM   12  C   UNL     1      -6.583   9.542  64.130  1.00  0.00    -0.101 C  
HETATM   13  C   UNL     1      -6.473   8.123  64.596  1.00  0.00    -0.064 C  
HETATM   14  N   UNL     1      -7.844   7.648  64.721  1.00  0.00    -0.123 N  
HETATM   15  C   UNL     1      -8.801   8.904  65.214  1.00  0.00    -0.184 C  
HETATM   16  C   UNL     1      -9.070   9.556  66.832  1.00  0.00    -0.135 C  
HETATM   17  O   UNL     1     -10.326   9.569  67.446  1.00  0.00    -0.224 OA 
HETATM   18  O   UNL     1      -8.110  10.091  67.409  1.00  0.00    -0.113 OA 
HETATM   19  C   UNL     1     -10.803  10.009  68.944  1.00  0.00    -0.220 C  
HETATM   20  C   UNL     1     -10.202   9.339  70.331  1.00  0.00    -0.284 C  
HETATM   21  C   UNL     1     -11.553  11.381  69.270  1.00  0.00    -0.384 C  
HETATM   22  C   UNL     1     -11.033  12.692  68.711  1.00  0.00    -0.289 C  
HETATM   23  C   UNL     1     -13.090  11.320  69.085  1.00  0.00     1.824 C  
HETATM   24  C   UNL     1     -10.832   9.697  71.692  1.00  0.00    -0.076 C  
HETATM   25  C   UNL     1      -8.731   9.222  70.656  1.00  0.00    -0.282 C  
HETATM   26  C   UNL     1      -7.714   9.819  70.032  1.00  0.00    -0.179 C  
HETATM   27  C   UNL     1      -6.678   8.880  69.485  1.00  0.00    -0.047 C  
HETATM   28  O   UNL     1      -5.516   9.188  69.409  1.00  0.00    -0.035 OA 
HETATM   29  N   UNL     1      -7.184   7.733  68.860  1.00  0.00    -0.079 N  
HETATM   30  C   UNL     1      -8.540   7.152  68.956  1.00  0.00    -0.129 C  
HETATM   31  H   UNL     1      -6.530   7.232  68.258  1.00  0.00     0.000 HD 
HETATM   32  C   UNL     1      -8.777   6.154  67.944  1.00  0.00    -0.113 C  
HETATM   33  C   UNL     1      -9.734   5.345  67.516  1.00  0.00    -0.153 C  
HETATM   34  C   UNL     1      -9.400   4.325  66.537  1.00  0.00    -0.174 C  
HETATM   35  C   UNL     1      -8.140   3.997  66.179  1.00  0.00    -0.098 C  
HETATM   36  C   UNL     1     -10.530   3.497  65.966  1.00  0.00     1.096 C  
HETATM   37  C   UNL     1      -6.751   4.574  66.449  1.00  0.00    -0.050 C  
HETATM   38  C   UNL     1      -5.684   3.805  67.118  1.00  0.00    -0.022 C  
HETATM   39  O   UNL     1      -6.437   5.953  66.406  1.00  0.00    -0.040 OA 
HETATM   40  H   UNL     1      -5.573   6.312  66.574  1.00  0.00     0.000 HD 
HETATM   41  C   UNL     1      -5.397   2.594  66.247  1.00  0.00    -0.012 C  
HETATM   42  O   UNL     1      -5.134   1.546  66.858  1.00  0.00    -0.004 OA 
HETATM   43  C   UNL     1      -5.326   2.600  64.662  1.00  0.00    -0.009 C  
HETATM   44  C   UNL     1      -5.999   3.692  63.705  1.00  0.00    -0.014 A  
HETATM   45  N   UNL     1      -6.029   5.039  63.751  1.00  0.00    -0.021 NA 
HETATM   46  C   UNL     1      -7.335   5.416  63.316  1.00  0.00    -0.051 A  
HETATM   47  C   UNL     1      -7.819   4.299  62.644  1.00  0.00    -0.066 A  
HETATM   48  C   UNL     1      -8.229   6.658  63.691  1.00  0.00     0.088 C  
HETATM   49  O   UNL     1      -7.022   3.206  62.920  1.00  0.00    -0.030 OA 
HETATM   50  O   UNL     1      -9.354   6.745  63.193  1.00  0.00     1.546 OA 
ENDBRANCH   8  11
ENDBRANCH   7   8
ENDBRANCH   6   7
ENDBRANCH   3   6
ENDBRANCH   2   3
TORSDOF 6
ENDMDL
MODEL       29
REMARK 921   NORMALIZED FREE ENERGY PREDICTED BY IDOCK:    3.56 KCAL/MOL
REMARK 922        TOTAL FREE ENERGY PREDICTED BY IDOCK:    3.66 KCAL/MOL
REMARK 923 INTER-LIGAND FREE ENERGY PREDICTED BY IDOCK:    4.66 KCAL/MOL
REMARK 924 INTRA-LIGAND FREE ENERGY PREDICTED BY IDOCK:   -1.00 KCAL/MOL
REMARK 927      BINDING AFFINITY PREDICTED BY RF-SCORE:    0.00 PKD
ROOT
HETATM    1  C   UNL     1     -11.925   6.631  69.970  1.00  0.00    -0.187 C  
HETATM    2  C   UNL     1     -12.086   7.884  70.838  1.00  0.00    -0.165 C  
ENDROOT
BRANCH   2   3
HETATM    3  N   UNL     1     -12.985   8.898  70.270  1.00  0.00     0.904 NA 
BRANCH   3   4
HETATM    4  C   UNL     1     -13.997   9.386  71.232  1.00  0.00    -0.053 C  
HETATM    5  C   UNL     1     -13.964   8.750  72.620  1.00  0.00    -0.337 C  
ENDBRANCH   3   4
BRANCH   3   6
HETATM    6  C   UNL     1     -12.211   9.961  69.588  1.00  0.00     0.385 C  
BRANCH   6   7
HETATM    7  C   UNL     1     -12.275  11.220  70.419  1.00  0.00    -0.365 C  
BRANCH   7   8
HETATM    8  S   UNL     1     -12.555  12.768  69.575  1.00  0.00     0.634 S  
HETATM    9  O   UNL     1     -12.707  12.460  68.140  1.00  0.00     0.531 OA 
HETATM   10  O   UNL     1     -13.529  13.536  70.298  1.00  0.00     0.504 OA 
BRANCH   8  11
HETATM   11  C   UNL     1     -10.958  13.447  69.813  1.00  0.00     0.243 C  
HETATM   12  C   UNL     1     -10.929  14.462  70.953  1.00  0.00     0.514 C  
HETATM   13  C   UNL     1      -9.951  15.522  70.548  1.00  0.00     0.397 C  
HETATM   14  N   UNL     1      -9.966  15.528  69.092  1.00  0.00    -0.229 N  
HETATM   15  C   UNL     1     -10.207  13.982  68.555  1.00  0.00    -0.237 C  
HETATM   16  C   UNL     1      -9.056  12.658  68.360  1.00  0.00    -0.128 C  
HETATM   17  O   UNL     1      -8.788  12.061  67.124  1.00  0.00    -0.174 OA 
HETATM   18  O   UNL     1      -8.525  12.195  69.382  1.00  0.00     0.604 OA 
HETATM   19  C   UNL     1      -7.712  10.919  66.675  1.00  0.00    -0.146 C  
HETATM   20  C   UNL     1      -6.079  11.064  66.888  1.00  0.00    -0.089 C  
HETATM   21  C   UNL     1      -8.102   9.397  66.387  1.00  0.00    -0.108 C  
HETATM   22  C   UNL     1      -8.981   8.631  67.358  1.00  0.00    -0.144 C  
HETATM   23  C   UNL     1      -8.587   9.132  64.940  1.00  0.00    -0.208 C  
HETATM   24  C   UNL     1      -5.129  10.010  66.282  1.00  0.00    -0.039 C  
HETATM   25  C   UNL     1      -5.416  11.405  68.202  1.00  0.00    -0.042 C  
HETATM   26  C   UNL     1      -5.975  11.416  69.413  1.00  0.00    -0.066 C  
HETATM   27  C   UNL     1      -5.884  12.731  70.133  1.00  0.00    -0.155 C  
HETATM   28  O   UNL     1      -5.809  12.795  71.334  1.00  0.00    -0.338 OA 
HETATM   29  N   UNL     1      -6.128  13.861  69.342  1.00  0.00    -0.098 N  
HETATM   30  C   UNL     1      -6.124  13.974  67.869  1.00  0.00    -0.148 C  
HETATM   31  H   UNL     1      -6.335  14.721  69.852  1.00  0.00     0.000 HD 
HETATM   32  C   UNL     1      -6.713  15.209  67.417  1.00  0.00    -0.134 C  
HETATM   33  C   UNL     1      -7.006  15.847  66.294  1.00  0.00     1.274 C  
HETATM   34  C   UNL     1      -7.429  17.234  66.369  1.00  0.00    -0.336 C  
HETATM   35  C   UNL     1      -7.348  17.996  67.481  1.00  0.00    -0.213 C  
HETATM   36  C   UNL     1      -7.883  17.905  65.091  1.00  0.00     2.095 C  
HETATM   37  C   UNL     1      -7.013  17.739  68.949  1.00  0.00    -0.250 C  
HETATM   38  C   UNL     1      -5.884  18.396  69.637  1.00  0.00    -0.253 C  
HETATM   39  O   UNL     1      -7.499  16.643  69.699  1.00  0.00    -0.037 OA 
HETATM   40  H   UNL     1      -7.291  16.482  70.612  1.00  0.00     0.000 HD 
HETATM   41  C   UNL     1      -6.149  19.891  69.595  1.00  0.00    -0.331 C  
HETATM   42  O   UNL     1      -5.147  20.607  69.441  1.00  0.00    -0.236 OA 
HETATM   43  C   UNL     1      -7.561  20.580  69.816  1.00  0.00     1.042 C  
HETATM   44  C   UNL     1      -8.983  19.867  69.632  1.00  0.00     0.601 A  
HETATM   45  N   UNL     1      -9.454  18.672  70.039  1.00  0.00     1.065 NA 
HETATM   46  C   UNL     1     -10.277  18.193  68.976  1.00  0.00    -0.221 A  
HETATM   47  C   UNL     1     -10.570  19.324  68.221  1.00  0.00    -0.185 A  
HETATM   48  C   UNL     1     -10.606  16.726  68.506  1.00  0.00    -0.354 C  
HETATM   49  O   UNL     1      -9.734  20.359  68.587  1.00  0.00    -0.065 OA 
HETATM   50  O   UNL     1     -11.337  16.573  67.524  1.00  0.00    -0.062 OA 
ENDBRANCH   8  11
ENDBRANCH   7   8
ENDBRANCH   6   7
ENDBRANCH   3   6
ENDBRANCH   2   3
TORSDOF 6
ENDMDL
MODEL       30
REMARK 921   NORMALIZED FREE ENERGY PREDICTED BY IDOCK:    4.21 KCAL/MOL
REMARK 922        TOTAL FREE ENERGY PREDICTED BY IDOCK:    4.54 KCAL/MOL
REMARK 923 INTER-LIGAND FREE ENERGY PREDICTED BY IDOCK:    5.06 KCAL/MOL
REMARK 924 INTRA-LIGAND FREE ENERGY PREDICTED BY IDOCK:   -0.52 KCAL/MOL
REMARK 927      BINDING AFFINITY PREDICTED BY RF-SCORE:    0.00 PKD
ROOT
HETATM    1  C   UNL     1     -13.952  13.070  70.375  1.00  0.00     2.947 C  
HETATM    2  C   UNL     1     -12.612  13.508  69.772  1.00  0.00     0.039 C  
ENDROOT
BRANCH   2   3
HETATM    3  N   UNL     1     -12.705  14.673  68.883  1.00  0.00     0.324 NA 
BRANCH   3   4
HETATM    4  C   UNL     1     -11.505  15.538  68.928  1.00  0.00    -0.354 C  
HETATM    5  C   UNL     1     -11.343  16.395  70.181  1.00  0.00    -0.202 C  
ENDBRANCH   3   4
BRANCH   3   6
HETATM    6  C   UNL     1     -13.127  14.264  67.524  1.00  0.00     2.470 C  
BRANCH   6   7
HETATM    7  C   UNL     1     -11.902  14.141  66.649  1.00  0.00    -0.424 C  
BRANCH   7   8
HETATM    8  S   UNL     1     -11.976  13.025  65.258  1.00  0.00    -0.434 S  
HETATM    9  O   UNL     1     -13.148  12.152  65.461  1.00  0.00     0.515 OA 
HETATM   10  O   UNL     1     -11.777  13.765  64.043  1.00  0.00    -0.389 OA 
BRANCH   8  11
HETATM   11  C   UNL     1     -10.540  12.095  65.637  1.00  0.00    -0.262 C  
HETATM   12  C   UNL     1     -10.443  10.821  64.801  1.00  0.00    -0.335 C  
HETATM   13  C   UNL     1      -9.828   9.783  65.688  1.00  0.00    -0.301 C  
HETATM   14  N   UNL     1     -10.195  10.164  67.044  1.00  0.00    -0.222 N  
HETATM   15  C   UNL     1     -10.240  11.815  67.141  1.00  0.00    -0.212 C  
HETATM   16  C   UNL     1      -8.927  12.973  67.362  1.00  0.00    -0.204 C  
HETATM   17  O   UNL     1      -8.850  13.833  68.462  1.00  0.00    -0.174 OA 
HETATM   18  O   UNL     1      -8.082  13.072  66.458  1.00  0.00     0.214 OA 
HETATM   19  C   UNL     1      -7.706  14.895  68.938  1.00  0.00    -0.148 C  
HETATM   20  C   UNL     1      -6.134  14.478  69.235  1.00  0.00    -0.107 C  
HETATM   21  C   UNL     1      -7.837  16.477  68.765  1.00  0.00    -0.235 C  
HETATM   22  C   UNL     1      -8.283  17.072  67.442  1.00  0.00    -0.199 C  
HETATM   23  C   UNL     1      -8.593  17.179  69.921  1.00  0.00     1.556 C  
HETATM   24  C   UNL     1      -5.166  15.514  69.841  1.00  0.00    -0.104 C  
HETATM   25  C   UNL     1      -5.257  13.714  68.271  1.00  0.00    -0.107 C  
HETATM   26  C   UNL     1      -5.497  13.460  66.983  1.00  0.00     0.870 C  
HETATM   27  C   UNL     1      -5.502  12.002  66.624  1.00  0.00     0.120 C  
HETATM   28  O   UNL     1      -5.155  11.613  65.538  1.00  0.00    -0.189 OA 
HETATM   29  N   UNL     1      -6.154  11.165  67.538  1.00  0.00    -0.049 N  
HETATM   30  C   UNL     1      -6.530  11.446  68.940  1.00  0.00    -0.062 C  
HETATM   31  H   UNL     1      -6.402  10.238  67.190  1.00  0.00     0.000 HD 
HETATM   32  C   UNL     1      -7.447  10.466  69.463  1.00  0.00    -0.148 C  
HETATM   33  C   UNL     1      -8.126  10.194  70.567  1.00  0.00     0.486 C  
HETATM   34  C   UNL     1      -8.790   8.907  70.680  1.00  0.00    -0.234 C  
HETATM   35  C   UNL     1      -8.599   7.875  69.830  1.00  0.00    -0.133 C  
HETATM   36  C   UNL     1      -9.666   8.667  71.890  1.00  0.00    -0.383 C  
HETATM   37  C   UNL     1      -7.875   7.687  68.498  1.00  0.00    -0.121 C  
HETATM   38  C   UNL     1      -6.771   6.724  68.320  1.00  0.00    -0.068 C  
HETATM   39  O   UNL     1      -7.933   8.602  67.421  1.00  0.00    -0.101 OA 
HETATM   40  H   UNL     1      -7.482   8.486  66.593  1.00  0.00     0.000 HD 
HETATM   41  C   UNL     1      -7.334   5.344  68.609  1.00  0.00    -0.075 C  
HETATM   42  O   UNL     1      -6.565   4.564  69.193  1.00  0.00    -0.038 OA 
HETATM   43  C   UNL     1      -8.761   4.821  68.152  1.00  0.00    -0.111 C  
HETATM   44  C   UNL     1     -10.010   5.744  67.765  1.00  0.00    -0.140 A  
HETATM   45  N   UNL     1     -10.117   6.842  66.990  1.00  0.00    -0.181 NA 
HETATM   46  C   UNL     1     -11.058   7.692  67.645  1.00  0.00     0.185 A  
HETATM   47  C   UNL     1     -11.747   6.852  68.513  1.00  0.00     0.802 A  
HETATM   48  C   UNL     1     -11.186   9.262  67.671  1.00  0.00     0.419 C  
HETATM   49  O   UNL     1     -11.075   5.653  68.634  1.00  0.00    -0.140 OA 
HETATM   50  O   UNL     1     -12.086   9.767  68.347  1.00  0.00     0.700 OA 
ENDBRANCH   8  11
ENDBRANCH   7   8
ENDBRANCH   6   7
ENDBRANCH   3   6
ENDBRANCH   2   3
TORSDOF 6
ENDMDL
MODEL       31
REMARK 921   NORMALIZED FREE ENERGY PREDICTED BY IDOCK:    4.31 KCAL/MOL
REMARK 922        TOTAL FREE ENERGY PREDICTED BY IDOCK:    4.68 KCAL/MOL
REMARK 923 INTER-LIGAND FREE ENERGY PREDICTED BY IDOCK:    3.83 KCAL/MOL
REMARK 924 INTRA-LIGAND FREE ENERGY PREDICTED BY IDOCK:    0.85 KCAL/MOL
REMARK 927      BINDING AFFINITY PREDICTED BY RF-SCORE:    0.00 PKD
ROOT
HETATM    1  C   UNL     1     -11.516   6.738  72.800  1.00  0.00    -0.170 C  
HETATM    2  C   UNL     1     -12.744   7.509  72.299  1.00  0.00    -0.038 C  
ENDROOT
BRANCH   2   3
HETATM    3  N   UNL     1     -12.519   8.949  72.120  1.00  0.00    -0.380 NA 
BRANCH   3   4
HETATM    4  C   UNL     1     -11.164   9.270  71.621  1.00  0.00    -0.379 C  
HETATM    5  C   UNL     1     -10.000   8.797  72.488  1.00  0.00    -0.122 C  
ENDBRANCH   3   4
BRANCH   3   6
HETATM    6  C   UNL     1     -13.628   9.562  71.352  1.00  0.00    -0.283 C  
BRANCH   6   7
HETATM    7  C   UNL     1     -13.081  10.714  70.544  1.00  0.00    -0.110 C  
BRANCH   7   8
HETATM    8  S   UNL     1     -12.889  12.291  71.359  1.00  0.00    -0.172 S  
HETATM    9  O   UNL     1     -13.954  13.177  70.850  1.00  0.00     0.815 OA 
HETATM   10  O   UNL     1     -12.679  12.079  72.764  1.00  0.00     0.778 OA 
BRANCH   8  11
HETATM   11  C   UNL     1     -11.386  12.761  70.592  1.00  0.00     1.127 C  
HETATM   12  C   UNL     1     -10.821  14.054  71.176  1.00  0.00     1.969 C  
HETATM   13  C   UNL     1     -10.177  14.783  70.038  1.00  0.00     0.177 C  
HETATM   14  N   UNL     1     -10.896  14.356  68.846  1.00  0.00    -0.249 N  
HETATM   15  C   UNL     1     -11.347  12.775  69.033  1.00  0.00    -0.294 C  
HETATM   16  C   UNL     1     -10.417  11.295  68.786  1.00  0.00    -0.208 C  
HETATM   17  O   UNL     1     -10.773  10.322  67.847  1.00  0.00    -0.224 OA 
HETATM   18  O   UNL     1      -9.450  11.084  69.536  1.00  0.00     0.050 OA 
HETATM   19  C   UNL     1     -10.035   8.949  67.365  1.00  0.00    -0.209 C  
HETATM   20  C   UNL     1      -8.505   8.902  66.739  1.00  0.00    -0.117 C  
HETATM   21  C   UNL     1     -10.494   7.488  67.817  1.00  0.00    -0.288 C  
HETATM   22  C   UNL     1     -10.783   7.190  69.277  1.00  0.00    -0.231 C  
HETATM   23  C   UNL     1     -11.616   6.879  66.940  1.00  0.00     0.996 C  
HETATM   24  C   UNL     1      -7.953   7.585  66.157  1.00  0.00    -0.111 C  
HETATM   25  C   UNL     1      -7.292   9.517  67.399  1.00  0.00    -0.087 C  
HETATM   26  C   UNL     1      -7.195   9.973  68.648  1.00  0.00    -0.080 C  
HETATM   27  C   UNL     1      -6.783  11.413  68.758  1.00  0.00    -0.073 C  
HETATM   28  O   UNL     1      -6.137  11.822  69.689  1.00  0.00    -0.092 OA 
HETATM   29  N   UNL     1      -7.395  12.279  67.842  1.00  0.00    -0.100 N  
HETATM   30  C   UNL     1      -8.108  11.944  66.591  1.00  0.00    -0.063 C  
HETATM   31  H   UNL     1      -7.341  13.273  68.069  1.00  0.00     0.000 HD 
HETATM   32  C   UNL     1      -8.858  13.062  66.077  1.00  0.00     0.437 C  
HETATM   33  C   UNL     1      -9.667  13.371  65.076  1.00  0.00     0.064 C  
HETATM   34  C   UNL     1     -10.019  14.765  64.867  1.00  0.00    -0.089 C  
HETATM   35  C   UNL     1      -9.420  15.803  65.489  1.00  0.00    -0.134 C  
HETATM   36  C   UNL     1     -11.045  15.083  63.801  1.00  0.00     1.285 C  
HETATM   37  C   UNL     1      -8.412  15.949  66.628  1.00  0.00    -0.287 C  
HETATM   38  C   UNL     1      -7.100  16.603  66.453  1.00  0.00    -0.117 C  
HETATM   39  O   UNL     1      -8.459  15.214  67.835  1.00  0.00    -0.143 OA 
HETATM   40  H   UNL     1      -7.832  15.305  68.544  1.00  0.00     0.000 HD 
HETATM   41  C   UNL     1      -7.372  18.039  66.040  1.00  0.00    -0.263 C  
HETATM   42  O   UNL     1      -6.579  18.516  65.212  1.00  0.00    -0.439 OA 
HETATM   43  C   UNL     1      -8.509  18.967  66.641  1.00  0.00    -0.311 C  
HETATM   44  C   UNL     1      -9.832  18.456  67.383  1.00  0.00    -0.313 A  
HETATM   45  N   UNL     1     -10.031  17.523  68.335  1.00  0.00    -0.315 NA 
HETATM   46  C   UNL     1     -11.260  16.879  68.001  1.00  0.00    -0.064 A  
HETATM   47  C   UNL     1     -11.897  17.763  67.136  1.00  0.00     2.314 A  
HETATM   48  C   UNL     1     -11.756  15.406  68.257  1.00  0.00    -0.297 C  
HETATM   49  O   UNL     1     -11.002  18.720  66.705  1.00  0.00    -0.263 OA 
HETATM   50  O   UNL     1     -12.868  15.079  67.838  1.00  0.00     0.935 OA 
ENDBRANCH   8  11
ENDBRANCH   7   8
ENDBRANCH   6   7
ENDBRANCH   3   6
ENDBRANCH   2   3
TORSDOF 6
ENDMDL
MODEL       32
REMARK 921   NORMALIZED FREE ENERGY PREDICTED BY IDOCK:    4.33 KCAL/MOL
REMARK 922        TOTAL FREE ENERGY PREDICTED BY IDOCK:    4.70 KCAL/MOL
REMARK 923 INTER-LIGAND FREE ENERGY PREDICTED BY IDOCK:    3.06 KCAL/MOL
REMARK 924 INTRA-LIGAND FREE ENERGY PREDICTED BY IDOCK:    1.64 KCAL/MOL
REMARK 927      BINDING AFFINITY PREDICTED BY RF-SCORE:    0.00 PKD
ROOT
HETATM    1  C   UNL     1     -11.684  15.153  66.178  1.00  0.00     0.007 C  
HETATM    2  C   UNL     1     -10.682  14.207  66.851  1.00  0.00    -0.286 C  
ENDROOT
BRANCH   2   3
HETATM    3  N   UNL     1      -9.703  14.882  67.713  1.00  0.00    -0.211 NA 
BRANCH   3   4
HETATM    4  C   UNL     1     -10.304  15.920  68.578  1.00  0.00    -0.232 C  
HETATM    5  C   UNL     1     -10.304  15.627  70.076  1.00  0.00    -0.309 C  
ENDBRANCH   3   4
BRANCH   3   6
HETATM    6  C   UNL     1      -8.859  13.892  68.421  1.00  0.00    -0.177 C  
BRANCH   6   7
HETATM    7  C   UNL     1      -7.524  14.527  68.735  1.00  0.00    -0.132 C  
BRANCH   7   8
HETATM    8  S   UNL     1      -6.557  13.829  70.063  1.00  0.00     0.127 S  
HETATM    9  O   UNL     1      -5.137  14.049  69.730  1.00  0.00    -0.091 OA 
HETATM   10  O   UNL     1      -7.117  14.232  71.323  1.00  0.00     0.965 OA 
BRANCH   8  11
HETATM   11  C   UNL     1      -6.928  12.145  69.752  1.00  0.00     0.319 C  
HETATM   12  C   UNL     1      -5.667  11.299  69.588  1.00  0.00    -0.068 C  
HETATM   13  C   UNL     1      -5.988  10.263  68.555  1.00  0.00    -0.040 C  
HETATM   14  N   UNL     1      -7.009  10.862  67.708  1.00  0.00    -0.076 N  
HETATM   15  C   UNL     1      -7.974  11.832  68.639  1.00  0.00    -0.116 C  
HETATM   16  C   UNL     1      -9.337  11.410  69.678  1.00  0.00     0.973 C  
HETATM   17  O   UNL     1     -10.631  11.896  69.467  1.00  0.00     0.023 OA 
HETATM   18  O   UNL     1      -9.109  10.713  70.680  1.00  0.00     1.110 OA 
HETATM   19  C   UNL     1     -12.050  11.576  70.206  1.00  0.00    -0.359 C  
HETATM   20  C   UNL     1     -12.705  10.061  70.318  1.00  0.00    -0.021 C  
HETATM   21  C   UNL     1     -12.748  12.560  71.252  1.00  0.00    -0.350 C  
HETATM   22  C   UNL     1     -11.943  13.181  72.379  1.00  0.00     1.950 C  
HETATM   23  C   UNL     1     -13.637  13.648  70.600  1.00  0.00     0.485 C  
HETATM   24  C   UNL     1     -14.127   9.879  70.887  1.00  0.00     0.540 C  
HETATM   25  C   UNL     1     -11.970   8.849  70.843  1.00  0.00    -0.254 C  
HETATM   26  C   UNL     1     -10.808   8.828  71.498  1.00  0.00    -0.374 C  
HETATM   27  C   UNL     1      -9.741   7.993  70.850  1.00  0.00    -0.164 C  
HETATM   28  O   UNL     1      -8.900   7.421  71.497  1.00  0.00    -0.124 OA 
HETATM   29  N   UNL     1      -9.650   8.117  69.458  1.00  0.00    -0.167 N  
HETATM   30  C   UNL     1     -10.644   8.670  68.515  1.00  0.00    -0.119 C  
HETATM   31  H   UNL     1      -8.781   7.781  69.040  1.00  0.00     0.000 HD 
HETATM   32  C   UNL     1     -10.081   8.910  67.210  1.00  0.00    -0.303 C  
HETATM   33  C   UNL     1     -10.426   9.385  66.023  1.00  0.00     0.088 C  
HETATM   34  C   UNL     1      -9.508   9.219  64.911  1.00  0.00    -0.051 C  
HETATM   35  C   UNL     1      -8.411   8.431  64.939  1.00  0.00    -0.141 C  
HETATM   36  C   UNL     1      -9.862   9.881  63.597  1.00  0.00     0.348 C  
HETATM   37  C   UNL     1      -7.668   7.646  66.019  1.00  0.00    -0.090 C  
HETATM   38  C   UNL     1      -7.480   6.183  65.955  1.00  0.00    -0.082 C  
HETATM   39  O   UNL     1      -7.382   8.141  67.312  1.00  0.00    -0.086 OA 
HETATM   40  H   UNL     1      -6.920   7.654  67.984  1.00  0.00     0.000 HD 
HETATM   41  C   UNL     1      -6.680   5.893  64.698  1.00  0.00    -0.046 C  
HETATM   42  O   UNL     1      -6.994   4.856  64.092  1.00  0.00    -0.047 OA 
HETATM   43  C   UNL     1      -5.452   6.750  64.173  1.00  0.00    -0.027 C  
HETATM   44  C   UNL     1      -5.152   8.275  64.554  1.00  0.00    -0.036 A  
HETATM   45  N   UNL     1      -5.162   8.932  65.731  1.00  0.00    -0.033 NA 
HETATM   46  C   UNL     1      -5.697  10.226  65.452  1.00  0.00    -0.104 A  
HETATM   47  C   UNL     1      -5.555  10.376  64.077  1.00  0.00    -0.143 A  
HETATM   48  C   UNL     1      -6.531  11.214  66.352  1.00  0.00    -0.109 C  
HETATM   49  O   UNL     1      -5.265   9.156  63.501  1.00  0.00    -0.064 OA 
HETATM   50  O   UNL     1      -6.907  12.281  65.861  1.00  0.00     1.158 OA 
ENDBRANCH   8  11
ENDBRANCH   7   8
ENDBRANCH   6   7
ENDBRANCH   3   6
ENDBRANCH   2   3
TORSDOF 6
ENDMDL
MODEL       33
REMARK 921   NORMALIZED FREE ENERGY PREDICTED BY IDOCK:    4.44 KCAL/MOL
REMARK 922        TOTAL FREE ENERGY PREDICTED BY IDOCK:    4.86 KCAL/MOL
REMARK 923 INTER-LIGAND FREE ENERGY PREDICTED BY IDOCK:    4.33 KCAL/MOL
REMARK 924 INTRA-LIGAND FREE ENERGY PREDICTED BY IDOCK:    0.53 KCAL/MOL
REMARK 927      BINDING AFFINITY PREDICTED BY RF-SCORE:    0.00 PKD
ROOT
HETATM    1  C   UNL     1     -12.323  16.199  73.043  1.00  0.00    -0.625 C  
HETATM    2  C   UNL     1     -12.840  14.988  72.257  1.00  0.00    -0.333 C  
ENDROOT
BRANCH   2   3
HETATM    3  N   UNL     1     -12.025  14.637  71.087  1.00  0.00    -0.337 NA 
BRANCH   3   4
HETATM    4  C   UNL     1     -11.009  15.660  70.755  1.00  0.00    -0.311 C  
HETATM    5  C   UNL     1      -9.694  15.575  71.525  1.00  0.00     2.765 C  
ENDBRANCH   3   4
BRANCH   3   6
HETATM    6  C   UNL     1     -11.502  13.256  71.207  1.00  0.00     1.783 C  
BRANCH   6   7
HETATM    7  C   UNL     1     -12.486  12.306  70.569  1.00  0.00    -0.189 C  
BRANCH   7   8
HETATM    8  S   UNL     1     -12.200  10.554  70.757  1.00  0.00    -0.403 S  
HETATM    9  O   UNL     1     -10.947  10.396  71.521  1.00  0.00     0.430 OA 
HETATM   10  O   UNL     1     -13.422   9.911  71.154  1.00  0.00    -0.367 OA 
BRANCH   8  11
HETATM   11  C   UNL     1     -11.854  10.199  69.077  1.00  0.00     0.177 C  
HETATM   12  C   UNL     1     -12.143   8.742  68.725  1.00  0.00     2.641 C  
HETATM   13  C   UNL     1     -11.105   8.336  67.725  1.00  0.00     0.386 C  
HETATM   14  N   UNL     1      -9.948   9.174  68.004  1.00  0.00    -0.169 N  
HETATM   15  C   UNL     1     -10.474  10.658  68.513  1.00  0.00    -0.191 C  
HETATM   16  C   UNL     1     -11.029  12.046  67.575  1.00  0.00    -0.253 C  
HETATM   17  O   UNL     1     -10.389  13.289  67.607  1.00  0.00    -0.225 OA 
HETATM   18  O   UNL     1     -12.078  11.924  66.922  1.00  0.00    -0.599 OA 
HETATM   19  C   UNL     1     -10.638  14.667  66.768  1.00  0.00    -0.288 C  
HETATM   20  C   UNL     1     -10.592  14.756  65.117  1.00  0.00    -0.439 C  
HETATM   21  C   UNL     1     -11.359  15.956  67.373  1.00  0.00    -0.048 C  
HETATM   22  C   UNL     1     -12.660  15.820  68.142  1.00  0.00     1.352 C  
HETATM   23  C   UNL     1     -10.409  16.909  68.141  1.00  0.00    -0.336 C  
HETATM   24  C   UNL     1     -10.673  16.129  64.420  1.00  0.00     0.470 C  
HETATM   25  C   UNL     1     -11.376  13.855  64.191  1.00  0.00    -0.226 C  
HETATM   26  C   UNL     1     -12.374  13.032  64.515  1.00  0.00    -0.461 C  
HETATM   27  C   UNL     1     -12.143  11.595  64.144  1.00  0.00    -0.104 C  
HETATM   28  O   UNL     1     -13.051  10.861  63.845  1.00  0.00     1.781 OA 
HETATM   29  N   UNL     1     -10.853  11.113  64.399  1.00  0.00    -0.320 N  
HETATM   30  C   UNL     1      -9.616  11.880  64.652  1.00  0.00    -0.025 C  
HETATM   31  H   UNL     1     -10.755  10.097  64.411  1.00  0.00     0.000 HD 
HETATM   32  C   UNL     1      -8.557  11.050  65.169  1.00  0.00    -0.015 C  
HETATM   33  C   UNL     1      -7.304  11.141  65.588  1.00  0.00     0.258 C  
HETATM   34  C   UNL     1      -6.559   9.918  65.830  1.00  0.00    -0.091 C  
HETATM   35  C   UNL     1      -6.975   8.687  65.462  1.00  0.00    -0.078 C  
HETATM   36  C   UNL     1      -5.176  10.041  66.431  1.00  0.00    -0.043 C  
HETATM   37  C   UNL     1      -8.269   8.105  64.896  1.00  0.00    -0.147 C  
HETATM   38  C   UNL     1      -8.329   7.412  63.593  1.00  0.00     0.180 C  
HETATM   39  O   UNL     1      -9.564   8.436  65.358  1.00  0.00    -0.391 OA 
HETATM   40  H   UNL     1     -10.368   8.074  65.006  1.00  0.00     0.000 HD 
HETATM   41  C   UNL     1      -7.414   6.205  63.689  1.00  0.00    -0.075 C  
HETATM   42  O   UNL     1      -6.781   5.930  62.658  1.00  0.00    -0.037 OA 
HETATM   43  C   UNL     1      -7.283   5.250  64.950  1.00  0.00    -0.066 C  
HETATM   44  C   UNL     1      -7.679   5.635  66.453  1.00  0.00    -0.099 A  
HETATM   45  N   UNL     1      -8.760   6.247  66.975  1.00  0.00    -0.108 NA 
HETATM   46  C   UNL     1      -8.271   7.077  68.027  1.00  0.00    -0.119 A  
HETATM   47  C   UNL     1      -7.012   6.565  68.322  1.00  0.00    -0.080 A  
HETATM   48  C   UNL     1      -8.810   8.442  68.601  1.00  0.00    -0.136 C  
HETATM   49  O   UNL     1      -6.612   5.704  67.321  1.00  0.00    -0.053 OA 
HETATM   50  O   UNL     1      -8.180   8.986  69.511  1.00  0.00    -0.106 OA 
ENDBRANCH   8  11
ENDBRANCH   7   8
ENDBRANCH   6   7
ENDBRANCH   3   6
ENDBRANCH   2   3
TORSDOF 6
ENDMDL
MODEL       34
REMARK 921   NORMALIZED FREE ENERGY PREDICTED BY IDOCK:    5.62 KCAL/MOL
REMARK 922        TOTAL FREE ENERGY PREDICTED BY IDOCK:    6.45 KCAL/MOL
REMARK 923 INTER-LIGAND FREE ENERGY PREDICTED BY IDOCK:    6.16 KCAL/MOL
REMARK 924 INTRA-LIGAND FREE ENERGY PREDICTED BY IDOCK:    0.29 KCAL/MOL
REMARK 927      BINDING AFFINITY PREDICTED BY RF-SCORE:    0.00 PKD
ROOT
HETATM    1  C   UNL     1      -7.888  11.470  62.364  1.00  0.00     0.334 C  
HETATM    2  C   UNL     1      -7.676  10.460  63.498  1.00  0.00    -0.061 C  
ENDROOT
BRANCH   2   3
HETATM    3  N   UNL     1      -8.744   9.460  63.621  1.00  0.00    -0.217 NA 
BRANCH   3   4
HETATM    4  C   UNL     1      -9.558   9.320  62.394  1.00  0.00     0.762 C  
HETATM    5  C   UNL     1     -10.867  10.104  62.364  1.00  0.00     2.575 C  
ENDBRANCH   3   4
BRANCH   3   6
HETATM    6  C   UNL     1      -8.213   8.188  64.165  1.00  0.00    -0.080 C  
BRANCH   6   7
HETATM    7  C   UNL     1      -8.984   7.040  63.559  1.00  0.00     1.302 C  
BRANCH   7   8
HETATM    8  S   UNL     1      -9.319   5.621  64.589  1.00  0.00     0.741 S  
HETATM    9  O   UNL     1     -10.744   5.685  64.967  1.00  0.00     1.314 OA 
HETATM   10  O   UNL     1      -8.739   4.450  63.992  1.00  0.00    -0.124 OA 
BRANCH   8  11
HETATM   11  C   UNL     1      -8.372   6.120  65.976  1.00  0.00    -0.136 C  
HETATM   12  C   UNL     1      -7.145   5.235  66.183  1.00  0.00    -0.072 C  
HETATM   13  C   UNL     1      -6.950   5.126  67.664  1.00  0.00    -0.065 C  
HETATM   14  N   UNL     1      -8.275   5.295  68.244  1.00  0.00    -0.094 N  
HETATM   15  C   UNL     1      -9.131   6.365  67.316  1.00  0.00    -0.117 C  
HETATM   16  C   UNL     1      -9.105   8.130  67.307  1.00  0.00    -0.138 C  
HETATM   17  O   UNL     1     -10.230   8.907  67.600  1.00  0.00    -0.207 OA 
HETATM   18  O   UNL     1      -8.058   8.694  66.950  1.00  0.00    -0.098 OA 
HETATM   19  C   UNL     1     -10.431  10.519  67.760  1.00  0.00    -0.224 C  
HETATM   20  C   UNL     1      -9.588  11.445  68.840  1.00  0.00    -0.087 C  
HETATM   21  C   UNL     1     -11.113  11.443  66.650  1.00  0.00    -0.333 C  
HETATM   22  C   UNL     1     -10.705  11.323  65.193  1.00  0.00    -0.312 C  
HETATM   23  C   UNL     1     -12.657  11.508  66.745  1.00  0.00     2.953 C  
HETATM   24  C   UNL     1      -9.963  12.928  69.036  1.00  0.00     0.226 C  
HETATM   25  C   UNL     1      -8.082  11.455  68.965  1.00  0.00    -0.005 C  
HETATM   26  C   UNL     1      -7.196  10.931  68.117  1.00  0.00    -0.083 C  
HETATM   27  C   UNL     1      -6.273   9.915  68.725  1.00  0.00    -0.041 C  
HETATM   28  O   UNL     1      -5.144   9.763  68.332  1.00  0.00    -0.034 OA 
HETATM   29  N   UNL     1      -6.881   9.008  69.603  1.00  0.00    -0.049 N  
HETATM   30  C   UNL     1      -8.196   9.111  70.271  1.00  0.00    -0.159 C  
HETATM   31  H   UNL     1      -6.344   8.165  69.809  1.00  0.00     0.000 HD 
HETATM   32  C   UNL     1      -8.609   7.859  70.853  1.00  0.00    -0.129 C  
HETATM   33  C   UNL     1      -9.625   7.332  71.518  1.00  0.00    -0.164 C  
HETATM   34  C   UNL     1      -9.471   6.008  72.095  1.00  0.00    -0.158 C  
HETATM   35  C   UNL     1      -8.295   5.350  72.186  1.00  0.00    -0.126 C  
HETATM   36  C   UNL     1     -10.683   5.371  72.738  1.00  0.00    -0.293 C  
HETATM   37  C   UNL     1      -6.882   5.575  71.651  1.00  0.00    -0.066 C  
HETATM   38  C   UNL     1      -5.710   5.730  72.535  1.00  0.00    -0.031 C  
HETATM   39  O   UNL     1      -6.583   5.987  70.331  1.00  0.00    -0.041 OA 
HETATM   40  H   UNL     1      -5.704   6.127  69.999  1.00  0.00     0.000 HD 
HETATM   41  C   UNL     1      -5.581   4.443  73.331  1.00  0.00    -0.008 C  
HETATM   42  O   UNL     1      -5.210   4.577  74.508  1.00  0.00    -0.008 OA 
HETATM   43  C   UNL     1      -5.798   2.981  72.753  1.00  0.00    -0.008 C  
HETATM   44  C   UNL     1      -6.635   2.614  71.439  1.00  0.00    -0.019 A  
HETATM   45  N   UNL     1      -6.659   3.153  70.203  1.00  0.00    -0.032 NA 
HETATM   46  C   UNL     1      -8.023   3.110  69.785  1.00  0.00    -0.045 A  
HETATM   47  C   UNL     1      -8.617   2.168  70.617  1.00  0.00    -0.053 A  
HETATM   48  C   UNL     1      -8.837   4.055  68.823  1.00  0.00    -0.106 C  
HETATM   49  O   UNL     1      -7.781   1.889  71.679  1.00  0.00    -0.039 OA 
HETATM   50  O   UNL     1     -10.034   3.819  68.640  1.00  0.00     0.014 OA 
ENDBRANCH   8  11
ENDBRANCH   7   8
ENDBRANCH   6   7
ENDBRANCH   3   6
ENDBRANCH   2   3
TORSDOF 6
ENDMDL
MODEL       35
REMARK 921   NORMALIZED FREE ENERGY PREDICTED BY IDOCK:    5.94 KCAL/MOL
REMARK 922        TOTAL FREE ENERGY PREDICTED BY IDOCK:    6.87 KCAL/MOL
REMARK 923 INTER-LIGAND FREE ENERGY PREDICTED BY IDOCK:    4.89 KCAL/MOL
REMARK 924 INTRA-LIGAND FREE ENERGY PREDICTED BY IDOCK:    1.98 KCAL/MOL
REMARK 927      BINDING AFFINITY PREDICTED BY RF-SCORE:    0.00 PKD
ROOT
HETATM    1  C   UNL     1      -8.056  11.546  63.098  1.00  0.00     0.800 C  
HETATM    2  C   UNL     1      -7.398  10.390  62.335  1.00  0.00    -0.143 C  
ENDROOT
BRANCH   2   3
HETATM    3  N   UNL     1      -5.943  10.301  62.513  1.00  0.00    -0.115 NA 
BRANCH   3   4
HETATM    4  C   UNL     1      -5.428  11.206  63.565  1.00  0.00     0.456 C  
HETATM    5  C   UNL     1      -5.619  10.737  65.005  1.00  0.00    -0.067 C  
ENDBRANCH   3   4
BRANCH   3   6
HETATM    6  C   UNL     1      -5.515   8.889  62.642  1.00  0.00    -0.078 C  
BRANCH   6   7
HETATM    7  C   UNL     1      -5.636   8.474  64.089  1.00  0.00    -0.064 C  
BRANCH   7   8
HETATM    8  S   UNL     1      -6.426   6.914  64.449  1.00  0.00    -0.036 S  
HETATM    9  O   UNL     1      -7.825   7.019  63.995  1.00  0.00    -0.118 OA 
HETATM   10  O   UNL     1      -5.567   5.838  64.035  1.00  0.00    -0.016 OA 
BRANCH   8  11
HETATM   11  C   UNL     1      -6.415   7.052  66.195  1.00  0.00    -0.051 C  
HETATM   12  C   UNL     1      -5.364   6.149  66.837  1.00  0.00    -0.009 C  
HETATM   13  C   UNL     1      -5.953   5.672  68.130  1.00  0.00    -0.017 C  
HETATM   14  N   UNL     1      -7.394   5.684  67.928  1.00  0.00    -0.072 N  
HETATM   15  C   UNL     1      -7.784   6.949  66.935  1.00  0.00    -0.099 C  
HETATM   16  C   UNL     1      -8.002   8.659  67.311  1.00  0.00    -0.101 C  
HETATM   17  O   UNL     1      -9.211   9.333  67.110  1.00  0.00    -0.128 OA 
HETATM   18  O   UNL     1      -7.011   9.299  67.700  1.00  0.00    -0.076 OA 
HETATM   19  C   UNL     1      -9.686  10.852  67.471  1.00  0.00    -0.167 C  
HETATM   20  C   UNL     1      -9.663  11.481  69.000  1.00  0.00     0.016 C  
HETATM   21  C   UNL     1      -9.814  12.022  66.391  1.00  0.00    -0.238 C  
HETATM   22  C   UNL     1      -8.698  12.274  65.394  1.00  0.00     0.825 C  
HETATM   23  C   UNL     1     -11.175  12.055  65.653  1.00  0.00    -0.377 C  
HETATM   24  C   UNL     1     -10.287  12.865  69.270  1.00  0.00     0.290 C  
HETATM   25  C   UNL     1      -8.459  11.465  69.912  1.00  0.00     1.543 C  
HETATM   26  C   UNL     1      -7.199  11.176  69.585  1.00  0.00    -0.016 C  
HETATM   27  C   UNL     1      -6.595  10.043  70.365  1.00  0.00    -0.132 C  
HETATM   28  O   UNL     1      -5.418  10.000  70.618  1.00  0.00    -0.047 OA 
HETATM   29  N   UNL     1      -7.438   8.942  70.566  1.00  0.00    -0.077 N  
HETATM   30  C   UNL     1      -8.907   8.868  70.427  1.00  0.00    -0.181 C  
HETATM   31  H   UNL     1      -6.975   8.076  70.845  1.00  0.00     0.000 HD 
HETATM   32  C   UNL     1      -9.384   7.509  70.419  1.00  0.00    -0.161 C  
HETATM   33  C   UNL     1     -10.514   6.827  70.306  1.00  0.00    -0.238 C  
HETATM   34  C   UNL     1     -10.499   5.401  70.582  1.00  0.00    -0.329 C  
HETATM   35  C   UNL     1      -9.463   4.746  71.150  1.00  0.00    -0.218 C  
HETATM   36  C   UNL     1     -11.768   4.617  70.324  1.00  0.00     5.183 C  
HETATM   37  C   UNL     1      -8.025   5.105  71.519  1.00  0.00    -0.113 C  
HETATM   38  C   UNL     1      -7.516   5.037  72.903  1.00  0.00    -0.092 C  
HETATM   39  O   UNL     1      -7.145   5.836  70.687  1.00  0.00    -0.068 OA 
HETATM   40  H   UNL     1      -6.251   6.060  70.916  1.00  0.00     0.000 HD 
HETATM   41  C   UNL     1      -7.642   3.593  73.352  1.00  0.00    -0.062 C  
HETATM   42  O   UNL     1      -7.958   3.428  74.541  1.00  0.00    -0.064 OA 
HETATM   43  C   UNL     1      -7.322   2.322  72.457  1.00  0.00    -0.039 C  
HETATM   44  C   UNL     1      -7.296   2.294  70.857  1.00  0.00    -0.033 A  
HETATM   45  N   UNL     1      -6.750   3.125  69.947  1.00  0.00    -0.033 NA 
HETATM   46  C   UNL     1      -7.678   3.183  68.864  1.00  0.00    -0.050 A  
HETATM   47  C   UNL     1      -8.480   2.059  69.028  1.00  0.00    -0.058 A  
HETATM   48  C   UNL     1      -7.997   4.336  67.839  1.00  0.00    -0.087 C  
HETATM   49  O   UNL     1      -8.287   1.526  70.286  1.00  0.00    -0.041 OA 
HETATM   50  O   UNL     1      -8.879   4.147  66.998  1.00  0.00    -0.111 OA 
ENDBRANCH   8  11
ENDBRANCH   7   8
ENDBRANCH   6   7
ENDBRANCH   3   6
ENDBRANCH   2   3
TORSDOF 6
ENDMDL
MODEL       36
REMARK 921   NORMALIZED FREE ENERGY PREDICTED BY IDOCK:    5.98 KCAL/MOL
REMARK 922        TOTAL FREE ENERGY PREDICTED BY IDOCK:    6.93 KCAL/MOL
REMARK 923 INTER-LIGAND FREE ENERGY PREDICTED BY IDOCK:    7.64 KCAL/MOL
REMARK 924 INTRA-LIGAND FREE ENERGY PREDICTED BY IDOCK:   -0.71 KCAL/MOL
REMARK 927      BINDING AFFINITY PREDICTED BY RF-SCORE:    0.00 PKD
ROOT
HETATM    1  C   UNL     1      -9.750   9.434  65.415  1.00  0.00    -0.248 C  
HETATM    2  C   UNL     1      -9.825   7.926  65.686  1.00  0.00     0.791 C  
ENDROOT
BRANCH   2   3
HETATM    3  N   UNL     1      -9.104   7.495  66.891  1.00  0.00    -0.135 NA 
BRANCH   3   4
HETATM    4  C   UNL     1      -9.691   6.294  67.525  1.00  0.00    -0.117 C  
HETATM    5  C   UNL     1      -9.873   5.079  66.619  1.00  0.00    -0.215 C  
ENDBRANCH   3   4
BRANCH   3   6
HETATM    6  C   UNL     1      -7.648   7.412  66.630  1.00  0.00    -0.100 C  
BRANCH   6   7
HETATM    7  C   UNL     1      -6.909   8.038  67.789  1.00  0.00    -0.070 C  
BRANCH   7   8
HETATM    8  S   UNL     1      -5.851   9.435  67.450  1.00  0.00    -0.045 S  
HETATM    9  O   UNL     1      -5.148   9.764  68.705  1.00  0.00    -0.037 OA 
HETATM   10  O   UNL     1      -5.147   9.212  66.218  1.00  0.00    -0.032 OA 
BRANCH   8  11
HETATM   11  C   UNL     1      -7.115  10.624  67.213  1.00  0.00    -0.089 C  
HETATM   12  C   UNL     1      -6.948  11.388  65.902  1.00  0.00     0.344 C  
HETATM   13  C   UNL     1      -7.408  12.787  66.168  1.00  0.00     2.138 C  
HETATM   14  N   UNL     1      -7.176  13.009  67.588  1.00  0.00    -0.138 N  
HETATM   15  C   UNL     1      -7.428  11.588  68.398  1.00  0.00    -0.109 C  
HETATM   16  C   UNL     1      -8.934  10.846  68.942  1.00  0.00    -0.140 C  
HETATM   17  O   UNL     1      -9.211  10.591  70.289  1.00  0.00     0.406 OA 
HETATM   18  O   UNL     1      -9.741  10.470  68.078  1.00  0.00    -0.145 OA 
HETATM   19  C   UNL     1     -10.545  10.025  71.040  1.00  0.00     0.062 C  
HETATM   20  C   UNL     1     -12.030  10.744  70.936  1.00  0.00    -0.438 C  
HETATM   21  C   UNL     1     -10.688   8.532  71.589  1.00  0.00    -0.351 C  
HETATM   22  C   UNL     1     -10.296   7.352  70.720  1.00  0.00    -0.208 C  
HETATM   23  C   UNL     1     -10.121   8.327  73.016  1.00  0.00    -0.187 C  
HETATM   24  C   UNL     1     -13.193  10.235  71.812  1.00  0.00    -0.534 C  
HETATM   25  C   UNL     1     -12.715  11.107  69.638  1.00  0.00     0.082 C  
HETATM   26  C   UNL     1     -12.375  10.720  68.408  1.00  0.00     0.747 C  
HETATM   27  C   UNL     1     -12.096  11.845  67.453  1.00  0.00     0.220 C  
HETATM   28  O   UNL     1     -12.320  11.750  66.273  1.00  0.00    -0.073 OA 
HETATM   29  N   UNL     1     -11.349  12.905  67.983  1.00  0.00    -0.272 N  
HETATM   30  C   UNL     1     -11.092  13.234  69.401  1.00  0.00    -0.090 C  
HETATM   31  H   UNL     1     -10.925  13.533  67.299  1.00  0.00     0.000 HD 
HETATM   32  C   UNL     1     -10.040  14.207  69.552  1.00  0.00     0.292 C  
HETATM   33  C   UNL     1      -9.375  14.849  70.499  1.00  0.00     1.263 C  
HETATM   34  C   UNL     1      -8.499  15.943  70.119  1.00  0.00     0.977 C  
HETATM   35  C   UNL     1      -8.466  16.500  68.889  1.00  0.00    -0.235 C  
HETATM   36  C   UNL     1      -7.651  16.578  71.199  1.00  0.00     5.082 C  
HETATM   37  C   UNL     1      -9.085  16.169  67.532  1.00  0.00    -0.203 C  
HETATM   38  C   UNL     1      -9.992  17.092  66.823  1.00  0.00    -0.297 C  
HETATM   39  O   UNL     1      -9.141  14.870  66.976  1.00  0.00    -0.211 OA 
HETATM   40  H   UNL     1      -9.526  14.663  66.132  1.00  0.00     0.000 HD 
HETATM   41  C   UNL     1      -9.207  18.362  66.548  1.00  0.00    -0.296 C  
HETATM   42  O   UNL     1      -9.852  19.419  66.639  1.00  0.00    -0.324 OA 
HETATM   43  C   UNL     1      -7.692  18.422  66.082  1.00  0.00    -0.253 C  
HETATM   44  C   UNL     1      -6.609  17.260  66.287  1.00  0.00    -0.213 A  
HETATM   45  N   UNL     1      -6.663  15.929  66.086  1.00  0.00     1.015 NA 
HETATM   46  C   UNL     1      -5.918  15.341  67.152  1.00  0.00     0.489 A  
HETATM   47  C   UNL     1      -5.131  16.378  67.644  1.00  0.00    -0.129 A  
HETATM   48  C   UNL     1      -6.070  13.949  67.873  1.00  0.00    -0.148 C  
HETATM   49  O   UNL     1      -5.586  17.583  67.151  1.00  0.00    -0.119 OA 
HETATM   50  O   UNL     1      -5.306  13.683  68.804  1.00  0.00    -0.070 OA 
ENDBRANCH   8  11
ENDBRANCH   7   8
ENDBRANCH   6   7
ENDBRANCH   3   6
ENDBRANCH   2   3
TORSDOF 6
ENDMDL
MODEL       37
REMARK 921   NORMALIZED FREE ENERGY PREDICTED BY IDOCK:    6.74 KCAL/MOL
REMARK 922        TOTAL FREE ENERGY PREDICTED BY IDOCK:    7.96 KCAL/MOL
REMARK 923 INTER-LIGAND FREE ENERGY PREDICTED BY IDOCK:    7.95 KCAL/MOL
REMARK 924 INTRA-LIGAND FREE ENERGY PREDICTED BY IDOCK:    0.01 KCAL/MOL
REMARK 927      BINDING AFFINITY PREDICTED BY RF-SCORE:    0.00 PKD
ROOT
HETATM    1  C   UNL     1     -12.386  14.979  67.056  1.00  0.00     0.471 C  
HETATM    2  C   UNL     1     -11.386  16.086  67.410  1.00  0.00     0.003 C  
ENDROOT
BRANCH   2   3
HETATM    3  N   UNL     1     -11.240  16.326  68.852  1.00  0.00    -0.343 NA 
BRANCH   3   4
HETATM    4  C   UNL     1     -10.848  17.715  69.176  1.00  0.00     0.338 C  
HETATM    5  C   UNL     1     -10.705  18.665  67.990  1.00  0.00    -0.273 C  
ENDBRANCH   3   4
BRANCH   3   6
HETATM    6  C   UNL     1     -12.422  15.823  69.590  1.00  0.00     0.020 C  
BRANCH   6   7
HETATM    7  C   UNL     1     -11.992  15.417  70.980  1.00  0.00    -0.359 C  
BRANCH   7   8
HETATM    8  S   UNL     1     -12.415  13.776  71.541  1.00  0.00    -0.205 S  
HETATM    9  O   UNL     1     -11.552  13.475  72.699  1.00  0.00     2.111 OA 
HETATM   10  O   UNL     1     -13.845  13.647  71.601  1.00  0.00    -0.309 OA 
BRANCH   8  11
HETATM   11  C   UNL     1     -11.790  12.897  70.161  1.00  0.00    -0.245 C  
HETATM   12  C   UNL     1     -12.835  11.966  69.550  1.00  0.00     0.796 C  
HETATM   13  C   UNL     1     -12.093  10.755  69.075  1.00  0.00    -0.098 C  
HETATM   14  N   UNL     1     -10.923  10.654  69.935  1.00  0.00    -0.281 N  
HETATM   15  C   UNL     1     -10.415  12.180  70.326  1.00  0.00     2.255 C  
HETATM   16  C   UNL     1      -9.422  13.313  69.407  1.00  0.00     1.025 C  
HETATM   17  O   UNL     1      -8.187  13.784  69.865  1.00  0.00     1.083 OA 
HETATM   18  O   UNL     1      -9.885  13.764  68.347  1.00  0.00    -0.224 OA 
HETATM   19  C   UNL     1      -7.055  14.731  69.168  1.00  0.00    -0.143 C  
HETATM   20  C   UNL     1      -6.316  14.373  67.733  1.00  0.00    -0.168 C  
HETATM   21  C   UNL     1      -6.838  16.270  69.536  1.00  0.00    -0.188 C  
HETATM   22  C   UNL     1      -8.022  17.214  69.625  1.00  0.00     0.742 C  
HETATM   23  C   UNL     1      -5.905  16.504  70.751  1.00  0.00     0.268 C  
HETATM   24  C   UNL     1      -5.142  15.241  67.236  1.00  0.00     0.378 C  
HETATM   25  C   UNL     1      -7.050  14.030  66.457  1.00  0.00     2.263 C  
HETATM   26  C   UNL     1      -8.351  14.179  66.206  1.00  0.00     0.833 C  
HETATM   27  C   UNL     1      -9.060  12.915  65.812  1.00  0.00     0.370 C  
HETATM   28  O   UNL     1     -10.000  12.920  65.058  1.00  0.00    -0.237 OA 
HETATM   29  N   UNL     1      -8.712  11.780  66.555  1.00  0.00    -0.228 N  
HETATM   30  C   UNL     1      -7.531  11.569  67.419  1.00  0.00    -0.127 C  
HETATM   31  H   UNL     1      -9.360  10.994  66.492  1.00  0.00     0.000 HD 
HETATM   32  C   UNL     1      -7.668  10.402  68.252  1.00  0.00    -0.096 C  
HETATM   33  C   UNL     1      -7.011   9.738  69.191  1.00  0.00    -0.055 C  
HETATM   34  C   UNL     1      -7.500   8.432  69.595  1.00  0.00    -0.073 C  
HETATM   35  C   UNL     1      -8.459   7.742  68.940  1.00  0.00    -0.129 C  
HETATM   36  C   UNL     1      -6.814   7.748  70.758  1.00  0.00    -0.042 C  
HETATM   37  C   UNL     1      -9.423   8.047  67.795  1.00  0.00    -0.145 C  
HETATM   38  C   UNL     1      -9.426   7.285  66.531  1.00  0.00    -0.218 C  
HETATM   39  O   UNL     1     -10.160   9.247  67.669  1.00  0.00    -0.187 OA 
HETATM   40  H   UNL     1     -10.759   9.437  66.957  1.00  0.00     0.000 HD 
HETATM   41  C   UNL     1      -9.745   5.842  66.882  1.00  0.00    -0.147 C  
HETATM   42  O   UNL     1      -9.146   4.984  66.215  1.00  0.00    -0.122 OA 
HETATM   43  C   UNL     1     -10.822   5.375  67.949  1.00  0.00     0.042 C  
HETATM   44  C   UNL     1     -11.387   6.266  69.154  1.00  0.00    -0.287 A  
HETATM   45  N   UNL     1     -11.824   7.540  69.208  1.00  0.00     0.791 NA 
HETATM   46  C   UNL     1     -11.367   8.057  70.456  1.00  0.00    -0.225 A  
HETATM   47  C   UNL     1     -11.074   6.931  71.218  1.00  0.00    -0.258 A  
HETATM   48  C   UNL     1     -10.974   9.522  70.885  1.00  0.00    -0.337 C  
HETATM   49  O   UNL     1     -11.034   5.816  70.407  1.00  0.00    -0.298 OA 
HETATM   50  O   UNL     1     -10.574   9.710  72.037  1.00  0.00     0.203 OA 
ENDBRANCH   8  11
ENDBRANCH   7   8
ENDBRANCH   6   7
ENDBRANCH   3   6
ENDBRANCH   2   3
TORSDOF 6
ENDMDL
MODEL       38
REMARK 921   NORMALIZED FREE ENERGY PREDICTED BY IDOCK:    7.96 KCAL/MOL
REMARK 922        TOTAL FREE ENERGY PREDICTED BY IDOCK:    9.60 KCAL/MOL
REMARK 923 INTER-LIGAND FREE ENERGY PREDICTED BY IDOCK:    9.05 KCAL/MOL
REMARK 924 INTRA-LIGAND FREE ENERGY PREDICTED BY IDOCK:    0.55 KCAL/MOL
REMARK 927      BINDING AFFINITY PREDICTED BY RF-SCORE:    0.00 PKD
ROOT
HETATM    1  C   UNL     1     -10.456  18.270  70.817  1.00  0.00     2.290 C  
HETATM    2  C   UNL     1     -11.209  16.937  70.906  1.00  0.00     0.556 C  
ENDROOT
BRANCH   2   3
HETATM    3  N   UNL     1     -10.410  15.767  70.518  1.00  0.00    -0.079 NA 
BRANCH   3   4
HETATM    4  C   UNL     1      -8.956  16.037  70.489  1.00  0.00     1.974 C  
HETATM    5  C   UNL     1      -8.095  14.997  69.778  1.00  0.00     0.053 C  
ENDBRANCH   3   4
BRANCH   3   6
HETATM    6  C   UNL     1     -10.807  14.576  71.305  1.00  0.00     0.973 C  
BRANCH   6   7
HETATM    7  C   UNL     1     -12.289  14.347  71.125  1.00  0.00    -0.358 C  
BRANCH   7   8
HETATM    8  S   UNL     1     -12.945  12.742  71.553  1.00  0.00    -0.204 S  
HETATM    9  O   UNL     1     -12.041  12.156  72.561  1.00  0.00     1.774 OA 
HETATM   10  O   UNL     1     -14.362  12.849  71.769  1.00  0.00     0.471 OA 
BRANCH   8  11
HETATM   11  C   UNL     1     -12.629  11.953  70.022  1.00  0.00     0.094 C  
HETATM   12  C   UNL     1     -13.227  10.549  69.964  1.00  0.00     0.362 C  
HETATM   13  C   UNL     1     -12.273   9.718  69.164  1.00  0.00     1.096 C  
HETATM   14  N   UNL     1     -10.967  10.332  69.356  1.00  0.00    -0.233 N  
HETATM   15  C   UNL     1     -11.162  11.969  69.493  1.00  0.00    -0.150 C  
HETATM   16  C   UNL     1     -11.355  13.195  68.238  1.00  0.00    -0.297 C  
HETATM   17  O   UNL     1     -10.452  14.248  68.060  1.00  0.00    -0.230 OA 
HETATM   18  O   UNL     1     -12.380  13.155  67.539  1.00  0.00    -0.198 OA 
HETATM   19  C   UNL     1     -10.353  15.421  66.929  1.00  0.00    -0.277 C  
HETATM   20  C   UNL     1     -10.230  15.124  65.308  1.00  0.00    -0.400 C  
HETATM   21  C   UNL     1     -10.785  16.938  67.184  1.00  0.00    -0.180 C  
HETATM   22  C   UNL     1     -12.110  17.258  67.851  1.00  0.00     2.013 C  
HETATM   23  C   UNL     1      -9.673  17.815  67.811  1.00  0.00    -0.285 C  
HETATM   24  C   UNL     1      -9.974  16.289  64.331  1.00  0.00     2.539 C  
HETATM   25  C   UNL     1     -11.163  14.226  64.530  1.00  0.00    -0.331 C  
HETATM   26  C   UNL     1     -12.332  13.728  64.935  1.00  0.00    -0.435 C  
HETATM   27  C   UNL     1     -12.420  12.229  64.899  1.00  0.00    -0.245 C  
HETATM   28  O   UNL     1     -13.458  11.656  64.686  1.00  0.00     0.508 OA 
HETATM   29  N   UNL     1     -11.281  11.554  65.358  1.00  0.00    -0.199 N  
HETATM   30  C   UNL     1      -9.912  12.078  65.547  1.00  0.00    -0.241 C  
HETATM   31  H   UNL     1     -11.415  10.570  65.594  1.00  0.00     0.000 HD 
HETATM   32  C   UNL     1      -9.088  11.181  66.316  1.00  0.00    -0.207 C  
HETATM   33  C   UNL     1      -7.863  11.095  66.811  1.00  0.00    -0.153 C  
HETATM   34  C   UNL     1      -7.422   9.829  67.369  1.00  0.00    -0.091 C  
HETATM   35  C   UNL     1      -8.092   8.664  67.236  1.00  0.00    -0.101 C  
HETATM   36  C   UNL     1      -6.069   9.787  68.046  1.00  0.00    -0.054 C  
HETATM   37  C   UNL     1      -9.463   8.257  66.699  1.00  0.00    -0.209 C  
HETATM   38  C   UNL     1      -9.631   7.318  65.573  1.00  0.00     0.742 C  
HETATM   39  O   UNL     1     -10.665   8.951  66.969  1.00  0.00    -0.270 OA 
HETATM   40  H   UNL     1     -11.518   8.699  66.635  1.00  0.00     0.000 HD 
HETATM   41  C   UNL     1      -9.017   5.997  66.000  1.00  0.00    -0.147 C  
HETATM   42  O   UNL     1      -8.426   5.368  65.107  1.00  0.00    -0.141 OA 
HETATM   43  C   UNL     1      -9.150   5.346  67.441  1.00  0.00    -0.111 C  
HETATM   44  C   UNL     1      -9.502   6.134  68.789  1.00  0.00    -0.121 A  
HETATM   45  N   UNL     1     -10.435   7.064  69.075  1.00  0.00    -0.201 NA 
HETATM   46  C   UNL     1      -9.808   7.986  69.965  1.00  0.00    -0.185 A  
HETATM   47  C   UNL     1      -8.709   7.299  70.468  1.00  0.00    -0.148 A  
HETATM   48  C   UNL     1     -10.045   9.528  70.189  1.00  0.00    -0.249 C  
HETATM   49  O   UNL     1      -8.478   6.169  69.710  1.00  0.00    -0.124 OA 
HETATM   50  O   UNL     1      -9.341  10.117  71.013  1.00  0.00     0.464 OA 
ENDBRANCH   8  11
ENDBRANCH   7   8
ENDBRANCH   6   7
ENDBRANCH   3   6
ENDBRANCH   2   3
TORSDOF 6
ENDMDL
MODEL       39
REMARK 921   NORMALIZED FREE ENERGY PREDICTED BY IDOCK:    8.67 KCAL/MOL
REMARK 922        TOTAL FREE ENERGY PREDICTED BY IDOCK:   10.56 KCAL/MOL
REMARK 923 INTER-LIGAND FREE ENERGY PREDICTED BY IDOCK:   -1.56 KCAL/MOL
REMARK 924 INTRA-LIGAND FREE ENERGY PREDICTED BY IDOCK:   12.12 KCAL/MOL
REMARK 927      BINDING AFFINITY PREDICTED BY RF-SCORE:    0.00 PKD
ROOT
HETATM    1  C   UNL     1      -8.169  11.917  66.155  1.00  0.00     0.231 C  
HETATM    2  C   UNL     1      -9.393  12.496  66.876  1.00  0.00    -0.219 C  
ENDROOT
BRANCH   2   3
HETATM    3  N   UNL     1      -9.276  13.921  67.210  1.00  0.00    -0.224 NA 
BRANCH   3   4
HETATM    4  C   UNL     1     -10.550  14.660  67.069  1.00  0.00    -0.280 C  
HETATM    5  C   UNL     1     -10.703  15.498  65.803  1.00  0.00    -0.362 C  
ENDBRANCH   3   4
BRANCH   3   6
HETATM    6  C   UNL     1      -8.592  14.100  68.512  1.00  0.00    -0.163 C  
BRANCH   6   7
HETATM    7  C   UNL     1      -8.989  12.968  69.430  1.00  0.00     1.259 C  
BRANCH   7   8
HETATM    8  S   UNL     1     -10.268  11.852  68.877  1.00  0.00     0.001 S  
HETATM    9  O   UNL     1     -11.254  11.745  69.969  1.00  0.00    -0.126 OA 
HETATM   10  O   UNL     1     -10.649  12.192  67.535  1.00  0.00    -0.208 OA 
BRANCH   8  11
HETATM   11  C   UNL     1      -9.306  10.389  68.876  1.00  0.00    -0.186 C  
HETATM   12  C   UNL     1      -7.926  10.608  68.260  1.00  0.00    -0.116 C  
HETATM   13  C   UNL     1      -7.582   9.343  67.537  1.00  0.00    -0.091 C  
HETATM   14  N   UNL     1      -8.858   8.754  67.155  1.00  0.00    -0.126 N  
HETATM   15  C   UNL     1      -9.973   9.089  68.331  1.00  0.00    -0.180 C  
HETATM   16  C   UNL     1     -10.266   8.284  69.875  1.00  0.00    -0.201 C  
HETATM   17  O   UNL     1     -11.483   7.671  70.191  1.00  0.00    -0.199 OA 
HETATM   18  O   UNL     1      -9.375   8.338  70.737  1.00  0.00    -0.154 OA 
HETATM   19  C   UNL     1     -11.956   6.787  71.480  1.00  0.00    -0.350 C  
HETATM   20  C   UNL     1     -11.200   5.400  71.967  1.00  0.00    -0.159 C  
HETATM   21  C   UNL     1     -12.890   7.350  72.646  1.00  0.00     0.467 C  
HETATM   22  C   UNL     1     -12.600   8.697  73.282  1.00  0.00     1.229 C  
HETATM   23  C   UNL     1     -14.406   7.241  72.349  1.00  0.00    -0.024 C  
HETATM   24  C   UNL     1     -11.818   4.544  73.092  1.00  0.00    -0.057 C  
HETATM   25  C   UNL     1      -9.716   5.279  72.223  1.00  0.00    -0.192 C  
HETATM   26  C   UNL     1      -8.829   6.270  72.329  1.00  0.00    -0.136 C  
HETATM   27  C   UNL     1      -7.688   6.195  71.357  1.00  0.00    -0.100 C  
HETATM   28  O   UNL     1      -6.590   6.610  71.631  1.00  0.00    -0.052 OA 
HETATM   29  N   UNL     1      -8.040   5.834  70.050  1.00  0.00    -0.106 N  
HETATM   30  C   UNL     1      -9.286   5.199  69.573  1.00  0.00    -0.130 C  
HETATM   31  H   UNL     1      -7.344   6.038  69.332  1.00  0.00     0.000 HD 
HETATM   32  C   UNL     1      -9.413   5.259  68.139  1.00  0.00    -0.151 C  
HETATM   33  C   UNL     1     -10.253   4.914  67.176  1.00  0.00    -0.211 C  
HETATM   34  C   UNL     1      -9.811   5.012  65.796  1.00  0.00    -0.150 C  
HETATM   35  C   UNL     1      -8.532   5.230  65.419  1.00  0.00    -0.145 C  
HETATM   36  C   UNL     1     -10.826   4.737  64.707  1.00  0.00     0.336 C  
HETATM   37  C   UNL     1      -7.237   5.596  66.142  1.00  0.00    -0.077 C  
HETATM   38  C   UNL     1      -6.038   4.736  66.113  1.00  0.00    -0.027 C  
HETATM   39  O   UNL     1      -7.138   6.577  67.155  1.00  0.00    -0.072 OA 
HETATM   40  H   UNL     1      -6.332   6.805  67.605  1.00  0.00     0.000 HD 
HETATM   41  C   UNL     1      -5.608   4.621  64.661  1.00  0.00    -0.014 C  
HETATM   42  O   UNL     1      -5.163   3.514  64.321  1.00  0.00    -0.008 OA 
HETATM   43  C   UNL     1      -5.608   5.808  63.608  1.00  0.00    -0.017 C  
HETATM   44  C   UNL     1      -6.480   7.146  63.713  1.00  0.00    -0.044 A  
HETATM   45  N   UNL     1      -6.712   7.995  64.734  1.00  0.00    -0.058 NA 
HETATM   46  C   UNL     1      -8.077   8.391  64.611  1.00  0.00    -0.156 A  
HETATM   47  C   UNL     1      -8.414   8.088  63.296  1.00  0.00     0.135 A  
HETATM   48  C   UNL     1      -9.132   8.813  65.703  1.00  0.00    -0.191 C  
HETATM   49  O   UNL     1      -7.450   7.270  62.744  1.00  0.00    -0.086 OA 
HETATM   50  O   UNL     1     -10.278   9.088  65.338  1.00  0.00     0.326 OA 
ENDBRANCH   8  11
ENDBRANCH   7   8
ENDBRANCH   6   7
ENDBRANCH   3   6
ENDBRANCH   2   3
TORSDOF 6
ENDMDL
MODEL       40
REMARK 921   NORMALIZED FREE ENERGY PREDICTED BY IDOCK:    9.12 KCAL/MOL
REMARK 922        TOTAL FREE ENERGY PREDICTED BY IDOCK:   11.18 KCAL/MOL
REMARK 923 INTER-LIGAND FREE ENERGY PREDICTED BY IDOCK:    3.48 KCAL/MOL
REMARK 924 INTRA-LIGAND FREE ENERGY PREDICTED BY IDOCK:    7.69 KCAL/MOL
REMARK 927      BINDING AFFINITY PREDICTED BY RF-SCORE:    0.00 PKD
ROOT
HETATM    1  C   UNL     1      -9.211  14.609  65.074  1.00  0.00     1.436 C  
HETATM    2  C   UNL     1     -10.324  13.571  64.887  1.00  0.00    -0.377 C  
ENDROOT
BRANCH   2   3
HETATM    3  N   UNL     1     -10.236  12.814  63.631  1.00  0.00    -0.343 NA 
BRANCH   3   4
HETATM    4  C   UNL     1      -9.278  11.688  63.694  1.00  0.00     0.061 C  
HETATM    5  C   UNL     1      -9.095  10.891  62.405  1.00  0.00    -0.336 C  
ENDBRANCH   3   4
BRANCH   3   6
HETATM    6  C   UNL     1     -11.586  12.456  63.138  1.00  0.00    -0.212 C  
BRANCH   6   7
HETATM    7  C   UNL     1     -12.296  11.653  64.203  1.00  0.00    -0.023 C  
BRANCH   7   8
HETATM    8  S   UNL     1     -12.135  12.186  65.899  1.00  0.00     0.178 S  
HETATM    9  O   UNL     1     -11.851  13.634  65.876  1.00  0.00    -0.344 OA 
HETATM   10  O   UNL     1     -13.207  11.630  66.677  1.00  0.00     4.319 OA 
BRANCH   8  11
HETATM   11  C   UNL     1     -10.637  11.350  66.257  1.00  0.00    -0.263 C  
HETATM   12  C   UNL     1     -10.533  10.017  65.521  1.00  0.00    -0.008 C  
HETATM   13  C   UNL     1      -9.818   9.080  66.445  1.00  0.00    -0.286 C  
HETATM   14  N   UNL     1     -10.118   9.556  67.788  1.00  0.00    -0.185 N  
HETATM   15  C   UNL     1     -10.234  11.206  67.756  1.00  0.00    -0.180 C  
HETATM   16  C   UNL     1      -8.964  12.431  67.799  1.00  0.00    -0.182 C  
HETATM   17  O   UNL     1      -8.860  13.381  68.821  1.00  0.00    -0.040 OA 
HETATM   18  O   UNL     1      -8.181  12.491  66.838  1.00  0.00    -0.156 OA 
HETATM   19  C   UNL     1      -7.739  14.525  69.136  1.00  0.00    -0.082 C  
HETATM   20  C   UNL     1      -6.134  14.198  69.363  1.00  0.00    -0.104 C  
HETATM   21  C   UNL     1      -7.953  16.081  68.847  1.00  0.00    -0.212 C  
HETATM   22  C   UNL     1      -8.505  16.546  67.513  1.00  0.00    -0.189 C  
HETATM   23  C   UNL     1      -8.668  16.843  69.990  1.00  0.00     1.743 C  
HETATM   24  C   UNL     1      -5.179  15.319  69.821  1.00  0.00    -0.097 C  
HETATM   25  C   UNL     1      -5.283  13.394  68.408  1.00  0.00    -0.093 C  
HETATM   26  C   UNL     1      -5.589  13.026  67.163  1.00  0.00     0.305 C  
HETATM   27  C   UNL     1      -5.550  11.544  66.921  1.00  0.00    -0.129 C  
HETATM   28  O   UNL     1      -5.252  11.082  65.849  1.00  0.00    -0.121 OA 
HETATM   29  N   UNL     1      -6.105  10.759  67.939  1.00  0.00    -0.046 N  
HETATM   30  C   UNL     1      -6.407  11.138  69.336  1.00  0.00    -0.088 C  
HETATM   31  H   UNL     1      -6.331   9.797  67.683  1.00  0.00     0.000 HD 
HETATM   32  C   UNL     1      -7.245  10.168  69.993  1.00  0.00    -0.166 C  
HETATM   33  C   UNL     1      -7.842   9.960  71.157  1.00  0.00     0.927 C  
HETATM   34  C   UNL     1      -8.438   8.661  71.413  1.00  0.00    -0.240 C  
HETATM   35  C   UNL     1      -8.252   7.571  70.637  1.00  0.00    -0.111 C  
HETATM   36  C   UNL     1      -9.226   8.485  72.693  1.00  0.00    -0.269 C  
HETATM   37  C   UNL     1      -7.602   7.304  69.281  1.00  0.00    -0.102 C  
HETATM   38  C   UNL     1      -6.468   6.375  69.109  1.00  0.00    -0.043 C  
HETATM   39  O   UNL     1      -7.768   8.124  68.141  1.00  0.00    -0.106 OA 
HETATM   40  H   UNL     1      -7.364   7.959  67.297  1.00  0.00     0.000 HD 
HETATM   41  C   UNL     1      -6.949   5.002  69.542  1.00  0.00    -0.054 C  
HETATM   42  O   UNL     1      -6.111   4.305  70.136  1.00  0.00    -0.017 OA 
HETATM   43  C   UNL     1      -8.375   4.385  69.221  1.00  0.00    -0.083 C  
HETATM   44  C   UNL     1      -9.687   5.221  68.844  1.00  0.00    -0.148 A  
HETATM   45  N   UNL     1      -9.891   6.247  67.993  1.00  0.00    -0.121 NA 
HETATM   46  C   UNL     1     -10.828   7.109  68.637  1.00  0.00    -0.108 A  
HETATM   47  C   UNL     1     -11.424   6.315  69.612  1.00  0.00    -0.355 A  
HETATM   48  C   UNL     1     -11.027   8.669  68.547  1.00  0.00     0.176 C  
HETATM   49  O   UNL     1     -10.691   5.159  69.784  1.00  0.00    -0.225 OA 
HETATM   50  O   UNL     1     -11.906   9.190  69.238  1.00  0.00     0.581 OA 
ENDBRANCH   8  11
ENDBRANCH   7   8
ENDBRANCH   6   7
ENDBRANCH   3   6
ENDBRANCH   2   3
TORSDOF 6
ENDMDL
MODEL       41
REMARK 921   NORMALIZED FREE ENERGY PREDICTED BY IDOCK:    9.60 KCAL/MOL
REMARK 922        TOTAL FREE ENERGY PREDICTED BY IDOCK:   11.82 KCAL/MOL
REMARK 923 INTER-LIGAND FREE ENERGY PREDICTED BY IDOCK:    5.11 KCAL/MOL
REMARK 924 INTRA-LIGAND FREE ENERGY PREDICTED BY IDOCK:    6.72 KCAL/MOL
REMARK 927      BINDING AFFINITY PREDICTED BY RF-SCORE:    0.00 PKD
ROOT
HETATM    1  C   UNL     1      -9.848  13.151  68.560  1.00  0.00    -0.155 C  
HETATM    2  C   UNL     1      -8.936  12.146  69.274  1.00  0.00     0.842 C  
ENDROOT
BRANCH   2   3
HETATM    3  N   UNL     1      -7.512  12.506  69.253  1.00  0.00     0.187 NA 
BRANCH   3   4
HETATM    4  C   UNL     1      -6.619  11.372  69.579  1.00  0.00    -0.129 C  
HETATM    5  C   UNL     1      -5.457  11.683  70.520  1.00  0.00    -0.144 C  
ENDBRANCH   3   4
BRANCH   3   6
HETATM    6  C   UNL     1      -7.171  13.228  68.006  1.00  0.00    -0.121 C  
BRANCH   6   7
HETATM    7  C   UNL     1      -8.256  12.975  66.985  1.00  0.00    -0.062 C  
BRANCH   7   8
HETATM    8  S   UNL     1      -7.949  11.750  65.724  1.00  0.00     0.830 S  
HETATM    9  O   UNL     1      -9.236  11.480  65.056  1.00  0.00    -0.149 OA 
HETATM   10  O   UNL     1      -6.767  12.108  64.989  1.00  0.00     2.915 OA 
BRANCH   8  11
HETATM   11  C   UNL     1      -7.606  10.406  66.794  1.00  0.00    -0.110 C  
HETATM   12  C   UNL     1      -6.171   9.904  66.646  1.00  0.00    -0.068 C  
HETATM   13  C   UNL     1      -6.222   8.420  66.839  1.00  0.00    -0.055 C  
HETATM   14  N   UNL     1      -7.558   8.020  66.422  1.00  0.00    -0.090 N  
HETATM   15  C   UNL     1      -8.623   9.224  66.814  1.00  0.00    -0.127 C  
HETATM   16  C   UNL     1      -9.406   9.585  68.354  1.00  0.00    -0.133 C  
HETATM   17  O   UNL     1     -10.795   9.567  68.522  1.00  0.00    -0.203 OA 
HETATM   18  O   UNL     1      -8.688   9.943  69.301  1.00  0.00    -0.144 OA 
HETATM   19  C   UNL     1     -11.736   9.756  69.842  1.00  0.00    -0.018 C  
HETATM   20  C   UNL     1     -11.624   8.807  71.191  1.00  0.00    -0.344 C  
HETATM   21  C   UNL     1     -12.549  11.091  70.168  1.00  0.00    -0.281 C  
HETATM   22  C   UNL     1     -11.874  12.446  70.071  1.00  0.00    -0.363 C  
HETATM   23  C   UNL     1     -13.941  11.164  69.491  1.00  0.00     5.049 C  
HETATM   24  C   UNL     1     -12.665   8.951  72.320  1.00  0.00    -0.464 C  
HETATM   25  C   UNL     1     -10.341   8.539  71.942  1.00  0.00    -0.378 C  
HETATM   26  C   UNL     1      -9.175   9.172  71.806  1.00  0.00    -0.004 C  
HETATM   27  C   UNL     1      -8.018   8.283  71.451  1.00  0.00    -0.119 C  
HETATM   28  O   UNL     1      -6.894   8.525  71.814  1.00  0.00    -0.075 OA 
HETATM   29  N   UNL     1      -8.292   7.305  70.487  1.00  0.00    -0.131 N  
HETATM   30  C   UNL     1      -9.605   6.805  70.028  1.00  0.00    -0.157 C  
HETATM   31  H   UNL     1      -7.477   6.881  70.042  1.00  0.00     0.000 HD 
HETATM   32  C   UNL     1      -9.498   6.026  68.820  1.00  0.00    -0.137 C  
HETATM   33  C   UNL     1     -10.263   5.372  67.959  1.00  0.00    -0.221 C  
HETATM   34  C   UNL     1      -9.628   4.529  66.962  1.00  0.00    -0.210 C  
HETATM   35  C   UNL     1      -8.320   4.191  66.972  1.00  0.00    -0.100 C  
HETATM   36  C   UNL     1     -10.509   3.893  65.909  1.00  0.00     0.400 C  
HETATM   37  C   UNL     1      -7.096   4.618  67.780  1.00  0.00    -0.065 C  
HETATM   38  C   UNL     1      -6.308   3.672  68.594  1.00  0.00    -0.033 C  
HETATM   39  O   UNL     1      -6.783   5.958  68.108  1.00  0.00    -0.053 OA 
HETATM   40  H   UNL     1      -6.022   6.224  68.611  1.00  0.00     0.000 HD 
HETATM   41  C   UNL     1      -5.753   2.625  67.645  1.00  0.00    -0.019 C  
HETATM   42  O   UNL     1      -5.706   1.468  68.093  1.00  0.00    -0.017 OA 
HETATM   43  C   UNL     1      -5.167   2.915  66.200  1.00  0.00    -0.008 C  
HETATM   44  C   UNL     1      -5.487   4.204  65.307  1.00  0.00    -0.013 A  
HETATM   45  N   UNL     1      -5.529   5.519  65.601  1.00  0.00    -0.013 NA 
HETATM   46  C   UNL     1      -6.620   6.053  64.851  1.00  0.00    -0.042 A  
HETATM   47  C   UNL     1      -6.858   5.111  63.856  1.00  0.00    -0.047 A  
HETATM   48  C   UNL     1      -7.585   7.261  65.152  1.00  0.00    -0.105 C  
HETATM   49  O   UNL     1      -6.197   3.937  64.157  1.00  0.00    -0.024 OA 
HETATM   50  O   UNL     1      -8.485   7.509  64.345  1.00  0.00     0.013 OA 
ENDBRANCH   8  11
ENDBRANCH   7   8
ENDBRANCH   6   7
ENDBRANCH   3   6
ENDBRANCH   2   3
TORSDOF 6
ENDMDL
MODEL       42
REMARK 921   NORMALIZED FREE ENERGY PREDICTED BY IDOCK:    9.94 KCAL/MOL
REMARK 922        TOTAL FREE ENERGY PREDICTED BY IDOCK:   12.28 KCAL/MOL
REMARK 923 INTER-LIGAND FREE ENERGY PREDICTED BY IDOCK:    7.51 KCAL/MOL
REMARK 924 INTRA-LIGAND FREE ENERGY PREDICTED BY IDOCK:    4.77 KCAL/MOL
REMARK 927      BINDING AFFINITY PREDICTED BY RF-SCORE:    0.00 PKD
ROOT
HETATM    1  C   UNL     1      -6.827   4.105  71.297  1.00  0.00    -0.035 C  
HETATM    2  C   UNL     1      -8.196   3.434  71.459  1.00  0.00    -0.061 C  
ENDROOT
BRANCH   2   3
HETATM    3  N   UNL     1      -9.333   4.360  71.375  1.00  0.00    -0.136 NA 
BRANCH   3   4
HETATM    4  C   UNL     1      -8.938   5.781  71.487  1.00  0.00    -0.140 C  
HETATM    5  C   UNL     1      -7.750   6.216  70.634  1.00  0.00    -0.105 C  
ENDBRANCH   3   4
BRANCH   3   6
HETATM    6  C   UNL     1     -10.185   4.041  70.205  1.00  0.00     0.353 C  
BRANCH   6   7
HETATM    7  C   UNL     1     -10.946   5.282  69.804  1.00  0.00     0.284 C  
BRANCH   7   8
HETATM    8  S   UNL     1     -11.714   6.247  71.095  1.00  0.00    -0.135 S  
HETATM    9  O   UNL     1     -13.113   6.482  70.689  1.00  0.00     0.303 OA 
HETATM   10  O   UNL     1     -11.374   5.688  72.374  1.00  0.00    -0.279 OA 
BRANCH   8  11
HETATM   11  C   UNL     1     -10.821   7.730  70.831  1.00  0.00    -0.237 C  
HETATM   12  C   UNL     1     -10.696   8.561  72.106  1.00  0.00    -0.426 C  
HETATM   13  C   UNL     1     -10.759   9.996  71.681  1.00  0.00     0.884 C  
HETATM   14  N   UNL     1     -11.544  10.003  70.454  1.00  0.00    -0.284 N  
HETATM   15  C   UNL     1     -11.233   8.612  69.613  1.00  0.00     0.079 C  
HETATM   16  C   UNL     1      -9.890   8.214  68.540  1.00  0.00    -0.179 C  
HETATM   17  O   UNL     1     -10.066   7.896  67.190  1.00  0.00    -0.203 OA 
HETATM   18  O   UNL     1      -8.753   8.142  69.034  1.00  0.00    -0.141 OA 
HETATM   19  C   UNL     1      -8.998   7.603  65.990  1.00  0.00    -0.139 C  
HETATM   20  C   UNL     1      -7.830   8.674  65.521  1.00  0.00    -0.099 C  
HETATM   21  C   UNL     1      -8.670   6.143  65.432  1.00  0.00    -0.071 C  
HETATM   22  C   UNL     1      -8.385   5.000  66.388  1.00  0.00    -0.108 C  
HETATM   23  C   UNL     1      -9.641   5.656  64.328  1.00  0.00     1.138 C  
HETATM   24  C   UNL     1      -6.976   8.381  64.270  1.00  0.00    -0.081 C  
HETATM   25  C   UNL     1      -6.844   9.329  66.461  1.00  0.00    -0.080 C  
HETATM   26  C   UNL     1      -6.593   9.001  67.729  1.00  0.00    -0.061 C  
HETATM   27  C   UNL     1      -6.796  10.115  68.715  1.00  0.00    -0.061 C  
HETATM   28  O   UNL     1      -6.140  10.202  69.722  1.00  0.00    -0.042 OA 
HETATM   29  N   UNL     1      -7.941  10.895  68.505  1.00  0.00    -0.125 N  
HETATM   30  C   UNL     1      -8.775  11.001  67.290  1.00  0.00    -0.129 C  
HETATM   31  H   UNL     1      -8.237  11.467  69.297  1.00  0.00     0.000 HD 
HETATM   32  C   UNL     1     -10.029  11.662  67.548  1.00  0.00    -0.202 C  
HETATM   33  C   UNL     1     -11.141  12.016  66.922  1.00  0.00    -0.352 C  
HETATM   34  C   UNL     1     -12.077  12.893  67.603  1.00  0.00    -0.239 C  
HETATM   35  C   UNL     1     -11.807  13.549  68.752  1.00  0.00    -0.390 C  
HETATM   36  C   UNL     1     -13.398  13.181  66.924  1.00  0.00     3.942 C  
HETATM   37  C   UNL     1     -10.671  13.525  69.773  1.00  0.00     0.445 C  
HETATM   38  C   UNL     1      -9.851  14.713  70.083  1.00  0.00     0.601 C  
HETATM   39  O   UNL     1     -10.069  12.346  70.270  1.00  0.00     1.793 OA 
HETATM   40  H   UNL     1      -9.362  12.330  70.905  1.00  0.00     0.000 HD 
HETATM   41  C   UNL     1     -10.792  15.771  70.632  1.00  0.00    -0.258 C  
HETATM   42  O   UNL     1     -10.535  16.939  70.300  1.00  0.00     0.081 OA 
HETATM   43  C   UNL     1     -11.990  15.501  71.637  1.00  0.00    -0.478 C  
HETATM   44  C   UNL     1     -12.717  14.093  71.862  1.00  0.00    -0.320 A  
HETATM   45  N   UNL     1     -12.238  12.845  72.031  1.00  0.00     0.628 NA 
HETATM   46  C   UNL     1     -13.133  11.984  71.329  1.00  0.00    -0.115 A  
HETATM   47  C   UNL     1     -14.292  12.735  71.170  1.00  0.00     2.813 A  
HETATM   48  C   UNL     1     -12.886  10.605  70.608  1.00  0.00    -0.320 C  
HETATM   49  O   UNL     1     -14.032  14.061  71.451  1.00  0.00    -0.281 OA 
HETATM   50  O   UNL     1     -13.836  10.061  70.038  1.00  0.00     0.482 OA 
ENDBRANCH   8  11
ENDBRANCH   7   8
ENDBRANCH   6   7
ENDBRANCH   3   6
ENDBRANCH   2   3
TORSDOF 6
ENDMDL
MODEL       43
REMARK 921   NORMALIZED FREE ENERGY PREDICTED BY IDOCK:   10.38 KCAL/MOL
REMARK 922        TOTAL FREE ENERGY PREDICTED BY IDOCK:   12.88 KCAL/MOL
REMARK 923 INTER-LIGAND FREE ENERGY PREDICTED BY IDOCK:    8.14 KCAL/MOL
REMARK 924 INTRA-LIGAND FREE ENERGY PREDICTED BY IDOCK:    4.74 KCAL/MOL
REMARK 927      BINDING AFFINITY PREDICTED BY RF-SCORE:    0.00 PKD
ROOT
HETATM    1  C   UNL     1      -9.294   2.780  68.710  1.00  0.00    -0.234 C  
HETATM    2  C   UNL     1      -8.352   3.805  69.352  1.00  0.00    -0.060 C  
ENDROOT
BRANCH   2   3
HETATM    3  N   UNL     1      -8.197   3.654  70.804  1.00  0.00    -0.064 NA 
BRANCH   3   4
HETATM    4  C   UNL     1      -6.923   3.009  71.191  1.00  0.00    -0.032 C  
HETATM    5  C   UNL     1      -5.948   2.715  70.054  1.00  0.00    -0.023 C  
ENDBRANCH   3   4
BRANCH   3   6
HETATM    6  C   UNL     1      -8.485   4.931  71.498  1.00  0.00    -0.121 C  
BRANCH   6   7
HETATM    7  C   UNL     1      -8.115   6.075  70.585  1.00  0.00    -0.116 C  
BRANCH   7   8
HETATM    8  S   UNL     1      -7.365   7.521  71.317  1.00  0.00    -0.079 S  
HETATM    9  O   UNL     1      -8.381   8.146  72.186  1.00  0.00    -0.129 OA 
HETATM   10  O   UNL     1      -6.053   7.187  71.795  1.00  0.00    -0.037 OA 
BRANCH   8  11
HETATM   11  C   UNL     1      -7.246   8.478  69.854  1.00  0.00    -0.051 C  
HETATM   12  C   UNL     1      -6.477   9.778  70.079  1.00  0.00    -0.074 C  
HETATM   13  C   UNL     1      -7.126  10.807  69.206  1.00  0.00    -0.116 C  
HETATM   14  N   UNL     1      -8.510  10.377  69.062  1.00  0.00    -0.146 N  
HETATM   15  C   UNL     1      -8.556   8.723  69.045  1.00  0.00    -0.132 C  
HETATM   16  C   UNL     1      -8.255   7.596  67.721  1.00  0.00    -0.119 C  
HETATM   17  O   UNL     1      -9.225   6.707  67.246  1.00  0.00    -0.122 OA 
HETATM   18  O   UNL     1      -7.108   7.546  67.250  1.00  0.00    -0.080 OA 
HETATM   19  C   UNL     1      -9.227   5.663  65.991  1.00  0.00    -0.152 C  
HETATM   20  C   UNL     1      -8.963   6.115  64.423  1.00  0.00     0.585 C  
HETATM   21  C   UNL     1      -9.053   4.084  66.150  1.00  0.00    -0.141 C  
HETATM   22  C   UNL     1      -7.952   3.515  67.027  1.00  0.00    -0.083 C  
HETATM   23  C   UNL     1     -10.375   3.329  66.437  1.00  0.00     1.439 C  
HETATM   24  C   UNL     1      -9.149   5.089  63.286  1.00  0.00     0.100 C  
HETATM   25  C   UNL     1      -7.779   6.930  63.956  1.00  0.00    -0.116 C  
HETATM   26  C   UNL     1      -6.671   7.214  64.641  1.00  0.00    -0.046 C  
HETATM   27  C   UNL     1      -6.390   8.681  64.796  1.00  0.00    -0.065 C  
HETATM   28  O   UNL     1      -5.266   9.111  64.862  1.00  0.00    -0.040 OA 
HETATM   29  N   UNL     1      -7.506   9.473  65.094  1.00  0.00    -0.105 N  
HETATM   30  C   UNL     1      -8.938   9.142  64.944  1.00  0.00    -0.151 C  
HETATM   31  H   UNL     1      -7.302  10.403  65.464  1.00  0.00     0.000 HD 
HETATM   32  C   UNL     1      -9.788  10.081  65.631  1.00  0.00    -0.363 C  
HETATM   33  C   UNL     1     -11.070  10.303  65.879  1.00  0.00     0.498 C  
HETATM   34  C   UNL     1     -11.457  11.567  66.480  1.00  0.00    -0.178 C  
HETATM   35  C   UNL     1     -10.633  12.628  66.618  1.00  0.00    -0.267 C  
HETATM   36  C   UNL     1     -12.907  11.748  66.873  1.00  0.00     3.800 C  
HETATM   37  C   UNL     1      -9.139  12.874  66.416  1.00  0.00    -0.074 C  
HETATM   38  C   UNL     1      -8.617  13.872  65.462  1.00  0.00     2.180 C  
HETATM   39  O   UNL     1      -8.119  11.989  66.838  1.00  0.00    -0.192 OA 
HETATM   40  H   UNL     1      -7.190  12.142  66.712  1.00  0.00     0.000 HD 
HETATM   41  C   UNL     1      -9.137  15.227  65.908  1.00  0.00    -0.103 C  
HETATM   42  O   UNL     1      -9.440  16.010  64.994  1.00  0.00    -0.053 OA 
HETATM   43  C   UNL     1      -9.234  15.723  67.412  1.00  0.00    -0.208 C  
HETATM   44  C   UNL     1      -9.280  14.778  68.702  1.00  0.00    -0.194 A  
HETATM   45  N   UNL     1      -8.554  13.700  69.060  1.00  0.00     0.203 NA 
HETATM   46  C   UNL     1      -9.467  12.806  69.695  1.00  0.00     1.894 A  
HETATM   47  C   UNL     1     -10.553  13.602  70.044  1.00  0.00     0.891 A  
HETATM   48  C   UNL     1      -9.479  11.233  69.781  1.00  0.00     1.037 C  
HETATM   49  O   UNL     1     -10.473  14.814  69.391  1.00  0.00    -0.237 OA 
HETATM   50  O   UNL     1     -10.411  10.684  70.375  1.00  0.00     0.013 OA 
ENDBRANCH   8  11
ENDBRANCH   7   8
ENDBRANCH   6   7
ENDBRANCH   3   6
ENDBRANCH   2   3
TORSDOF 6
ENDMDL
MODEL       44
REMARK 921   NORMALIZED FREE ENERGY PREDICTED BY IDOCK:   10.75 KCAL/MOL
REMARK 922        TOTAL FREE ENERGY PREDICTED BY IDOCK:   13.38 KCAL/MOL
REMARK 923 INTER-LIGAND FREE ENERGY PREDICTED BY IDOCK:   12.77 KCAL/MOL
REMARK 924 INTRA-LIGAND FREE ENERGY PREDICTED BY IDOCK:    0.60 KCAL/MOL
REMARK 927      BINDING AFFINITY PREDICTED BY RF-SCORE:    0.00 PKD
ROOT
HETATM    1  C   UNL     1     -11.618  20.281  65.348  1.00  0.00     1.539 C  
HETATM    2  C   UNL     1     -10.177  19.894  65.700  1.00  0.00    -0.286 C  
ENDROOT
BRANCH   2   3
HETATM    3  N   UNL     1      -9.828  18.507  65.367  1.00  0.00     0.145 NA 
BRANCH   3   4
HETATM    4  C   UNL     1      -8.422  18.167  65.678  1.00  0.00     0.637 C  
HETATM    5  C   UNL     1      -7.496  19.346  65.969  1.00  0.00    -0.305 C  
ENDBRANCH   3   4
BRANCH   3   6
HETATM    6  C   UNL     1     -10.832  17.567  65.916  1.00  0.00     0.014 C  
BRANCH   6   7
HETATM    7  C   UNL     1     -11.510  16.854  64.770  1.00  0.00     0.496 C  
BRANCH   7   8
HETATM    8  S   UNL     1     -12.063  15.178  65.037  1.00  0.00     0.045 S  
HETATM    9  O   UNL     1     -12.842  15.170  66.290  1.00  0.00     0.785 OA 
HETATM   10  O   UNL     1     -12.587  14.647  63.809  1.00  0.00    -0.820 OA 
BRANCH   8  11
HETATM   11  C   UNL     1     -10.495  14.474  65.374  1.00  0.00    -0.380 C  
HETATM   12  C   UNL     1     -10.050  13.507  64.278  1.00  0.00     0.139 C  
HETATM   13  C   UNL     1      -9.298  12.410  64.965  1.00  0.00     0.343 C  
HETATM   14  N   UNL     1      -9.851  12.342  66.310  1.00  0.00    -0.243 N  
HETATM   15  C   UNL     1     -10.266  13.869  66.793  1.00  0.00    -0.268 C  
HETATM   16  C   UNL     1      -9.263  15.157  67.463  1.00  0.00    -0.186 C  
HETATM   17  O   UNL     1      -9.469  15.696  68.737  1.00  0.00    -0.193 OA 
HETATM   18  O   UNL     1      -8.388  15.651  66.733  1.00  0.00    -0.234 OA 
HETATM   19  C   UNL     1      -8.630  16.793  69.606  1.00  0.00     0.664 C  
HETATM   20  C   UNL     1      -7.035  16.621  70.006  1.00  0.00     0.572 C  
HETATM   21  C   UNL     1      -9.091  18.310  69.802  1.00  0.00     1.097 C  
HETATM   22  C   UNL     1      -9.544  19.135  68.612  1.00  0.00    -0.471 C  
HETATM   23  C   UNL     1     -10.076  18.524  70.978  1.00  0.00     3.098 C  
HETATM   24  C   UNL     1      -6.372  17.627  70.969  1.00  0.00     1.756 C  
HETATM   25  C   UNL     1      -5.934  16.321  69.015  1.00  0.00    -0.134 C  
HETATM   26  C   UNL     1      -6.005  16.374  67.684  1.00  0.00    -0.167 C  
HETATM   27  C   UNL     1      -5.659  15.090  66.988  1.00  0.00     1.037 C  
HETATM   28  O   UNL     1      -5.146  15.074  65.898  1.00  0.00     4.127 OA 
HETATM   29  N   UNL     1      -6.185  13.932  67.577  1.00  0.00    -0.089 N  
HETATM   30  C   UNL     1      -6.728  13.757  68.940  1.00  0.00    -0.108 C  
HETATM   31  H   UNL     1      -6.193  13.100  66.986  1.00  0.00     0.000 HD 
HETATM   32  C   UNL     1      -7.448  12.517  69.083  1.00  0.00     0.182 C  
HETATM   33  C   UNL     1      -8.140  11.839  69.986  1.00  0.00     2.207 C  
HETATM   34  C   UNL     1      -8.512  10.466  69.694  1.00  0.00    -0.068 C  
HETATM   35  C   UNL     1      -8.028   9.750  68.655  1.00  0.00    -0.089 C  
HETATM   36  C   UNL     1      -9.410   9.752  70.680  1.00  0.00    -0.029 C  
HETATM   37  C   UNL     1      -7.172  10.062  67.429  1.00  0.00    -0.085 C  
HETATM   38  C   UNL     1      -5.872   9.409  67.177  1.00  0.00    -0.045 C  
HETATM   39  O   UNL     1      -7.340  11.199  66.606  1.00  0.00    -0.138 OA 
HETATM   40  H   UNL     1      -6.808  11.394  65.843  1.00  0.00     0.000 HD 
HETATM   41  C   UNL     1      -6.141   7.920  67.047  1.00  0.00    -0.053 C  
HETATM   42  O   UNL     1      -5.271   7.176  67.526  1.00  0.00    -0.017 OA 
HETATM   43  C   UNL     1      -7.374   7.273  66.287  1.00  0.00    -0.079 C  
HETATM   44  C   UNL     1      -8.759   8.009  65.966  1.00  0.00    -0.157 A  
HETATM   45  N   UNL     1      -9.040   9.231  65.471  1.00  0.00    -0.208 NA 
HETATM   46  C   UNL     1     -10.196   9.682  66.176  1.00  0.00    -0.205 A  
HETATM   47  C   UNL     1     -10.753   8.527  66.714  1.00  0.00    -0.011 A  
HETATM   48  C   UNL     1     -10.669  11.135  66.560  1.00  0.00    -0.260 C  
HETATM   49  O   UNL     1      -9.847   7.490  66.635  1.00  0.00    -0.214 OA 
HETATM   50  O   UNL     1     -11.710  11.262  67.209  1.00  0.00    -0.566 OA 
ENDBRANCH   8  11
ENDBRANCH   7   8
ENDBRANCH   6   7
ENDBRANCH   3   6
ENDBRANCH   2   3
TORSDOF 6
ENDMDL
MODEL       45
REMARK 921   NORMALIZED FREE ENERGY PREDICTED BY IDOCK:   10.92 KCAL/MOL
REMARK 922        TOTAL FREE ENERGY PREDICTED BY IDOCK:   13.60 KCAL/MOL
REMARK 923 INTER-LIGAND FREE ENERGY PREDICTED BY IDOCK:   10.54 KCAL/MOL
REMARK 924 INTRA-LIGAND FREE ENERGY PREDICTED BY IDOCK:    3.07 KCAL/MOL
REMARK 927      BINDING AFFINITY PREDICTED BY RF-SCORE:    0.00 PKD
ROOT
HETATM    1  C   UNL     1     -14.006  11.715  63.128  1.00  0.00     2.722 C  
HETATM    2  C   UNL     1     -13.393  12.826  63.989  1.00  0.00     0.820 C  
ENDROOT
BRANCH   2   3
HETATM    3  N   UNL     1     -12.577  13.788  63.237  1.00  0.00    -0.734 NA 
BRANCH   3   4
HETATM    4  C   UNL     1     -12.731  15.181  63.712  1.00  0.00     0.904 C  
HETATM    5  C   UNL     1     -11.456  15.874  64.182  1.00  0.00    -0.058 C  
ENDBRANCH   3   4
BRANCH   3   6
HETATM    6  C   UNL     1     -11.176  13.318  63.130  1.00  0.00     0.727 C  
BRANCH   6   7
HETATM    7  C   UNL     1     -11.182  11.842  62.811  1.00  0.00     0.577 C  
BRANCH   7   8
HETATM    8  S   UNL     1      -9.895  10.828  63.520  1.00  0.00    -0.344 S  
HETATM    9  O   UNL     1     -10.200   9.428  63.169  1.00  0.00     1.943 OA 
HETATM   10  O   UNL     1      -8.615  11.422  63.247  1.00  0.00     0.083 OA 
BRANCH   8  11
HETATM   11  C   UNL     1     -10.320  11.066  65.202  1.00  0.00    -0.283 C  
HETATM   12  C   UNL     1     -11.567  11.933  65.363  1.00  0.00    -0.284 C  
HETATM   13  C   UNL     1     -11.355  12.751  66.599  1.00  0.00    -0.316 C  
HETATM   14  N   UNL     1      -9.911  12.895  66.726  1.00  0.00    -0.237 N  
HETATM   15  C   UNL     1      -9.186  11.513  66.176  1.00  0.00    -0.219 C  
HETATM   16  C   UNL     1      -8.925   9.970  66.991  1.00  0.00    -0.138 C  
HETATM   17  O   UNL     1      -7.651   9.442  67.226  1.00  0.00    -0.091 OA 
HETATM   18  O   UNL     1      -9.923   9.298  67.296  1.00  0.00    -0.179 OA 
HETATM   19  C   UNL     1      -7.152   8.116  68.037  1.00  0.00    -0.086 C  
HETATM   20  C   UNL     1      -7.495   7.833  69.629  1.00  0.00    -0.090 C  
HETATM   21  C   UNL     1      -6.667   6.771  67.325  1.00  0.00    -0.067 C  
HETATM   22  C   UNL     1      -7.481   6.160  66.199  1.00  0.00    -0.085 C  
HETATM   23  C   UNL     1      -5.169   6.770  66.932  1.00  0.00    -0.016 C  
HETATM   24  C   UNL     1      -6.843   6.638  70.354  1.00  0.00    -0.062 C  
HETATM   25  C   UNL     1      -8.883   7.877  70.226  1.00  0.00    -0.140 C  
HETATM   26  C   UNL     1     -10.045   7.913  69.572  1.00  0.00    -0.195 C  
HETATM   27  C   UNL     1     -10.913   9.091  69.905  1.00  0.00    -0.193 C  
HETATM   28  O   UNL     1     -12.116   9.024  69.877  1.00  0.00     0.377 OA 
HETATM   29  N   UNL     1     -10.241  10.315  70.014  1.00  0.00    -0.412 N  
HETATM   30  C   UNL     1      -8.793  10.560  70.185  1.00  0.00     0.711 C  
HETATM   31  H   UNL     1     -10.829  11.149  69.969  1.00  0.00     0.000 HD 
HETATM   32  C   UNL     1      -8.444  11.939  69.955  1.00  0.00     2.276 C  
HETATM   33  C   UNL     1      -7.383  12.731  69.931  1.00  0.00     1.084 C  
HETATM   34  C   UNL     1      -7.584  14.166  69.846  1.00  0.00     0.536 C  
HETATM   35  C   UNL     1      -8.779  14.778  69.999  1.00  0.00     0.641 C  
HETATM   36  C   UNL     1      -6.361  15.044  69.690  1.00  0.00    -0.142 C  
HETATM   37  C   UNL     1     -10.228  14.311  70.121  1.00  0.00     0.856 C  
HETATM   38  C   UNL     1     -11.063  14.603  71.302  1.00  0.00     0.252 C  
HETATM   39  O   UNL     1     -10.813  13.305  69.318  1.00  0.00    -0.415 OA 
HETATM   40  H   UNL     1     -11.714  13.014  69.393  1.00  0.00     0.000 HD 
HETATM   41  C   UNL     1     -11.173  16.113  71.407  1.00  0.00    -0.106 C  
HETATM   42  O   UNL     1     -11.172  16.571  72.561  1.00  0.00     0.289 OA 
HETATM   43  C   UNL     1     -11.369  17.106  70.185  1.00  0.00     1.005 C  
HETATM   44  C   UNL     1     -11.006  16.788  68.659  1.00  0.00    -0.298 A  
HETATM   45  N   UNL     1     -11.242  15.713  67.880  1.00  0.00    -0.341 NA 
HETATM   46  C   UNL     1     -10.076  15.554  67.072  1.00  0.00    -0.254 A  
HETATM   47  C   UNL     1      -9.435  16.786  67.131  1.00  0.00    -0.232 A  
HETATM   48  C   UNL     1      -9.421  14.263  66.449  1.00  0.00    -0.275 C  
HETATM   49  O   UNL     1      -9.973  17.544  68.151  1.00  0.00    -0.288 OA 
HETATM   50  O   UNL     1      -8.379  14.387  65.801  1.00  0.00     1.314 OA 
ENDBRANCH   8  11
ENDBRANCH   7   8
ENDBRANCH   6   7
ENDBRANCH   3   6
ENDBRANCH   2   3
TORSDOF 6
ENDMDL
MODEL       46
REMARK 921   NORMALIZED FREE ENERGY PREDICTED BY IDOCK:   11.92 KCAL/MOL
REMARK 922        TOTAL FREE ENERGY PREDICTED BY IDOCK:   14.96 KCAL/MOL
REMARK 923 INTER-LIGAND FREE ENERGY PREDICTED BY IDOCK:   10.93 KCAL/MOL
REMARK 924 INTRA-LIGAND FREE ENERGY PREDICTED BY IDOCK:    4.03 KCAL/MOL
REMARK 927      BINDING AFFINITY PREDICTED BY RF-SCORE:    0.00 PKD
ROOT
HETATM    1  C   UNL     1     -12.730  14.182  70.709  1.00  0.00    -0.414 C  
HETATM    2  C   UNL     1     -11.656  15.000  71.436  1.00  0.00    -0.346 C  
ENDROOT
BRANCH   2   3
HETATM    3  N   UNL     1     -10.523  15.394  70.589  1.00  0.00    -0.160 NA 
BRANCH   3   4
HETATM    4  C   UNL     1     -10.441  16.854  70.366  1.00  0.00     0.599 C  
HETATM    5  C   UNL     1     -10.525  17.317  68.914  1.00  0.00    -0.327 C  
ENDBRANCH   3   4
BRANCH   3   6
HETATM    6  C   UNL     1      -9.269  14.764  71.063  1.00  0.00     2.868 C  
BRANCH   6   7
HETATM    7  C   UNL     1      -8.098  15.587  70.580  1.00  0.00     1.497 C  
BRANCH   7   8
HETATM    8  S   UNL     1      -6.485  14.822  70.573  1.00  0.00     0.075 S  
HETATM    9  O   UNL     1      -5.529  15.827  70.070  1.00  0.00    -0.128 OA 
HETATM   10  O   UNL     1      -6.281  14.129  71.815  1.00  0.00    -0.141 OA 
BRANCH   8  11
HETATM   11  C   UNL     1      -6.785  13.672  69.287  1.00  0.00    -0.094 C  
HETATM   12  C   UNL     1      -6.682  14.315  67.905  1.00  0.00    -0.177 C  
HETATM   13  C   UNL     1      -7.710  13.641  67.050  1.00  0.00     0.184 C  
HETATM   14  N   UNL     1      -8.753  13.205  67.967  1.00  0.00    -0.182 N  
HETATM   15  C   UNL     1      -8.055  12.774  69.404  1.00  0.00     0.952 C  
HETATM   16  C   UNL     1      -7.262  11.268  69.872  1.00  0.00     0.272 C  
HETATM   17  O   UNL     1      -7.725  10.459  70.914  1.00  0.00     0.314 OA 
HETATM   18  O   UNL     1      -6.207  10.963  69.294  1.00  0.00    -0.047 OA 
HETATM   19  C   UNL     1      -7.242   8.998  71.458  1.00  0.00    -0.007 C  
HETATM   20  C   UNL     1      -7.185   7.642  70.515  1.00  0.00    -0.062 C  
HETATM   21  C   UNL     1      -6.383   8.786  72.788  1.00  0.00    -0.022 C  
HETATM   22  C   UNL     1      -5.157   9.639  73.056  1.00  0.00    -0.057 C  
HETATM   23  C   UNL     1      -7.232   8.691  74.080  1.00  0.00    -0.059 C  
HETATM   24  C   UNL     1      -6.876   6.273  71.155  1.00  0.00    -0.067 C  
HETATM   25  C   UNL     1      -6.484   7.559  69.178  1.00  0.00    -0.040 C  
HETATM   26  C   UNL     1      -5.629   8.439  68.656  1.00  0.00    -0.037 C  
HETATM   27  C   UNL     1      -6.036   8.989  67.319  1.00  0.00    -0.058 C  
HETATM   28  O   UNL     1      -5.224   9.314  66.490  1.00  0.00    -0.039 OA 
HETATM   29  N   UNL     1      -7.393   9.315  67.197  1.00  0.00    -0.090 N  
HETATM   30  C   UNL     1      -8.524   8.891  68.048  1.00  0.00    -0.126 C  
HETATM   31  H   UNL     1      -7.632   9.927  66.415  1.00  0.00     0.000 HD 
HETATM   32  C   UNL     1      -9.714   9.664  67.797  1.00  0.00    -0.173 C  
HETATM   33  C   UNL     1     -10.963   9.778  68.221  1.00  0.00    -0.215 C  
HETATM   34  C   UNL     1     -11.883  10.612  67.468  1.00  0.00     0.683 C  
HETATM   35  C   UNL     1     -11.622  11.121  66.244  1.00  0.00     0.411 C  
HETATM   36  C   UNL     1     -13.267  10.833  68.040  1.00  0.00     6.935 C  
HETATM   37  C   UNL     1     -10.393  11.194  65.341  1.00  0.00    -0.271 C  
HETATM   38  C   UNL     1     -10.359  10.598  63.991  1.00  0.00    -0.262 C  
HETATM   39  O   UNL     1      -9.092  11.523  65.787  1.00  0.00    -0.253 OA 
HETATM   40  H   UNL     1      -8.327  11.569  65.225  1.00  0.00     0.000 HD 
HETATM   41  C   UNL     1     -11.436  11.287  63.173  1.00  0.00     0.366 C  
HETATM   42  O   UNL     1     -12.044  10.562  62.370  1.00  0.00     2.255 OA 
HETATM   43  C   UNL     1     -11.766  12.838  63.212  1.00  0.00    -0.444 C  
HETATM   44  C   UNL     1     -11.404  13.837  64.409  1.00  0.00    -0.360 A  
HETATM   45  N   UNL     1     -10.278  14.015  65.128  1.00  0.00    -0.378 NA 
HETATM   46  C   UNL     1     -10.704  14.277  66.464  1.00  0.00    -0.297 A  
HETATM   47  C   UNL     1     -12.036  14.657  66.341  1.00  0.00    -0.212 A  
HETATM   48  C   UNL     1     -10.013  13.971  67.847  1.00  0.00    -0.237 C  
HETATM   49  O   UNL     1     -12.497  14.341  65.079  1.00  0.00    -0.458 OA 
HETATM   50  O   UNL     1     -10.610  14.276  68.882  1.00  0.00    -0.242 OA 
ENDBRANCH   8  11
ENDBRANCH   7   8
ENDBRANCH   6   7
ENDBRANCH   3   6
ENDBRANCH   2   3
TORSDOF 6
ENDMDL
MODEL       47
REMARK 921   NORMALIZED FREE ENERGY PREDICTED BY IDOCK:   13.50 KCAL/MOL
REMARK 922        TOTAL FREE ENERGY PREDICTED BY IDOCK:   17.09 KCAL/MOL
REMARK 923 INTER-LIGAND FREE ENERGY PREDICTED BY IDOCK:   17.85 KCAL/MOL
REMARK 924 INTRA-LIGAND FREE ENERGY PREDICTED BY IDOCK:   -0.76 KCAL/MOL
REMARK 927      BINDING AFFINITY PREDICTED BY RF-SCORE:    0.00 PKD
ROOT
HETATM    1  C   UNL     1     -10.059  14.438  63.593  1.00  0.00     3.920 C  
HETATM    2  C   UNL     1     -10.522  13.365  64.585  1.00  0.00    -0.411 C  
ENDROOT
BRANCH   2   3
HETATM    3  N   UNL     1     -11.619  13.791  65.464  1.00  0.00    -0.318 NA 
BRANCH   3   4
HETATM    4  C   UNL     1     -12.896  13.998  64.746  1.00  0.00    -0.080 C  
HETATM    5  C   UNL     1     -13.033  13.286  63.403  1.00  0.00     0.659 C  
ENDBRANCH   3   4
BRANCH   3   6
HETATM    6  C   UNL     1     -11.709  12.913  66.654  1.00  0.00    -0.390 C  
BRANCH   6   7
HETATM    7  C   UNL     1     -11.415  11.492  66.234  1.00  0.00    -0.049 C  
BRANCH   7   8
HETATM    8  S   UNL     1     -12.048  10.170  67.252  1.00  0.00     4.124 S  
HETATM    9  O   UNL     1     -12.642  10.790  68.452  1.00  0.00     0.114 OA 
HETATM   10  O   UNL     1     -12.778   9.244  66.431  1.00  0.00     9.853 OA 
BRANCH   8  11
HETATM   11  C   UNL     1     -10.506   9.479  67.712  1.00  0.00    -0.254 C  
HETATM   12  C   UNL     1     -10.363   8.031  67.248  1.00  0.00    -0.371 C  
HETATM   13  C   UNL     1      -9.580   7.325  68.312  1.00  0.00    -0.148 C  
HETATM   14  N   UNL     1      -9.862   8.045  69.545  1.00  0.00    -0.178 N  
HETATM   15  C   UNL     1     -10.052   9.651  69.194  1.00  0.00    -0.189 C  
HETATM   16  C   UNL     1      -8.837  10.907  68.947  1.00  0.00    -0.138 C  
HETATM   17  O   UNL     1      -8.746  12.044  69.756  1.00  0.00     1.471 OA 
HETATM   18  O   UNL     1      -8.087  10.804  67.964  1.00  0.00    -0.109 OA 
HETATM   19  C   UNL     1      -7.668  13.269  69.799  1.00  0.00     1.224 C  
HETATM   20  C   UNL     1      -6.045  13.055  70.025  1.00  0.00    -0.112 C  
HETATM   21  C   UNL     1      -7.960  14.728  69.217  1.00  0.00    -0.103 C  
HETATM   22  C   UNL     1      -8.571  14.898  67.839  1.00  0.00    -0.160 C  
HETATM   23  C   UNL     1      -8.675  15.674  70.213  1.00  0.00     0.978 C  
HETATM   24  C   UNL     1      -5.128  14.280  70.217  1.00  0.00    -0.091 C  
HETATM   25  C   UNL     1      -5.187  12.110  69.215  1.00  0.00    -0.060 C  
HETATM   26  C   UNL     1      -5.513  11.491  68.080  1.00  0.00    -0.044 C  
HETATM   27  C   UNL     1      -5.414   9.994  68.133  1.00  0.00    -0.038 C  
HETATM   28  O   UNL     1      -5.128   9.340  67.162  1.00  0.00    -0.035 OA 
HETATM   29  N   UNL     1      -5.904   9.406  69.306  1.00  0.00    -0.035 N  
HETATM   30  C   UNL     1      -6.182  10.042  70.611  1.00  0.00    -0.103 C  
HETATM   31  H   UNL     1      -6.094   8.404  69.252  1.00  0.00     0.000 HD 
HETATM   32  C   UNL     1      -6.956   9.191  71.477  1.00  0.00     0.006 C  
HETATM   33  C   UNL     1      -7.509   9.195  72.681  1.00  0.00     0.664 C  
HETATM   34  C   UNL     1      -8.039   7.951  73.210  1.00  0.00    -0.218 C  
HETATM   35  C   UNL     1      -7.827   6.736  72.657  1.00  0.00    -0.100 C  
HETATM   36  C   UNL     1      -8.780   8.002  74.528  1.00  0.00     0.120 C  
HETATM   37  C   UNL     1      -7.206   6.231  71.357  1.00  0.00    -0.079 C  
HETATM   38  C   UNL     1      -6.037   5.330  71.328  1.00  0.00    -0.029 C  
HETATM   39  O   UNL     1      -7.441   6.802  70.084  1.00  0.00    -0.089 OA 
HETATM   40  H   UNL     1      -7.055   6.488  69.275  1.00  0.00     0.000 HD 
HETATM   41  C   UNL     1      -6.443   4.053  72.041  1.00  0.00    -0.018 C  
HETATM   42  O   UNL     1      -5.558   3.519  72.729  1.00  0.00     0.000 OA 
HETATM   43  C   UNL     1      -7.849   3.331  71.902  1.00  0.00    -0.054 C  
HETATM   44  C   UNL     1      -9.207   4.025  71.416  1.00  0.00    -0.129 A  
HETATM   45  N   UNL     1      -9.482   4.853  70.389  1.00  0.00    -0.153 NA 
HETATM   46  C   UNL     1     -10.438   5.790  70.885  1.00  0.00    -0.252 A  
HETATM   47  C   UNL     1     -10.968   5.183  72.019  1.00  0.00    -0.073 A  
HETATM   48  C   UNL     1     -10.708   7.292  70.497  1.00  0.00    -0.232 C  
HETATM   49  O   UNL     1     -10.180   4.113  72.388  1.00  0.00    -0.171 OA 
HETATM   50  O   UNL     1     -11.589   7.907  71.104  1.00  0.00    -0.274 OA 
ENDBRANCH   8  11
ENDBRANCH   7   8
ENDBRANCH   6   7
ENDBRANCH   3   6
ENDBRANCH   2   3
TORSDOF 6
ENDMDL
MODEL       48
REMARK 921   NORMALIZED FREE ENERGY PREDICTED BY IDOCK:   16.32 KCAL/MOL
REMARK 922        TOTAL FREE ENERGY PREDICTED BY IDOCK:   20.90 KCAL/MOL
REMARK 923 INTER-LIGAND FREE ENERGY PREDICTED BY IDOCK:    4.54 KCAL/MOL
REMARK 924 INTRA-LIGAND FREE ENERGY PREDICTED BY IDOCK:   16.36 KCAL/MOL
REMARK 927      BINDING AFFINITY PREDICTED BY RF-SCORE:    0.00 PKD
ROOT
HETATM    1  C   UNL     1      -7.632   9.270  66.914  1.00  0.00    -0.091 C  
HETATM    2  C   UNL     1      -6.465   8.380  66.472  1.00  0.00    -0.055 C  
ENDROOT
BRANCH   2   3
HETATM    3  N   UNL     1      -5.859   7.598  67.558  1.00  0.00    -0.035 NA 
BRANCH   3   4
HETATM    4  C   UNL     1      -6.526   7.797  68.863  1.00  0.00    -0.040 C  
HETATM    5  C   UNL     1      -5.784   8.673  69.869  1.00  0.00    -0.028 C  
ENDBRANCH   3   4
BRANCH   3   6
HETATM    6  C   UNL     1      -5.688   6.183  67.154  1.00  0.00    -0.016 C  
BRANCH   6   7
HETATM    7  C   UNL     1      -6.872   5.389  67.652  1.00  0.00    -0.060 C  
BRANCH   7   8
HETATM    8  S   UNL     1      -8.121   4.917  66.466  1.00  0.00    -0.107 S  
HETATM    9  O   UNL     1      -7.632   5.321  65.134  1.00  0.00    -0.078 OA 
HETATM   10  O   UNL     1      -8.561   3.578  66.745  1.00  0.00    -0.104 OA 
BRANCH   8  11
HETATM   11  C   UNL     1      -9.347   6.066  66.960  1.00  0.00    -0.122 C  
HETATM   12  C   UNL     1     -10.443   6.225  65.909  1.00  0.00     0.700 C  
HETATM   13  C   UNL     1     -10.860   7.663  65.950  1.00  0.00     2.763 C  
HETATM   14  N   UNL     1      -9.690   8.394  66.414  1.00  0.00    -0.247 N  
HETATM   15  C   UNL     1      -8.865   7.450  67.494  1.00  0.00    -0.127 C  
HETATM   16  C   UNL     1      -9.156   7.178  69.213  1.00  0.00    -0.137 C  
HETATM   17  O   UNL     1      -8.224   7.510  70.202  1.00  0.00    -0.127 OA 
HETATM   18  O   UNL     1     -10.203   6.597  69.540  1.00  0.00    -0.172 OA 
HETATM   19  C   UNL     1      -8.298   7.457  71.832  1.00  0.00    -0.106 C  
HETATM   20  C   UNL     1      -9.437   8.258  72.724  1.00  0.00    -0.343 C  
HETATM   21  C   UNL     1      -7.591   6.332  72.717  1.00  0.00    -0.103 C  
HETATM   22  C   UNL     1      -7.731   4.866  72.352  1.00  0.00    -0.092 C  
HETATM   23  C   UNL     1      -6.111   6.634  73.058  1.00  0.00    -0.057 C  
HETATM   24  C   UNL     1      -9.328   8.286  74.262  1.00  0.00     1.185 C  
HETATM   25  C   UNL     1     -10.927   8.166  72.489  1.00  0.00    -0.439 C  
HETATM   26  C   UNL     1     -11.573   7.287  71.721  1.00  0.00    -0.309 C  
HETATM   27  C   UNL     1     -12.418   7.901  70.643  1.00  0.00     0.206 C  
HETATM   28  O   UNL     1     -13.431   7.378  70.253  1.00  0.00     0.821 OA 
HETATM   29  N   UNL     1     -11.833   8.980  69.969  1.00  0.00    -0.408 N  
HETATM   30  C   UNL     1     -10.676   9.805  70.377  1.00  0.00    -0.308 C  
HETATM   31  H   UNL     1     -12.262   9.230  69.077  1.00  0.00     0.000 HD 
HETATM   32  C   UNL     1     -10.180  10.618  69.296  1.00  0.00    -0.235 C  
HETATM   33  C   UNL     1      -9.219  11.491  69.036  1.00  0.00     0.110 C  
HETATM   34  C   UNL     1      -9.264  12.228  67.786  1.00  0.00    -0.191 C  
HETATM   35  C   UNL     1     -10.325  12.247  66.951  1.00  0.00    -0.236 C  
HETATM   36  C   UNL     1      -8.091  13.124  67.451  1.00  0.00    -0.181 C  
HETATM   37  C   UNL     1     -11.649  11.490  66.863  1.00  0.00    -0.085 C  
HETATM   38  C   UNL     1     -12.960  12.167  66.920  1.00  0.00     3.630 C  
HETATM   39  O   UNL     1     -11.786  10.095  67.053  1.00  0.00     0.079 OA 
HETATM   40  H   UNL     1     -12.609   9.624  66.999  1.00  0.00     0.000 HD 
HETATM   41  C   UNL     1     -13.021  13.117  65.737  1.00  0.00     0.281 C  
HETATM   42  O   UNL     1     -13.596  14.196  65.948  1.00  0.00    -0.082 OA 
HETATM   43  C   UNL     1     -12.495  12.797  64.275  1.00  0.00    -0.461 C  
HETATM   44  C   UNL     1     -11.408  11.683  63.901  1.00  0.00    -0.371 A  
HETATM   45  N   UNL     1     -11.263  10.398  64.280  1.00  0.00     1.418 NA 
HETATM   46  C   UNL     1      -9.858  10.188  64.422  1.00  0.00    -0.237 A  
HETATM   47  C   UNL     1      -9.273  11.226  63.705  1.00  0.00    -0.107 A  
HETATM   48  C   UNL     1      -9.049   9.223  65.369  1.00  0.00    -0.222 C  
HETATM   49  O   UNL     1     -10.220  12.188  63.419  1.00  0.00    -0.433 OA 
HETATM   50  O   UNL     1      -7.817   9.249  65.321  1.00  0.00    -0.100 OA 
ENDBRANCH   8  11
ENDBRANCH   7   8
ENDBRANCH   6   7
ENDBRANCH   3   6
ENDBRANCH   2   3
TORSDOF 6
ENDMDL
MODEL       49
REMARK 921   NORMALIZED FREE ENERGY PREDICTED BY IDOCK:   17.97 KCAL/MOL
REMARK 922        TOTAL FREE ENERGY PREDICTED BY IDOCK:   23.12 KCAL/MOL
REMARK 923 INTER-LIGAND FREE ENERGY PREDICTED BY IDOCK:   23.28 KCAL/MOL
REMARK 924 INTRA-LIGAND FREE ENERGY PREDICTED BY IDOCK:   -0.16 KCAL/MOL
REMARK 927      BINDING AFFINITY PREDICTED BY RF-SCORE:    0.00 PKD
ROOT
HETATM    1  C   UNL     1     -11.507  15.633  69.741  1.00  0.00    -0.346 C  
HETATM    2  C   UNL     1     -10.406  15.925  70.768  1.00  0.00     0.466 C  
ENDROOT
BRANCH   2   3
HETATM    3  N   UNL     1      -9.080  16.157  70.179  1.00  0.00     0.775 NA 
BRANCH   3   4
HETATM    4  C   UNL     1      -7.971  15.668  71.026  1.00  0.00     3.110 C  
HETATM    5  C   UNL     1      -6.611  16.320  70.792  1.00  0.00     1.330 C  
ENDBRANCH   3   4
BRANCH   3   6
HETATM    6  C   UNL     1      -9.042  15.693  68.773  1.00  0.00    -0.208 C  
BRANCH   6   7
HETATM    7  C   UNL     1      -8.498  14.284  68.740  1.00  0.00    -0.094 C  
BRANCH   7   8
HETATM    8  S   UNL     1      -7.324  13.871  67.461  1.00  0.00    -0.124 S  
HETATM    9  O   UNL     1      -7.986  14.117  66.165  1.00  0.00     1.151 OA 
HETATM   10  O   UNL     1      -6.045  14.440  67.785  1.00  0.00    -0.181 OA 
BRANCH   8  11
HETATM   11  C   UNL     1      -7.296  12.140  67.730  1.00  0.00    -0.114 C  
HETATM   12  C   UNL     1      -5.891  11.558  67.586  1.00  0.00    -0.055 C  
HETATM   13  C   UNL     1      -6.060  10.199  66.980  1.00  0.00    -0.055 C  
HETATM   14  N   UNL     1      -7.288  10.269  66.203  1.00  0.00    -0.115 N  
HETATM   15  C   UNL     1      -8.351  11.276  66.975  1.00  0.00    -0.153 C  
HETATM   16  C   UNL     1      -9.437  10.954  68.328  1.00  0.00    -0.168 C  
HETATM   17  O   UNL     1     -10.827  11.074  68.232  1.00  0.00    -0.185 OA 
HETATM   18  O   UNL     1      -8.929  10.684  69.429  1.00  0.00    -0.139 OA 
HETATM   19  C   UNL     1     -12.026  10.736  69.286  1.00  0.00    -0.263 C  
HETATM   20  C   UNL     1     -12.265   9.243  69.956  1.00  0.00     0.498 C  
HETATM   21  C   UNL     1     -12.822  11.848  70.110  1.00  0.00     0.267 C  
HETATM   22  C   UNL     1     -12.074  12.951  70.834  1.00  0.00    -0.162 C  
HETATM   23  C   UNL     1     -14.024  12.460  69.348  1.00  0.00     7.068 C  
HETATM   24  C   UNL     1     -13.521   8.976  70.809  1.00  0.00     0.272 C  
HETATM   25  C   UNL     1     -11.195   8.444  70.663  1.00  0.00    -0.275 C  
HETATM   26  C   UNL     1      -9.998   8.871  71.066  1.00  0.00    -0.324 C  
HETATM   27  C   UNL     1      -8.838   8.102  70.502  1.00  0.00    -0.144 C  
HETATM   28  O   UNL     1      -7.812   7.955  71.116  1.00  0.00    -0.081 OA 
HETATM   29  N   UNL     1      -8.941   7.779  69.143  1.00  0.00    -0.145 N  
HETATM   30  C   UNL     1     -10.143   7.781  68.283  1.00  0.00    -0.192 C  
HETATM   31  H   UNL     1      -8.070   7.506  68.685  1.00  0.00     0.000 HD 
HETATM   32  C   UNL     1      -9.812   7.688  66.884  1.00  0.00    -0.304 C  
HETATM   33  C   UNL     1     -10.399   7.669  65.697  1.00  0.00     2.039 C  
HETATM   34  C   UNL     1      -9.602   7.335  64.530  1.00  0.00     2.639 C  
HETATM   35  C   UNL     1      -8.348   6.836  64.580  1.00  0.00     0.040 C  
HETATM   36  C   UNL     1     -10.260   7.444  63.171  1.00  0.00     7.754 C  
HETATM   37  C   UNL     1      -7.314   6.614  65.682  1.00  0.00    -0.075 C  
HETATM   38  C   UNL     1      -6.775   5.281  66.014  1.00  0.00    -0.053 C  
HETATM   39  O   UNL     1      -7.014   7.553  66.697  1.00  0.00    -0.070 OA 
HETATM   40  H   UNL     1      -6.370   7.416  67.382  1.00  0.00     0.000 HD 
HETATM   41  C   UNL     1      -6.078   4.761  64.770  1.00  0.00    -0.029 C  
HETATM   42  O   UNL     1      -6.191   3.542  64.563  1.00  0.00    -0.022 OA 
HETATM   43  C   UNL     1      -5.172   5.626  63.797  1.00  0.00    -0.013 C  
HETATM   44  C   UNL     1      -5.220   7.220  63.652  1.00  0.00    -0.033 A  
HETATM   45  N   UNL     1      -5.259   8.210  64.566  1.00  0.00    -0.036 NA 
HETATM   46  C   UNL     1      -6.127   9.206  64.027  1.00  0.00    -0.076 A  
HETATM   47  C   UNL     1      -6.187   8.923  62.667  1.00  0.00    -0.094 A  
HETATM   48  C   UNL     1      -7.072  10.246  64.740  1.00  0.00    -0.092 C  
HETATM   49  O   UNL     1      -5.670   7.666  62.428  1.00  0.00    -0.057 OA 
HETATM   50  O   UNL     1      -7.757  10.995  64.038  1.00  0.00     0.348 OA 
ENDBRANCH   8  11
ENDBRANCH   7   8
ENDBRANCH   6   7
ENDBRANCH   3   6
ENDBRANCH   2   3
TORSDOF 6
ENDMDL
MODEL       50
REMARK 921   NORMALIZED FREE ENERGY PREDICTED BY IDOCK:   18.79 KCAL/MOL
REMARK 922        TOTAL FREE ENERGY PREDICTED BY IDOCK:   24.24 KCAL/MOL
REMARK 923 INTER-LIGAND FREE ENERGY PREDICTED BY IDOCK:   22.96 KCAL/MOL
REMARK 924 INTRA-LIGAND FREE ENERGY PREDICTED BY IDOCK:    1.28 KCAL/MOL
REMARK 927      BINDING AFFINITY PREDICTED BY RF-SCORE:    0.00 PKD
ROOT
HETATM    1  C   UNL     1     -10.108  16.170  64.141  1.00  0.00     3.279 C  
HETATM    2  C   UNL     1      -9.826  15.751  65.589  1.00  0.00    -0.322 C  
ENDROOT
BRANCH   2   3
HETATM    3  N   UNL     1     -10.471  14.493  65.988  1.00  0.00    -0.296 NA 
BRANCH   3   4
HETATM    4  C   UNL     1     -11.408  13.969  64.971  1.00  0.00    -0.342 C  
HETATM    5  C   UNL     1     -10.850  13.822  63.558  1.00  0.00     1.177 C  
ENDBRANCH   3   4
BRANCH   3   6
HETATM    6  C   UNL     1      -9.465  13.517  66.469  1.00  0.00    -0.256 C  
BRANCH   6   7
HETATM    7  C   UNL     1      -8.523  14.218  67.420  1.00  0.00    -0.203 C  
BRANCH   7   8
HETATM    8  S   UNL     1      -6.770  13.975  67.192  1.00  0.00     0.822 S  
HETATM    9  O   UNL     1      -6.525  13.902  65.739  1.00  0.00     5.744 OA 
HETATM   10  O   UNL     1      -6.048  14.879  68.044  1.00  0.00    -0.129 OA 
BRANCH   8  11
HETATM   11  C   UNL     1      -6.682  12.347  67.834  1.00  0.00    -0.100 C  
HETATM   12  C   UNL     1      -5.314  11.710  67.602  1.00  0.00    -0.059 C  
HETATM   13  C   UNL     1      -5.564  10.256  67.350  1.00  0.00    -0.041 C  
HETATM   14  N   UNL     1      -6.903  10.185  66.782  1.00  0.00    -0.083 N  
HETATM   15  C   UNL     1      -7.837  11.365  67.468  1.00  0.00    -0.126 C  
HETATM   16  C   UNL     1      -8.687  11.381  69.015  1.00  0.00     0.091 C  
HETATM   17  O   UNL     1     -10.076  11.514  69.116  1.00  0.00    -0.113 OA 
HETATM   18  O   UNL     1      -8.007  11.349  70.052  1.00  0.00     0.755 OA 
HETATM   19  C   UNL     1     -11.087  11.451  70.396  1.00  0.00     0.493 C  
HETATM   20  C   UNL     1     -11.200  10.151  71.411  1.00  0.00    -0.006 C  
HETATM   21  C   UNL     1     -11.751  12.739  71.067  1.00  0.00     0.782 C  
HETATM   22  C   UNL     1     -10.906  13.955  71.397  1.00  0.00     2.844 C  
HETATM   23  C   UNL     1     -13.065  13.199  70.387  1.00  0.00     0.356 C  
HETATM   24  C   UNL     1     -12.300  10.114  72.492  1.00  0.00     0.828 C  
HETATM   25  C   UNL     1     -10.023   9.500  72.101  1.00  0.00     1.226 C  
HETATM   26  C   UNL     1      -8.781   9.974  72.202  1.00  0.00     4.526 C  
HETATM   27  C   UNL     1      -7.719   9.068  71.647  1.00  0.00     0.076 C  
HETATM   28  O   UNL     1      -6.606   9.034  72.108  1.00  0.00    -0.249 OA 
HETATM   29  N   UNL     1      -8.037   8.454  70.429  1.00  0.00    -0.104 N  
HETATM   30  C   UNL     1      -9.362   8.297  69.793  1.00  0.00    -0.158 C  
HETATM   31  H   UNL     1      -7.248   8.063  69.911  1.00  0.00     0.000 HD 
HETATM   32  C   UNL     1      -9.259   7.888  68.415  1.00  0.00    -0.134 C  
HETATM   33  C   UNL     1     -10.029   7.621  67.372  1.00  0.00    -0.252 C  
HETATM   34  C   UNL     1      -9.428   7.015  66.197  1.00  0.00    -0.055 C  
HETATM   35  C   UNL     1      -8.177   6.506  66.158  1.00  0.00    -0.123 C  
HETATM   36  C   UNL     1     -10.296   6.837  64.970  1.00  0.00     3.793 C  
HETATM   37  C   UNL     1      -6.977   6.507  67.102  1.00  0.00    -0.071 C  
HETATM   38  C   UNL     1      -6.379   5.267  67.634  1.00  0.00    -0.040 C  
HETATM   39  O   UNL     1      -6.526   7.639  67.821  1.00  0.00    -0.051 OA 
HETATM   40  H   UNL     1      -5.780   7.641  68.408  1.00  0.00     0.000 HD 
HETATM   41  C   UNL     1      -5.886   4.465  66.443  1.00  0.00    -0.023 C  
HETATM   42  O   UNL     1      -6.019   3.234  66.534  1.00  0.00    -0.022 OA 
HETATM   43  C   UNL     1      -5.156   5.068  65.170  1.00  0.00    -0.009 C  
HETATM   44  C   UNL     1      -5.243   6.590  64.682  1.00  0.00    -0.022 A  
HETATM   45  N   UNL     1      -5.143   7.759  65.345  1.00  0.00    -0.028 NA 
HETATM   46  C   UNL     1      -6.097   8.633  64.743  1.00  0.00    -0.064 A  
HETATM   47  C   UNL     1      -6.372   8.057  63.507  1.00  0.00    -0.071 A  
HETATM   48  C   UNL     1      -6.925   9.831  65.346  1.00  0.00    -0.105 C  
HETATM   49  O   UNL     1      -5.888   6.765  63.477  1.00  0.00    -0.033 OA 
HETATM   50  O   UNL     1      -7.720  10.423  64.613  1.00  0.00    -0.140 OA 
ENDBRANCH   8  11
ENDBRANCH   7   8
ENDBRANCH   6   7
ENDBRANCH   3   6
ENDBRANCH   2   3
TORSDOF 6
ENDMDL
MODEL       51
REMARK 921   NORMALIZED FREE ENERGY PREDICTED BY IDOCK:   18.83 KCAL/MOL
REMARK 922        TOTAL FREE ENERGY PREDICTED BY IDOCK:   24.29 KCAL/MOL
REMARK 923 INTER-LIGAND FREE ENERGY PREDICTED BY IDOCK:   23.56 KCAL/MOL
REMARK 924 INTRA-LIGAND FREE ENERGY PREDICTED BY IDOCK:    0.73 KCAL/MOL
REMARK 927      BINDING AFFINITY PREDICTED BY RF-SCORE:    0.00 PKD
ROOT
HETATM    1  C   UNL     1     -10.122  20.106  65.017  1.00  0.00     0.917 C  
HETATM    2  C   UNL     1      -9.020  19.640  65.976  1.00  0.00    -0.243 C  
ENDROOT
BRANCH   2   3
HETATM    3  N   UNL     1      -9.204  18.275  66.487  1.00  0.00    -0.296 NA 
BRANCH   3   4
HETATM    4  C   UNL     1      -8.275  17.933  67.586  1.00  0.00    -0.232 C  
HETATM    5  C   UNL     1      -8.401  18.771  68.856  1.00  0.00    -0.244 C  
ENDBRANCH   3   4
BRANCH   3   6
HETATM    6  C   UNL     1     -10.633  18.011  66.775  1.00  0.00    -0.270 C  
BRANCH   6   7
HETATM    7  C   UNL     1     -11.339  17.691  65.478  1.00  0.00     1.077 C  
BRANCH   7   8
HETATM    8  S   UNL     1     -11.959  16.032  65.252  1.00  0.00     1.004 S  
HETATM    9  O   UNL     1     -12.803  15.719  66.421  1.00  0.00     2.080 OA 
HETATM   10  O   UNL     1     -12.435  15.882  63.905  1.00  0.00    -0.760 OA 
BRANCH   8  11
HETATM   11  C   UNL     1     -10.435  15.192  65.447  1.00  0.00    -0.393 C  
HETATM   12  C   UNL     1      -9.727  14.967  64.113  1.00  0.00     3.378 C  
HETATM   13  C   UNL     1      -9.039  13.641  64.221  1.00  0.00     3.539 C  
HETATM   14  N   UNL     1      -9.826  12.871  65.174  1.00  0.00    -0.135 N  
HETATM   15  C   UNL     1     -10.432  13.900  66.320  1.00  0.00    -0.287 C  
HETATM   16  C   UNL     1      -9.664  14.566  67.763  1.00  0.00    -0.216 C  
HETATM   17  O   UNL     1     -10.141  14.326  69.055  1.00  0.00    -0.209 OA 
HETATM   18  O   UNL     1      -8.707  15.340  67.607  1.00  0.00    -0.164 OA 
HETATM   19  C   UNL     1      -9.559  14.730  70.526  1.00  0.00     1.261 C  
HETATM   20  C   UNL     1      -8.057  14.299  71.067  1.00  0.00     3.661 C  
HETATM   21  C   UNL     1     -10.155  15.910  71.422  1.00  0.00     1.957 C  
HETATM   22  C   UNL     1     -10.438  17.271  70.814  1.00  0.00     1.597 C  
HETATM   23  C   UNL     1     -11.354  15.486  72.307  1.00  0.00    -0.397 C  
HETATM   24  C   UNL     1      -7.658  14.582  72.530  1.00  0.00     5.290 C  
HETATM   25  C   UNL     1      -6.773  14.544  70.309  1.00  0.00    -0.035 C  
HETATM   26  C   UNL     1      -6.599  15.321  69.240  1.00  0.00    -0.141 C  
HETATM   27  C   UNL     1      -6.040  14.614  68.038  1.00  0.00    -0.156 C  
HETATM   28  O   UNL     1      -5.333  15.177  67.240  1.00  0.00    -0.322 OA 
HETATM   29  N   UNL     1      -6.581  13.348  67.786  1.00  0.00    -0.152 N  
HETATM   30  C   UNL     1      -7.354  12.477  68.696  1.00  0.00    -0.099 C  
HETATM   31  H   UNL     1      -6.421  12.976  66.849  1.00  0.00     0.000 HD 
HETATM   32  C   UNL     1      -7.998  11.394  67.997  1.00  0.00    -0.127 C  
HETATM   33  C   UNL     1      -8.795  10.362  68.229  1.00  0.00    -0.135 C  
HETATM   34  C   UNL     1      -9.007   9.391  67.171  1.00  0.00    -0.144 C  
HETATM   35  C   UNL     1      -8.290   9.342  66.028  1.00  0.00    -0.123 C  
HETATM   36  C   UNL     1     -10.020   8.293  67.412  1.00  0.00    -0.271 C  
HETATM   37  C   UNL     1      -7.245  10.238  65.364  1.00  0.00    -0.143 C  
HETATM   38  C   UNL     1      -5.878   9.775  65.055  1.00  0.00    -0.079 C  
HETATM   39  O   UNL     1      -7.338  11.646  65.280  1.00  0.00     0.399 OA 
HETATM   40  H   UNL     1      -6.689  12.204  64.867  1.00  0.00     0.000 HD 
HETATM   41  C   UNL     1      -6.011   8.614  64.085  1.00  0.00    -0.067 C  
HETATM   42  O   UNL     1      -5.194   7.692  64.239  1.00  0.00    -0.029 OA 
HETATM   43  C   UNL     1      -7.032   8.543  62.873  1.00  0.00    -0.090 C  
HETATM   44  C   UNL     1      -8.383   9.393  62.744  1.00  0.00    -0.181 A  
HETATM   45  N   UNL     1      -8.653  10.697  62.951  1.00  0.00    -0.190 NA 
HETATM   46  C   UNL     1      -9.949  10.737  63.547  1.00  0.00    -0.344 A  
HETATM   47  C   UNL     1     -10.513   9.501  63.249  1.00  0.00     3.560 A  
HETATM   48  C   UNL     1     -10.587  11.761  64.561  1.00  0.00    -0.313 C  
HETATM   49  O   UNL     1      -9.535   8.640  62.795  1.00  0.00     0.913 OA 
HETATM   50  O   UNL     1     -11.738  11.556  64.957  1.00  0.00    -0.078 OA 
ENDBRANCH   8  11
ENDBRANCH   7   8
ENDBRANCH   6   7
ENDBRANCH   3   6
ENDBRANCH   2   3
TORSDOF 6
ENDMDL
MODEL       52
REMARK 921   NORMALIZED FREE ENERGY PREDICTED BY IDOCK:   21.20 KCAL/MOL
REMARK 922        TOTAL FREE ENERGY PREDICTED BY IDOCK:   27.49 KCAL/MOL
REMARK 923 INTER-LIGAND FREE ENERGY PREDICTED BY IDOCK:   26.87 KCAL/MOL
REMARK 924 INTRA-LIGAND FREE ENERGY PREDICTED BY IDOCK:    0.62 KCAL/MOL
REMARK 927      BINDING AFFINITY PREDICTED BY RF-SCORE:    0.00 PKD
ROOT
HETATM    1  C   UNL     1     -10.915  17.271  73.203  1.00  0.00     2.705 C  
HETATM    2  C   UNL     1     -10.233  16.387  72.151  1.00  0.00     4.482 C  
ENDROOT
BRANCH   2   3
HETATM    3  N   UNL     1     -10.760  16.556  70.790  1.00  0.00     0.230 NA 
BRANCH   3   4
HETATM    4  C   UNL     1      -9.902  17.403  69.933  1.00  0.00     0.743 C  
HETATM    5  C   UNL     1     -10.007  17.159  68.430  1.00  0.00    -0.310 C  
ENDBRANCH   3   4
BRANCH   3   6
HETATM    6  C   UNL     1     -11.126  15.245  70.204  1.00  0.00    -0.293 C  
BRANCH   6   7
HETATM    7  C   UNL     1     -11.991  14.496  71.190  1.00  0.00    -0.339 C  
BRANCH   7   8
HETATM    8  S   UNL     1     -12.760  12.980  70.644  1.00  0.00    -0.023 S  
HETATM    9  O   UNL     1     -13.363  12.346  71.832  1.00  0.00    -0.468 OA 
HETATM   10  O   UNL     1     -13.515  13.233  69.448  1.00  0.00     2.070 OA 
BRANCH   8  11
HETATM   11  C   UNL     1     -11.292  12.108  70.256  1.00  0.00     0.355 C  
HETATM   12  C   UNL     1     -10.178  13.040  69.783  1.00  0.00     1.305 C  
HETATM   13  C   UNL     1      -9.415  12.286  68.738  1.00  0.00     0.086 C  
HETATM   14  N   UNL     1     -10.371  11.357  68.153  1.00  0.00    -0.182 N  
HETATM   15  C   UNL     1     -11.419  10.858  69.332  1.00  0.00    -0.302 C  
HETATM   16  C   UNL     1     -11.227   9.608  70.564  1.00  0.00    -0.297 C  
HETATM   17  O   UNL     1     -12.058   8.486  70.642  1.00  0.00    -0.141 OA 
HETATM   18  O   UNL     1     -10.363   9.782  71.438  1.00  0.00    -0.136 OA 
HETATM   19  C   UNL     1     -12.020   7.166  71.601  1.00  0.00    -0.318 C  
HETATM   20  C   UNL     1     -10.728   6.138  71.694  1.00  0.00    -0.294 C  
HETATM   21  C   UNL     1     -12.997   6.942  72.844  1.00  0.00     1.290 C  
HETATM   22  C   UNL     1     -13.224   8.053  73.853  1.00  0.00     4.995 C  
HETATM   23  C   UNL     1     -14.359   6.305  72.470  1.00  0.00     0.618 C  
HETATM   24  C   UNL     1     -10.846   4.827  72.498  1.00  0.00    -0.208 C  
HETATM   25  C   UNL     1      -9.306   6.574  71.960  1.00  0.00    -0.147 C  
HETATM   26  C   UNL     1      -8.892   7.769  72.382  1.00  0.00    -0.192 C  
HETATM   27  C   UNL     1      -7.906   8.446  71.474  1.00  0.00    -0.120 C  
HETATM   28  O   UNL     1      -7.051   9.182  71.898  1.00  0.00    -0.314 OA 
HETATM   29  N   UNL     1      -8.194   8.353  70.107  1.00  0.00    -0.114 N  
HETATM   30  C   UNL     1      -9.112   7.421  69.419  1.00  0.00    -0.139 C  
HETATM   31  H   UNL     1      -7.704   9.017  69.506  1.00  0.00     0.000 HD 
HETATM   32  C   UNL     1      -9.375   7.822  68.060  1.00  0.00    -0.146 C  
HETATM   33  C   UNL     1     -10.084   7.446  67.007  1.00  0.00    -0.328 C  
HETATM   34  C   UNL     1      -9.840   8.097  65.732  1.00  0.00     0.365 C  
HETATM   35  C   UNL     1      -8.797   8.919  65.484  1.00  0.00    -0.238 C  
HETATM   36  C   UNL     1     -10.747   7.745  64.573  1.00  0.00     9.268 C  
HETATM   37  C   UNL     1      -7.704   9.569  66.330  1.00  0.00    -0.097 C  
HETATM   38  C   UNL     1      -6.266   9.326  66.100  1.00  0.00    -0.064 C  
HETATM   39  O   UNL     1      -7.923  10.178  67.588  1.00  0.00    -0.102 OA 
HETATM   40  H   UNL     1      -7.244  10.582  68.115  1.00  0.00     0.000 HD 
HETATM   41  C   UNL     1      -5.954   9.809  64.695  1.00  0.00    -0.092 C  
HETATM   42  O   UNL     1      -5.130   9.127  64.065  1.00  0.00    -0.057 OA 
HETATM   43  C   UNL     1      -6.526  11.132  64.031  1.00  0.00     1.113 C  
HETATM   44  C   UNL     1      -7.852  11.904  64.486  1.00  0.00     2.657 A  
HETATM   45  N   UNL     1      -8.319  12.259  65.700  1.00  0.00     0.842 NA 
HETATM   46  C   UNL     1      -9.733  12.074  65.645  1.00  0.00    -0.223 A  
HETATM   47  C   UNL     1     -10.031  12.039  64.287  1.00  0.00    -0.240 A  
HETATM   48  C   UNL     1     -10.770  11.700  66.771  1.00  0.00    -0.260 C  
HETATM   49  O   UNL     1      -8.870  11.882  63.558  1.00  0.00     0.320 OA 
HETATM   50  O   UNL     1     -11.955  11.567  66.458  1.00  0.00    -0.386 OA 
ENDBRANCH   8  11
ENDBRANCH   7   8
ENDBRANCH   6   7
ENDBRANCH   3   6
ENDBRANCH   2   3
TORSDOF 6
ENDMDL
MODEL       53
REMARK 921   NORMALIZED FREE ENERGY PREDICTED BY IDOCK:   21.94 KCAL/MOL
REMARK 922        TOTAL FREE ENERGY PREDICTED BY IDOCK:   28.49 KCAL/MOL
REMARK 923 INTER-LIGAND FREE ENERGY PREDICTED BY IDOCK:   29.55 KCAL/MOL
REMARK 924 INTRA-LIGAND FREE ENERGY PREDICTED BY IDOCK:   -1.06 KCAL/MOL
REMARK 927      BINDING AFFINITY PREDICTED BY RF-SCORE:    0.00 PKD
ROOT
HETATM    1  C   UNL     1     -11.351   6.282  69.200  1.00  0.00    -0.358 C  
HETATM    2  C   UNL     1     -10.072   7.117  69.338  1.00  0.00    -0.176 C  
ENDROOT
BRANCH   2   3
HETATM    3  N   UNL     1     -10.044   8.318  68.493  1.00  0.00    -0.192 NA 
BRANCH   3   4
HETATM    4  C   UNL     1     -10.381   9.557  69.229  1.00  0.00    -0.208 C  
HETATM    5  C   UNL     1     -10.857   9.373  70.668  1.00  0.00    -0.346 C  
ENDBRANCH   3   4
BRANCH   3   6
HETATM    6  C   UNL     1      -8.788   8.380  67.711  1.00  0.00    -0.137 C  
BRANCH   6   7
HETATM    7  C   UNL     1      -8.805   9.629  66.861  1.00  0.00    -0.131 C  
BRANCH   7   8
HETATM    8  S   UNL     1      -7.319  10.052  65.966  1.00  0.00    -0.118 S  
HETATM    9  O   UNL     1      -6.183   9.472  66.707  1.00  0.00    -0.063 OA 
HETATM   10  O   UNL     1      -7.521   9.808  64.565  1.00  0.00    -0.122 OA 
BRANCH   8  11
HETATM   11  C   UNL     1      -7.346  11.774  66.285  1.00  0.00     0.320 C  
HETATM   12  C   UNL     1      -5.950  12.332  66.552  1.00  0.00     0.720 C  
HETATM   13  C   UNL     1      -6.115  13.407  67.581  1.00  0.00    -0.122 C  
HETATM   14  N   UNL     1      -7.298  13.034  68.345  1.00  0.00    -0.109 N  
HETATM   15  C   UNL     1      -8.378  12.297  67.331  1.00  0.00    -0.177 C  
HETATM   16  C   UNL     1      -9.543  13.005  66.210  1.00  0.00    -0.238 C  
HETATM   17  O   UNL     1     -10.923  12.805  66.323  1.00  0.00    -0.271 OA 
HETATM   18  O   UNL     1      -9.104  13.643  65.241  1.00  0.00     0.655 OA 
HETATM   19  C   UNL     1     -12.186  13.423  65.496  1.00  0.00    -0.455 C  
HETATM   20  C   UNL     1     -12.495  15.043  65.370  1.00  0.00     0.231 C  
HETATM   21  C   UNL     1     -13.001  12.615  64.385  1.00  0.00    -0.232 C  
HETATM   22  C   UNL     1     -12.268  11.844  63.303  1.00  0.00    -0.487 C  
HETATM   23  C   UNL     1     -14.144  11.738  64.954  1.00  0.00     5.930 C  
HETATM   24  C   UNL     1     -13.803  15.526  64.710  1.00  0.00     3.084 C  
HETATM   25  C   UNL     1     -11.485  16.073  64.921  1.00  0.00    -0.125 C  
HETATM   26  C   UNL     1     -10.302  15.851  64.347  1.00  0.00     1.153 C  
HETATM   27  C   UNL     1      -9.131  16.436  65.082  1.00  0.00     1.659 C  
HETATM   28  O   UNL     1      -8.144  16.819  64.507  1.00  0.00     5.069 OA 
HETATM   29  N   UNL     1      -9.166  16.288  66.475  1.00  0.00    -0.246 N  
HETATM   30  C   UNL     1     -10.319  15.954  67.338  1.00  0.00    -0.288 C  
HETATM   31  H   UNL     1      -8.278  16.429  66.958  1.00  0.00     0.000 HD 
HETATM   32  C   UNL     1      -9.913  15.593  68.672  1.00  0.00    -0.208 C  
HETATM   33  C   UNL     1     -10.434  15.196  69.823  1.00  0.00    -0.248 C  
HETATM   34  C   UNL     1      -9.582  15.156  70.998  1.00  0.00     1.808 C  
HETATM   35  C   UNL     1      -8.345  15.694  71.060  1.00  0.00     3.263 C  
HETATM   36  C   UNL     1     -10.161  14.578  72.271  1.00  0.00     4.124 C  
HETATM   37  C   UNL     1      -7.378  16.308  70.050  1.00  0.00     0.675 C  
HETATM   38  C   UNL     1      -6.889  17.697  70.155  1.00  0.00     0.889 C  
HETATM   39  O   UNL     1      -7.113  15.770  68.769  1.00  0.00    -0.118 OA 
HETATM   40  H   UNL     1      -6.512  16.152  68.140  1.00  0.00     0.000 HD 
HETATM   41  C   UNL     1      -6.136  17.804  71.470  1.00  0.00     1.779 C  
HETATM   42  O   UNL     1      -6.266  18.880  72.074  1.00  0.00     0.727 OA 
HETATM   43  C   UNL     1      -5.158  16.702  72.059  1.00  0.00     0.747 C  
HETATM   44  C   UNL     1      -5.162  15.150  71.669  1.00  0.00    -0.063 A  
HETATM   45  N   UNL     1      -5.228  14.517  70.481  1.00  0.00    -0.107 NA 
HETATM   46  C   UNL     1      -6.043  13.365  70.696  1.00  0.00    -0.028 A  
HETATM   47  C   UNL     1      -6.034  13.180  72.075  1.00  0.00     1.121 A  
HETATM   48  C   UNL     1      -7.001  12.582  69.722  1.00  0.00     0.381 C  
HETATM   49  O   UNL     1      -5.533  14.307  72.694  1.00  0.00    -0.195 OA 
HETATM   50  O   UNL     1      -7.629  11.617  70.164  1.00  0.00     0.783 OA 
ENDBRANCH   8  11
ENDBRANCH   7   8
ENDBRANCH   6   7
ENDBRANCH   3   6
ENDBRANCH   2   3
TORSDOF 6
ENDMDL
MODEL       54
REMARK 921   NORMALIZED FREE ENERGY PREDICTED BY IDOCK:   25.81 KCAL/MOL
REMARK 922        TOTAL FREE ENERGY PREDICTED BY IDOCK:   33.72 KCAL/MOL
REMARK 923 INTER-LIGAND FREE ENERGY PREDICTED BY IDOCK:   21.96 KCAL/MOL
REMARK 924 INTRA-LIGAND FREE ENERGY PREDICTED BY IDOCK:   11.76 KCAL/MOL
REMARK 927      BINDING AFFINITY PREDICTED BY RF-SCORE:    0.00 PKD
ROOT
HETATM    1  C   UNL     1     -10.030   8.127  67.885  1.00  0.00    -0.225 C  
HETATM    2  C   UNL     1     -10.516   8.721  69.212  1.00  0.00    -0.219 C  
ENDROOT
BRANCH   2   3
HETATM    3  N   UNL     1     -11.834   9.366  69.136  1.00  0.00     0.655 NA 
BRANCH   3   4
HETATM    4  C   UNL     1     -12.875   8.660  69.914  1.00  0.00     2.144 C  
HETATM    5  C   UNL     1     -12.475   8.213  71.317  1.00  0.00    -0.269 C  
ENDBRANCH   3   4
BRANCH   3   6
HETATM    6  C   UNL     1     -11.724  10.817  69.413  1.00  0.00    -0.306 C  
BRANCH   6   7
HETATM    7  C   UNL     1     -11.954  11.049  70.888  1.00  0.00    -0.286 C  
BRANCH   7   8
HETATM    8  S   UNL     1     -12.450  12.682  71.411  1.00  0.00     0.043 S  
HETATM    9  O   UNL     1     -13.605  13.074  70.580  1.00  0.00     0.568 OA 
HETATM   10  O   UNL     1     -12.491  12.731  72.846  1.00  0.00     0.789 OA 
BRANCH   8  11
HETATM   11  C   UNL     1     -11.045  13.545  70.820  1.00  0.00     1.488 C  
HETATM   12  C   UNL     1     -11.075  15.023  71.202  1.00  0.00    -0.201 C  
HETATM   13  C   UNL     1     -10.458  15.766  70.058  1.00  0.00    -0.306 C  
HETATM   14  N   UNL     1     -10.709  14.945  68.882  1.00  0.00    -0.236 N  
HETATM   15  C   UNL     1     -10.658  13.351  69.322  1.00  0.00     0.092 C  
HETATM   16  C   UNL     1      -9.271  12.284  69.551  1.00  0.00     1.509 C  
HETATM   17  O   UNL     1      -9.072  11.125  68.793  1.00  0.00    -0.177 OA 
HETATM   18  O   UNL     1      -8.486  12.542  70.478  1.00  0.00     4.500 OA 
HETATM   19  C   UNL     1      -7.841  10.054  68.741  1.00  0.00    -0.094 C  
HETATM   20  C   UNL     1      -6.278  10.470  68.401  1.00  0.00    -0.050 C  
HETATM   21  C   UNL     1      -7.897   8.606  69.411  1.00  0.00    -0.096 C  
HETATM   22  C   UNL     1      -8.399   8.434  70.832  1.00  0.00    -0.149 C  
HETATM   23  C   UNL     1      -8.532   7.518  68.510  1.00  0.00    -0.129 C  
HETATM   24  C   UNL     1      -5.214   9.370  68.210  1.00  0.00    -0.037 C  
HETATM   25  C   UNL     1      -5.511  11.565  69.107  1.00  0.00    -0.047 C  
HETATM   26  C   UNL     1      -5.854  12.198  70.230  1.00  0.00    -0.161 C  
HETATM   27  C   UNL     1      -5.964  13.690  70.098  1.00  0.00    -0.146 C  
HETATM   28  O   UNL     1      -5.714  14.431  71.015  1.00  0.00    -0.166 OA 
HETATM   29  N   UNL     1      -6.595  14.140  68.931  1.00  0.00    -0.093 N  
HETATM   30  C   UNL     1      -6.857  13.399  67.680  1.00  0.00    -0.165 C  
HETATM   31  H   UNL     1      -6.917  15.109  68.948  1.00  0.00     0.000 HD 
HETATM   32  C   UNL     1      -7.789  14.090  66.824  1.00  0.00     0.472 C  
HETATM   33  C   UNL     1      -8.404  13.943  65.661  1.00  0.00     2.619 C  
HETATM   34  C   UNL     1      -9.128  15.074  65.107  1.00  0.00     1.435 C  
HETATM   35  C   UNL     1      -9.053  16.335  65.585  1.00  0.00     0.075 C  
HETATM   36  C   UNL     1      -9.930  14.849  63.843  1.00  0.00     3.832 C  
HETATM   37  C   UNL     1      -8.433  16.992  66.817  1.00  0.00    -0.234 C  
HETATM   38  C   UNL     1      -7.399  18.040  66.726  1.00  0.00    -0.233 C  
HETATM   39  O   UNL     1      -8.515  16.468  68.128  1.00  0.00    -0.182 OA 
HETATM   40  H   UNL     1      -8.130  16.876  68.895  1.00  0.00     0.000 HD 
HETATM   41  C   UNL     1      -8.015  19.210  65.980  1.00  0.00    -0.217 C  
HETATM   42  O   UNL     1      -7.252  19.816  65.212  1.00  0.00    -0.378 OA 
HETATM   43  C   UNL     1      -9.497  19.744  66.174  1.00  0.00    -0.464 C  
HETATM   44  C   UNL     1     -10.717  18.904  66.779  1.00  0.00    -0.336 A  
HETATM   45  N   UNL     1     -10.817  18.106  67.862  1.00  0.00    -0.301 NA 
HETATM   46  C   UNL     1     -11.663  17.024  67.473  1.00  0.00     1.005 A  
HETATM   47  C   UNL     1     -12.335  17.489  66.348  1.00  0.00     5.164 A  
HETATM   48  C   UNL     1     -11.703  15.523  67.951  1.00  0.00    -0.138 C  
HETATM   49  O   UNL     1     -11.723  18.633  65.878  1.00  0.00     1.579 OA 
HETATM   50  O   UNL     1     -12.525  14.764  67.432  1.00  0.00     0.034 OA 
ENDBRANCH   8  11
ENDBRANCH   7   8
ENDBRANCH   6   7
ENDBRANCH   3   6
ENDBRANCH   2   3
TORSDOF 6
ENDMDL
MODEL       55
REMARK 921   NORMALIZED FREE ENERGY PREDICTED BY IDOCK:   26.63 KCAL/MOL
REMARK 922        TOTAL FREE ENERGY PREDICTED BY IDOCK:   34.83 KCAL/MOL
REMARK 923 INTER-LIGAND FREE ENERGY PREDICTED BY IDOCK:   26.65 KCAL/MOL
REMARK 924 INTRA-LIGAND FREE ENERGY PREDICTED BY IDOCK:    8.18 KCAL/MOL
REMARK 927      BINDING AFFINITY PREDICTED BY RF-SCORE:    0.00 PKD
ROOT
HETATM    1  C   UNL     1      -9.742   7.456  69.364  1.00  0.00    -0.159 C  
HETATM    2  C   UNL     1      -8.304   7.182  68.906  1.00  0.00    -0.126 C  
ENDROOT
BRANCH   2   3
HETATM    3  N   UNL     1      -7.298   7.322  69.967  1.00  0.00    -0.081 NA 
BRANCH   3   4
HETATM    4  C   UNL     1      -6.365   8.448  69.741  1.00  0.00    -0.035 C  
HETATM    5  C   UNL     1      -5.538   8.886  70.947  1.00  0.00    -0.034 C  
ENDBRANCH   3   4
BRANCH   3   6
HETATM    6  C   UNL     1      -7.937   7.301  71.303  1.00  0.00    -0.098 C  
BRANCH   6   7
HETATM    7  C   UNL     1      -8.239   8.721  71.720  1.00  0.00    -0.079 C  
BRANCH   7   8
HETATM    8  S   UNL     1      -9.667   9.517  71.005  1.00  0.00     0.011 S  
HETATM    9  O   UNL     1     -10.506   8.458  70.412  1.00  0.00    -0.205 OA 
HETATM   10  O   UNL     1     -10.194  10.477  71.935  1.00  0.00     2.938 OA 
BRANCH   8  11
HETATM   11  C   UNL     1      -8.837  10.339  69.699  1.00  0.00    -0.103 C  
HETATM   12  C   UNL     1      -7.816  11.352  70.214  1.00  0.00     2.164 C  
HETATM   13  C   UNL     1      -7.836  12.497  69.250  1.00  0.00     0.525 C  
HETATM   14  N   UNL     1      -9.176  12.503  68.682  1.00  0.00    -0.047 N  
HETATM   15  C   UNL     1      -9.710  10.942  68.557  1.00  0.00    -0.183 C  
HETATM   16  C   UNL     1      -9.384   9.730  67.317  1.00  0.00    -0.138 C  
HETATM   17  O   UNL     1     -10.389   9.161  66.528  1.00  0.00    -0.263 OA 
HETATM   18  O   UNL     1      -8.219   9.316  67.201  1.00  0.00    -0.115 OA 
HETATM   19  C   UNL     1     -10.332   8.122  65.270  1.00  0.00     3.089 C  
HETATM   20  C   UNL     1      -9.491   8.416  63.877  1.00  0.00     1.988 C  
HETATM   21  C   UNL     1     -10.697   6.572  65.382  1.00  0.00     3.068 C  
HETATM   22  C   UNL     1     -10.130   5.728  66.509  1.00  0.00    -0.216 C  
HETATM   23  C   UNL     1     -12.207   6.266  65.224  1.00  0.00     6.854 C  
HETATM   24  C   UNL     1      -9.631   7.454  62.679  1.00  0.00     2.962 C  
HETATM   25  C   UNL     1      -8.035   8.815  63.825  1.00  0.00    -0.157 C  
HETATM   26  C   UNL     1      -7.148   8.773  64.821  1.00  0.00    -0.077 C  
HETATM   27  C   UNL     1      -6.498  10.089  65.136  1.00  0.00    -0.115 C  
HETATM   28  O   UNL     1      -5.370  10.159  65.553  1.00  0.00    -0.051 OA 
HETATM   29  N   UNL     1      -7.360  11.194  65.138  1.00  0.00    -0.147 N  
HETATM   30  C   UNL     1      -8.713  11.309  64.555  1.00  0.00     0.273 C  
HETATM   31  H   UNL     1      -7.006  12.030  65.604  1.00  0.00     0.000 HD 
HETATM   32  C   UNL     1      -9.405  12.486  65.016  1.00  0.00     0.383 C  
HETATM   33  C   UNL     1     -10.574  13.095  64.888  1.00  0.00    -0.366 C  
HETATM   34  C   UNL     1     -10.723  14.438  65.421  1.00  0.00    -0.359 C  
HETATM   35  C   UNL     1      -9.698  15.203  65.856  1.00  0.00    -0.385 C  
HETATM   36  C   UNL     1     -12.099  15.066  65.381  1.00  0.00     0.029 C  
HETATM   37  C   UNL     1      -8.210  14.975  66.116  1.00  0.00     0.845 C  
HETATM   38  C   UNL     1      -7.153  15.732  65.416  1.00  0.00     6.131 C  
HETATM   39  O   UNL     1      -7.677  13.838  66.767  1.00  0.00    -0.288 OA 
HETATM   40  H   UNL     1      -6.751  13.696  66.928  1.00  0.00     0.000 HD 
HETATM   41  C   UNL     1      -7.350  17.196  65.766  1.00  0.00     0.315 C  
HETATM   42  O   UNL     1      -7.117  18.001  64.851  1.00  0.00     0.336 OA 
HETATM   43  C   UNL     1      -7.734  17.753  67.201  1.00  0.00    -0.224 C  
HETATM   44  C   UNL     1      -8.444  16.914  68.365  1.00  0.00    -0.239 A  
HETATM   45  N   UNL     1      -8.216  15.680  68.858  1.00  0.00    -0.186 NA 
HETATM   46  C   UNL     1      -9.501  15.129  69.144  1.00  0.00    -0.221 A  
HETATM   47  C   UNL     1     -10.350  16.229  69.204  1.00  0.00    -0.272 A  
HETATM   48  C   UNL     1     -10.011  13.639  69.133  1.00  0.00     0.229 C  
HETATM   49  O   UNL     1      -9.718  17.336  68.675  1.00  0.00    -0.277 OA 
HETATM   50  O   UNL     1     -11.197  13.421  69.394  1.00  0.00    -0.244 OA 
ENDBRANCH   8  11
ENDBRANCH   7   8
ENDBRANCH   6   7
ENDBRANCH   3   6
ENDBRANCH   2   3
TORSDOF 6
ENDMDL
MODEL       56
REMARK 921   NORMALIZED FREE ENERGY PREDICTED BY IDOCK:   26.76 KCAL/MOL
REMARK 922        TOTAL FREE ENERGY PREDICTED BY IDOCK:   35.00 KCAL/MOL
REMARK 923 INTER-LIGAND FREE ENERGY PREDICTED BY IDOCK:   17.06 KCAL/MOL
REMARK 924 INTRA-LIGAND FREE ENERGY PREDICTED BY IDOCK:   17.94 KCAL/MOL
REMARK 927      BINDING AFFINITY PREDICTED BY RF-SCORE:    0.00 PKD
ROOT
HETATM    1  C   UNL     1     -13.299  15.203  67.239  1.00  0.00     4.326 C  
HETATM    2  C   UNL     1     -12.366  14.963  66.046  1.00  0.00     0.185 C  
ENDROOT
BRANCH   2   3
HETATM    3  N   UNL     1     -11.202  15.858  66.003  1.00  0.00    -0.014 NA 
BRANCH   3   4
HETATM    4  C   UNL     1     -10.327  15.736  67.190  1.00  0.00    -0.291 C  
HETATM    5  C   UNL     1      -9.218  16.776  67.316  1.00  0.00    -0.234 C  
ENDBRANCH   3   4
BRANCH   3   6
HETATM    6  C   UNL     1     -10.504  15.748  64.701  1.00  0.00     0.202 C  
BRANCH   6   7
HETATM    7  C   UNL     1     -11.437  15.108  63.701  1.00  0.00     1.139 C  
BRANCH   7   8
HETATM    8  S   UNL     1     -11.969  13.431  64.008  1.00  0.00    -0.449 S  
HETATM    9  O   UNL     1     -13.078  13.496  64.979  1.00  0.00    -0.736 OA 
HETATM   10  O   UNL     1     -12.089  12.733  62.758  1.00  0.00     0.015 OA 
BRANCH   8  11
HETATM   11  C   UNL     1     -10.537  12.892  64.861  1.00  0.00    -0.323 C  
HETATM   12  C   UNL     1      -9.544  12.193  63.935  1.00  0.00    -0.014 C  
HETATM   13  C   UNL     1      -8.911  11.103  64.744  1.00  0.00     0.046 C  
HETATM   14  N   UNL     1      -9.902  10.737  65.746  1.00  0.00    -0.227 N  
HETATM   15  C   UNL     1     -10.745  12.092  66.183  1.00  0.00    -0.275 C  
HETATM   16  C   UNL     1     -10.322  13.369  67.326  1.00  0.00    -0.244 C  
HETATM   17  O   UNL     1     -11.084  13.652  68.464  1.00  0.00    -0.251 OA 
HETATM   18  O   UNL     1      -9.348  14.090  67.057  1.00  0.00    -0.230 OA 
HETATM   19  C   UNL     1     -10.850  14.687  69.704  1.00  0.00    -0.186 C  
HETATM   20  C   UNL     1      -9.516  14.661  70.680  1.00  0.00     1.854 C  
HETATM   21  C   UNL     1     -11.625  16.074  69.860  1.00  0.00    -0.301 C  
HETATM   22  C   UNL     1     -11.749  17.023  68.682  1.00  0.00     0.781 C  
HETATM   23  C   UNL     1     -12.998  15.955  70.566  1.00  0.00     0.170 C  
HETATM   24  C   UNL     1      -9.459  15.567  71.927  1.00  0.00     4.611 C  
HETATM   25  C   UNL     1      -8.090  14.680  70.180  1.00  0.00     0.778 C  
HETATM   26  C   UNL     1      -7.670  14.948  68.943  1.00  0.00    -0.148 C  
HETATM   27  C   UNL     1      -6.856  13.857  68.309  1.00  0.00    -0.108 C  
HETATM   28  O   UNL     1      -5.981  14.094  67.515  1.00  0.00    -0.337 OA 
HETATM   29  N   UNL     1      -7.337  12.558  68.517  1.00  0.00    -0.112 N  
HETATM   30  C   UNL     1      -8.305  12.084  69.528  1.00  0.00     1.178 C  
HETATM   31  H   UNL     1      -6.969  11.844  67.887  1.00  0.00     0.000 HD 
HETATM   32  C   UNL     1      -8.781  10.754  69.244  1.00  0.00    -0.044 C  
HETATM   33  C   UNL     1      -9.619   9.848  69.724  1.00  0.00    -0.261 C  
HETATM   34  C   UNL     1      -9.592   8.507  69.166  1.00  0.00    -0.167 C  
HETATM   35  C   UNL     1      -8.632   8.048  68.334  1.00  0.00    -0.127 C  
HETATM   36  C   UNL     1     -10.643   7.525  69.636  1.00  0.00    -0.243 C  
HETATM   37  C   UNL     1      -7.456   8.672  67.586  1.00  0.00    -0.090 C  
HETATM   38  C   UNL     1      -6.059   8.248  67.801  1.00  0.00    -0.048 C  
HETATM   39  O   UNL     1      -7.515   9.901  66.888  1.00  0.00    -0.091 OA 
HETATM   40  H   UNL     1      -6.784  10.290  66.423  1.00  0.00     0.000 HD 
HETATM   41  C   UNL     1      -5.976   6.781  67.420  1.00  0.00    -0.021 C  
HETATM   42  O   UNL     1      -5.224   6.087  68.123  1.00  0.00    -0.003 OA 
HETATM   43  C   UNL     1      -6.694   6.115  66.171  1.00  0.00    -0.056 C  
HETATM   44  C   UNL     1      -7.971   6.706  65.409  1.00  0.00    -0.121 A  
HETATM   45  N   UNL     1      -8.271   7.946  64.974  1.00  0.00    -0.143 NA 
HETATM   46  C   UNL     1      -9.668   8.116  65.207  1.00  0.00     1.094 A  
HETATM   47  C   UNL     1     -10.160   6.823  65.358  1.00  0.00     1.885 A  
HETATM   48  C   UNL     1     -10.513   9.408  65.524  1.00  0.00     0.827 C  
HETATM   49  O   UNL     1      -9.112   5.943  65.535  1.00  0.00    -0.109 OA 
HETATM   50  O   UNL     1     -11.724   9.285  65.718  1.00  0.00     3.978 OA 
ENDBRANCH   8  11
ENDBRANCH   7   8
ENDBRANCH   6   7
ENDBRANCH   3   6
ENDBRANCH   2   3
TORSDOF 6
ENDMDL
MODEL       57
REMARK 921   NORMALIZED FREE ENERGY PREDICTED BY IDOCK:   28.25 KCAL/MOL
REMARK 922        TOTAL FREE ENERGY PREDICTED BY IDOCK:   37.01 KCAL/MOL
REMARK 923 INTER-LIGAND FREE ENERGY PREDICTED BY IDOCK:   28.73 KCAL/MOL
REMARK 924 INTRA-LIGAND FREE ENERGY PREDICTED BY IDOCK:    8.29 KCAL/MOL
REMARK 927      BINDING AFFINITY PREDICTED BY RF-SCORE:    0.00 PKD
ROOT
HETATM    1  C   UNL     1      -7.728  12.443  64.724  1.00  0.00     4.538 C  
HETATM    2  C   UNL     1      -8.837  11.442  64.377  1.00  0.00     0.308 C  
ENDROOT
BRANCH   2   3
HETATM    3  N   UNL     1      -8.539  10.592  63.217  1.00  0.00    -0.178 NA 
BRANCH   3   4
HETATM    4  C   UNL     1      -7.881   9.317  63.581  1.00  0.00    -0.130 C  
HETATM    5  C   UNL     1      -7.971   8.198  62.548  1.00  0.00    -0.158 C  
ENDBRANCH   3   4
BRANCH   3   6
HETATM    6  C   UNL     1      -9.731  10.452  62.349  1.00  0.00    -0.027 C  
BRANCH   6   7
HETATM    7  C   UNL     1     -10.947  10.250  63.221  1.00  0.00     2.190 C  
BRANCH   7   8
HETATM    8  S   UNL     1     -11.619  11.673  64.063  1.00  0.00    -0.201 S  
HETATM    9  O   UNL     1     -11.236  12.864  63.281  1.00  0.00    -0.333 OA 
HETATM   10  O   UNL     1     -12.982  11.409  64.433  1.00  0.00     0.313 OA 
BRANCH   8  11
HETATM   11  C   UNL     1     -10.589  11.605  65.479  1.00  0.00    -0.279 C  
HETATM   12  C   UNL     1      -9.921  10.242  65.639  1.00  0.00    -0.347 C  
HETATM   13  C   UNL     1      -9.841   9.982  67.111  1.00  0.00    -0.185 C  
HETATM   14  N   UNL     1     -10.952  10.720  67.696  1.00  0.00    -0.285 N  
HETATM   15  C   UNL     1     -11.186  12.109  66.829  1.00  0.00    -0.322 C  
HETATM   16  C   UNL     1     -10.343  13.657  66.920  1.00  0.00    -0.262 C  
HETATM   17  O   UNL     1     -10.986  14.853  67.253  1.00  0.00    -0.305 OA 
HETATM   18  O   UNL     1      -9.144  13.686  66.599  1.00  0.00    -0.238 OA 
HETATM   19  C   UNL     1     -10.420  16.363  67.504  1.00  0.00    -0.304 C  
HETATM   20  C   UNL     1      -9.275  16.737  68.637  1.00  0.00    -0.257 C  
HETATM   21  C   UNL     1     -10.562  17.551  66.447  1.00  0.00    -0.195 C  
HETATM   22  C   UNL     1     -10.215  17.327  64.987  1.00  0.00     0.831 C  
HETATM   23  C   UNL     1     -11.902  18.323  66.541  1.00  0.00     2.862 C  
HETATM   24  C   UNL     1      -8.924  18.212  68.917  1.00  0.00    -0.140 C  
HETATM   25  C   UNL     1      -7.942  16.038  68.767  1.00  0.00    -0.196 C  
HETATM   26  C   UNL     1      -7.376  15.205  67.893  1.00  0.00    -0.152 C  
HETATM   27  C   UNL     1      -7.049  13.847  68.445  1.00  0.00    -0.104 C  
HETATM   28  O   UNL     1      -6.108  13.207  68.048  1.00  0.00    -0.089 OA 
HETATM   29  N   UNL     1      -8.033  13.285  69.269  1.00  0.00    -0.173 N  
HETATM   30  C   UNL     1      -9.168  13.955  69.937  1.00  0.00     1.762 C  
HETATM   31  H   UNL     1      -7.956  12.280  69.428  1.00  0.00     0.000 HD 
HETATM   32  C   UNL     1     -10.132  13.013  70.446  1.00  0.00     3.716 C  
HETATM   33  C   UNL     1     -11.296  12.987  71.078  1.00  0.00     1.793 C  
HETATM   34  C   UNL     1     -11.791  11.717  71.578  1.00  0.00     1.129 C  
HETATM   35  C   UNL     1     -11.059  10.584  71.635  1.00  0.00     1.516 C  
HETATM   36  C   UNL     1     -13.179  11.687  72.181  1.00  0.00    -0.327 C  
HETATM   37  C   UNL     1      -9.688  10.152  71.118  1.00  0.00     1.476 C  
HETATM   38  C   UNL     1      -8.604   9.699  72.013  1.00  0.00     2.010 C  
HETATM   39  O   UNL     1      -9.194  10.441  69.825  1.00  0.00    -0.393 OA 
HETATM   40  H   UNL     1      -8.341  10.173  69.503  1.00  0.00     0.000 HD 
HETATM   41  C   UNL     1      -9.111   8.463  72.734  1.00  0.00    -0.229 C  
HETATM   42  O   UNL     1      -8.755   8.351  73.918  1.00  0.00    -0.209 OA 
HETATM   43  C   UNL     1      -9.965   7.300  72.074  1.00  0.00    -0.184 C  
HETATM   44  C   UNL     1     -10.838   7.430  70.738  1.00  0.00    -0.241 A  
HETATM   45  N   UNL     1     -10.574   7.978  69.535  1.00  0.00    -0.227 NA 
HETATM   46  C   UNL     1     -11.788   8.596  69.111  1.00  0.00     1.476 A  
HETATM   47  C   UNL     1     -12.776   7.998  69.887  1.00  0.00     1.967 A  
HETATM   48  C   UNL     1     -12.042   9.857  68.202  1.00  0.00     2.225 C  
HETATM   49  O   UNL     1     -12.196   7.311  70.933  1.00  0.00    -0.320 OA 
HETATM   50  O   UNL     1     -13.206  10.214  68.003  1.00  0.00     5.605 OA 
ENDBRANCH   8  11
ENDBRANCH   7   8
ENDBRANCH   6   7
ENDBRANCH   3   6
ENDBRANCH   2   3
TORSDOF 6
ENDMDL
MODEL       58
REMARK 921   NORMALIZED FREE ENERGY PREDICTED BY IDOCK:   29.15 KCAL/MOL
REMARK 922        TOTAL FREE ENERGY PREDICTED BY IDOCK:   38.23 KCAL/MOL
REMARK 923 INTER-LIGAND FREE ENERGY PREDICTED BY IDOCK:   33.02 KCAL/MOL
REMARK 924 INTRA-LIGAND FREE ENERGY PREDICTED BY IDOCK:    5.21 KCAL/MOL
REMARK 927      BINDING AFFINITY PREDICTED BY RF-SCORE:    0.00 PKD
ROOT
HETATM    1  C   UNL     1     -11.932  15.821  64.163  1.00  0.00     0.012 C  
HETATM    2  C   UNL     1     -10.733  15.262  64.938  1.00  0.00    -0.400 C  
ENDROOT
BRANCH   2   3
HETATM    3  N   UNL     1      -9.921  16.285  65.612  1.00  0.00    -0.506 NA 
BRANCH   3   4
HETATM    4  C   UNL     1     -10.724  17.400  66.158  1.00  0.00    -0.100 C  
HETATM    5  C   UNL     1     -10.853  18.633  65.268  1.00  0.00     0.553 C  
ENDBRANCH   3   4
BRANCH   3   6
HETATM    6  C   UNL     1      -8.985  15.660  66.575  1.00  0.00    -0.308 C  
BRANCH   6   7
HETATM    7  C   UNL     1      -7.618  16.277  66.393  1.00  0.00    -0.096 C  
BRANCH   7   8
HETATM    8  S   UNL     1      -6.215  15.424  67.095  1.00  0.00     0.510 S  
HETATM    9  O   UNL     1      -5.262  15.177  65.997  1.00  0.00     3.324 OA 
HETATM   10  O   UNL     1      -5.824  16.074  68.315  1.00  0.00    -0.101 OA 
BRANCH   8  11
HETATM   11  C   UNL     1      -7.026  13.913  67.454  1.00  0.00    -0.043 C  
HETATM   12  C   UNL     1      -6.082  12.717  67.355  1.00  0.00    -0.142 C  
HETATM   13  C   UNL     1      -6.898  11.581  66.819  1.00  0.00    -0.114 C  
HETATM   14  N   UNL     1      -7.950  12.200  66.025  1.00  0.00     0.568 N  
HETATM   15  C   UNL     1      -8.379  13.633  66.732  1.00  0.00     0.114 C  
HETATM   16  C   UNL     1      -9.464  13.946  68.089  1.00  0.00    -0.207 C  
HETATM   17  O   UNL     1     -10.623  14.720  67.971  1.00  0.00    -0.240 OA 
HETATM   18  O   UNL     1      -9.134  13.520  69.207  1.00  0.00     0.433 OA 
HETATM   19  C   UNL     1     -11.820  15.060  69.027  1.00  0.00    -0.300 C  
HETATM   20  C   UNL     1     -12.742  13.906  69.770  1.00  0.00     0.055 C  
HETATM   21  C   UNL     1     -11.964  16.458  69.785  1.00  0.00     0.334 C  
HETATM   22  C   UNL     1     -10.763  17.095  70.459  1.00  0.00     0.787 C  
HETATM   23  C   UNL     1     -12.729  17.537  68.978  1.00  0.00     6.560 C  
HETATM   24  C   UNL     1     -13.957  14.325  70.623  1.00  0.00     0.571 C  
HETATM   25  C   UNL     1     -12.183  12.725  70.530  1.00  0.00    -0.389 C  
HETATM   26  C   UNL     1     -10.923  12.537  70.923  1.00  0.00     3.010 C  
HETATM   27  C   UNL     1     -10.290  11.275  70.412  1.00  0.00     1.653 C  
HETATM   28  O   UNL     1      -9.455  10.680  71.045  1.00  0.00     1.796 OA 
HETATM   29  N   UNL     1     -10.558  10.975  69.071  1.00  0.00    -0.216 N  
HETATM   30  C   UNL     1     -11.621  11.516  68.199  1.00  0.00    -0.308 C  
HETATM   31  H   UNL     1      -9.936  10.291  68.638  1.00  0.00     0.000 HD 
HETATM   32  C   UNL     1     -11.398  11.204  66.810  1.00  0.00    -0.119 C  
HETATM   33  C   UNL     1     -11.939  11.412  65.619  1.00  0.00     0.812 C  
HETATM   34  C   UNL     1     -11.422  10.676  64.479  1.00  0.00     1.437 C  
HETATM   35  C   UNL     1     -10.566   9.634  64.570  1.00  0.00     2.314 C  
HETATM   36  C   UNL     1     -11.965  11.021  63.110  1.00  0.00     1.174 C  
HETATM   37  C   UNL     1      -9.752   8.995  65.693  1.00  0.00    -0.108 C  
HETATM   38  C   UNL     1      -9.923   7.586  66.099  1.00  0.00     0.155 C  
HETATM   39  O   UNL     1      -9.019   9.720  66.661  1.00  0.00    -0.140 OA 
HETATM   40  H   UNL     1      -8.513   9.322  67.360  1.00  0.00     0.000 HD 
HETATM   41  C   UNL     1      -9.584   6.731  64.891  1.00  0.00     1.800 C  
HETATM   42  O   UNL     1     -10.277   5.712  64.746  1.00  0.00     1.140 OA 
HETATM   43  C   UNL     1      -8.387   6.998  63.884  1.00  0.00     0.196 C  
HETATM   44  C   UNL     1      -7.659   8.405  63.657  1.00  0.00    -0.132 A  
HETATM   45  N   UNL     1      -7.199   9.335  64.518  1.00  0.00    -0.098 NA 
HETATM   46  C   UNL     1      -7.484  10.598  63.920  1.00  0.00     0.207 A  
HETATM   47  C   UNL     1      -7.694  10.311  62.575  1.00  0.00    -0.144 A  
HETATM   48  C   UNL     1      -7.795  12.000  64.567  1.00  0.00     3.088 C  
HETATM   49  O   UNL     1      -7.855   8.951  62.407  1.00  0.00    -0.118 OA 
HETATM   50  O   UNL     1      -8.041  12.951  63.821  1.00  0.00     4.751 OA 
ENDBRANCH   8  11
ENDBRANCH   7   8
ENDBRANCH   6   7
ENDBRANCH   3   6
ENDBRANCH   2   3
TORSDOF 6
ENDMDL
MODEL       59
REMARK 921   NORMALIZED FREE ENERGY PREDICTED BY IDOCK:   29.32 KCAL/MOL
REMARK 922        TOTAL FREE ENERGY PREDICTED BY IDOCK:   38.46 KCAL/MOL
REMARK 923 INTER-LIGAND FREE ENERGY PREDICTED BY IDOCK:   33.28 KCAL/MOL
REMARK 924 INTRA-LIGAND FREE ENERGY PREDICTED BY IDOCK:    5.18 KCAL/MOL
REMARK 927      BINDING AFFINITY PREDICTED BY RF-SCORE:    0.00 PKD
ROOT
HETATM    1  C   UNL     1     -13.783  14.984  67.028  1.00  0.00     6.190 C  
HETATM    2  C   UNL     1     -12.944  14.213  66.001  1.00  0.00     0.012 C  
ENDROOT
BRANCH   2   3
HETATM    3  N   UNL     1     -11.565  14.699  65.864  1.00  0.00    -0.349 NA 
BRANCH   3   4
HETATM    4  C   UNL     1     -10.824  14.722  67.144  1.00  0.00    -0.311 C  
HETATM    5  C   UNL     1     -11.290  15.753  68.169  1.00  0.00    -0.337 C  
ENDBRANCH   3   4
BRANCH   3   6
HETATM    6  C   UNL     1     -10.871  14.003  64.756  1.00  0.00    -0.419 C  
BRANCH   6   7
HETATM    7  C   UNL     1     -11.344  12.569  64.710  1.00  0.00    -0.313 C  
BRANCH   7   8
HETATM    8  S   UNL     1     -10.215  11.335  64.085  1.00  0.00    -0.367 S  
HETATM    9  O   UNL     1     -11.028  10.185  63.644  1.00  0.00     1.507 OA 
HETATM   10  O   UNL     1      -9.251  11.964  63.225  1.00  0.00    -0.156 OA 
BRANCH   8  11
HETATM   11  C   UNL     1      -9.471  10.914  65.614  1.00  0.00    -0.215 C  
HETATM   12  C   UNL     1      -9.269   9.407  65.759  1.00  0.00    -0.276 C  
HETATM   13  C   UNL     1      -9.487   9.091  67.206  1.00  0.00    -0.149 C  
HETATM   14  N   UNL     1     -10.402  10.113  67.693  1.00  0.00    -0.203 N  
HETATM   15  C   UNL     1     -10.083  11.534  66.907  1.00  0.00    -0.212 C  
HETATM   16  C   UNL     1      -8.841  12.748  67.222  1.00  0.00    -0.198 C  
HETATM   17  O   UNL     1      -9.142  14.072  67.555  1.00  0.00    -0.180 OA 
HETATM   18  O   UNL     1      -7.654  12.420  67.063  1.00  0.00    -0.132 OA 
HETATM   19  C   UNL     1      -8.196  15.330  67.988  1.00  0.00    -0.141 C  
HETATM   20  C   UNL     1      -7.171  15.302  69.286  1.00  0.00    -0.184 C  
HETATM   21  C   UNL     1      -7.822  16.537  67.012  1.00  0.00    -0.241 C  
HETATM   22  C   UNL     1      -7.347  16.263  65.597  1.00  0.00     2.336 C  
HETATM   23  C   UNL     1      -8.871  17.677  66.987  1.00  0.00    -0.256 C  
HETATM   24  C   UNL     1      -6.443  16.591  69.717  1.00  0.00    -0.143 C  
HETATM   25  C   UNL     1      -6.139  14.227  69.537  1.00  0.00    -0.112 C  
HETATM   26  C   UNL     1      -5.725  13.288  68.685  1.00  0.00    -0.079 C  
HETATM   27  C   UNL     1      -5.900  11.879  69.174  1.00  0.00    -0.067 C  
HETATM   28  O   UNL     1      -5.144  10.996  68.856  1.00  0.00    -0.042 OA 
HETATM   29  N   UNL     1      -7.116  11.619  69.818  1.00  0.00    -0.344 N  
HETATM   30  C   UNL     1      -8.087  12.582  70.380  1.00  0.00     4.697 C  
HETATM   31  H   UNL     1      -7.365  10.634  69.912  1.00  0.00     0.000 HD 
HETATM   32  C   UNL     1      -9.351  11.963  70.688  1.00  0.00     6.403 C  
HETATM   33  C   UNL     1     -10.549  12.273  71.159  1.00  0.00     5.641 C  
HETATM   34  C   UNL     1     -11.467  11.199  71.495  1.00  0.00     1.550 C  
HETATM   35  C   UNL     1     -11.121   9.895  71.564  1.00  0.00    -0.068 C  
HETATM   36  C   UNL     1     -12.874  11.574  71.908  1.00  0.00    -0.372 C  
HETATM   37  C   UNL     1      -9.879   9.082  71.200  1.00  0.00    -0.300 C  
HETATM   38  C   UNL     1      -9.123   8.294  72.193  1.00  0.00    -0.279 C  
HETATM   39  O   UNL     1      -9.138   9.247  70.007  1.00  0.00    -0.175 OA 
HETATM   40  H   UNL     1      -8.366   8.742  69.780  1.00  0.00     0.000 HD 
HETATM   41  C   UNL     1     -10.074   7.250  72.749  1.00  0.00    -0.210 C  
HETATM   42  O   UNL     1      -9.945   6.998  73.957  1.00  0.00    -0.302 OA 
HETATM   43  C   UNL     1     -11.128   6.423  71.899  1.00  0.00    -0.311 C  
HETATM   44  C   UNL     1     -11.717   6.853  70.474  1.00  0.00    -0.350 A  
HETATM   45  N   UNL     1     -11.129   7.331  69.359  1.00  0.00    -0.129 NA 
HETATM   46  C   UNL     1     -12.029   8.302  68.827  1.00  0.00     2.464 A  
HETATM   47  C   UNL     1     -13.252   8.010  69.421  1.00  0.00     5.500 A  
HETATM   48  C   UNL     1     -11.761   9.608  67.988  1.00  0.00     1.313 C  
HETATM   49  O   UNL     1     -13.063   7.147  70.481  1.00  0.00     0.062 OA 
HETATM   50  O   UNL     1     -12.724  10.308  67.666  1.00  0.00     3.527 OA 
ENDBRANCH   8  11
ENDBRANCH   7   8
ENDBRANCH   6   7
ENDBRANCH   3   6
ENDBRANCH   2   3
TORSDOF 6
ENDMDL
MODEL       60
REMARK 921   NORMALIZED FREE ENERGY PREDICTED BY IDOCK:   30.49 KCAL/MOL
REMARK 922        TOTAL FREE ENERGY PREDICTED BY IDOCK:   40.03 KCAL/MOL
REMARK 923 INTER-LIGAND FREE ENERGY PREDICTED BY IDOCK:   40.27 KCAL/MOL
REMARK 924 INTRA-LIGAND FREE ENERGY PREDICTED BY IDOCK:   -0.23 KCAL/MOL
REMARK 927      BINDING AFFINITY PREDICTED BY RF-SCORE:    0.00 PKD
ROOT
HETATM    1  C   UNL     1     -13.894   5.266  73.022  1.00  0.00     2.573 C  
HETATM    2  C   UNL     1     -13.652   5.398  71.513  1.00  0.00     3.839 C  
ENDROOT
BRANCH   2   3
HETATM    3  N   UNL     1     -12.338   4.913  71.070  1.00  0.00     4.365 NA 
BRANCH   3   4
HETATM    4  C   UNL     1     -12.076   5.168  69.636  1.00  0.00     6.095 C  
HETATM    5  C   UNL     1     -10.609   5.180  69.215  1.00  0.00    -0.089 C  
ENDBRANCH   3   4
BRANCH   3   6
HETATM    6  C   UNL     1     -11.272   5.373  71.990  1.00  0.00    -0.089 C  
BRANCH   6   7
HETATM    7  C   UNL     1     -11.013   6.840  71.741  1.00  0.00    -0.235 C  
BRANCH   7   8
HETATM    8  S   UNL     1     -10.275   7.795  73.056  1.00  0.00    -0.331 S  
HETATM    9  O   UNL     1     -11.378   8.413  73.817  1.00  0.00     1.169 OA 
HETATM   10  O   UNL     1      -9.251   7.015  73.694  1.00  0.00    -0.149 OA 
BRANCH   8  11
HETATM   11  C   UNL     1      -9.549   9.036  72.056  1.00  0.00    -0.050 C  
HETATM   12  C   UNL     1      -9.570  10.405  72.732  1.00  0.00     9.871 C  
HETATM   13  C   UNL     1      -9.782  11.409  71.641  1.00  0.00    10.719 C  
HETATM   14  N   UNL     1     -10.515  10.704  70.600  1.00  0.00     0.492 N  
HETATM   15  C   UNL     1     -10.015   9.127  70.570  1.00  0.00    -0.235 C  
HETATM   16  C   UNL     1      -8.595   8.404  69.811  1.00  0.00    -0.132 C  
HETATM   17  O   UNL     1      -8.682   7.429  68.812  1.00  0.00    -0.129 OA 
HETATM   18  O   UNL     1      -7.477   8.726  70.245  1.00  0.00    -0.057 OA 
HETATM   19  C   UNL     1      -7.543   6.699  67.898  1.00  0.00    -0.107 C  
HETATM   20  C   UNL     1      -6.489   7.517  66.921  1.00  0.00    -0.056 C  
HETATM   21  C   UNL     1      -7.028   5.208  68.146  1.00  0.00    -0.061 C  
HETATM   22  C   UNL     1      -6.649   4.747  69.541  1.00  0.00    -0.036 C  
HETATM   23  C   UNL     1      -7.894   4.119  67.465  1.00  0.00    -0.091 C  
HETATM   24  C   UNL     1      -5.560   6.736  65.969  1.00  0.00    -0.025 C  
HETATM   25  C   UNL     1      -5.621   8.668  67.375  1.00  0.00    -0.039 C  
HETATM   26  C   UNL     1      -5.383   9.057  68.628  1.00  0.00    -0.034 C  
HETATM   27  C   UNL     1      -5.750  10.484  68.921  1.00  0.00    -0.040 C  
HETATM   28  O   UNL     1      -5.147  11.144  69.728  1.00  0.00    -0.041 OA 
HETATM   29  N   UNL     1      -6.968  10.910  68.375  1.00  0.00    -0.068 N  
HETATM   30  C   UNL     1      -7.763  10.287  67.296  1.00  0.00    -0.095 C  
HETATM   31  H   UNL     1      -7.358  11.763  68.777  1.00  0.00     0.000 HD 
HETATM   32  C   UNL     1      -9.093  10.834  67.216  1.00  0.00    -0.151 C  
HETATM   33  C   UNL     1     -10.214  10.689  66.526  1.00  0.00    -0.288 C  
HETATM   34  C   UNL     1     -11.270  11.672  66.694  1.00  0.00    -0.362 C  
HETATM   35  C   UNL     1     -11.121  12.845  67.346  1.00  0.00    -0.307 C  
HETATM   36  C   UNL     1     -12.589  11.419  65.997  1.00  0.00     3.246 C  
HETATM   37  C   UNL     1     -10.029  13.474  68.209  1.00  0.00    -0.237 C  
HETATM   38  C   UNL     1      -9.364  14.744  67.855  1.00  0.00    -0.193 C  
HETATM   39  O   UNL     1      -9.314  12.789  69.219  1.00  0.00    -0.037 OA 
HETATM   40  H   UNL     1      -8.635  13.180  69.756  1.00  0.00     0.000 HD 
HETATM   41  C   UNL     1     -10.441  15.814  67.818  1.00  0.00    -0.283 C  
HETATM   42  O   UNL     1     -10.308  16.676  66.935  1.00  0.00    -0.297 OA 
HETATM   43  C   UNL     1     -11.636  15.949  68.852  1.00  0.00    -0.392 C  
HETATM   44  C   UNL     1     -12.205  14.772  69.777  1.00  0.00    -0.294 A  
HETATM   45  N   UNL     1     -11.591  13.847  70.541  1.00  0.00    -0.144 NA 
HETATM   46  C   UNL     1     -12.354  12.650  70.395  1.00  0.00    -0.237 A  
HETATM   47  C   UNL     1     -13.586  13.075  69.908  1.00  0.00     2.693 A  
HETATM   48  C   UNL     1     -11.923  11.136  70.463  1.00  0.00    -0.380 C  
HETATM   49  O   UNL     1     -13.490  14.381  69.473  1.00  0.00     1.229 OA 
HETATM   50  O   UNL     1     -12.781  10.271  70.271  1.00  0.00    -0.236 OA 
ENDBRANCH   8  11
ENDBRANCH   7   8
ENDBRANCH   6   7
ENDBRANCH   3   6
ENDBRANCH   2   3
TORSDOF 6
ENDMDL
MODEL       61
REMARK 921   NORMALIZED FREE ENERGY PREDICTED BY IDOCK:   31.62 KCAL/MOL
REMARK 922        TOTAL FREE ENERGY PREDICTED BY IDOCK:   41.57 KCAL/MOL
REMARK 923 INTER-LIGAND FREE ENERGY PREDICTED BY IDOCK:    8.80 KCAL/MOL
REMARK 924 INTRA-LIGAND FREE ENERGY PREDICTED BY IDOCK:   32.77 KCAL/MOL
REMARK 927      BINDING AFFINITY PREDICTED BY RF-SCORE:    0.00 PKD
ROOT
HETATM    1  C   UNL     1      -8.455  12.597  66.642  1.00  0.00     0.021 C  
HETATM    2  C   UNL     1      -9.432  13.756  66.877  1.00  0.00    -0.262 C  
ENDROOT
BRANCH   2   3
HETATM    3  N   UNL     1      -8.906  15.073  66.496  1.00  0.00    -0.273 NA 
BRANCH   3   4
HETATM    4  C   UNL     1      -9.910  15.932  65.830  1.00  0.00    -0.351 C  
HETATM    5  C   UNL     1      -9.905  17.404  66.232  1.00  0.00    -0.291 C  
ENDBRANCH   3   4
BRANCH   3   6
HETATM    6  C   UNL     1      -8.201  15.706  67.634  1.00  0.00    -0.150 C  
BRANCH   6   7
HETATM    7  C   UNL     1      -8.739  15.129  68.922  1.00  0.00    -0.205 C  
BRANCH   7   8
HETATM    8  S   UNL     1     -10.115  13.996  68.820  1.00  0.00    -0.129 S  
HETATM    9  O   UNL     1     -10.832  14.065  70.108  1.00  0.00     0.143 OA 
HETATM   10  O   UNL     1     -10.786  14.173  67.562  1.00  0.00    -0.269 OA 
BRANCH   8  11
HETATM   11  C   UNL     1      -9.185  12.512  68.801  1.00  0.00     0.152 C  
HETATM   12  C   UNL     1      -7.793  12.712  68.204  1.00  0.00    -0.145 C  
HETATM   13  C   UNL     1      -7.469  11.454  67.460  1.00  0.00    -0.113 C  
HETATM   14  N   UNL     1      -8.753  10.902  67.053  1.00  0.00    -0.139 N  
HETATM   15  C   UNL     1      -9.874  11.237  68.223  1.00  0.00    -0.197 C  
HETATM   16  C   UNL     1     -10.203  10.410  69.747  1.00  0.00    -0.184 C  
HETATM   17  O   UNL     1     -11.436   9.817  70.038  1.00  0.00    -0.237 OA 
HETATM   18  O   UNL     1      -9.320  10.428  70.620  1.00  0.00     0.550 OA 
HETATM   19  C   UNL     1     -11.942   8.920  71.304  1.00  0.00    -0.307 C  
HETATM   20  C   UNL     1     -11.223   7.507  71.773  1.00  0.00    -0.281 C  
HETATM   21  C   UNL     1     -12.877   9.481  72.471  1.00  0.00    -0.250 C  
HETATM   22  C   UNL     1     -12.565  10.808  73.136  1.00  0.00     4.921 C  
HETATM   23  C   UNL     1     -14.392   9.411  72.155  1.00  0.00    -0.082 C  
HETATM   24  C   UNL     1     -11.872   6.644  72.874  1.00  0.00     0.201 C  
HETATM   25  C   UNL     1      -9.745   7.349  72.042  1.00  0.00    -0.182 C  
HETATM   26  C   UNL     1      -8.838   8.318  72.177  1.00  0.00    -0.265 C  
HETATM   27  C   UNL     1      -7.687   8.236  71.216  1.00  0.00    -0.099 C  
HETATM   28  O   UNL     1      -6.584   8.621  71.510  1.00  0.00    -0.063 OA 
HETATM   29  N   UNL     1      -8.033   7.909  69.899  1.00  0.00    -0.107 N  
HETATM   30  C   UNL     1      -9.287   7.310  69.396  1.00  0.00    -0.151 C  
HETATM   31  H   UNL     1      -7.324   8.110  69.193  1.00  0.00     0.000 HD 
HETATM   32  C   UNL     1      -9.396   7.401  67.962  1.00  0.00    -0.136 C  
HETATM   33  C   UNL     1     -10.233   7.094  66.983  1.00  0.00    -0.339 C  
HETATM   34  C   UNL     1      -9.773   7.208  65.610  1.00  0.00     0.709 C  
HETATM   35  C   UNL     1      -8.485   7.405  65.252  1.00  0.00    -0.066 C  
HETATM   36  C   UNL     1     -10.781   6.977  64.505  1.00  0.00     8.606 C  
HETATM   37  C   UNL     1      -7.191   7.728  65.995  1.00  0.00    -0.073 C  
HETATM   38  C   UNL     1      -6.010   6.843  65.963  1.00  0.00    -0.035 C  
HETATM   39  O   UNL     1      -7.081   8.688  67.029  1.00  0.00    -0.073 OA 
HETATM   40  H   UNL     1      -6.277   8.889  67.492  1.00  0.00     0.000 HD 
HETATM   41  C   UNL     1      -5.567   6.747  64.514  1.00  0.00    -0.031 C  
HETATM   42  O   UNL     1      -5.142   5.637  64.157  1.00  0.00    -0.009 OA 
HETATM   43  C   UNL     1      -5.529   7.953  63.484  1.00  0.00    -0.053 C  
HETATM   44  C   UNL     1      -6.372   9.308  63.607  1.00  0.00    -0.091 A  
HETATM   45  N   UNL     1      -6.597  10.143  64.641  1.00  0.00    -0.132 NA 
HETATM   46  C   UNL     1      -7.952  10.570  64.511  1.00  0.00    -0.023 A  
HETATM   47  C   UNL     1      -8.281  10.300  63.187  1.00  0.00    -0.163 A  
HETATM   48  C   UNL     1      -9.010  10.994  65.599  1.00  0.00    -0.199 C  
HETATM   49  O   UNL     1      -7.328   9.473  62.629  1.00  0.00    -0.103 OA 
HETATM   50  O   UNL     1     -10.145  11.301  65.227  1.00  0.00    -0.240 OA 
ENDBRANCH   8  11
ENDBRANCH   7   8
ENDBRANCH   6   7
ENDBRANCH   3   6
ENDBRANCH   2   3
TORSDOF 6
ENDMDL
MODEL       62
REMARK 921   NORMALIZED FREE ENERGY PREDICTED BY IDOCK:   32.11 KCAL/MOL
REMARK 922        TOTAL FREE ENERGY PREDICTED BY IDOCK:   42.23 KCAL/MOL
REMARK 923 INTER-LIGAND FREE ENERGY PREDICTED BY IDOCK:   33.68 KCAL/MOL
REMARK 924 INTRA-LIGAND FREE ENERGY PREDICTED BY IDOCK:    8.54 KCAL/MOL
REMARK 927      BINDING AFFINITY PREDICTED BY RF-SCORE:    0.00 PKD
ROOT
HETATM    1  C   UNL     1     -11.969  15.853  64.133  1.00  0.00     0.090 C  
HETATM    2  C   UNL     1     -10.713  15.446  64.913  1.00  0.00    -0.393 C  
ENDROOT
BRANCH   2   3
HETATM    3  N   UNL     1      -9.940  16.578  65.441  1.00  0.00    -0.545 NA 
BRANCH   3   4
HETATM    4  C   UNL     1     -10.787  17.704  65.891  1.00  0.00     0.027 C  
HETATM    5  C   UNL     1     -10.880  18.894  64.939  1.00  0.00     1.726 C  
ENDBRANCH   3   4
BRANCH   3   6
HETATM    6  C   UNL     1      -8.942  16.114  66.433  1.00  0.00    -0.318 C  
BRANCH   6   7
HETATM    7  C   UNL     1      -7.600  16.716  66.091  1.00  0.00    -0.055 C  
BRANCH   7   8
HETATM    8  S   UNL     1      -6.275  16.534  67.274  1.00  0.00    -0.179 S  
HETATM    9  O   UNL     1      -5.179  15.818  66.594  1.00  0.00     0.150 OA 
HETATM   10  O   UNL     1      -6.066  17.783  67.952  1.00  0.00    -0.154 OA 
BRANCH   8  11
HETATM   11  C   UNL     1      -7.079  15.399  68.340  1.00  0.00    -0.111 C  
HETATM   12  C   UNL     1      -6.092  14.460  69.031  1.00  0.00    -0.091 C  
HETATM   13  C   UNL     1      -6.783  13.138  69.150  1.00  0.00    -0.089 C  
HETATM   14  N   UNL     1      -7.730  13.093  68.045  1.00  0.00    -0.131 N  
HETATM   15  C   UNL     1      -8.304  14.620  67.772  1.00  0.00    -0.162 C  
HETATM   16  C   UNL     1      -9.583  15.514  68.596  1.00  0.00    -0.203 C  
HETATM   17  O   UNL     1     -10.737  15.961  67.946  1.00  0.00    -0.294 OA 
HETATM   18  O   UNL     1      -9.403  15.820  69.786  1.00  0.00    -0.241 OA 
HETATM   19  C   UNL     1     -12.084  16.698  68.499  1.00  0.00     0.930 C  
HETATM   20  C   UNL     1     -13.065  16.060  69.667  1.00  0.00     1.419 C  
HETATM   21  C   UNL     1     -12.383  18.256  68.315  1.00  0.00     5.020 C  
HETATM   22  C   UNL     1     -11.313  19.286  68.628  1.00  0.00     1.815 C  
HETATM   23  C   UNL     1     -13.059  18.615  66.968  1.00  0.00     8.342 C  
HETATM   24  C   UNL     1     -14.404  16.747  70.006  1.00  0.00     8.172 C  
HETATM   25  C   UNL     1     -12.584  15.568  71.012  1.00  0.00    -0.513 C  
HETATM   26  C   UNL     1     -11.387  15.769  71.567  1.00  0.00    -0.424 C  
HETATM   27  C   UNL     1     -10.646  14.513  71.925  1.00  0.00     2.465 C  
HETATM   28  O   UNL     1      -9.891  14.465  72.864  1.00  0.00     4.841 OA 
HETATM   29  N   UNL     1     -10.707  13.491  70.969  1.00  0.00     2.223 N  
HETATM   30  C   UNL     1     -11.652  13.338  69.843  1.00  0.00    -0.190 C  
HETATM   31  H   UNL     1     -10.007  12.755  71.064  1.00  0.00     0.000 HD 
HETATM   32  C   UNL     1     -11.220  12.334  68.904  1.00  0.00    -0.323 C  
HETATM   33  C   UNL     1     -11.590  11.785  67.757  1.00  0.00    -0.374 C  
HETATM   34  C   UNL     1     -10.890  10.601  67.292  1.00  0.00    -0.345 C  
HETATM   35  C   UNL     1     -10.023   9.885  68.040  1.00  0.00    -0.179 C  
HETATM   36  C   UNL     1     -11.241  10.066  65.920  1.00  0.00     1.144 C  
HETATM   37  C   UNL     1      -9.358  10.070  69.403  1.00  0.00    -0.223 C  
HETATM   38  C   UNL     1      -9.539   9.116  70.514  1.00  0.00    -0.293 C  
HETATM   39  O   UNL     1      -8.797  11.285  69.860  1.00  0.00     0.321 OA 
HETATM   40  H   UNL     1      -8.384  11.401  70.708  1.00  0.00     0.000 HD 
HETATM   41  C   UNL     1      -9.002   7.777  70.042  1.00  0.00    -0.142 C  
HETATM   42  O   UNL     1      -9.632   6.780  70.429  1.00  0.00    -0.169 OA 
HETATM   43  C   UNL     1      -7.682   7.568  69.187  1.00  0.00    -0.113 C  
HETATM   44  C   UNL     1      -6.975   8.681  68.279  1.00  0.00    -0.073 A  
HETATM   45  N   UNL     1      -6.675   9.975  68.505  1.00  0.00    -0.054 NA 
HETATM   46  C   UNL     1      -6.912  10.654  67.273  1.00  0.00    -0.084 A  
HETATM   47  C   UNL     1      -6.916   9.648  66.312  1.00  0.00    -0.092 A  
HETATM   48  C   UNL     1      -7.359  12.136  66.980  1.00  0.00    -0.072 C  
HETATM   49  O   UNL     1      -7.007   8.416  66.927  1.00  0.00    -0.071 OA 
HETATM   50  O   UNL     1      -7.527  12.478  65.806  1.00  0.00     1.699 OA 
ENDBRANCH   8  11
ENDBRANCH   7   8
ENDBRANCH   6   7
ENDBRANCH   3   6
ENDBRANCH   2   3
TORSDOF 6
ENDMDL
MODEL       63
REMARK 921   NORMALIZED FREE ENERGY PREDICTED BY IDOCK:   33.27 KCAL/MOL
REMARK 922        TOTAL FREE ENERGY PREDICTED BY IDOCK:   43.79 KCAL/MOL
REMARK 923 INTER-LIGAND FREE ENERGY PREDICTED BY IDOCK:   35.12 KCAL/MOL
REMARK 924 INTRA-LIGAND FREE ENERGY PREDICTED BY IDOCK:    8.67 KCAL/MOL
REMARK 927      BINDING AFFINITY PREDICTED BY RF-SCORE:    0.00 PKD
ROOT
HETATM    1  C   UNL     1     -11.766  13.002  69.760  1.00  0.00    -0.346 C  
HETATM    2  C   UNL     1     -10.890  13.152  71.009  1.00  0.00     3.593 C  
ENDROOT
BRANCH   2   3
HETATM    3  N   UNL     1      -9.708  14.003  70.818  1.00  0.00     3.188 NA 
BRANCH   3   4
HETATM    4  C   UNL     1      -9.813  15.310  71.502  1.00  0.00     2.357 C  
HETATM    5  C   UNL     1     -11.167  15.631  72.129  1.00  0.00    -0.215 C  
ENDBRANCH   3   4
BRANCH   3   6
HETATM    6  C   UNL     1      -8.466  13.248  71.103  1.00  0.00     9.567 C  
BRANCH   6   7
HETATM    7  C   UNL     1      -7.300  14.208  71.098  1.00  0.00     2.543 C  
BRANCH   7   8
HETATM    8  S   UNL     1      -5.907  13.827  70.048  1.00  0.00    -0.147 S  
HETATM    9  O   UNL     1      -5.310  15.111  69.634  1.00  0.00    -0.091 OA 
HETATM   10  O   UNL     1      -5.128  12.782  70.651  1.00  0.00    -0.096 OA 
BRANCH   8  11
HETATM   11  C   UNL     1      -6.814  13.193  68.690  1.00  0.00    -0.099 C  
HETATM   12  C   UNL     1      -6.535  13.964  67.402  1.00  0.00     0.082 C  
HETATM   13  C   UNL     1      -7.825  13.993  66.641  1.00  0.00     0.773 C  
HETATM   14  N   UNL     1      -8.872  13.910  67.649  1.00  0.00    -0.180 N  
HETATM   15  C   UNL     1      -8.342  12.955  68.892  1.00  0.00     0.280 C  
HETATM   16  C   UNL     1      -8.311  11.196  69.036  1.00  0.00    -0.049 C  
HETATM   17  O   UNL     1      -9.012  10.503  70.028  1.00  0.00     0.138 OA 
HETATM   18  O   UNL     1      -7.572  10.563  68.265  1.00  0.00    -0.091 OA 
HETATM   19  C   UNL     1      -9.225   8.908  70.300  1.00  0.00    -0.185 C  
HETATM   20  C   UNL     1      -9.887   7.870  69.196  1.00  0.00    -0.174 C  
HETATM   21  C   UNL     1      -8.461   8.092  71.440  1.00  0.00    -0.154 C  
HETATM   22  C   UNL     1      -6.961   8.240  71.617  1.00  0.00    -0.079 C  
HETATM   23  C   UNL     1      -9.147   8.151  72.828  1.00  0.00    -0.328 C  
HETATM   24  C   UNL     1     -10.203   6.416  69.602  1.00  0.00    -0.229 C  
HETATM   25  C   UNL     1      -9.418   7.730  67.767  1.00  0.00    -0.163 C  
HETATM   26  C   UNL     1      -8.296   8.214  67.232  1.00  0.00    -0.121 C  
HETATM   27  C   UNL     1      -8.506   9.124  66.055  1.00  0.00    -0.131 C  
HETATM   28  O   UNL     1      -7.707   9.198  65.157  1.00  0.00    -0.099 OA 
HETATM   29  N   UNL     1      -9.557  10.040  66.190  1.00  0.00    -0.195 N  
HETATM   30  C   UNL     1     -10.682  10.018  67.149  1.00  0.00    -0.212 C  
HETATM   31  H   UNL     1      -9.545  10.826  65.540  1.00  0.00     0.000 HD 
HETATM   32  C   UNL     1     -11.388  11.273  67.188  1.00  0.00    -0.295 C  
HETATM   33  C   UNL     1     -12.399  11.854  67.815  1.00  0.00     0.733 C  
HETATM   34  C   UNL     1     -12.880  13.135  67.328  1.00  0.00     1.498 C  
HETATM   35  C   UNL     1     -12.513  13.689  66.152  1.00  0.00    -0.449 C  
HETATM   36  C   UNL     1     -13.948  13.842  68.133  1.00  0.00     9.603 C  
HETATM   37  C   UNL     1     -11.470  13.370  65.082  1.00  0.00    -0.296 C  
HETATM   38  C   UNL     1     -11.829  13.082  63.680  1.00  0.00    -0.580 C  
HETATM   39  O   UNL     1     -10.135  12.992  65.355  1.00  0.00    -0.318 OA 
HETATM   40  H   UNL     1      -9.486  12.793  64.690  1.00  0.00     0.000 HD 
HETATM   41  C   UNL     1     -12.521  14.318  63.135  1.00  0.00     1.109 C  
HETATM   42  O   UNL     1     -13.461  14.104  62.353  1.00  0.00     2.656 OA 
HETATM   43  C   UNL     1     -12.083  15.816  63.421  1.00  0.00     1.885 C  
HETATM   44  C   UNL     1     -11.200  16.307  64.662  1.00  0.00    -0.254 A  
HETATM   45  N   UNL     1     -10.066  15.826  65.211  1.00  0.00    -0.434 NA 
HETATM   46  C   UNL     1     -10.210  15.999  66.620  1.00  0.00    -0.291 A  
HETATM   47  C   UNL     1     -11.215  16.951  66.757  1.00  0.00     0.455 A  
HETATM   48  C   UNL     1      -9.633  15.166  67.827  1.00  0.00    -0.203 C  
HETATM   49  O   UNL     1     -11.871  17.113  65.554  1.00  0.00     1.367 OA 
HETATM   50  O   UNL     1      -9.931  15.509  68.973  1.00  0.00    -0.207 OA 
ENDBRANCH   8  11
ENDBRANCH   7   8
ENDBRANCH   6   7
ENDBRANCH   3   6
ENDBRANCH   2   3
TORSDOF 6
ENDMDL
MODEL       64
REMARK 921   NORMALIZED FREE ENERGY PREDICTED BY IDOCK:   37.06 KCAL/MOL
REMARK 922        TOTAL FREE ENERGY PREDICTED BY IDOCK:   48.92 KCAL/MOL
REMARK 923 INTER-LIGAND FREE ENERGY PREDICTED BY IDOCK:   39.92 KCAL/MOL
REMARK 924 INTRA-LIGAND FREE ENERGY PREDICTED BY IDOCK:    9.00 KCAL/MOL
REMARK 927      BINDING AFFINITY PREDICTED BY RF-SCORE:    0.00 PKD
ROOT
HETATM    1  C   UNL     1      -8.483  12.758  62.344  1.00  0.00     6.051 C  
HETATM    2  C   UNL     1      -7.444  11.962  63.142  1.00  0.00     2.710 C  
ENDROOT
BRANCH   2   3
HETATM    3  N   UNL     1      -8.020  11.047  64.137  1.00  0.00     0.374 NA 
BRANCH   3   4
HETATM    4  C   UNL     1      -9.335  11.493  64.647  1.00  0.00    -0.022 C  
HETATM    5  C   UNL     1      -9.870  12.801  64.069  1.00  0.00     0.056 C  
ENDBRANCH   3   4
BRANCH   3   6
HETATM    6  C   UNL     1      -7.983   9.650  63.647  1.00  0.00    -0.142 C  
BRANCH   6   7
HETATM    7  C   UNL     1      -9.372   9.249  63.212  1.00  0.00     0.515 C  
BRANCH   7   8
HETATM    8  S   UNL     1      -9.950   7.619  63.654  1.00  0.00     6.824 S  
HETATM    9  O   UNL     1     -11.374   7.746  64.018  1.00  0.00    14.676 OA 
HETATM   10  O   UNL     1      -9.494   6.670  62.676  1.00  0.00     1.344 OA 
BRANCH   8  11
HETATM   11  C   UNL     1      -9.029   7.446  65.134  1.00  0.00     0.378 C  
HETATM   12  C   UNL     1      -8.128   6.214  65.110  1.00  0.00    -0.133 C  
HETATM   13  C   UNL     1      -8.106   5.682  66.509  1.00  0.00    -0.105 C  
HETATM   14  N   UNL     1      -9.374   6.085  67.098  1.00  0.00    -0.115 N  
HETATM   15  C   UNL     1      -9.805   7.559  66.482  1.00  0.00    -0.156 C  
HETATM   16  C   UNL     1      -9.278   9.178  66.947  1.00  0.00    -0.148 C  
HETATM   17  O   UNL     1     -10.159  10.154  67.424  1.00  0.00    -0.185 OA 
HETATM   18  O   UNL     1      -8.087   9.476  66.766  1.00  0.00    -0.108 OA 
HETATM   19  C   UNL     1      -9.907  11.658  68.008  1.00  0.00    -0.190 C  
HETATM   20  C   UNL     1      -8.937  11.987  69.306  1.00  0.00     0.755 C  
HETATM   21  C   UNL     1     -10.196  12.991  67.179  1.00  0.00    -0.243 C  
HETATM   22  C   UNL     1      -9.710  13.128  65.748  1.00  0.00    -0.151 C  
HETATM   23  C   UNL     1     -11.661  13.487  67.270  1.00  0.00    -0.398 C  
HETATM   24  C   UNL     1      -8.892  13.414  69.889  1.00  0.00     2.521 C  
HETATM   25  C   UNL     1      -7.508  11.516  69.446  1.00  0.00     0.105 C  
HETATM   26  C   UNL     1      -6.734  10.985  68.498  1.00  0.00    -0.061 C  
HETATM   27  C   UNL     1      -6.196   9.621  68.823  1.00  0.00    -0.042 C  
HETATM   28  O   UNL     1      -5.126   9.245  68.416  1.00  0.00    -0.034 OA 
HETATM   29  N   UNL     1      -7.113   8.745  69.419  1.00  0.00    -0.056 N  
HETATM   30  C   UNL     1      -8.399   9.062  70.074  1.00  0.00    -0.142 C  
HETATM   31  H   UNL     1      -6.858   7.757  69.397  1.00  0.00     0.000 HD 
HETATM   32  C   UNL     1      -9.201   7.885  70.295  1.00  0.00    -0.152 C  
HETATM   33  C   UNL     1     -10.380   7.534  70.784  1.00  0.00    -0.205 C  
HETATM   34  C   UNL     1     -10.661   6.124  70.986  1.00  0.00    -0.301 C  
HETATM   35  C   UNL     1      -9.733   5.145  70.910  1.00  0.00    -0.252 C  
HETATM   36  C   UNL     1     -12.057   5.735  71.421  1.00  0.00     0.587 C  
HETATM   37  C   UNL     1      -8.272   5.067  70.472  1.00  0.00    -0.100 C  
HETATM   38  C   UNL     1      -7.189   4.637  71.378  1.00  0.00    -0.056 C  
HETATM   39  O   UNL     1      -7.751   5.691  69.314  1.00  0.00    -0.085 OA 
HETATM   40  H   UNL     1      -6.843   5.643  69.041  1.00  0.00     0.000 HD 
HETATM   41  C   UNL     1      -7.503   3.213  71.801  1.00  0.00    -0.048 C  
HETATM   42  O   UNL     1      -7.217   2.929  72.975  1.00  0.00    -0.041 OA 
HETATM   43  C   UNL     1      -8.072   2.078  70.850  1.00  0.00    -0.059 C  
HETATM   44  C   UNL     1      -8.857   2.321  69.476  1.00  0.00    -0.087 A  
HETATM   45  N   UNL     1      -8.616   3.136  68.430  1.00  0.00    -0.084 NA 
HETATM   46  C   UNL     1      -9.892   3.608  68.000  1.00  0.00     0.087 A  
HETATM   47  C   UNL     1     -10.802   2.707  68.543  1.00  0.00     5.219 A  
HETATM   48  C   UNL     1     -10.315   4.964  67.318  1.00  0.00    -0.094 C  
HETATM   49  O   UNL     1     -10.179   1.934  69.501  1.00  0.00     0.531 OA 
HETATM   50  O   UNL     1     -11.508   5.148  67.065  1.00  0.00     1.180 OA 
ENDBRANCH   8  11
ENDBRANCH   7   8
ENDBRANCH   6   7
ENDBRANCH   3   6
ENDBRANCH   2   3
TORSDOF 6
ENDMDL
MODEL       65
REMARK 921   NORMALIZED FREE ENERGY PREDICTED BY IDOCK:   37.23 KCAL/MOL
REMARK 922        TOTAL FREE ENERGY PREDICTED BY IDOCK:   49.14 KCAL/MOL
REMARK 923 INTER-LIGAND FREE ENERGY PREDICTED BY IDOCK:   19.15 KCAL/MOL
REMARK 924 INTRA-LIGAND FREE ENERGY PREDICTED BY IDOCK:   29.99 KCAL/MOL
REMARK 927      BINDING AFFINITY PREDICTED BY RF-SCORE:    0.00 PKD
ROOT
HETATM    1  C   UNL     1      -8.504  16.549  70.241  1.00  0.00     2.221 C  
HETATM    2  C   UNL     1      -9.567  15.626  69.634  1.00  0.00    -0.260 C  
ENDROOT
BRANCH   2   3
HETATM    3  N   UNL     1      -9.602  15.631  68.165  1.00  0.00    -0.196 NA 
BRANCH   3   4
HETATM    4  C   UNL     1      -8.667  14.660  67.556  1.00  0.00    -0.186 C  
HETATM    5  C   UNL     1      -8.749  14.512  66.039  1.00  0.00     0.536 C  
ENDBRANCH   3   4
BRANCH   3   6
HETATM    6  C   UNL     1     -10.996  15.547  67.673  1.00  0.00    -0.315 C  
BRANCH   6   7
HETATM    7  C   UNL     1     -11.894  16.307  68.621  1.00  0.00     0.024 C  
BRANCH   7   8
HETATM    8  S   UNL     1     -12.776  15.378  69.864  1.00  0.00     0.052 S  
HETATM    9  O   UNL     1     -12.083  15.601  71.148  1.00  0.00    -0.336 OA 
HETATM   10  O   UNL     1     -14.187  15.597  69.710  1.00  0.00     1.612 OA 
BRANCH   8  11
HETATM   11  C   UNL     1     -12.351  13.777  69.294  1.00  0.00    -0.143 C  
HETATM   12  C   UNL     1     -13.582  12.910  69.045  1.00  0.00     5.112 C  
HETATM   13  C   UNL     1     -13.196  11.513  69.424  1.00  0.00     1.986 C  
HETATM   14  N   UNL     1     -12.159  11.658  70.435  1.00  0.00    -0.374 N  
HETATM   15  C   UNL     1     -11.255  12.999  70.085  1.00  0.00     0.416 C  
HETATM   16  C   UNL     1      -9.923  13.201  68.945  1.00  0.00     0.081 C  
HETATM   17  O   UNL     1      -8.634  13.572  69.341  1.00  0.00     0.590 OA 
HETATM   18  O   UNL     1     -10.171  13.080  67.734  1.00  0.00    -0.219 OA 
HETATM   19  C   UNL     1      -7.237  13.717  68.511  1.00  0.00    -0.109 C  
HETATM   20  C   UNL     1      -6.549  12.483  67.651  1.00  0.00    -0.136 C  
HETATM   21  C   UNL     1      -6.605  15.117  68.074  1.00  0.00    -0.156 C  
HETATM   22  C   UNL     1      -7.468  16.179  67.418  1.00  0.00    -0.199 C  
HETATM   23  C   UNL     1      -5.720  15.777  69.160  1.00  0.00    -0.107 C  
HETATM   24  C   UNL     1      -5.146  12.663  67.037  1.00  0.00     0.215 C  
HETATM   25  C   UNL     1      -7.273  11.659  66.612  1.00  0.00    -0.025 C  
HETATM   26  C   UNL     1      -8.458  11.915  66.056  1.00  0.00     0.194 C  
HETATM   27  C   UNL     1      -9.478  10.826  66.228  1.00  0.00    -0.181 C  
HETATM   28  O   UNL     1     -10.329  10.614  65.402  1.00  0.00    -0.272 OA 
HETATM   29  N   UNL     1      -9.518  10.244  67.501  1.00  0.00    -0.151 N  
HETATM   30  C   UNL     1      -8.503  10.300  68.574  1.00  0.00    -0.121 C  
HETATM   31  H   UNL     1     -10.361   9.710  67.717  1.00  0.00     0.000 HD 
HETATM   32  C   UNL     1      -9.022   9.842  69.838  1.00  0.00    -0.231 C  
HETATM   33  C   UNL     1      -8.643   9.683  71.097  1.00  0.00     0.514 C  
HETATM   34  C   UNL     1      -9.513   8.953  72.001  1.00  0.00    -0.249 C  
HETATM   35  C   UNL     1     -10.590   8.237  71.610  1.00  0.00    -0.306 C  
HETATM   36  C   UNL     1      -9.125   8.894  73.463  1.00  0.00     1.130 C  
HETATM   37  C   UNL     1     -11.354   8.057  70.299  1.00  0.00    -0.141 C  
HETATM   38  C   UNL     1     -11.502   6.747  69.635  1.00  0.00    -0.286 C  
HETATM   39  O   UNL     1     -11.702   9.114  69.426  1.00  0.00    -0.240 OA 
HETATM   40  H   UNL     1     -12.177   9.002  68.611  1.00  0.00     0.000 HD 
HETATM   41  C   UNL     1     -12.246   5.841  70.601  1.00  0.00     1.590 C  
HETATM   42  O   UNL     1     -11.882   4.655  70.609  1.00  0.00     3.459 OA 
HETATM   43  C   UNL     1     -13.474   6.277  71.506  1.00  0.00     0.681 C  
HETATM   44  C   UNL     1     -13.827   7.778  71.936  1.00  0.00    -0.297 A  
HETATM   45  N   UNL     1     -13.878   8.930  71.238  1.00  0.00    -0.255 NA 
HETATM   46  C   UNL     1     -13.366   9.938  72.108  1.00  0.00    -0.399 A  
HETATM   47  C   UNL     1     -13.459   9.385  73.381  1.00  0.00     1.905 A  
HETATM   48  C   UNL     1     -12.593  11.275  71.797  1.00  0.00    -0.161 C  
HETATM   49  O   UNL     1     -13.696   8.029  73.284  1.00  0.00     0.784 OA 
HETATM   50  O   UNL     1     -12.225  11.975  72.743  1.00  0.00     2.100 OA 
ENDBRANCH   8  11
ENDBRANCH   7   8
ENDBRANCH   6   7
ENDBRANCH   3   6
ENDBRANCH   2   3
TORSDOF 6
ENDMDL
MODEL       66
REMARK 921   NORMALIZED FREE ENERGY PREDICTED BY IDOCK:   37.47 KCAL/MOL
REMARK 922        TOTAL FREE ENERGY PREDICTED BY IDOCK:   49.47 KCAL/MOL
REMARK 923 INTER-LIGAND FREE ENERGY PREDICTED BY IDOCK:   44.93 KCAL/MOL
REMARK 924 INTRA-LIGAND FREE ENERGY PREDICTED BY IDOCK:    4.54 KCAL/MOL
REMARK 927      BINDING AFFINITY PREDICTED BY RF-SCORE:    0.00 PKD
ROOT
HETATM    1  C   UNL     1      -8.265  18.479  65.193  1.00  0.00     2.089 C  
HETATM    2  C   UNL     1      -7.080  17.924  65.992  1.00  0.00    -0.305 C  
ENDROOT
BRANCH   2   3
HETATM    3  N   UNL     1      -7.463  17.190  67.205  1.00  0.00    -0.154 NA 
BRANCH   3   4
HETATM    4  C   UNL     1      -6.515  17.378  68.325  1.00  0.00    -0.172 C  
HETATM    5  C   UNL     1      -5.376  16.366  68.416  1.00  0.00    -0.107 C  
ENDBRANCH   3   4
BRANCH   3   6
HETATM    6  C   UNL     1      -8.884  17.439  67.543  1.00  0.00    -0.224 C  
BRANCH   6   7
HETATM    7  C   UNL     1      -9.688  17.474  66.265  1.00  0.00    -0.258 C  
BRANCH   7   8
HETATM    8  S   UNL     1     -10.131  15.917  65.512  1.00  0.00    -0.266 S  
HETATM    9  O   UNL     1     -11.493  15.583  65.970  1.00  0.00    -0.111 OA 
HETATM   10  O   UNL     1      -9.780  15.944  64.119  1.00  0.00     1.922 OA 
BRANCH   8  11
HETATM   11  C   UNL     1      -9.004  14.910  66.396  1.00  0.00    -0.219 C  
HETATM   12  C   UNL     1      -7.855  14.422  65.515  1.00  0.00     5.443 C  
HETATM   13  C   UNL     1      -7.523  13.040  65.986  1.00  0.00     2.859 C  
HETATM   14  N   UNL     1      -8.758  12.512  66.546  1.00  0.00    -0.098 N  
HETATM   15  C   UNL     1      -9.594  13.751  67.256  1.00  0.00    -0.237 C  
HETATM   16  C   UNL     1      -9.395  14.485  68.848  1.00  0.00    -0.136 C  
HETATM   17  O   UNL     1     -10.403  14.479  69.818  1.00  0.00    -0.033 OA 
HETATM   18  O   UNL     1      -8.340  15.096  69.078  1.00  0.00    -0.182 OA 
HETATM   19  C   UNL     1     -10.426  14.985  71.370  1.00  0.00     0.871 C  
HETATM   20  C   UNL     1      -9.391  14.426  72.532  1.00  0.00     8.002 C  
HETATM   21  C   UNL     1     -11.123  16.339  71.851  1.00  0.00     0.422 C  
HETATM   22  C   UNL     1     -10.879  17.637  71.104  1.00  0.00     2.086 C  
HETATM   23  C   UNL     1     -12.636  16.198  72.152  1.00  0.00    -0.394 C  
HETATM   24  C   UNL     1      -9.596  14.837  74.004  1.00  0.00     9.254 C  
HETATM   25  C   UNL     1      -7.886  14.396  72.393  1.00  0.00     6.192 C  
HETATM   26  C   UNL     1      -7.147  14.999  71.461  1.00  0.00     2.015 C  
HETATM   27  C   UNL     1      -6.272  14.076  70.663  1.00  0.00    -0.096 C  
HETATM   28  O   UNL     1      -5.209  14.431  70.219  1.00  0.00    -0.094 OA 
HETATM   29  N   UNL     1      -6.874  12.873  70.273  1.00  0.00     0.051 N  
HETATM   30  C   UNL     1      -8.097  12.238  70.807  1.00  0.00     6.913 C  
HETATM   31  H   UNL     1      -6.405  12.366  69.521  1.00  0.00     0.000 HD 
HETATM   32  C   UNL     1      -8.571  11.173  69.961  1.00  0.00     1.530 C  
HETATM   33  C   UNL     1      -9.561  10.297  69.884  1.00  0.00    -0.082 C  
HETATM   34  C   UNL     1      -9.480   9.237  68.895  1.00  0.00    -0.154 C  
HETATM   35  C   UNL     1      -8.372   8.945  68.180  1.00  0.00    -0.125 C  
HETATM   36  C   UNL     1     -10.678   8.326  68.736  1.00  0.00    -0.076 C  
HETATM   37  C   UNL     1      -7.005   9.598  67.984  1.00  0.00    -0.078 C  
HETATM   38  C   UNL     1      -5.740   8.918  68.325  1.00  0.00    -0.038 C  
HETATM   39  O   UNL     1      -6.803  10.984  67.788  1.00  0.00    -0.067 OA 
HETATM   40  H   UNL     1      -5.953  11.391  67.666  1.00  0.00     0.000 HD 
HETATM   41  C   UNL     1      -5.659   7.672  67.461  1.00  0.00    -0.035 C  
HETATM   42  O   UNL     1      -5.159   6.676  68.006  1.00  0.00    -0.007 OA 
HETATM   43  C   UNL     1      -6.076   7.587  65.932  1.00  0.00    -0.038 C  
HETATM   44  C   UNL     1      -7.074   8.588  65.183  1.00  0.00    -0.075 A  
HETATM   45  N   UNL     1      -7.171   9.933  65.178  1.00  0.00    -0.126 NA 
HETATM   46  C   UNL     1      -8.567  10.225  65.151  1.00  0.00    -0.171 A  
HETATM   47  C   UNL     1      -9.164   9.049  64.709  1.00  0.00     0.073 A  
HETATM   48  C   UNL     1      -9.378  11.446  65.728  1.00  0.00    -0.228 C  
HETATM   49  O   UNL     1      -8.256   8.012  64.773  1.00  0.00    -0.149 OA 
HETATM   50  O   UNL     1     -10.605  11.452  65.598  1.00  0.00    -0.255 OA 
ENDBRANCH   8  11
ENDBRANCH   7   8
ENDBRANCH   6   7
ENDBRANCH   3   6
ENDBRANCH   2   3
TORSDOF 6
ENDMDL
MODEL       67
REMARK 921   NORMALIZED FREE ENERGY PREDICTED BY IDOCK:   37.82 KCAL/MOL
REMARK 922        TOTAL FREE ENERGY PREDICTED BY IDOCK:   49.94 KCAL/MOL
REMARK 923 INTER-LIGAND FREE ENERGY PREDICTED BY IDOCK:   43.00 KCAL/MOL
REMARK 924 INTRA-LIGAND FREE ENERGY PREDICTED BY IDOCK:    6.94 KCAL/MOL
REMARK 927      BINDING AFFINITY PREDICTED BY RF-SCORE:    0.00 PKD
ROOT
HETATM    1  C   UNL     1      -8.182  17.672  70.802  1.00  0.00     5.521 C  
HETATM    2  C   UNL     1      -9.295  16.643  70.574  1.00  0.00     2.596 C  
ENDROOT
BRANCH   2   3
HETATM    3  N   UNL     1      -9.183  15.905  69.308  1.00  0.00    -0.252 NA 
BRANCH   3   4
HETATM    4  C   UNL     1      -8.348  14.689  69.414  1.00  0.00     0.086 C  
HETATM    5  C   UNL     1      -6.849  14.884  69.204  1.00  0.00    -0.132 C  
ENDBRANCH   3   4
BRANCH   3   6
HETATM    6  C   UNL     1     -10.519  15.694  68.704  1.00  0.00    -0.231 C  
BRANCH   6   7
HETATM    7  C   UNL     1     -11.552  16.404  69.547  1.00  0.00    -0.036 C  
BRANCH   7   8
HETATM    8  S   UNL     1     -12.477  15.435  70.727  1.00  0.00    -0.448 S  
HETATM    9  O   UNL     1     -11.608  15.232  71.901  1.00  0.00    -0.384 OA 
HETATM   10  O   UNL     1     -13.806  15.970  70.844  1.00  0.00    -0.032 OA 
BRANCH   8  11
HETATM   11  C   UNL     1     -12.510  13.940  69.816  1.00  0.00    -0.188 C  
HETATM   12  C   UNL     1     -13.602  12.991  70.306  1.00  0.00     1.785 C  
HETATM   13  C   UNL     1     -13.051  11.606  70.163  1.00  0.00     0.627 C  
HETATM   14  N   UNL     1     -11.606  11.749  70.279  1.00  0.00    -0.211 N  
HETATM   15  C   UNL     1     -11.157  13.193  69.608  1.00  0.00     0.079 C  
HETATM   16  C   UNL     1     -10.884  13.620  67.918  1.00  0.00    -0.250 C  
HETATM   17  O   UNL     1      -9.649  14.067  67.438  1.00  0.00    -0.217 OA 
HETATM   18  O   UNL     1     -11.857  13.591  67.147  1.00  0.00    -0.354 OA 
HETATM   19  C   UNL     1      -9.126  14.415  65.931  1.00  0.00     0.230 C  
HETATM   20  C   UNL     1      -9.149  13.334  64.680  1.00  0.00     1.855 C  
HETATM   21  C   UNL     1      -8.940  15.901  65.377  1.00  0.00     0.801 C  
HETATM   22  C   UNL     1     -10.031  16.937  65.574  1.00  0.00    -0.011 C  
HETATM   23  C   UNL     1      -7.567  16.534  65.714  1.00  0.00     0.940 C  
HETATM   24  C   UNL     1      -8.481  13.697  63.339  1.00  0.00    10.612 C  
HETATM   25  C   UNL     1     -10.367  12.548  64.253  1.00  0.00    -0.396 C  
HETATM   26  C   UNL     1     -11.632  12.747  64.627  1.00  0.00    -0.384 C  
HETATM   27  C   UNL     1     -12.287  11.560  65.272  1.00  0.00     1.265 C  
HETATM   28  O   UNL     1     -13.469  11.350  65.166  1.00  0.00     3.132 OA 
HETATM   29  N   UNL     1     -11.488  10.860  66.184  1.00  0.00     0.358 N  
HETATM   30  C   UNL     1     -10.020  10.906  66.349  1.00  0.00    -0.221 C  
HETATM   31  H   UNL     1     -11.985  10.234  66.819  1.00  0.00     0.000 HD 
HETATM   32  C   UNL     1      -9.591  10.288  67.578  1.00  0.00    -0.180 C  
HETATM   33  C   UNL     1      -8.485  10.047  68.265  1.00  0.00    -0.111 C  
HETATM   34  C   UNL     1      -8.555   9.160  69.412  1.00  0.00    -0.138 C  
HETATM   35  C   UNL     1      -9.622   8.389  69.715  1.00  0.00    -0.170 C  
HETATM   36  C   UNL     1      -7.311   9.000  70.260  1.00  0.00    -0.076 C  
HETATM   37  C   UNL     1     -11.052   8.264  69.193  1.00  0.00     0.214 C  
HETATM   38  C   UNL     1     -11.584   7.014  68.616  1.00  0.00     0.470 C  
HETATM   39  O   UNL     1     -11.892   9.362  68.894  1.00  0.00     0.026 OA 
HETATM   40  H   UNL     1     -12.781   9.285  68.568  1.00  0.00     0.000 HD 
HETATM   41  C   UNL     1     -11.516   5.959  69.706  1.00  0.00     0.075 C  
HETATM   42  O   UNL     1     -11.225   4.814  69.325  1.00  0.00     1.517 OA 
HETATM   43  C   UNL     1     -11.867   6.195  71.235  1.00  0.00    -0.141 C  
HETATM   44  C   UNL     1     -11.870   7.611  71.981  1.00  0.00    -0.301 A  
HETATM   45  N   UNL     1     -12.372   8.813  71.636  1.00  0.00    -0.319 NA 
HETATM   46  C   UNL     1     -11.426   9.778  72.096  1.00  0.00     0.654 A  
HETATM   47  C   UNL     1     -10.667   9.103  73.045  1.00  0.00     2.129 A  
HETATM   48  C   UNL     1     -11.051  11.203  71.537  1.00  0.00     2.874 C  
HETATM   49  O   UNL     1     -10.898   7.746  72.948  1.00  0.00    -0.339 OA 
HETATM   50  O   UNL     1     -10.163  11.842  72.107  1.00  0.00    10.673 OA 
ENDBRANCH   8  11
ENDBRANCH   7   8
ENDBRANCH   6   7
ENDBRANCH   3   6
ENDBRANCH   2   3
TORSDOF 6
ENDMDL
MODEL       68
REMARK 921   NORMALIZED FREE ENERGY PREDICTED BY IDOCK:   37.84 KCAL/MOL
REMARK 922        TOTAL FREE ENERGY PREDICTED BY IDOCK:   49.96 KCAL/MOL
REMARK 923 INTER-LIGAND FREE ENERGY PREDICTED BY IDOCK:   35.51 KCAL/MOL
REMARK 924 INTRA-LIGAND FREE ENERGY PREDICTED BY IDOCK:   14.45 KCAL/MOL
REMARK 927      BINDING AFFINITY PREDICTED BY RF-SCORE:    0.00 PKD
ROOT
HETATM    1  C   UNL     1     -12.583  16.362  67.017  1.00  0.00     3.317 C  
HETATM    2  C   UNL     1     -11.337  17.238  66.836  1.00  0.00     0.759 C  
ENDROOT
BRANCH   2   3
HETATM    3  N   UNL     1     -11.196  18.299  67.841  1.00  0.00     0.141 NA 
BRANCH   3   4
HETATM    4  C   UNL     1     -10.576  19.531  67.306  1.00  0.00    -0.490 C  
HETATM    5  C   UNL     1     -11.502  20.468  66.535  1.00  0.00     2.179 C  
ENDBRANCH   3   4
BRANCH   3   6
HETATM    6  C   UNL     1     -12.471  18.507  68.566  1.00  0.00     6.759 C  
BRANCH   6   7
HETATM    7  C   UNL     1     -12.253  18.208  70.030  1.00  0.00     9.606 C  
BRANCH   7   8
HETATM    8  S   UNL     1     -12.449  16.519  70.577  1.00  0.00     2.158 S  
HETATM    9  O   UNL     1     -11.506  16.311  71.693  1.00  0.00    -0.401 OA 
HETATM   10  O   UNL     1     -13.848  16.215  70.693  1.00  0.00     0.615 OA 
BRANCH   8  11
HETATM   11  C   UNL     1     -11.780  15.743  69.156  1.00  0.00    -0.388 C  
HETATM   12  C   UNL     1     -12.774  14.784  68.504  1.00  0.00     0.740 C  
HETATM   13  C   UNL     1     -11.967  13.640  67.971  1.00  0.00    -0.350 C  
HETATM   14  N   UNL     1     -10.790  13.566  68.824  1.00  0.00    -0.253 N  
HETATM   15  C   UNL     1     -10.367  15.097  69.286  1.00  0.00    -0.257 C  
HETATM   16  C   UNL     1      -9.442  16.326  68.420  1.00  0.00    -0.216 C  
HETATM   17  O   UNL     1      -8.234  16.843  68.898  1.00  0.00    -0.254 OA 
HETATM   18  O   UNL     1      -9.934  16.799  67.383  1.00  0.00    -0.255 OA 
HETATM   19  C   UNL     1      -7.159  17.885  68.246  1.00  0.00    -0.232 C  
HETATM   20  C   UNL     1      -6.408  17.637  66.794  1.00  0.00    -0.219 C  
HETATM   21  C   UNL     1      -7.027  19.414  68.685  1.00  0.00    -0.351 C  
HETATM   22  C   UNL     1      -8.262  20.285  68.820  1.00  0.00     0.300 C  
HETATM   23  C   UNL     1      -6.105  19.643  69.908  1.00  0.00    -0.342 C  
HETATM   24  C   UNL     1      -5.285  18.591  66.338  1.00  0.00    -0.166 C  
HETATM   25  C   UNL     1      -7.125  17.313  65.504  1.00  0.00     0.806 C  
HETATM   26  C   UNL     1      -8.434  17.400  65.262  1.00  0.00     2.007 C  
HETATM   27  C   UNL     1      -9.073  16.118  64.810  1.00  0.00     3.303 C  
HETATM   28  O   UNL     1     -10.014  16.106  64.058  1.00  0.00     2.033 OA 
HETATM   29  N   UNL     1      -8.658  14.971  65.499  1.00  0.00     0.855 N  
HETATM   30  C   UNL     1      -7.464  14.787  66.350  1.00  0.00     1.747 C  
HETATM   31  H   UNL     1      -9.262  14.153  65.399  1.00  0.00     0.000 HD 
HETATM   32  C   UNL     1      -7.532  13.575  67.127  1.00  0.00     0.075 C  
HETATM   33  C   UNL     1      -6.836  12.906  68.033  1.00  0.00    -0.108 C  
HETATM   34  C   UNL     1      -7.249  11.557  68.376  1.00  0.00    -0.089 C  
HETATM   35  C   UNL     1      -8.170  10.846  67.690  1.00  0.00    -0.116 C  
HETATM   36  C   UNL     1      -6.521  10.859  69.504  1.00  0.00    -0.095 C  
HETATM   37  C   UNL     1      -9.154  11.149  66.562  1.00  0.00    -0.182 C  
HETATM   38  C   UNL     1      -9.120  10.449  65.263  1.00  0.00    -0.227 C  
HETATM   39  O   UNL     1      -9.958  12.312  66.493  1.00  0.00    -0.212 OA 
HETATM   40  H   UNL     1     -10.570  12.501  65.791  1.00  0.00     0.000 HD 
HETATM   41  C   UNL     1      -9.356   8.976  65.546  1.00  0.00    -0.187 C  
HETATM   42  O   UNL     1      -8.713   8.185  64.839  1.00  0.00    -0.072 OA 
HETATM   43  C   UNL     1     -10.401   8.399  66.592  1.00  0.00    -0.298 C  
HETATM   44  C   UNL     1     -11.010   9.199  67.837  1.00  0.00     0.031 A  
HETATM   45  N   UNL     1     -11.517  10.443  67.952  1.00  0.00    -0.383 NA 
HETATM   46  C   UNL     1     -11.085  10.926  69.223  1.00  0.00    -0.248 A  
HETATM   47  C   UNL     1     -10.727   9.783  69.931  1.00  0.00    -0.268 A  
HETATM   48  C   UNL     1     -10.774  12.388  69.720  1.00  0.00     0.629 C  
HETATM   49  O   UNL     1     -10.628   8.711  69.068  1.00  0.00    -0.217 OA 
HETATM   50  O   UNL     1     -10.381  12.544  70.878  1.00  0.00     4.331 OA 
ENDBRANCH   8  11
ENDBRANCH   7   8
ENDBRANCH   6   7
ENDBRANCH   3   6
ENDBRANCH   2   3
TORSDOF 6
ENDMDL
MODEL       69
REMARK 921   NORMALIZED FREE ENERGY PREDICTED BY IDOCK:   42.08 KCAL/MOL
REMARK 922        TOTAL FREE ENERGY PREDICTED BY IDOCK:   55.70 KCAL/MOL
REMARK 923 INTER-LIGAND FREE ENERGY PREDICTED BY IDOCK:   56.56 KCAL/MOL
REMARK 924 INTRA-LIGAND FREE ENERGY PREDICTED BY IDOCK:   -0.86 KCAL/MOL
REMARK 927      BINDING AFFINITY PREDICTED BY RF-SCORE:    0.00 PKD
ROOT
HETATM    1  C   UNL     1      -7.873  16.120  63.810  1.00  0.00    17.852 C  
HETATM    2  C   UNL     1      -7.140  17.356  64.343  1.00  0.00     6.394 C  
ENDROOT
BRANCH   2   3
HETATM    3  N   UNL     1      -6.576  17.187  65.689  1.00  0.00     0.263 NA 
BRANCH   3   4
HETATM    4  C   UNL     1      -5.538  18.189  66.017  1.00  0.00    -0.187 C  
HETATM    5  C   UNL     1      -5.583  19.488  65.216  1.00  0.00    -0.203 C  
ENDBRANCH   3   4
BRANCH   3   6
HETATM    6  C   UNL     1      -7.653  17.054  66.697  1.00  0.00    -0.263 C  
BRANCH   6   7
HETATM    7  C   UNL     1      -7.312  15.914  67.627  1.00  0.00    -0.157 C  
BRANCH   7   8
HETATM    8  S   UNL     1      -8.609  15.268  68.670  1.00  0.00    -0.186 S  
HETATM    9  O   UNL     1      -8.350  15.755  70.038  1.00  0.00     0.164 OA 
HETATM   10  O   UNL     1      -9.877  15.451  68.021  1.00  0.00    -0.214 OA 
BRANCH   8  11
HETATM   11  C   UNL     1      -8.136  13.583  68.600  1.00  0.00    -0.055 C  
HETATM   12  C   UNL     1      -6.808  13.387  67.873  1.00  0.00    -0.144 C  
HETATM   13  C   UNL     1      -6.920  12.091  67.132  1.00  0.00    -0.134 C  
HETATM   14  N   UNL     1      -8.340  11.921  66.859  1.00  0.00    -0.173 N  
HETATM   15  C   UNL     1      -9.206  12.554  68.119  1.00  0.00    -0.209 C  
HETATM   16  C   UNL     1      -9.605  11.848  69.686  1.00  0.00     1.393 C  
HETATM   17  O   UNL     1     -10.921  11.623  70.104  1.00  0.00     0.117 OA 
HETATM   18  O   UNL     1      -8.674  11.614  70.473  1.00  0.00     3.324 OA 
HETATM   19  C   UNL     1     -11.535  10.900  71.433  1.00  0.00     0.878 C  
HETATM   20  C   UNL     1     -11.198   9.341  71.866  1.00  0.00    -0.331 C  
HETATM   21  C   UNL     1     -12.161  11.697  72.667  1.00  0.00     4.018 C  
HETATM   22  C   UNL     1     -11.428  12.882  73.268  1.00  0.00     8.207 C  
HETATM   23  C   UNL     1     -13.657  12.055  72.494  1.00  0.00     0.246 C  
HETATM   24  C   UNL     1     -11.953   8.690  73.043  1.00  0.00     0.502 C  
HETATM   25  C   UNL     1      -9.803   8.774  72.001  1.00  0.00    -0.376 C  
HETATM   26  C   UNL     1      -8.654   9.449  72.029  1.00  0.00     1.025 C  
HETATM   27  C   UNL     1      -7.669   9.051  70.968  1.00  0.00    -0.125 C  
HETATM   28  O   UNL     1      -6.479   9.111  71.149  1.00  0.00    -0.072 OA 
HETATM   29  N   UNL     1      -8.216   8.838  69.696  1.00  0.00    -0.110 N  
HETATM   30  C   UNL     1      -9.629   8.617  69.326  1.00  0.00    -0.166 C  
HETATM   31  H   UNL     1      -7.550   8.835  68.923  1.00  0.00     0.000 HD 
HETATM   32  C   UNL     1      -9.845   8.739  67.907  1.00  0.00    -0.207 C  
HETATM   33  C   UNL     1     -10.824   8.681  67.016  1.00  0.00    -0.024 C  
HETATM   34  C   UNL     1     -10.484   8.666  65.605  1.00  0.00     1.663 C  
HETATM   35  C   UNL     1      -9.233   8.495  65.125  1.00  0.00     0.124 C  
HETATM   36  C   UNL     1     -11.617   8.730  64.604  1.00  0.00    12.356 C  
HETATM   37  C   UNL     1      -7.835   8.440  65.737  1.00  0.00    -0.101 C  
HETATM   38  C   UNL     1      -6.957   7.260  65.617  1.00  0.00    -0.060 C  
HETATM   39  O   UNL     1      -7.363   9.328  66.733  1.00  0.00    -0.085 OA 
HETATM   40  H   UNL     1      -6.494   9.294  67.115  1.00  0.00     0.000 HD 
HETATM   41  C   UNL     1      -6.698   7.048  64.136  1.00  0.00    -0.046 C  
HETATM   42  O   UNL     1      -6.636   5.864  63.768  1.00  0.00    -0.035 OA 
HETATM   43  C   UNL     1      -6.423   8.198  63.078  1.00  0.00    -0.085 C  
HETATM   44  C   UNL     1      -6.839   9.735  63.246  1.00  0.00    -0.117 A  
HETATM   45  N   UNL     1      -6.722  10.596  64.276  1.00  0.00     0.120 NA 
HETATM   46  C   UNL     1      -7.910  11.387  64.262  1.00  0.00     1.309 A  
HETATM   47  C   UNL     1      -8.426  11.223  62.981  1.00  0.00     0.145 A  
HETATM   48  C   UNL     1      -8.698  12.087  65.433  1.00  0.00     0.585 C  
HETATM   49  O   UNL     1      -7.800  10.163  62.357  1.00  0.00    -0.123 OA 
HETATM   50  O   UNL     1      -9.733  12.700  65.160  1.00  0.00    -0.144 OA 
ENDBRANCH   8  11
ENDBRANCH   7   8
ENDBRANCH   6   7
ENDBRANCH   3   6
ENDBRANCH   2   3
TORSDOF 6
ENDMDL
MODEL       70
REMARK 921   NORMALIZED FREE ENERGY PREDICTED BY IDOCK:   43.61 KCAL/MOL
REMARK 922        TOTAL FREE ENERGY PREDICTED BY IDOCK:   57.76 KCAL/MOL
REMARK 923 INTER-LIGAND FREE ENERGY PREDICTED BY IDOCK:   30.63 KCAL/MOL
REMARK 924 INTRA-LIGAND FREE ENERGY PREDICTED BY IDOCK:   27.14 KCAL/MOL
REMARK 927      BINDING AFFINITY PREDICTED BY RF-SCORE:    0.00 PKD
ROOT
HETATM    1  C   UNL     1      -8.054  10.952  64.526  1.00  0.00     0.254 C  
HETATM    2  C   UNL     1      -8.982   9.880  65.109  1.00  0.00    -0.198 C  
ENDROOT
BRANCH   2   3
HETATM    3  N   UNL     1     -10.413  10.160  64.931  1.00  0.00     0.015 NA 
BRANCH   3   4
HETATM    4  C   UNL     1     -10.674  11.417  64.197  1.00  0.00    -0.371 C  
HETATM    5  C   UNL     1     -10.341  11.405  62.707  1.00  0.00    -0.000 C  
ENDBRANCH   3   4
BRANCH   3   6
HETATM    6  C   UNL     1     -11.118   8.970  64.401  1.00  0.00     8.459 C  
BRANCH   6   7
HETATM    7  C   UNL     1     -10.302   7.739  64.717  1.00  0.00     5.447 C  
BRANCH   7   8
HETATM    8  S   UNL     1     -10.983   6.555  65.867  1.00  0.00     2.318 S  
HETATM    9  O   UNL     1     -12.365   6.273  65.433  1.00  0.00     4.768 OA 
HETATM   10  O   UNL     1     -10.026   5.509  66.096  1.00  0.00    -0.154 OA 
BRANCH   8  11
HETATM   11  C   UNL     1     -11.062   7.613  67.261  1.00  0.00     0.161 C  
HETATM   12  C   UNL     1     -12.347   8.438  67.286  1.00  0.00     7.771 C  
HETATM   13  C   UNL     1     -11.980   9.770  67.862  1.00  0.00     2.387 C  
HETATM   14  N   UNL     1     -10.575   9.963  67.532  1.00  0.00    -0.259 N  
HETATM   15  C   UNL     1      -9.813   8.495  67.567  1.00  0.00    -0.177 C  
HETATM   16  C   UNL     1      -9.181   7.580  68.937  1.00  0.00    -0.142 C  
HETATM   17  O   UNL     1      -7.829   7.247  69.070  1.00  0.00    -0.113 OA 
HETATM   18  O   UNL     1      -9.993   7.152  69.774  1.00  0.00    -0.175 OA 
HETATM   19  C   UNL     1      -6.998   6.517  70.270  1.00  0.00    -0.066 C  
HETATM   20  C   UNL     1      -6.947   7.080  71.824  1.00  0.00    -0.068 C  
HETATM   21  C   UNL     1      -6.507   4.999  70.213  1.00  0.00    -0.031 C  
HETATM   22  C   UNL     1      -7.458   3.899  69.779  1.00  0.00    -0.052 C  
HETATM   23  C   UNL     1      -5.142   4.802  69.507  1.00  0.00     0.000 C  
HETATM   24  C   UNL     1      -6.003   6.419  72.849  1.00  0.00    -0.042 C  
HETATM   25  C   UNL     1      -8.167   7.416  72.651  1.00  0.00    -0.128 C  
HETATM   26  C   UNL     1      -9.437   7.112  72.381  1.00  0.00    -0.166 C  
HETATM   27  C   UNL     1     -10.359   8.295  72.301  1.00  0.00    -0.316 C  
HETATM   28  O   UNL     1     -11.520   8.219  72.615  1.00  0.00    -0.395 OA 
HETATM   29  N   UNL     1      -9.845   9.407  71.622  1.00  0.00    -0.084 N  
HETATM   30  C   UNL     1      -8.439   9.709  71.279  1.00  0.00     0.770 C  
HETATM   31  H   UNL     1     -10.532  10.101  71.325  1.00  0.00     0.000 HD 
HETATM   32  C   UNL     1      -8.332  10.781  70.323  1.00  0.00     1.355 C  
HETATM   33  C   UNL     1      -7.413  11.454  69.646  1.00  0.00     0.245 C  
HETATM   34  C   UNL     1      -7.814  12.648  68.923  1.00  0.00     0.137 C  
HETATM   35  C   UNL     1      -9.016  13.249  69.053  1.00  0.00     0.440 C  
HETATM   36  C   UNL     1      -6.779  13.328  68.053  1.00  0.00    -0.127 C  
HETATM   37  C   UNL     1     -10.331  12.905  69.749  1.00  0.00     1.192 C  
HETATM   38  C   UNL     1     -10.922  13.753  70.803  1.00  0.00     1.363 C  
HETATM   39  O   UNL     1     -10.940  11.628  69.721  1.00  0.00    -0.452 OA 
HETATM   40  H   UNL     1     -11.757  11.413  70.154  1.00  0.00     0.000 HD 
HETATM   41  C   UNL     1     -11.202  15.108  70.178  1.00  0.00    -0.273 C  
HETATM   42  O   UNL     1     -11.011  16.087  70.916  1.00  0.00    -0.286 OA 
HETATM   43  C   UNL     1     -11.787  15.343  68.722  1.00  0.00    -0.339 C  
HETATM   44  C   UNL     1     -11.724  14.295  67.514  1.00  0.00    -0.384 A  
HETATM   45  N   UNL     1     -11.980  12.973  67.449  1.00  0.00    -0.351 NA 
HETATM   46  C   UNL     1     -11.007  12.429  66.559  1.00  0.00    -0.272 A  
HETATM   47  C   UNL     1     -10.535  13.523  65.842  1.00  0.00    -0.292 A  
HETATM   48  C   UNL     1     -10.339  11.003  66.506  1.00  0.00    -0.245 C  
HETATM   49  O   UNL     1     -10.934  14.692  66.457  1.00  0.00    -0.307 OA 
HETATM   50  O   UNL     1      -9.488  10.784  65.641  1.00  0.00    -0.189 OA 
ENDBRANCH   8  11
ENDBRANCH   7   8
ENDBRANCH   6   7
ENDBRANCH   3   6
ENDBRANCH   2   3
TORSDOF 6
ENDMDL
MODEL       71
REMARK 921   NORMALIZED FREE ENERGY PREDICTED BY IDOCK:   46.10 KCAL/MOL
REMARK 922        TOTAL FREE ENERGY PREDICTED BY IDOCK:   61.13 KCAL/MOL
REMARK 923 INTER-LIGAND FREE ENERGY PREDICTED BY IDOCK:   30.46 KCAL/MOL
REMARK 924 INTRA-LIGAND FREE ENERGY PREDICTED BY IDOCK:   30.67 KCAL/MOL
REMARK 927      BINDING AFFINITY PREDICTED BY RF-SCORE:    0.00 PKD
ROOT
HETATM    1  C   UNL     1      -8.832  11.094  71.173  1.00  0.00     6.977 C  
HETATM    2  C   UNL     1      -9.391   9.965  70.299  1.00  0.00    -0.087 C  
ENDROOT
BRANCH   2   3
HETATM    3  N   UNL     1      -8.674   9.772  69.032  1.00  0.00    -0.139 NA 
BRANCH   3   4
HETATM    4  C   UNL     1      -9.520   9.198  67.963  1.00  0.00    -0.141 C  
HETATM    5  C   UNL     1     -10.366  10.192  67.171  1.00  0.00    -0.295 C  
ENDBRANCH   3   4
BRANCH   3   6
HETATM    6  C   UNL     1      -7.940  11.002  68.653  1.00  0.00    -0.143 C  
BRANCH   6   7
HETATM    7  C   UNL     1      -6.612  11.017  69.373  1.00  0.00    -0.104 C  
BRANCH   7   8
HETATM    8  S   UNL     1      -6.165   9.581  70.335  1.00  0.00    -0.074 S  
HETATM    9  O   UNL     1      -5.146   8.841  69.566  1.00  0.00    -0.030 OA 
HETATM   10  O   UNL     1      -5.957   9.970  71.702  1.00  0.00    -0.291 OA 
BRANCH   8  11
HETATM   11  C   UNL     1      -7.684   8.723  70.180  1.00  0.00    -0.084 C  
HETATM   12  C   UNL     1      -8.588   8.928  71.394  1.00  0.00    -0.238 C  
HETATM   13  C   UNL     1      -9.316   7.636  71.599  1.00  0.00    -0.138 C  
HETATM   14  N   UNL     1      -8.439   6.606  71.063  1.00  0.00    -0.128 N  
HETATM   15  C   UNL     1      -7.625   7.222  69.761  1.00  0.00    -0.098 C  
HETATM   16  C   UNL     1      -8.143   7.403  68.083  1.00  0.00    -0.124 C  
HETATM   17  O   UNL     1      -7.496   6.769  67.017  1.00  0.00    -0.084 OA 
HETATM   18  O   UNL     1      -9.074   8.188  67.844  1.00  0.00    -0.133 OA 
HETATM   19  C   UNL     1      -7.840   6.693  65.423  1.00  0.00    -0.111 C  
HETATM   20  C   UNL     1      -9.267   6.115  64.820  1.00  0.00     0.684 C  
HETATM   21  C   UNL     1      -7.065   7.531  64.307  1.00  0.00    -0.063 C  
HETATM   22  C   UNL     1      -6.807   9.013  64.499  1.00  0.00    -0.081 C  
HETATM   23  C   UNL     1      -5.773   6.850  63.791  1.00  0.00    -0.032 C  
HETATM   24  C   UNL     1      -9.437   5.925  63.299  1.00  0.00     1.486 C  
HETATM   25  C   UNL     1     -10.634   6.586  65.260  1.00  0.00     3.208 C  
HETATM   26  C   UNL     1     -10.922   7.659  65.997  1.00  0.00     2.558 C  
HETATM   27  C   UNL     1     -11.683   7.366  67.258  1.00  0.00     1.813 C  
HETATM   28  O   UNL     1     -12.469   8.151  67.725  1.00  0.00     5.115 OA 
HETATM   29  N   UNL     1     -11.246   6.242  67.970  1.00  0.00    -0.509 N  
HETATM   30  C   UNL     1     -10.393   5.129  67.503  1.00  0.00    -0.128 C  
HETATM   31  H   UNL     1     -11.558   6.184  68.940  1.00  0.00     0.000 HD 
HETATM   32  C   UNL     1      -9.910   4.320  68.593  1.00  0.00    -0.118 C  
HETATM   33  C   UNL     1      -9.139   3.266  68.816  1.00  0.00    -0.206 C  
HETATM   34  C   UNL     1      -9.129   2.676  70.143  1.00  0.00    -0.186 C  
HETATM   35  C   UNL     1     -10.005   2.989  71.122  1.00  0.00     0.012 C  
HETATM   36  C   UNL     1      -8.146   1.557  70.411  1.00  0.00    -0.053 C  
HETATM   37  C   UNL     1     -11.090   4.048  71.308  1.00  0.00     1.830 C  
HETATM   38  C   UNL     1     -12.508   3.707  71.533  1.00  0.00     8.236 C  
HETATM   39  O   UNL     1     -10.941   5.412  70.965  1.00  0.00    -0.179 OA 
HETATM   40  H   UNL     1     -11.616   6.071  71.080  1.00  0.00     0.000 HD 
HETATM   41  C   UNL     1     -12.573   2.909  72.823  1.00  0.00     1.926 C  
HETATM   42  O   UNL     1     -13.403   1.986  72.840  1.00  0.00     0.629 OA 
HETATM   43  C   UNL     1     -11.741   3.220  74.138  1.00  0.00     0.793 C  
HETATM   44  C   UNL     1     -10.384   4.067  74.202  1.00  0.00    -0.199 A  
HETATM   45  N   UNL     1     -10.023   5.240  73.645  1.00  0.00    -0.168 NA 
HETATM   46  C   UNL     1      -8.655   5.090  73.269  1.00  0.00    -0.112 A  
HETATM   47  C   UNL     1      -8.201   4.009  74.018  1.00  0.00    -0.091 A  
HETATM   48  C   UNL     1      -7.828   5.743  72.098  1.00  0.00    -0.103 C  
HETATM   49  O   UNL     1      -9.274   3.335  74.562  1.00  0.00    -0.087 OA 
HETATM   50  O   UNL     1      -6.644   5.424  71.965  1.00  0.00    -0.052 OA 
ENDBRANCH   8  11
ENDBRANCH   7   8
ENDBRANCH   6   7
ENDBRANCH   3   6
ENDBRANCH   2   3
TORSDOF 6
ENDMDL
MODEL       72
REMARK 921   NORMALIZED FREE ENERGY PREDICTED BY IDOCK:   46.14 KCAL/MOL
REMARK 922        TOTAL FREE ENERGY PREDICTED BY IDOCK:   61.18 KCAL/MOL
REMARK 923 INTER-LIGAND FREE ENERGY PREDICTED BY IDOCK:   30.41 KCAL/MOL
REMARK 924 INTRA-LIGAND FREE ENERGY PREDICTED BY IDOCK:   30.77 KCAL/MOL
REMARK 927      BINDING AFFINITY PREDICTED BY RF-SCORE:    0.00 PKD
ROOT
HETATM    1  C   UNL     1     -10.917  11.501  71.221  1.00  0.00     3.264 C  
HETATM    2  C   UNL     1     -11.581  12.878  71.106  1.00  0.00     1.441 C  
ENDROOT
BRANCH   2   3
HETATM    3  N   UNL     1     -13.002  12.833  70.739  1.00  0.00    -0.008 NA 
BRANCH   3   4
HETATM    4  C   UNL     1     -13.712  11.661  71.297  1.00  0.00     1.026 C  
HETATM    5  C   UNL     1     -14.373  11.862  72.658  1.00  0.00     1.345 C  
ENDBRANCH   3   4
BRANCH   3   6
HETATM    6  C   UNL     1     -13.653  14.138  71.000  1.00  0.00    -0.114 C  
BRANCH   6   7
HETATM    7  C   UNL     1     -12.677  15.032  71.727  1.00  0.00    -0.339 C  
BRANCH   7   8
HETATM    8  S   UNL     1     -11.026  15.182  71.064  1.00  0.00    -0.055 S  
HETATM    9  O   UNL     1     -10.884  16.559  70.556  1.00  0.00    -0.205 OA 
HETATM   10  O   UNL     1     -10.088  14.608  71.989  1.00  0.00     2.401 OA 
BRANCH   8  11
HETATM   11  C   UNL     1     -11.238  14.119  69.688  1.00  0.00    -0.191 C  
HETATM   12  C   UNL     1     -11.749  12.740  70.098  1.00  0.00    -0.239 C  
HETATM   13  C   UNL     1     -11.104  11.758  69.170  1.00  0.00    -0.238 C  
HETATM   14  N   UNL     1      -9.846  12.372  68.769  1.00  0.00    -0.068 N  
HETATM   15  C   UNL     1     -10.059  14.011  68.673  1.00  0.00    -0.217 C  
HETATM   16  C   UNL     1     -10.745  14.989  67.375  1.00  0.00    -0.289 C  
HETATM   17  O   UNL     1     -10.016  15.974  66.701  1.00  0.00    -0.247 OA 
HETATM   18  O   UNL     1     -11.949  14.841  67.110  1.00  0.00    -0.351 OA 
HETATM   19  C   UNL     1     -10.384  16.919  65.421  1.00  0.00    -0.104 C  
HETATM   20  C   UNL     1     -10.832  16.328  63.944  1.00  0.00     1.901 C  
HETATM   21  C   UNL     1     -10.769  18.464  65.541  1.00  0.00     0.059 C  
HETATM   22  C   UNL     1     -11.783  18.926  66.570  1.00  0.00     1.893 C  
HETATM   23  C   UNL     1      -9.550  19.420  65.559  1.00  0.00     0.536 C  
HETATM   24  C   UNL     1     -10.997  17.289  62.749  1.00  0.00    12.623 C  
HETATM   25  C   UNL     1     -11.937  15.320  63.726  1.00  0.00     0.390 C  
HETATM   26  C   UNL     1     -12.859  14.927  64.605  1.00  0.00     0.337 C  
HETATM   27  C   UNL     1     -12.881  13.449  64.870  1.00  0.00    -0.227 C  
HETATM   28  O   UNL     1     -13.899  12.867  65.149  1.00  0.00     0.418 OA 
HETATM   29  N   UNL     1     -11.623  12.848  65.002  1.00  0.00    -0.318 N  
HETATM   30  C   UNL     1     -10.303  13.371  64.590  1.00  0.00    -0.381 C  
HETATM   31  H   UNL     1     -11.617  11.927  65.441  1.00  0.00     0.000 HD 
HETATM   32  C   UNL     1      -9.217  12.614  65.158  1.00  0.00     0.554 C  
HETATM   33  C   UNL     1      -7.893  12.597  65.187  1.00  0.00     4.105 C  
HETATM   34  C   UNL     1      -7.222  11.447  65.765  1.00  0.00     0.440 C  
HETATM   35  C   UNL     1      -7.839  10.290  66.091  1.00  0.00    -0.129 C  
HETATM   36  C   UNL     1      -5.717  11.503  65.906  1.00  0.00     0.378 C  
HETATM   37  C   UNL     1      -9.289   9.817  66.163  1.00  0.00    -0.191 C  
HETATM   38  C   UNL     1      -9.803   8.692  65.358  1.00  0.00     0.552 C  
HETATM   39  O   UNL     1     -10.349  10.573  66.718  1.00  0.00    -0.228 OA 
HETATM   40  H   UNL     1     -11.251  10.279  66.763  1.00  0.00     0.000 HD 
HETATM   41  C   UNL     1      -9.014   7.460  65.764  1.00  0.00    -0.022 C  
HETATM   42  O   UNL     1      -8.750   6.667  64.845  1.00  0.00     0.059 OA 
HETATM   43  C   UNL     1      -8.593   7.086  67.247  1.00  0.00    -0.121 C  
HETATM   44  C   UNL     1      -8.479   8.115  68.469  1.00  0.00    -0.127 A  
HETATM   45  N   UNL     1      -9.293   9.098  68.901  1.00  0.00    -0.145 NA 
HETATM   46  C   UNL     1      -8.435  10.156  69.328  1.00  0.00    -0.163 A  
HETATM   47  C   UNL     1      -7.197   9.552  69.516  1.00  0.00    -0.074 A  
HETATM   48  C   UNL     1      -8.651  11.717  69.344  1.00  0.00     0.713 C  
HETATM   49  O   UNL     1      -7.197   8.298  68.939  1.00  0.00    -0.074 OA 
HETATM   50  O   UNL     1      -7.729  12.433  69.741  1.00  0.00     0.847 OA 
ENDBRANCH   8  11
ENDBRANCH   7   8
ENDBRANCH   6   7
ENDBRANCH   3   6
ENDBRANCH   2   3
TORSDOF 6
ENDMDL
MODEL       73
REMARK 921   NORMALIZED FREE ENERGY PREDICTED BY IDOCK:   51.44 KCAL/MOL
REMARK 922        TOTAL FREE ENERGY PREDICTED BY IDOCK:   68.34 KCAL/MOL
REMARK 923 INTER-LIGAND FREE ENERGY PREDICTED BY IDOCK:   56.66 KCAL/MOL
REMARK 924 INTRA-LIGAND FREE ENERGY PREDICTED BY IDOCK:   11.68 KCAL/MOL
REMARK 927      BINDING AFFINITY PREDICTED BY RF-SCORE:    0.00 PKD
ROOT
HETATM    1  C   UNL     1      -8.045  18.177  64.374  1.00  0.00     7.042 C  
HETATM    2  C   UNL     1      -7.703  16.923  65.188  1.00  0.00     3.301 C  
ENDROOT
BRANCH   2   3
HETATM    3  N   UNL     1      -8.841  16.021  65.410  1.00  0.00     0.240 NA 
BRANCH   3   4
HETATM    4  C   UNL     1      -9.942  16.647  66.174  1.00  0.00    -0.337 C  
HETATM    5  C   UNL     1      -9.564  17.859  67.023  1.00  0.00    -0.286 C  
ENDBRANCH   3   4
BRANCH   3   6
HETATM    6  C   UNL     1      -9.251  15.372  64.144  1.00  0.00     6.775 C  
BRANCH   6   7
HETATM    7  C   UNL     1     -10.760  15.343  64.078  1.00  0.00     1.358 C  
BRANCH   7   8
HETATM    8  S   UNL     1     -11.580  13.784  64.364  1.00  0.00    -0.381 S  
HETATM    9  O   UNL     1     -12.827  14.076  65.097  1.00  0.00    -0.696 OA 
HETATM   10  O   UNL     1     -11.570  13.011  63.153  1.00  0.00    -0.370 OA 
BRANCH   8  11
HETATM   11  C   UNL     1     -10.426  13.127  65.506  1.00  0.00    -0.288 C  
HETATM   12  C   UNL     1      -9.701  11.902  64.951  1.00  0.00    -0.158 C  
HETATM   13  C   UNL     1      -9.481  10.982  66.112  1.00  0.00    -0.203 C  
HETATM   14  N   UNL     1     -10.559  11.273  67.048  1.00  0.00    -0.234 N  
HETATM   15  C   UNL     1     -10.915  12.887  66.967  1.00  0.00    -0.262 C  
HETATM   16  C   UNL     1     -10.118  14.262  67.734  1.00  0.00    -0.231 C  
HETATM   17  O   UNL     1     -10.767  15.108  68.639  1.00  0.00    -0.227 OA 
HETATM   18  O   UNL     1      -8.954  14.525  67.390  1.00  0.00    -0.182 OA 
HETATM   19  C   UNL     1     -10.230  16.355  69.545  1.00  0.00    -0.244 C  
HETATM   20  C   UNL     1      -9.001  16.227  70.643  1.00  0.00     2.825 C  
HETATM   21  C   UNL     1     -10.506  17.889  69.196  1.00  0.00    -0.002 C  
HETATM   22  C   UNL     1     -10.284  18.409  67.788  1.00  0.00    -0.407 C  
HETATM   23  C   UNL     1     -11.856  18.426  69.732  1.00  0.00     6.771 C  
HETATM   24  C   UNL     1      -8.674  17.415  71.572  1.00  0.00    10.355 C  
HETATM   25  C   UNL     1      -7.639  15.648  70.338  1.00  0.00     0.993 C  
HETATM   26  C   UNL     1      -7.127  15.371  69.138  1.00  0.00    -0.161 C  
HETATM   27  C   UNL     1      -6.708  13.941  68.952  1.00  0.00    -0.106 C  
HETATM   28  O   UNL     1      -5.787  13.636  68.238  1.00  0.00    -0.084 OA 
HETATM   29  N   UNL     1      -7.595  12.988  69.467  1.00  0.00    -0.054 N  
HETATM   30  C   UNL     1      -8.687  13.178  70.445  1.00  0.00     5.232 C  
HETATM   31  H   UNL     1      -7.471  12.036  69.121  1.00  0.00     0.000 HD 
HETATM   32  C   UNL     1      -9.570  12.041  70.501  1.00  0.00     5.376 C  
HETATM   33  C   UNL     1     -10.671  11.635  71.116  1.00  0.00     4.035 C  
HETATM   34  C   UNL     1     -11.077  10.248  70.978  1.00  0.00    -0.108 C  
HETATM   35  C   UNL     1     -10.306   9.279  70.439  1.00  0.00    -0.291 C  
HETATM   36  C   UNL     1     -12.404   9.837  71.579  1.00  0.00    -0.495 C  
HETATM   37  C   UNL     1      -8.974   9.243  69.693  1.00  0.00    -0.160 C  
HETATM   38  C   UNL     1      -7.800   8.499  70.191  1.00  0.00    -0.099 C  
HETATM   39  O   UNL     1      -8.608  10.145  68.667  1.00  0.00    -0.113 OA 
HETATM   40  H   UNL     1      -7.780  10.123  68.203  1.00  0.00     0.000 HD 
HETATM   41  C   UNL     1      -8.200   7.036  70.264  1.00  0.00    -0.128 C  
HETATM   42  O   UNL     1      -7.735   6.402  71.225  1.00  0.00    -0.093 OA 
HETATM   43  C   UNL     1      -9.071   6.268  69.184  1.00  0.00    -0.130 C  
HETATM   44  C   UNL     1     -10.064   6.952  68.132  1.00  0.00    -0.166 A  
HETATM   45  N   UNL     1      -9.927   8.022  67.323  1.00  0.00    -0.193 NA 
HETATM   46  C   UNL     1     -11.195   8.678  67.324  1.00  0.00     0.810 A  
HETATM   47  C   UNL     1     -12.089   7.716  67.780  1.00  0.00     3.794 A  
HETATM   48  C   UNL     1     -11.570  10.198  67.147  1.00  0.00     1.122 C  
HETATM   49  O   UNL     1     -11.395   6.658  68.332  1.00  0.00    -0.190 OA 
HETATM   50  O   UNL     1     -12.758  10.522  67.217  1.00  0.00     3.709 OA 
ENDBRANCH   8  11
ENDBRANCH   7   8
ENDBRANCH   6   7
ENDBRANCH   3   6
ENDBRANCH   2   3
TORSDOF 6
ENDMDL
MODEL       74
REMARK 921   NORMALIZED FREE ENERGY PREDICTED BY IDOCK:   53.21 KCAL/MOL
REMARK 922        TOTAL FREE ENERGY PREDICTED BY IDOCK:   70.73 KCAL/MOL
REMARK 923 INTER-LIGAND FREE ENERGY PREDICTED BY IDOCK:   63.46 KCAL/MOL
REMARK 924 INTRA-LIGAND FREE ENERGY PREDICTED BY IDOCK:    7.27 KCAL/MOL
REMARK 927      BINDING AFFINITY PREDICTED BY RF-SCORE:    0.00 PKD
ROOT
HETATM    1  C   UNL     1     -11.885  12.338  69.541  1.00  0.00    -0.380 C  
HETATM    2  C   UNL     1     -11.186  11.915  70.839  1.00  0.00     1.859 C  
ENDROOT
BRANCH   2   3
HETATM    3  N   UNL     1      -9.968  12.677  71.142  1.00  0.00     7.841 NA 
BRANCH   3   4
HETATM    4  C   UNL     1     -10.027  13.380  72.443  1.00  0.00    12.720 C  
HETATM    5  C   UNL     1     -11.424  13.632  73.005  1.00  0.00     3.637 C  
ENDBRANCH   3   4
BRANCH   3   6
HETATM    6  C   UNL     1      -8.762  11.841  70.941  1.00  0.00     8.166 C  
BRANCH   6   7
HETATM    7  C   UNL     1      -7.581  12.525  71.587  1.00  0.00     9.875 C  
BRANCH   7   8
HETATM    8  S   UNL     1      -6.104  12.746  70.609  1.00  0.00     0.336 S  
HETATM    9  O   UNL     1      -5.437  13.968  71.098  1.00  0.00    -0.149 OA 
HETATM   10  O   UNL     1      -5.413  11.492  70.499  1.00  0.00    -0.111 OA 
BRANCH   8  11
HETATM   11  C   UNL     1      -6.892  13.133  69.094  1.00  0.00    -0.062 C  
HETATM   12  C   UNL     1      -6.216  14.299  68.375  1.00  0.00    -0.103 C  
HETATM   13  C   UNL     1      -7.309  15.067  67.698  1.00  0.00    -0.188 C  
HETATM   14  N   UNL     1      -8.501  14.833  68.500  1.00  0.00    -0.153 N  
HETATM   15  C   UNL     1      -8.443  13.296  69.109  1.00  0.00     0.588 C  
HETATM   16  C   UNL     1      -8.870  11.760  68.350  1.00  0.00    -0.161 C  
HETATM   17  O   UNL     1      -9.879  10.926  68.841  1.00  0.00    -0.191 OA 
HETATM   18  O   UNL     1      -8.188  11.380  67.385  1.00  0.00    -0.134 OA 
HETATM   19  C   UNL     1     -10.521   9.538  68.270  1.00  0.00    -0.223 C  
HETATM   20  C   UNL     1     -11.217   9.397  66.777  1.00  0.00     0.778 C  
HETATM   21  C   UNL     1     -10.186   8.094  68.865  1.00  0.00    -0.221 C  
HETATM   22  C   UNL     1      -8.750   7.686  69.131  1.00  0.00    -0.139 C  
HETATM   23  C   UNL     1     -11.065   7.692  70.076  1.00  0.00    -0.201 C  
HETATM   24  C   UNL     1     -11.945   8.094  66.389  1.00  0.00     6.721 C  
HETATM   25  C   UNL     1     -10.559   9.818  65.483  1.00  0.00     0.475 C  
HETATM   26  C   UNL     1      -9.278  10.137  65.293  1.00  0.00    -0.257 C  
HETATM   27  C   UNL     1      -9.054  11.510  64.728  1.00  0.00     0.127 C  
HETATM   28  O   UNL     1      -8.119  11.758  64.009  1.00  0.00     1.352 OA 
HETATM   29  N   UNL     1      -9.855  12.519  65.277  1.00  0.00    -0.432 N  
HETATM   30  C   UNL     1     -11.098  12.383  66.066  1.00  0.00    -0.308 C  
HETATM   31  H   UNL     1      -9.539  13.475  65.111  1.00  0.00     0.000 HD 
HETATM   32  C   UNL     1     -11.470  13.616  66.711  1.00  0.00    -0.370 C  
HETATM   33  C   UNL     1     -12.400  14.103  67.519  1.00  0.00    -0.106 C  
HETATM   34  C   UNL     1     -12.460  15.539  67.729  1.00  0.00     1.118 C  
HETATM   35  C   UNL     1     -11.772  16.445  67.001  1.00  0.00     0.896 C  
HETATM   36  C   UNL     1     -13.444  16.063  68.753  1.00  0.00     4.042 C  
HETATM   37  C   UNL     1     -10.672  16.375  65.943  1.00  0.00    -0.214 C  
HETATM   38  C   UNL     1     -10.845  16.906  64.577  1.00  0.00     0.602 C  
HETATM   39  O   UNL     1      -9.538  15.534  66.024  1.00  0.00    -0.293 OA 
HETATM   40  H   UNL     1      -8.854  15.490  65.366  1.00  0.00     0.000 HD 
HETATM   41  C   UNL     1     -11.109  18.395  64.709  1.00  0.00     2.305 C  
HETATM   42  O   UNL     1     -11.924  18.868  63.901  1.00  0.00     5.905 OA 
HETATM   43  C   UNL     1     -10.372  19.372  65.720  1.00  0.00    -0.431 C  
HETATM   44  C   UNL     1      -9.621  18.928  67.062  1.00  0.00    -0.312 A  
HETATM   45  N   UNL     1      -8.752  17.931  67.324  1.00  0.00    -0.236 NA 
HETATM   46  C   UNL     1      -9.089  17.451  68.625  1.00  0.00    -0.261 A  
HETATM   47  C   UNL     1      -9.837  18.475  69.196  1.00  0.00    -0.177 A  
HETATM   48  C   UNL     1      -8.949  16.018  69.265  1.00  0.00    -0.228 C  
HETATM   49  O   UNL     1     -10.217  19.375  68.221  1.00  0.00    -0.404 OA 
HETATM   50  O   UNL     1      -9.346  15.849  70.420  1.00  0.00     0.558 OA 
ENDBRANCH   8  11
ENDBRANCH   7   8
ENDBRANCH   6   7
ENDBRANCH   3   6
ENDBRANCH   2   3
TORSDOF 6
ENDMDL
MODEL       75
REMARK 921   NORMALIZED FREE ENERGY PREDICTED BY IDOCK:   53.37 KCAL/MOL
REMARK 922        TOTAL FREE ENERGY PREDICTED BY IDOCK:   70.95 KCAL/MOL
REMARK 923 INTER-LIGAND FREE ENERGY PREDICTED BY IDOCK:   22.67 KCAL/MOL
REMARK 924 INTRA-LIGAND FREE ENERGY PREDICTED BY IDOCK:   48.28 KCAL/MOL
REMARK 927      BINDING AFFINITY PREDICTED BY RF-SCORE:    0.00 PKD
ROOT
HETATM    1  C   UNL     1      -7.282  13.150  65.361  1.00  0.00     6.987 C  
HETATM    2  C   UNL     1      -7.805  11.709  65.360  1.00  0.00     0.983 C  
ENDROOT
BRANCH   2   3
HETATM    3  N   UNL     1      -6.757  10.688  65.478  1.00  0.00    -0.093 NA 
BRANCH   3   4
HETATM    4  C   UNL     1      -6.874   9.871  66.707  1.00  0.00    -0.084 C  
HETATM    5  C   UNL     1      -5.755  10.039  67.732  1.00  0.00    -0.042 C  
ENDBRANCH   3   4
BRANCH   3   6
HETATM    6  C   UNL     1      -6.637   9.911  64.223  1.00  0.00    -0.126 C  
BRANCH   6   7
HETATM    7  C   UNL     1      -7.935  10.018  63.458  1.00  0.00    -0.157 C  
BRANCH   7   8
HETATM    8  S   UNL     1      -9.220  11.057  64.133  1.00  0.00    -0.108 S  
HETATM    9  O   UNL     1      -8.984  12.424  63.630  1.00  0.00     0.533 OA 
HETATM   10  O   UNL     1     -10.489  10.399  63.990  1.00  0.00    -0.121 OA 
BRANCH   8  11
HETATM   11  C   UNL     1      -8.700  11.002  65.805  1.00  0.00    -0.174 C  
HETATM   12  C   UNL     1      -7.608   9.960  66.034  1.00  0.00    -0.106 C  
HETATM   13  C   UNL     1      -7.850   9.389  67.397  1.00  0.00    -0.102 C  
HETATM   14  N   UNL     1      -9.281   9.527  67.627  1.00  0.00    -0.124 N  
HETATM   15  C   UNL     1      -9.806  10.918  66.901  1.00  0.00    -0.189 C  
HETATM   16  C   UNL     1      -9.735  12.588  67.467  1.00  0.00    -0.196 C  
HETATM   17  O   UNL     1     -10.877  13.365  67.685  1.00  0.00    -0.253 OA 
HETATM   18  O   UNL     1      -8.616  13.108  67.602  1.00  0.00    -0.168 OA 
HETATM   19  C   UNL     1     -11.075  14.866  68.295  1.00  0.00    -0.282 C  
HETATM   20  C   UNL     1     -10.556  15.320  69.798  1.00  0.00    -0.293 C  
HETATM   21  C   UNL     1     -11.384  16.154  67.403  1.00  0.00     0.061 C  
HETATM   22  C   UNL     1     -10.578  16.432  66.148  1.00  0.00    -0.259 C  
HETATM   23  C   UNL     1     -12.889  16.365  67.100  1.00  0.00     4.141 C  
HETATM   24  C   UNL     1     -10.934  16.708  70.355  1.00  0.00    -0.014 C  
HETATM   25  C   UNL     1      -9.150  15.118  70.314  1.00  0.00     0.710 C  
HETATM   26  C   UNL     1      -8.070  14.775  69.610  1.00  0.00     0.094 C  
HETATM   27  C   UNL     1      -7.388  13.523  70.081  1.00  0.00     1.204 C  
HETATM   28  O   UNL     1      -6.198  13.368  69.974  1.00  0.00    -0.138 OA 
HETATM   29  N   UNL     1      -8.245  12.471  70.426  1.00  0.00     3.772 N  
HETATM   30  C   UNL     1      -9.693  12.519  70.717  1.00  0.00     7.512 C  
HETATM   31  H   UNL     1      -7.812  11.548  70.485  1.00  0.00     0.000 HD 
HETATM   32  C   UNL     1     -10.288  11.207  70.735  1.00  0.00     2.472 C  
HETATM   33  C   UNL     1     -11.466  10.624  70.900  1.00  0.00    -0.205 C  
HETATM   34  C   UNL     1     -11.517   9.180  71.039  1.00  0.00    -0.372 C  
HETATM   35  C   UNL     1     -10.434   8.393  71.222  1.00  0.00    -0.273 C  
HETATM   36  C   UNL     1     -12.879   8.523  71.098  1.00  0.00    -0.097 C  
HETATM   37  C   UNL     1      -8.922   8.605  71.184  1.00  0.00    -0.201 C  
HETATM   38  C   UNL     1      -8.051   8.349  72.347  1.00  0.00    -0.185 C  
HETATM   39  O   UNL     1      -8.246   9.357  70.195  1.00  0.00    -0.129 OA 
HETATM   40  H   UNL     1      -7.305   9.489  70.171  1.00  0.00     0.000 HD 
HETATM   41  C   UNL     1      -8.189   6.877  72.691  1.00  0.00    -0.109 C  
HETATM   42  O   UNL     1      -8.170   6.606  73.902  1.00  0.00    -0.115 OA 
HETATM   43  C   UNL     1      -8.266   5.692  71.638  1.00  0.00    -0.119 C  
HETATM   44  C   UNL     1      -8.698   5.838  70.104  1.00  0.00    -0.139 A  
HETATM   45  N   UNL     1      -8.352   6.722  69.147  1.00  0.00    -0.124 NA 
HETATM   46  C   UNL     1      -9.538   6.965  68.392  1.00  0.00    -0.126 A  
HETATM   47  C   UNL     1     -10.370   5.891  68.687  1.00  0.00    -0.215 A  
HETATM   48  C   UNL     1     -10.017   8.244  67.605  1.00  0.00    -0.190 C  
HETATM   49  O   UNL     1      -9.883   5.211  69.785  1.00  0.00    -0.172 OA 
HETATM   50  O   UNL     1     -11.116   8.213  67.046  1.00  0.00     0.002 OA 
ENDBRANCH   8  11
ENDBRANCH   7   8
ENDBRANCH   6   7
ENDBRANCH   3   6
ENDBRANCH   2   3
TORSDOF 6
ENDMDL
MODEL       76
REMARK 921   NORMALIZED FREE ENERGY PREDICTED BY IDOCK:   53.98 KCAL/MOL
REMARK 922        TOTAL FREE ENERGY PREDICTED BY IDOCK:   71.77 KCAL/MOL
REMARK 923 INTER-LIGAND FREE ENERGY PREDICTED BY IDOCK:   64.55 KCAL/MOL
REMARK 924 INTRA-LIGAND FREE ENERGY PREDICTED BY IDOCK:    7.21 KCAL/MOL
REMARK 927      BINDING AFFINITY PREDICTED BY RF-SCORE:    0.00 PKD
ROOT
HETATM    1  C   UNL     1      -9.837  13.523  64.627  1.00  0.00     0.062 C  
HETATM    2  C   UNL     1     -11.008  12.534  64.600  1.00  0.00    -0.310 C  
ENDROOT
BRANCH   2   3
HETATM    3  N   UNL     1     -12.332  13.168  64.643  1.00  0.00    -0.507 NA 
BRANCH   3   4
HETATM    4  C   UNL     1     -12.342  14.538  64.085  1.00  0.00    -0.286 C  
HETATM    5  C   UNL     1     -10.988  15.236  63.998  1.00  0.00     0.764 C  
ENDBRANCH   3   4
BRANCH   3   6
HETATM    6  C   UNL     1     -13.366  12.262  64.090  1.00  0.00     0.443 C  
BRANCH   6   7
HETATM    7  C   UNL     1     -12.735  10.919  63.808  1.00  0.00     2.702 C  
BRANCH   7   8
HETATM    8  S   UNL     1     -13.033   9.595  64.967  1.00  0.00    17.728 S  
HETATM    9  O   UNL     1     -13.926  10.125  66.015  1.00  0.00    16.505 OA 
HETATM   10  O   UNL     1     -13.333   8.389  64.247  1.00  0.00    19.076 OA 
BRANCH   8  11
HETATM   11  C   UNL     1     -11.415   9.509  65.633  1.00  0.00     4.005 C  
HETATM   12  C   UNL     1     -10.630   8.319  65.086  1.00  0.00     4.558 C  
HETATM   13  C   UNL     1      -9.768   7.832  66.210  1.00  0.00    -0.079 C  
HETATM   14  N   UNL     1     -10.476   8.195  67.429  1.00  0.00    -0.280 N  
HETATM   15  C   UNL     1     -11.265   9.629  67.180  1.00  0.00     0.435 C  
HETATM   16  C   UNL     1     -10.656  11.283  67.253  1.00  0.00    -0.233 C  
HETATM   17  O   UNL     1     -11.145  12.233  68.155  1.00  0.00    -0.212 OA 
HETATM   18  O   UNL     1      -9.811  11.629  66.412  1.00  0.00    -0.199 OA 
HETATM   19  C   UNL     1     -10.683  13.764  68.485  1.00  0.00    -0.262 C  
HETATM   20  C   UNL     1      -9.159  14.176  68.974  1.00  0.00     0.105 C  
HETATM   21  C   UNL     1     -11.473  15.057  67.981  1.00  0.00    -0.357 C  
HETATM   22  C   UNL     1     -11.919  15.171  66.535  1.00  0.00     0.154 C  
HETATM   23  C   UNL     1     -12.635  15.489  68.910  1.00  0.00     0.443 C  
HETATM   24  C   UNL     1      -8.861  15.621  69.423  1.00  0.00    -0.257 C  
HETATM   25  C   UNL     1      -7.892  13.775  68.254  1.00  0.00    -0.144 C  
HETATM   26  C   UNL     1      -7.787  13.250  67.033  1.00  0.00     0.051 C  
HETATM   27  C   UNL     1      -7.088  11.922  66.981  1.00  0.00    -0.116 C  
HETATM   28  O   UNL     1      -6.435  11.582  66.026  1.00  0.00     0.082 OA 
HETATM   29  N   UNL     1      -7.436  11.025  67.998  1.00  0.00    -0.088 N  
HETATM   30  C   UNL     1      -8.115  11.303  69.281  1.00  0.00     0.114 C  
HETATM   31  H   UNL     1      -7.188  10.049  67.831  1.00  0.00     0.000 HD 
HETATM   32  C   UNL     1      -8.573  10.099  69.927  1.00  0.00    -0.100 C  
HETATM   33  C   UNL     1      -9.226   9.710  71.011  1.00  0.00     0.181 C  
HETATM   34  C   UNL     1      -9.259   8.296  71.337  1.00  0.00    -0.218 C  
HETATM   35  C   UNL     1      -8.497   7.358  70.733  1.00  0.00    -0.131 C  
HETATM   36  C   UNL     1     -10.117   7.859  72.504  1.00  0.00    -0.325 C  
HETATM   37  C   UNL     1      -7.563   7.333  69.525  1.00  0.00    -0.100 C  
HETATM   38  C   UNL     1      -6.133   6.980  69.629  1.00  0.00    -0.030 C  
HETATM   39  O   UNL     1      -7.848   7.943  68.282  1.00  0.00    -0.115 OA 
HETATM   40  H   UNL     1      -7.268   7.928  67.530  1.00  0.00     0.000 HD 
HETATM   41  C   UNL     1      -6.064   5.557  70.154  1.00  0.00    -0.025 C  
HETATM   42  O   UNL     1      -5.133   5.322  70.941  1.00  0.00    -0.004 OA 
HETATM   43  C   UNL     1      -7.017   4.368  69.712  1.00  0.00    -0.042 C  
HETATM   44  C   UNL     1      -8.466   4.534  69.054  1.00  0.00    -0.079 A  
HETATM   45  N   UNL     1      -8.925   5.326  68.065  1.00  0.00    -0.109 NA 
HETATM   46  C   UNL     1     -10.236   5.727  68.460  1.00  0.00    -0.192 A  
HETATM   47  C   UNL     1     -10.609   4.803  69.430  1.00  0.00     0.443 A  
HETATM   48  C   UNL     1     -11.051   7.040  68.153  1.00  0.00    -0.021 C  
HETATM   49  O   UNL     1      -9.503   4.088  69.844  1.00  0.00    -0.160 OA 
HETATM   50  O   UNL     1     -12.175   7.162  68.644  1.00  0.00     1.685 OA 
ENDBRANCH   8  11
ENDBRANCH   7   8
ENDBRANCH   6   7
ENDBRANCH   3   6
ENDBRANCH   2   3
TORSDOF 6
ENDMDL
MODEL       77
REMARK 921   NORMALIZED FREE ENERGY PREDICTED BY IDOCK:   54.26 KCAL/MOL
REMARK 922        TOTAL FREE ENERGY PREDICTED BY IDOCK:   72.15 KCAL/MOL
REMARK 923 INTER-LIGAND FREE ENERGY PREDICTED BY IDOCK:   63.73 KCAL/MOL
REMARK 924 INTRA-LIGAND FREE ENERGY PREDICTED BY IDOCK:    8.42 KCAL/MOL
REMARK 927      BINDING AFFINITY PREDICTED BY RF-SCORE:    0.00 PKD
ROOT
HETATM    1  C   UNL     1     -12.410  15.304  63.886  1.00  0.00     0.199 C  
HETATM    2  C   UNL     1     -10.896  15.539  63.943  1.00  0.00     1.534 C  
ENDROOT
BRANCH   2   3
HETATM    3  N   UNL     1     -10.513  16.925  64.241  1.00  0.00     0.853 NA 
BRANCH   3   4
HETATM    4  C   UNL     1     -11.657  17.773  64.643  1.00  0.00     2.841 C  
HETATM    5  C   UNL     1     -11.352  19.253  64.856  1.00  0.00     2.161 C  
ENDBRANCH   3   4
BRANCH   3   6
HETATM    6  C   UNL     1      -9.355  16.962  65.165  1.00  0.00     1.639 C  
BRANCH   6   7
HETATM    7  C   UNL     1      -8.374  17.999  64.674  1.00  0.00     5.704 C  
BRANCH   7   8
HETATM    8  S   UNL     1      -6.817  18.152  65.535  1.00  0.00     0.029 S  
HETATM    9  O   UNL     1      -5.753  17.787  64.580  1.00  0.00     0.366 OA 
HETATM   10  O   UNL     1      -6.796  19.389  66.265  1.00  0.00    -0.198 OA 
BRANCH   8  11
HETATM   11  C   UNL     1      -7.035  16.808  66.637  1.00  0.00    -0.232 C  
HETATM   12  C   UNL     1      -6.035  15.684  66.378  1.00  0.00     2.232 C  
HETATM   13  C   UNL     1      -6.760  14.403  66.654  1.00  0.00     2.182 C  
HETATM   14  N   UNL     1      -8.164  14.687  66.390  1.00  0.00     0.363 N  
HETATM   15  C   UNL     1      -8.481  16.253  66.819  1.00  0.00    -0.247 C  
HETATM   16  C   UNL     1      -8.824  16.946  68.406  1.00  0.00    -0.244 C  
HETATM   17  O   UNL     1     -10.027  17.592  68.708  1.00  0.00    -0.315 OA 
HETATM   18  O   UNL     1      -7.922  16.919  69.258  1.00  0.00    -0.161 OA 
HETATM   19  C   UNL     1     -10.615  18.207  70.101  1.00  0.00     1.513 C  
HETATM   20  C   UNL     1     -10.816  17.320  71.482  1.00  0.00     1.868 C  
HETATM   21  C   UNL     1     -10.657  19.769  70.433  1.00  0.00     1.513 C  
HETATM   22  C   UNL     1      -9.436  20.638  70.199  1.00  0.00     1.513 C  
HETATM   23  C   UNL     1     -11.914  20.495  69.892  1.00  0.00     5.995 C  
HETATM   24  C   UNL     1     -11.532  17.944  72.698  1.00  0.00     2.310 C  
HETATM   25  C   UNL     1      -9.738  16.474  72.119  1.00  0.00     7.435 C  
HETATM   26  C   UNL     1      -8.435  16.476  71.837  1.00  0.00    10.687 C  
HETATM   27  C   UNL     1      -7.884  15.143  71.419  1.00  0.00     3.393 C  
HETATM   28  O   UNL     1      -6.747  14.820  71.658  1.00  0.00     0.751 OA 
HETATM   29  N   UNL     1      -8.693  14.412  70.540  1.00  0.00     1.436 N  
HETATM   30  C   UNL     1     -10.128  14.598  70.238  1.00  0.00     0.593 C  
HETATM   31  H   UNL     1      -8.230  13.651  70.042  1.00  0.00     0.000 HD 
HETATM   32  C   UNL     1     -10.537  13.861  69.069  1.00  0.00    -0.187 C  
HETATM   33  C   UNL     1     -11.610  13.649  68.323  1.00  0.00    -0.374 C  
HETATM   34  C   UNL     1     -11.565  12.604  67.316  1.00  0.00    -0.428 C  
HETATM   35  C   UNL     1     -10.581  11.684  67.216  1.00  0.00    -0.265 C  
HETATM   36  C   UNL     1     -12.753  12.463  66.389  1.00  0.00     1.368 C  
HETATM   37  C   UNL     1      -9.220  11.477  67.878  1.00  0.00    -0.168 C  
HETATM   38  C   UNL     1      -8.888  10.271  68.661  1.00  0.00    -0.137 C  
HETATM   39  O   UNL     1      -8.276  12.507  68.102  1.00  0.00    -0.154 OA 
HETATM   40  H   UNL     1      -7.429  12.379  68.514  1.00  0.00     0.000 HD 
HETATM   41  C   UNL     1      -9.004   9.085  67.721  1.00  0.00    -0.127 C  
HETATM   42  O   UNL     1      -9.461   8.046  68.224  1.00  0.00    -0.140 OA 
HETATM   43  C   UNL     1      -8.514   9.059  66.212  1.00  0.00    -0.132 C  
HETATM   44  C   UNL     1      -8.283  10.345  65.287  1.00  0.00    -0.162 A  
HETATM   45  N   UNL     1      -7.665  11.521  65.512  1.00  0.00     0.544 NA 
HETATM   46  C   UNL     1      -8.449  12.509  64.844  1.00  0.00     2.407 A  
HETATM   47  C   UNL     1      -9.213  11.793  63.929  1.00  0.00     0.203 A  
HETATM   48  C   UNL     1      -8.687  14.032  65.171  1.00  0.00     2.985 C  
HETATM   49  O   UNL     1      -9.157  10.447  64.227  1.00  0.00    -0.199 OA 
HETATM   50  O   UNL     1      -9.446  14.678  64.444  1.00  0.00     0.978 OA 
ENDBRANCH   8  11
ENDBRANCH   7   8
ENDBRANCH   6   7
ENDBRANCH   3   6
ENDBRANCH   2   3
TORSDOF 6
ENDMDL
MODEL       78
REMARK 921   NORMALIZED FREE ENERGY PREDICTED BY IDOCK:   56.21 KCAL/MOL
REMARK 922        TOTAL FREE ENERGY PREDICTED BY IDOCK:   74.79 KCAL/MOL
REMARK 923 INTER-LIGAND FREE ENERGY PREDICTED BY IDOCK:   11.04 KCAL/MOL
REMARK 924 INTRA-LIGAND FREE ENERGY PREDICTED BY IDOCK:   63.75 KCAL/MOL
REMARK 927      BINDING AFFINITY PREDICTED BY RF-SCORE:    0.00 PKD
ROOT
HETATM    1  C   UNL     1     -10.242   7.769  69.391  1.00  0.00    -0.208 C  
HETATM    2  C   UNL     1      -9.104   7.029  68.678  1.00  0.00    -0.132 C  
ENDROOT
BRANCH   2   3
HETATM    3  N   UNL     1      -7.913   6.812  69.510  1.00  0.00    -0.122 NA 
BRANCH   3   4
HETATM    4  C   UNL     1      -7.543   7.993  70.320  1.00  0.00    -0.081 C  
HETATM    5  C   UNL     1      -7.757   7.867  71.826  1.00  0.00    -0.103 C  
ENDBRANCH   3   4
BRANCH   3   6
HETATM    6  C   UNL     1      -8.029   5.546  70.271  1.00  0.00    -0.101 C  
BRANCH   6   7
HETATM    7  C   UNL     1      -9.044   5.732  71.373  1.00  0.00    -0.140 C  
BRANCH   7   8
HETATM    8  S   UNL     1     -10.529   6.650  70.998  1.00  0.00    -0.218 S  
HETATM    9  O   UNL     1     -11.415   5.752  70.233  1.00  0.00    -0.180 OA 
HETATM   10  O   UNL     1     -10.974   7.340  72.176  1.00  0.00    -0.225 OA 
BRANCH   8  11
HETATM   11  C   UNL     1      -9.813   7.786  69.872  1.00  0.00    -0.177 C  
HETATM   12  C   UNL     1      -9.335   9.060  70.565  1.00  0.00    -0.262 C  
HETATM   13  C   UNL     1      -9.577  10.179  69.601  1.00  0.00    -0.210 C  
HETATM   14  N   UNL     1     -10.699   9.749  68.779  1.00  0.00    -0.221 N  
HETATM   15  C   UNL     1     -10.610   8.110  68.571  1.00  0.00    -0.100 C  
HETATM   16  C   UNL     1      -9.646   7.163  67.436  1.00  0.00    -0.137 C  
HETATM   17  O   UNL     1     -10.215   6.325  66.472  1.00  0.00    -0.166 OA 
HETATM   18  O   UNL     1      -8.411   7.191  67.559  1.00  0.00    -0.115 OA 
HETATM   19  C   UNL     1      -9.555   5.447  65.264  1.00  0.00     0.206 C  
HETATM   20  C   UNL     1      -8.626   6.097  64.060  1.00  0.00     0.269 C  
HETATM   21  C   UNL     1      -9.360   3.863  65.322  1.00  0.00    -0.159 C  
HETATM   22  C   UNL     1      -8.755   3.207  66.549  1.00  0.00    -0.133 C  
HETATM   23  C   UNL     1     -10.604   3.057  64.872  1.00  0.00     0.699 C  
HETATM   24  C   UNL     1      -8.185   5.219  62.871  1.00  0.00    -0.106 C  
HETATM   25  C   UNL     1      -7.424   6.984  64.293  1.00  0.00    -0.098 C  
HETATM   26  C   UNL     1      -6.786   7.197  65.444  1.00  0.00    -0.052 C  
HETATM   27  C   UNL     1      -6.719   8.637  65.864  1.00  0.00    -0.061 C  
HETATM   28  O   UNL     1      -5.790   9.073  66.496  1.00  0.00    -0.052 OA 
HETATM   29  N   UNL     1      -7.900   9.367  65.681  1.00  0.00    -0.098 N  
HETATM   30  C   UNL     1      -9.069   9.034  64.841  1.00  0.00    -0.072 C  
HETATM   31  H   UNL     1      -7.961  10.246  66.197  1.00  0.00     0.000 HD 
HETATM   32  C   UNL     1     -10.208   9.865  65.140  1.00  0.00    -0.027 C  
HETATM   33  C   UNL     1     -11.470  10.033  64.776  1.00  0.00     3.924 C  
HETATM   34  C   UNL     1     -12.184  11.205  65.252  1.00  0.00     1.877 C  
HETATM   35  C   UNL     1     -11.599  12.254  65.871  1.00  0.00    -0.450 C  
HETATM   36  C   UNL     1     -13.659  11.312  64.932  1.00  0.00     5.449 C  
HETATM   37  C   UNL     1     -10.206  12.547  66.422  1.00  0.00    -0.244 C  
HETATM   38  C   UNL     1      -9.374  13.666  65.935  1.00  0.00     0.046 C  
HETATM   39  O   UNL     1      -9.438  11.633  67.181  1.00  0.00    -0.174 OA 
HETATM   40  H   UNL     1      -8.570  11.816  67.524  1.00  0.00     0.000 HD 
HETATM   41  C   UNL     1     -10.140  14.945  66.221  1.00  0.00    -0.283 C  
HETATM   42  O   UNL     1     -10.040  15.833  65.359  1.00  0.00    -0.348 OA 
HETATM   43  C   UNL     1     -10.962  15.247  67.544  1.00  0.00    -0.315 C  
HETATM   44  C   UNL     1     -11.534  14.147  68.555  1.00  0.00    -0.300 A  
HETATM   45  N   UNL     1     -10.981  13.044  69.099  1.00  0.00    -0.189 NA 
HETATM   46  C   UNL     1     -12.016  12.063  69.133  1.00  0.00    -0.268 A  
HETATM   47  C   UNL     1     -13.195  12.790  69.010  1.00  0.00     2.884 A  
HETATM   48  C   UNL     1     -11.952  10.491  69.041  1.00  0.00    -0.023 C  
HETATM   49  O   UNL     1     -12.909  14.077  68.601  1.00  0.00     0.556 OA 
HETATM   50  O   UNL     1     -13.009   9.857  69.065  1.00  0.00     1.475 OA 
ENDBRANCH   8  11
ENDBRANCH   7   8
ENDBRANCH   6   7
ENDBRANCH   3   6
ENDBRANCH   2   3
TORSDOF 6
ENDMDL
MODEL       79
REMARK 921   NORMALIZED FREE ENERGY PREDICTED BY IDOCK:   60.07 KCAL/MOL
REMARK 922        TOTAL FREE ENERGY PREDICTED BY IDOCK:   79.99 KCAL/MOL
REMARK 923 INTER-LIGAND FREE ENERGY PREDICTED BY IDOCK:    9.03 KCAL/MOL
REMARK 924 INTRA-LIGAND FREE ENERGY PREDICTED BY IDOCK:   70.96 KCAL/MOL
REMARK 927      BINDING AFFINITY PREDICTED BY RF-SCORE:    0.00 PKD
ROOT
HETATM    1  C   UNL     1      -8.579   9.790  66.835  1.00  0.00    -0.128 C  
HETATM    2  C   UNL     1      -7.408   8.811  66.690  1.00  0.00    -0.082 C  
ENDROOT
BRANCH   2   3
HETATM    3  N   UNL     1      -7.519   7.611  67.530  1.00  0.00    -0.102 NA 
BRANCH   3   4
HETATM    4  C   UNL     1      -8.844   7.468  68.170  1.00  0.00    -0.127 C  
HETATM    5  C   UNL     1      -9.694   6.292  67.696  1.00  0.00    -0.126 C  
ENDBRANCH   3   4
BRANCH   3   6
HETATM    6  C   UNL     1      -7.047   6.412  66.798  1.00  0.00    -0.073 C  
BRANCH   6   7
HETATM    7  C   UNL     1      -8.246   5.672  66.253  1.00  0.00    -0.108 C  
BRANCH   7   8
HETATM    8  S   UNL     1      -9.258   6.499  65.036  1.00  0.00     0.908 S  
HETATM    9  O   UNL     1      -8.347   7.232  64.137  1.00  0.00    -0.007 OA 
HETATM   10  O   UNL     1     -10.248   5.584  64.539  1.00  0.00     1.206 OA 
BRANCH   8  11
HETATM   11  C   UNL     1     -10.002   7.662  66.114  1.00  0.00     0.202 C  
HETATM   12  C   UNL     1     -11.228   8.323  65.488  1.00  0.00     6.049 C  
HETATM   13  C   UNL     1     -11.240   9.738  65.979  1.00  0.00     1.446 C  
HETATM   14  N   UNL     1      -9.847  10.068  66.245  1.00  0.00    -0.222 N  
HETATM   15  C   UNL     1      -9.072   8.713  66.793  1.00  0.00    -0.149 C  
HETATM   16  C   UNL     1      -9.027   8.010  68.411  1.00  0.00    -0.133 C  
HETATM   17  O   UNL     1      -7.844   7.858  69.140  1.00  0.00    -0.105 OA 
HETATM   18  O   UNL     1     -10.087   7.566  68.881  1.00  0.00    -0.181 OA 
HETATM   19  C   UNL     1      -7.559   7.347  70.664  1.00  0.00    -0.086 C  
HETATM   20  C   UNL     1      -8.221   8.051  72.005  1.00  0.00    -0.174 C  
HETATM   21  C   UNL     1      -6.986   5.901  71.022  1.00  0.00    -0.067 C  
HETATM   22  C   UNL     1      -7.578   4.659  70.383  1.00  0.00    -0.054 C  
HETATM   23  C   UNL     1      -5.440   5.807  70.985  1.00  0.00    -0.013 C  
HETATM   24  C   UNL     1      -7.765   7.607  73.410  1.00  0.00    -0.142 C  
HETATM   25  C   UNL     1      -9.698   8.312  72.193  1.00  0.00    -0.344 C  
HETATM   26  C   UNL     1     -10.704   7.833  71.461  1.00  0.00    -0.255 C  
HETATM   27  C   UNL     1     -11.584   8.882  70.844  1.00  0.00    -0.283 C  
HETATM   28  O   UNL     1     -12.758   8.696  70.650  1.00  0.00     0.123 OA 
HETATM   29  N   UNL     1     -10.908   9.982  70.300  1.00  0.00    -0.294 N  
HETATM   30  C   UNL     1      -9.517  10.419  70.539  1.00  0.00     0.975 C  
HETATM   31  H   UNL     1     -11.448  10.557  69.652  1.00  0.00     0.000 HD 
HETATM   32  C   UNL     1      -9.084  11.404  69.580  1.00  0.00     1.001 C  
HETATM   33  C   UNL     1      -8.015  12.119  69.266  1.00  0.00     0.489 C  
HETATM   34  C   UNL     1      -8.149  13.184  68.288  1.00  0.00    -0.152 C  
HETATM   35  C   UNL     1      -9.330  13.645  67.821  1.00  0.00    -0.218 C  
HETATM   36  C   UNL     1      -6.892  13.903  67.848  1.00  0.00    -0.166 C  
HETATM   37  C   UNL     1     -10.788  13.208  67.943  1.00  0.00    -0.242 C  
HETATM   38  C   UNL     1     -11.833  14.071  68.529  1.00  0.00    -0.399 C  
HETATM   39  O   UNL     1     -11.234  11.870  67.835  1.00  0.00    -0.227 OA 
HETATM   40  H   UNL     1     -12.141  11.598  67.911  1.00  0.00     0.000 HD 
HETATM   41  C   UNL     1     -11.912  15.319  67.668  1.00  0.00     0.084 C  
HETATM   42  O   UNL     1     -12.127  16.378  68.279  1.00  0.00     0.207 OA 
HETATM   43  C   UNL     1     -11.830  15.348  66.084  1.00  0.00     0.339 C  
HETATM   44  C   UNL     1     -11.180  14.209  65.165  1.00  0.00    -0.337 A  
HETATM   45  N   UNL     1     -11.290  12.866  65.178  1.00  0.00    -0.291 NA 
HETATM   46  C   UNL     1      -9.992  12.365  64.859  1.00  0.00    -0.184 A  
HETATM   47  C   UNL     1      -9.337  13.438  64.265  1.00  0.00     1.904 A  
HETATM   48  C   UNL     1      -9.268  11.031  65.282  1.00  0.00    -0.207 C  
HETATM   49  O   UNL     1     -10.043  14.601  64.494  1.00  0.00    -0.154 OA 
HETATM   50  O   UNL     1      -8.114  10.839  64.891  1.00  0.00    -0.075 OA 
ENDBRANCH   8  11
ENDBRANCH   7   8
ENDBRANCH   6   7
ENDBRANCH   3   6
ENDBRANCH   2   3
TORSDOF 6
ENDMDL
MODEL       80
REMARK 921   NORMALIZED FREE ENERGY PREDICTED BY IDOCK:   61.42 KCAL/MOL
REMARK 922        TOTAL FREE ENERGY PREDICTED BY IDOCK:   81.82 KCAL/MOL
REMARK 923 INTER-LIGAND FREE ENERGY PREDICTED BY IDOCK:   80.44 KCAL/MOL
REMARK 924 INTRA-LIGAND FREE ENERGY PREDICTED BY IDOCK:    1.38 KCAL/MOL
REMARK 927      BINDING AFFINITY PREDICTED BY RF-SCORE:    0.00 PKD
ROOT
HETATM    1  C   UNL     1      -8.481  12.959  62.514  1.00  0.00     6.889 C  
HETATM    2  C   UNL     1      -7.597  12.468  63.667  1.00  0.00     6.812 C  
ENDROOT
BRANCH   2   3
HETATM    3  N   UNL     1      -8.331  12.179  64.907  1.00  0.00     1.615 NA 
BRANCH   3   4
HETATM    4  C   UNL     1      -9.513  13.046  65.101  1.00  0.00     0.349 C  
HETATM    5  C   UNL     1      -9.769  14.084  64.013  1.00  0.00     2.596 C  
ENDBRANCH   3   4
BRANCH   3   6
HETATM    6  C   UNL     1      -8.595  10.726  65.033  1.00  0.00    -0.110 C  
BRANCH   6   7
HETATM    7  C   UNL     1     -10.082  10.490  64.908  1.00  0.00    -0.333 C  
BRANCH   7   8
HETATM    8  S   UNL     1     -10.765   9.034  65.683  1.00  0.00     2.555 S  
HETATM    9  O   UNL     1     -12.142   9.367  66.097  1.00  0.00     4.885 OA 
HETATM   10  O   UNL     1     -10.468   7.882  64.879  1.00  0.00     3.978 OA 
BRANCH   8  11
HETATM   11  C   UNL     1      -9.755   9.045  67.114  1.00  0.00    -0.181 C  
HETATM   12  C   UNL     1      -8.447   8.287  66.901  1.00  0.00    -0.118 C  
HETATM   13  C   UNL     1      -8.127   7.626  68.206  1.00  0.00    -0.124 C  
HETATM   14  N   UNL     1      -9.410   7.410  68.857  1.00  0.00    -0.145 N  
HETATM   15  C   UNL     1     -10.423   8.660  68.470  1.00  0.00    -0.172 C  
HETATM   16  C   UNL     1     -10.543  10.277  69.166  1.00  0.00    -0.230 C  
HETATM   17  O   UNL     1     -11.702  10.750  69.790  1.00  0.00    -0.270 OA 
HETATM   18  O   UNL     1      -9.578  11.044  69.023  1.00  0.00    -0.190 OA 
HETATM   19  C   UNL     1     -12.022  12.137  70.589  1.00  0.00    -0.137 C  
HETATM   20  C   UNL     1     -11.176  12.647  71.915  1.00  0.00     5.364 C  
HETATM   21  C   UNL     1     -12.864  13.344  69.969  1.00  0.00     0.216 C  
HETATM   22  C   UNL     1     -12.565  13.852  68.571  1.00  0.00     0.539 C  
HETATM   23  C   UNL     1     -14.396  13.201  70.144  1.00  0.00     5.490 C  
HETATM   24  C   UNL     1     -11.655  13.884  72.703  1.00  0.00     1.952 C  
HETATM   25  C   UNL     1      -9.671  12.769  71.973  1.00  0.00    16.927 C  
HETATM   26  C   UNL     1      -8.814  12.720  70.951  1.00  0.00     9.945 C  
HETATM   27  C   UNL     1      -7.765  11.652  71.065  1.00  0.00     5.891 C  
HETATM   28  O   UNL     1      -6.662  11.789  70.600  1.00  0.00     0.207 OA 
HETATM   29  N   UNL     1      -8.224  10.413  71.531  1.00  0.00     2.919 N  
HETATM   30  C   UNL     1      -9.486  10.102  72.236  1.00  0.00     5.776 C  
HETATM   31  H   UNL     1      -7.605   9.619  71.361  1.00  0.00     0.000 HD 
HETATM   32  C   UNL     1      -9.747   8.686  72.285  1.00  0.00    -0.357 C  
HETATM   33  C   UNL     1     -10.660   7.834  72.724  1.00  0.00    -0.401 C  
HETATM   34  C   UNL     1     -10.351   6.415  72.716  1.00  0.00    -0.222 C  
HETATM   35  C   UNL     1      -9.121   5.904  72.490  1.00  0.00    -0.135 C  
HETATM   36  C   UNL     1     -11.452   5.450  73.099  1.00  0.00    -0.273 C  
HETATM   37  C   UNL     1      -7.779   6.472  72.034  1.00  0.00    -0.098 C  
HETATM   38  C   UNL     1      -6.557   6.391  72.858  1.00  0.00    -0.065 C  
HETATM   39  O   UNL     1      -7.621   7.400  70.978  1.00  0.00    -0.083 OA 
HETATM   40  H   UNL     1      -6.786   7.754  70.694  1.00  0.00     0.000 HD 
HETATM   41  C   UNL     1      -6.260   4.917  73.067  1.00  0.00    -0.041 C  
HETATM   42  O   UNL     1      -5.809   4.615  74.183  1.00  0.00    -0.023 OA 
HETATM   43  C   UNL     1      -6.400   3.787  71.962  1.00  0.00    -0.014 C  
HETATM   44  C   UNL     1      -7.305   3.880  70.646  1.00  0.00    -0.041 A  
HETATM   45  N   UNL     1      -7.472   4.855  69.730  1.00  0.00    -0.055 NA 
HETATM   46  C   UNL     1      -8.857   4.835  69.385  1.00  0.00    -0.084 A  
HETATM   47  C   UNL     1      -9.303   3.583  69.794  1.00  0.00    -0.174 A  
HETATM   48  C   UNL     1      -9.820   5.989  68.914  1.00  0.00    -0.140 C  
HETATM   49  O   UNL     1      -8.365   3.000  70.621  1.00  0.00    -0.054 OA 
HETATM   50  O   UNL     1     -11.004   5.716  68.700  1.00  0.00    -0.199 OA 
ENDBRANCH   8  11
ENDBRANCH   7   8
ENDBRANCH   6   7
ENDBRANCH   3   6
ENDBRANCH   2   3
TORSDOF 6
ENDMDL
MODEL       81
REMARK 921   NORMALIZED FREE ENERGY PREDICTED BY IDOCK:   61.91 KCAL/MOL
REMARK 922        TOTAL FREE ENERGY PREDICTED BY IDOCK:   82.48 KCAL/MOL
REMARK 923 INTER-LIGAND FREE ENERGY PREDICTED BY IDOCK:   66.07 KCAL/MOL
REMARK 924 INTRA-LIGAND FREE ENERGY PREDICTED BY IDOCK:   16.41 KCAL/MOL
REMARK 927      BINDING AFFINITY PREDICTED BY RF-SCORE:    0.00 PKD
ROOT
HETATM    1  C   UNL     1     -11.597  16.499  63.311  1.00  0.00     4.430 C  
HETATM    2  C   UNL     1     -10.852  17.409  64.294  1.00  0.00     2.617 C  
ENDROOT
BRANCH   2   3
HETATM    3  N   UNL     1     -11.483  17.512  65.616  1.00  0.00     0.925 NA 
BRANCH   3   4
HETATM    4  C   UNL     1     -12.925  17.182  65.601  1.00  0.00     8.448 C  
HETATM    5  C   UNL     1     -13.322  15.878  66.288  1.00  0.00     4.771 C  
ENDBRANCH   3   4
BRANCH   3   6
HETATM    6  C   UNL     1     -10.688  16.787  66.634  1.00  0.00    -0.107 C  
BRANCH   6   7
HETATM    7  C   UNL     1     -11.452  16.785  67.937  1.00  0.00     0.213 C  
BRANCH   7   8
HETATM    8  S   UNL     1     -10.549  16.431  69.436  1.00  0.00    -0.326 S  
HETATM    9  O   UNL     1      -9.146  16.825  69.203  1.00  0.00    -0.227 OA 
HETATM   10  O   UNL     1     -11.297  16.906  70.567  1.00  0.00     0.061 OA 
BRANCH   8  11
HETATM   11  C   UNL     1     -10.639  14.684  69.347  1.00  0.00    -0.196 C  
HETATM   12  C   UNL     1     -10.604  14.035  70.729  1.00  0.00     1.785 C  
HETATM   13  C   UNL     1      -9.844  12.754  70.572  1.00  0.00     5.334 C  
HETATM   14  N   UNL     1      -8.938  12.974  69.455  1.00  0.00     1.014 N  
HETATM   15  C   UNL     1      -9.677  13.963  68.354  1.00  0.00    -0.226 C  
HETATM   16  C   UNL     1     -10.851  13.577  67.094  1.00  0.00    -0.284 C  
HETATM   17  O   UNL     1     -10.602  13.789  65.734  1.00  0.00    -0.281 OA 
HETATM   18  O   UNL     1     -11.970  13.171  67.446  1.00  0.00    -0.365 OA 
HETATM   19  C   UNL     1     -11.465  13.424  64.397  1.00  0.00    -0.384 C  
HETATM   20  C   UNL     1     -11.943  11.890  64.006  1.00  0.00    -0.455 C  
HETATM   21  C   UNL     1     -12.299  14.497  63.559  1.00  0.00     0.490 C  
HETATM   22  C   UNL     1     -13.218  15.477  64.263  1.00  0.00     1.733 C  
HETATM   23  C   UNL     1     -11.466  15.252  62.493  1.00  0.00     6.746 C  
HETATM   24  C   UNL     1     -12.608  11.618  62.641  1.00  0.00     1.046 C  
HETATM   25  C   UNL     1     -12.686  10.963  64.939  1.00  0.00     4.292 C  
HETATM   26  C   UNL     1     -13.271  11.276  66.096  1.00  0.00     7.873 C  
HETATM   27  C   UNL     1     -12.772  10.497  67.279  1.00  0.00     6.383 C  
HETATM   28  O   UNL     1     -13.486  10.229  68.212  1.00  0.00     5.510 OA 
HETATM   29  N   UNL     1     -11.385  10.314  67.330  1.00  0.00    -0.257 N  
HETATM   30  C   UNL     1     -10.393  10.472  66.246  1.00  0.00    -0.212 C  
HETATM   31  H   UNL     1     -11.009  10.034  68.237  1.00  0.00     0.000 HD 
HETATM   32  C   UNL     1      -9.041  10.496  66.745  1.00  0.00    -0.167 C  
HETATM   33  C   UNL     1      -7.797  10.627  66.310  1.00  0.00    -0.150 C  
HETATM   34  C   UNL     1      -6.705  10.361  67.229  1.00  0.00    -0.076 C  
HETATM   35  C   UNL     1      -6.853   9.785  68.442  1.00  0.00    -0.060 C  
HETATM   36  C   UNL     1      -5.296  10.641  66.753  1.00  0.00    -0.049 C  
HETATM   37  C   UNL     1      -8.041   9.395  69.319  1.00  0.00    -0.105 C  
HETATM   38  C   UNL     1      -8.295   8.005  69.747  1.00  0.00    -0.122 C  
HETATM   39  O   UNL     1      -9.176  10.211  69.535  1.00  0.00    -0.206 OA 
HETATM   40  H   UNL     1      -9.915   9.969  70.080  1.00  0.00     0.000 HD 
HETATM   41  C   UNL     1      -7.095   7.567  70.568  1.00  0.00    -0.056 C  
HETATM   42  O   UNL     1      -6.751   6.384  70.424  1.00  0.00    -0.047 OA 
HETATM   43  C   UNL     1      -6.332   8.467  71.630  1.00  0.00    -0.055 C  
HETATM   44  C   UNL     1      -6.348  10.067  71.676  1.00  0.00     0.480 A  
HETATM   45  N   UNL     1      -7.349  10.964  71.572  1.00  0.00     3.198 NA 
HETATM   46  C   UNL     1      -6.817  12.058  70.826  1.00  0.00     2.201 A  
HETATM   47  C   UNL     1      -5.437  11.913  70.923  1.00  0.00    -0.112 A  
HETATM   48  C   UNL     1      -7.516  13.079  69.851  1.00  0.00     1.250 C  
HETATM   49  O   UNL     1      -5.133  10.656  71.405  1.00  0.00    -0.090 OA 
HETATM   50  O   UNL     1      -6.819  13.933  69.295  1.00  0.00    -0.115 OA 
ENDBRANCH   8  11
ENDBRANCH   7   8
ENDBRANCH   6   7
ENDBRANCH   3   6
ENDBRANCH   2   3
TORSDOF 6
ENDMDL
MODEL       82
REMARK 921   NORMALIZED FREE ENERGY PREDICTED BY IDOCK:   62.02 KCAL/MOL
REMARK 922        TOTAL FREE ENERGY PREDICTED BY IDOCK:   82.63 KCAL/MOL
REMARK 923 INTER-LIGAND FREE ENERGY PREDICTED BY IDOCK:   83.49 KCAL/MOL
REMARK 924 INTRA-LIGAND FREE ENERGY PREDICTED BY IDOCK:   -0.86 KCAL/MOL
REMARK 927      BINDING AFFINITY PREDICTED BY RF-SCORE:    0.00 PKD
ROOT
HETATM    1  C   UNL     1     -11.215   4.012  64.061  1.00  0.00     0.322 C  
HETATM    2  C   UNL     1     -10.052   4.567  64.894  1.00  0.00    -0.041 C  
ENDROOT
BRANCH   2   3
HETATM    3  N   UNL     1     -10.233   5.958  65.329  1.00  0.00     1.019 NA 
BRANCH   3   4
HETATM    4  C   UNL     1     -11.641   6.295  65.636  1.00  0.00     3.715 C  
HETATM    5  C   UNL     1     -12.079   6.086  67.083  1.00  0.00     3.381 C  
ENDBRANCH   3   4
BRANCH   3   6
HETATM    6  C   UNL     1      -9.263   6.305  66.393  1.00  0.00    -0.156 C  
BRANCH   6   7
HETATM    7  C   UNL     1      -8.728   7.693  66.129  1.00  0.00    -0.156 C  
BRANCH   7   8
HETATM    8  S   UNL     1      -7.000   7.999  66.457  1.00  0.00    -0.072 S  
HETATM    9  O   UNL     1      -6.755   7.649  67.869  1.00  0.00    -0.062 OA 
HETATM   10  O   UNL     1      -6.208   7.457  65.388  1.00  0.00    -0.037 OA 
BRANCH   8  11
HETATM   11  C   UNL     1      -7.053   9.746  66.337  1.00  0.00    -0.094 C  
HETATM   12  C   UNL     1      -5.688  10.382  66.590  1.00  0.00    -0.059 C  
HETATM   13  C   UNL     1      -5.951  11.673  67.301  1.00  0.00    -0.112 C  
HETATM   14  N   UNL     1      -7.203  11.474  68.017  1.00  0.00    -0.081 N  
HETATM   15  C   UNL     1      -8.181  10.488  67.119  1.00  0.00    -0.123 C  
HETATM   16  C   UNL     1      -9.230  10.873  65.753  1.00  0.00    -0.201 C  
HETATM   17  O   UNL     1     -10.615  10.676  65.781  1.00  0.00    -0.194 OA 
HETATM   18  O   UNL     1      -8.696  11.262  64.702  1.00  0.00     0.049 OA 
HETATM   19  C   UNL     1     -11.790  11.045  64.710  1.00  0.00     1.064 C  
HETATM   20  C   UNL     1     -12.082  12.577  64.160  1.00  0.00    -0.530 C  
HETATM   21  C   UNL     1     -12.494   9.971  63.761  1.00  0.00     8.581 C  
HETATM   22  C   UNL     1     -11.662   8.973  62.977  1.00  0.00    14.475 C  
HETATM   23  C   UNL     1     -13.689   9.236  64.417  1.00  0.00    18.410 C  
HETATM   24  C   UNL     1     -13.317  12.854  63.280  1.00  0.00     1.543 C  
HETATM   25  C   UNL     1     -11.030  13.487  63.569  1.00  0.00     0.562 C  
HETATM   26  C   UNL     1      -9.797  13.156  63.182  1.00  0.00     3.019 C  
HETATM   27  C   UNL     1      -8.702  13.929  63.858  1.00  0.00     8.167 C  
HETATM   28  O   UNL     1      -7.662  14.180  63.302  1.00  0.00    14.196 OA 
HETATM   29  N   UNL     1      -8.873  14.127  65.234  1.00  0.00     1.087 N  
HETATM   30  C   UNL     1     -10.105  13.991  66.039  1.00  0.00    -0.315 C  
HETATM   31  H   UNL     1      -8.036  14.402  65.749  1.00  0.00     0.000 HD 
HETATM   32  C   UNL     1      -9.832  13.977  67.453  1.00  0.00    -0.240 C  
HETATM   33  C   UNL     1     -10.463  13.864  68.612  1.00  0.00    -0.249 C  
HETATM   34  C   UNL     1      -9.730  14.133  69.836  1.00  0.00     1.043 C  
HETATM   35  C   UNL     1      -8.503  14.696  69.881  1.00  0.00     0.544 C  
HETATM   36  C   UNL     1     -10.431  13.874  71.152  1.00  0.00     3.435 C  
HETATM   37  C   UNL     1      -7.441  15.064  68.847  1.00  0.00    -0.143 C  
HETATM   38  C   UNL     1      -6.962  16.447  68.652  1.00  0.00    -0.159 C  
HETATM   39  O   UNL     1      -7.054  14.234  67.769  1.00  0.00    -0.144 OA 
HETATM   40  H   UNL     1      -6.393  14.462  67.125  1.00  0.00     0.000 HD 
HETATM   41  C   UNL     1      -6.340  16.890  69.965  1.00  0.00     0.044 C  
HETATM   42  O   UNL     1      -6.525  18.079  70.270  1.00  0.00     0.140 OA 
HETATM   43  C   UNL     1      -5.427  15.989  70.898  1.00  0.00    -0.014 C  
HETATM   44  C   UNL     1      -5.396  14.388  70.904  1.00  0.00    -0.147 A  
HETATM   45  N   UNL     1      -5.348  13.481  69.909  1.00  0.00    -0.086 NA 
HETATM   46  C   UNL     1      -6.182  12.400  70.323  1.00  0.00     0.020 A  
HETATM   47  C   UNL     1      -6.308  12.560  71.699  1.00  0.00     2.608 A  
HETATM   48  C   UNL     1      -7.043  11.381  69.485  1.00  0.00    -0.019 C  
HETATM   49  O   UNL     1      -5.867  13.815  72.065  1.00  0.00    -0.403 OA 
HETATM   50  O   UNL     1      -7.713  10.541  70.091  1.00  0.00    -0.090 OA 
ENDBRANCH   8  11
ENDBRANCH   7   8
ENDBRANCH   6   7
ENDBRANCH   3   6
ENDBRANCH   2   3
TORSDOF 6
ENDMDL
MODEL       83
REMARK 921   NORMALIZED FREE ENERGY PREDICTED BY IDOCK:   64.82 KCAL/MOL
REMARK 922        TOTAL FREE ENERGY PREDICTED BY IDOCK:   86.42 KCAL/MOL
REMARK 923 INTER-LIGAND FREE ENERGY PREDICTED BY IDOCK:   84.41 KCAL/MOL
REMARK 924 INTRA-LIGAND FREE ENERGY PREDICTED BY IDOCK:    2.00 KCAL/MOL
REMARK 927      BINDING AFFINITY PREDICTED BY RF-SCORE:    0.00 PKD
ROOT
HETATM    1  C   UNL     1      -7.574  20.710  65.001  1.00  0.00     0.525 C  
HETATM    2  C   UNL     1      -8.570  20.038  65.954  1.00  0.00    -0.104 C  
ENDROOT
BRANCH   2   3
HETATM    3  N   UNL     1      -9.904  19.823  65.377  1.00  0.00    -0.151 NA 
BRANCH   3   4
HETATM    4  C   UNL     1      -9.982  18.617  64.524  1.00  0.00     5.296 C  
HETATM    5  C   UNL     1     -11.386  18.148  64.153  1.00  0.00     5.336 C  
ENDBRANCH   3   4
BRANCH   3   6
HETATM    6  C   UNL     1     -10.949  19.914  66.423  1.00  0.00    -0.051 C  
BRANCH   6   7
HETATM    7  C   UNL     1     -10.739  18.799  67.420  1.00  0.00    -0.424 C  
BRANCH   7   8
HETATM    8  S   UNL     1     -11.722  17.320  67.240  1.00  0.00     1.793 S  
HETATM    9  O   UNL     1     -12.478  17.144  68.495  1.00  0.00     1.619 OA 
HETATM   10  O   UNL     1     -12.366  17.329  65.956  1.00  0.00     3.759 OA 
BRANCH   8  11
HETATM   11  C   UNL     1     -10.402  16.169  67.242  1.00  0.00    -0.287 C  
HETATM   12  C   UNL     1     -10.051  15.695  65.833  1.00  0.00    -0.378 C  
HETATM   13  C   UNL     1      -9.650  14.258  65.961  1.00  0.00    -0.243 C  
HETATM   14  N   UNL     1     -10.364  13.758  67.127  1.00  0.00    -0.260 N  
HETATM   15  C   UNL     1     -10.488  14.975  68.240  1.00  0.00    -0.237 C  
HETATM   16  C   UNL     1      -9.315  15.547  69.428  1.00  0.00    -0.279 C  
HETATM   17  O   UNL     1      -9.551  15.514  70.806  1.00  0.00     0.668 OA 
HETATM   18  O   UNL     1      -8.270  16.070  69.007  1.00  0.00    -0.209 OA 
HETATM   19  C   UNL     1      -8.603  15.877  72.084  1.00  0.00     9.296 C  
HETATM   20  C   UNL     1      -7.147  15.153  72.380  1.00  0.00     3.786 C  
HETATM   21  C   UNL     1      -8.738  17.221  72.936  1.00  0.00    17.050 C  
HETATM   22  C   UNL     1      -8.849  18.565  72.239  1.00  0.00    12.069 C  
HETATM   23  C   UNL     1      -9.788  17.146  74.072  1.00  0.00    11.558 C  
HETATM   24  C   UNL     1      -6.401  15.439  73.700  1.00  0.00     2.932 C  
HETATM   25  C   UNL     1      -6.026  15.043  71.372  1.00  0.00     0.314 C  
HETATM   26  C   UNL     1      -5.920  15.683  70.207  1.00  0.00    -0.102 C  
HETATM   27  C   UNL     1      -5.785  14.785  69.011  1.00  0.00    -0.092 C  
HETATM   28  O   UNL     1      -5.158  15.113  68.035  1.00  0.00    -0.111 OA 
HETATM   29  N   UNL     1      -6.621  13.661  69.011  1.00  0.00    -0.105 N  
HETATM   30  C   UNL     1      -7.352  13.056  70.144  1.00  0.00     1.617 C  
HETATM   31  H   UNL     1      -6.740  13.198  68.109  1.00  0.00     0.000 HD 
HETATM   32  C   UNL     1      -8.340  12.103  69.707  1.00  0.00     1.962 C  
HETATM   33  C   UNL     1      -9.270  11.300  70.202  1.00  0.00     2.159 C  
HETATM   34  C   UNL     1      -9.897  10.332  69.320  1.00  0.00    -0.244 C  
HETATM   35  C   UNL     1      -9.460  10.039  68.076  1.00  0.00    -0.150 C  
HETATM   36  C   UNL     1     -11.045   9.514  69.871  1.00  0.00    -0.244 C  
HETATM   37  C   UNL     1      -8.413  10.623  67.130  1.00  0.00    -0.128 C  
HETATM   38  C   UNL     1      -7.268   9.840  66.625  1.00  0.00    -0.090 C  
HETATM   39  O   UNL     1      -8.223  12.007  66.904  1.00  0.00    -0.171 OA 
HETATM   40  H   UNL     1      -7.572  12.370  66.316  1.00  0.00     0.000 HD 
HETATM   41  C   UNL     1      -7.841   8.675  65.837  1.00  0.00    -0.102 C  
HETATM   42  O   UNL     1      -7.222   7.604  65.940  1.00  0.00    -0.067 OA 
HETATM   43  C   UNL     1      -9.084   8.755  64.855  1.00  0.00     0.017 C  
HETATM   44  C   UNL     1     -10.223   9.879  64.884  1.00  0.00     0.203 A  
HETATM   45  N   UNL     1     -10.164  11.222  64.988  1.00  0.00    -0.267 NA 
HETATM   46  C   UNL     1     -11.269  11.600  65.808  1.00  0.00    -0.230 A  
HETATM   47  C   UNL     1     -12.129  10.508  65.764  1.00  0.00     3.796 A  
HETATM   48  C   UNL     1     -11.453  12.810  66.799  1.00  0.00    -0.343 C  
HETATM   49  O   UNL     1     -11.471   9.416  65.237  1.00  0.00     3.908 OA 
HETATM   50  O   UNL     1     -12.512  12.903  67.425  1.00  0.00    -0.180 OA 
ENDBRANCH   8  11
ENDBRANCH   7   8
ENDBRANCH   6   7
ENDBRANCH   3   6
ENDBRANCH   2   3
TORSDOF 6
ENDMDL
MODEL       84
REMARK 921   NORMALIZED FREE ENERGY PREDICTED BY IDOCK:   69.19 KCAL/MOL
REMARK 922        TOTAL FREE ENERGY PREDICTED BY IDOCK:   92.31 KCAL/MOL
REMARK 923 INTER-LIGAND FREE ENERGY PREDICTED BY IDOCK:   65.52 KCAL/MOL
REMARK 924 INTRA-LIGAND FREE ENERGY PREDICTED BY IDOCK:   26.79 KCAL/MOL
REMARK 927      BINDING AFFINITY PREDICTED BY RF-SCORE:    0.00 PKD
ROOT
HETATM    1  C   UNL     1      -8.126   9.321  64.114  1.00  0.00    -0.145 C  
HETATM    2  C   UNL     1      -9.195   8.324  64.575  1.00  0.00     0.964 C  
ENDROOT
BRANCH   2   3
HETATM    3  N   UNL     1     -10.574   8.805  64.419  1.00  0.00     5.210 NA 
BRANCH   3   4
HETATM    4  C   UNL     1     -10.654  10.209  63.959  1.00  0.00     1.242 C  
HETATM    5  C   UNL     1      -9.725  10.591  62.810  1.00  0.00    -0.265 C  
ENDBRANCH   3   4
BRANCH   3   6
HETATM    6  C   UNL     1     -11.379   7.844  63.629  1.00  0.00    18.798 C  
BRANCH   6   7
HETATM    7  C   UNL     1     -10.727   6.484  63.708  1.00  0.00     9.307 C  
BRANCH   7   8
HETATM    8  S   UNL     1     -11.594   5.190  64.582  1.00  0.00     3.186 S  
HETATM    9  O   UNL     1     -12.999   5.227  64.133  1.00  0.00     4.878 OA 
HETATM   10  O   UNL     1     -10.812   3.985  64.547  1.00  0.00    -0.273 OA 
BRANCH   8  11
HETATM   11  C   UNL     1     -11.520   5.908  66.179  1.00  0.00     1.256 C  
HETATM   12  C   UNL     1     -12.804   6.654  66.533  1.00  0.00     9.504 C  
HETATM   13  C   UNL     1     -12.389   7.839  67.350  1.00  0.00     6.536 C  
HETATM   14  N   UNL     1     -11.036   8.156  66.916  1.00  0.00     0.302 N  
HETATM   15  C   UNL     1     -10.255   6.748  66.533  1.00  0.00    -0.054 C  
HETATM   16  C   UNL     1      -9.453   5.577  67.581  1.00  0.00    -0.118 C  
HETATM   17  O   UNL     1      -8.091   5.278  67.482  1.00  0.00    -0.100 OA 
HETATM   18  O   UNL     1     -10.154   4.943  68.386  1.00  0.00    -0.145 OA 
HETATM   19  C   UNL     1      -7.113   4.333  68.386  1.00  0.00    -0.055 C  
HETATM   20  C   UNL     1      -6.886   4.537  70.010  1.00  0.00    -0.041 C  
HETATM   21  C   UNL     1      -6.612   2.886  67.933  1.00  0.00    -0.037 C  
HETATM   22  C   UNL     1      -7.593   1.873  67.372  1.00  0.00    -0.060 C  
HETATM   23  C   UNL     1      -5.339   2.906  67.051  1.00  0.00    -0.013 C  
HETATM   24  C   UNL     1      -5.818   3.704  70.747  1.00  0.00    -0.014 C  
HETATM   25  C   UNL     1      -8.003   4.633  71.024  1.00  0.00    -0.082 C  
HETATM   26  C   UNL     1      -9.292   4.346  70.838  1.00  0.00    -0.218 C  
HETATM   27  C   UNL     1     -10.233   5.479  71.131  1.00  0.00    -0.222 C  
HETATM   28  O   UNL     1     -11.347   5.290  71.548  1.00  0.00     0.029 OA 
HETATM   29  N   UNL     1      -9.818   6.734  70.667  1.00  0.00    -0.179 N  
HETATM   30  C   UNL     1      -8.467   7.161  70.244  1.00  0.00    -0.138 C  
HETATM   31  H   UNL     1     -10.545   7.449  70.613  1.00  0.00     0.000 HD 
HETATM   32  C   UNL     1      -8.488   8.422  69.548  1.00  0.00    -0.124 C  
HETATM   33  C   UNL     1      -7.666   9.264  68.942  1.00  0.00    -0.079 C  
HETATM   34  C   UNL     1      -8.166  10.572  68.556  1.00  0.00    -0.123 C  
HETATM   35  C   UNL     1      -9.352  11.081  68.952  1.00  0.00    -0.155 C  
HETATM   36  C   UNL     1      -7.251  11.469  67.751  1.00  0.00    -0.094 C  
HETATM   37  C   UNL     1     -10.570  10.538  69.697  1.00  0.00    -0.242 C  
HETATM   38  C   UNL     1     -11.043  11.107  70.975  1.00  0.00     1.328 C  
HETATM   39  O   UNL     1     -11.161   9.277  69.451  1.00  0.00    -0.397 OA 
HETATM   40  H   UNL     1     -11.918   8.939  69.914  1.00  0.00     0.000 HD 
HETATM   41  C   UNL     1     -11.413  12.555  70.707  1.00  0.00     1.106 C  
HETATM   42  O   UNL     1     -11.149  13.352  71.620  1.00  0.00     2.780 OA 
HETATM   43  C   UNL     1     -12.170  13.084  69.417  1.00  0.00    -0.167 C  
HETATM   44  C   UNL     1     -12.238  12.335  68.004  1.00  0.00     0.257 A  
HETATM   45  N   UNL     1     -12.482  11.051  67.673  1.00  0.00     1.070 NA 
HETATM   46  C   UNL     1     -11.614  10.757  66.579  1.00  0.00     0.825 A  
HETATM   47  C   UNL     1     -11.245  12.002  66.078  1.00  0.00    -0.335 A  
HETATM   48  C   UNL     1     -10.938   9.407  66.131  1.00  0.00     0.976 C  
HETATM   49  O   UNL     1     -11.584  12.988  66.982  1.00  0.00    -0.321 OA 
HETATM   50  O   UNL     1     -10.192   9.419  65.149  1.00  0.00     0.164 OA 
ENDBRANCH   8  11
ENDBRANCH   7   8
ENDBRANCH   6   7
ENDBRANCH   3   6
ENDBRANCH   2   3
TORSDOF 6
ENDMDL
MODEL       85
REMARK 921   NORMALIZED FREE ENERGY PREDICTED BY IDOCK:   70.17 KCAL/MOL
REMARK 922        TOTAL FREE ENERGY PREDICTED BY IDOCK:   93.65 KCAL/MOL
REMARK 923 INTER-LIGAND FREE ENERGY PREDICTED BY IDOCK:   52.48 KCAL/MOL
REMARK 924 INTRA-LIGAND FREE ENERGY PREDICTED BY IDOCK:   41.16 KCAL/MOL
REMARK 927      BINDING AFFINITY PREDICTED BY RF-SCORE:    0.00 PKD
ROOT
HETATM    1  C   UNL     1      -7.302  10.907  70.933  1.00  0.00     2.231 C  
HETATM    2  C   UNL     1      -7.181  12.075  69.947  1.00  0.00     0.763 C  
ENDROOT
BRANCH   2   3
HETATM    3  N   UNL     1      -8.344  12.971  69.929  1.00  0.00     2.193 NA 
BRANCH   3   4
HETATM    4  C   UNL     1      -9.470  12.449  69.124  1.00  0.00     0.583 C  
HETATM    5  C   UNL     1     -10.005  13.378  68.037  1.00  0.00    -0.239 C  
ENDBRANCH   3   4
BRANCH   3   6
HETATM    6  C   UNL     1      -8.703  13.392  71.303  1.00  0.00    10.506 C  
BRANCH   6   7
HETATM    7  C   UNL     1      -7.440  13.510  72.121  1.00  0.00     7.530 C  
BRANCH   7   8
HETATM    8  S   UNL     1      -6.535  12.014  72.482  1.00  0.00     5.883 S  
HETATM    9  O   UNL     1      -5.488  11.878  71.451  1.00  0.00    -0.360 OA 
HETATM   10  O   UNL     1      -6.234  11.965  73.886  1.00  0.00     2.022 OA 
BRANCH   8  11
HETATM   11  C   UNL     1      -7.814  10.879  72.102  1.00  0.00     8.967 C  
HETATM   12  C   UNL     1      -8.589  10.449  73.346  1.00  0.00    10.469 C  
HETATM   13  C   UNL     1      -8.960   9.013  73.135  1.00  0.00     1.193 C  
HETATM   14  N   UNL     1      -7.932   8.471  72.257  1.00  0.00    -0.111 N  
HETATM   15  C   UNL     1      -7.448   9.655  71.207  1.00  0.00     0.454 C  
HETATM   16  C   UNL     1      -8.189  10.207  69.703  1.00  0.00    -0.165 C  
HETATM   17  O   UNL     1      -7.542  10.131  68.466  1.00  0.00    -0.084 OA 
HETATM   18  O   UNL     1      -9.302  10.753  69.770  1.00  0.00     0.097 OA 
HETATM   19  C   UNL     1      -8.044  10.468  66.950  1.00  0.00    -0.120 C  
HETATM   20  C   UNL     1      -9.354   9.753  66.238  1.00  0.00    -0.230 C  
HETATM   21  C   UNL     1      -7.628  11.786  66.149  1.00  0.00     0.379 C  
HETATM   22  C   UNL     1      -7.710  13.147  66.814  1.00  0.00     0.431 C  
HETATM   23  C   UNL     1      -6.282  11.666  65.393  1.00  0.00     1.613 C  
HETATM   24  C   UNL     1      -9.653  10.010  64.747  1.00  0.00    -0.374 C  
HETATM   25  C   UNL     1     -10.732   9.685  66.855  1.00  0.00    -0.185 C  
HETATM   26  C   UNL     1     -11.177  10.359  67.916  1.00  0.00    -0.332 C  
HETATM   27  C   UNL     1     -11.691   9.497  69.033  1.00  0.00     0.611 C  
HETATM   28  O   UNL     1     -12.581   9.861  69.761  1.00  0.00     0.262 OA 
HETATM   29  N   UNL     1     -10.918   8.364  69.316  1.00  0.00    -0.428 N  
HETATM   30  C   UNL     1      -9.886   7.719  68.477  1.00  0.00    -0.172 C  
HETATM   31  H   UNL     1     -11.090   7.926  70.222  1.00  0.00     0.000 HD 
HETATM   32  C   UNL     1      -9.099   6.767  69.220  1.00  0.00    -0.139 C  
HETATM   33  C   UNL     1      -8.079   5.940  69.054  1.00  0.00    -0.103 C  
HETATM   34  C   UNL     1      -7.771   4.990  70.108  1.00  0.00    -0.063 C  
HETATM   35  C   UNL     1      -8.575   4.738  71.165  1.00  0.00    -0.126 C  
HETATM   36  C   UNL     1      -6.526   4.143  69.956  1.00  0.00    -0.032 C  
HETATM   37  C   UNL     1      -9.850   5.361  71.729  1.00  0.00    -0.174 C  
HETATM   38  C   UNL     1     -11.109   4.605  71.876  1.00  0.00     0.292 C  
HETATM   39  O   UNL     1     -10.072   6.752  71.853  1.00  0.00    -0.181 OA 
HETATM   40  H   UNL     1     -10.865   7.140  72.204  1.00  0.00     0.000 HD 
HETATM   41  C   UNL     1     -10.829   3.457  72.829  1.00  0.00     0.037 C  
HETATM   42  O   UNL     1     -11.408   2.391  72.567  1.00  0.00     0.335 OA 
HETATM   43  C   UNL     1      -9.946   3.551  74.144  1.00  0.00    -0.175 C  
HETATM   44  C   UNL     1      -8.831   4.661  74.439  1.00  0.00    -0.108 A  
HETATM   45  N   UNL     1      -8.829   6.001  74.291  1.00  0.00    -0.126 NA 
HETATM   46  C   UNL     1      -7.518   6.342  73.841  1.00  0.00    -0.085 A  
HETATM   47  C   UNL     1      -6.735   5.242  74.173  1.00  0.00    -0.076 A  
HETATM   48  C   UNL     1      -7.016   7.522  72.926  1.00  0.00    -0.068 C  
HETATM   49  O   UNL     1      -7.545   4.173  74.498  1.00  0.00    -0.074 OA 
HETATM   50  O   UNL     1      -5.814   7.584  72.654  1.00  0.00    -0.040 OA 
ENDBRANCH   8  11
ENDBRANCH   7   8
ENDBRANCH   6   7
ENDBRANCH   3   6
ENDBRANCH   2   3
TORSDOF 6
ENDMDL
MODEL       86
REMARK 921   NORMALIZED FREE ENERGY PREDICTED BY IDOCK:   71.75 KCAL/MOL
REMARK 922        TOTAL FREE ENERGY PREDICTED BY IDOCK:   95.77 KCAL/MOL
REMARK 923 INTER-LIGAND FREE ENERGY PREDICTED BY IDOCK:   49.84 KCAL/MOL
REMARK 924 INTRA-LIGAND FREE ENERGY PREDICTED BY IDOCK:   45.93 KCAL/MOL
REMARK 927      BINDING AFFINITY PREDICTED BY RF-SCORE:    0.00 PKD
ROOT
HETATM    1  C   UNL     1     -10.939  12.681  66.280  1.00  0.00    -0.314 C  
HETATM    2  C   UNL     1      -9.540  12.197  65.879  1.00  0.00    -0.214 C  
ENDROOT
BRANCH   2   3
HETATM    3  N   UNL     1      -9.311  12.156  64.428  1.00  0.00     0.230 NA 
BRANCH   3   4
HETATM    4  C   UNL     1      -8.456  13.261  63.942  1.00  0.00     6.965 C  
HETATM    5  C   UNL     1      -7.074  12.864  63.430  1.00  0.00    11.381 C  
ENDBRANCH   3   4
BRANCH   3   6
HETATM    6  C   UNL     1      -8.883  10.803  64.003  1.00  0.00    -0.112 C  
BRANCH   6   7
HETATM    7  C   UNL     1     -10.052   9.857  64.140  1.00  0.00     0.563 C  
BRANCH   7   8
HETATM    8  S   UNL     1     -11.695  10.518  63.911  1.00  0.00     3.654 S  
HETATM    9  O   UNL     1     -11.557  11.771  63.145  1.00  0.00    -0.294 OA 
HETATM   10  O   UNL     1     -12.579   9.464  63.499  1.00  0.00    11.476 OA 
BRANCH   8  11
HETATM   11  C   UNL     1     -12.003  10.942  65.583  1.00  0.00     2.049 C  
HETATM   12  C   UNL     1     -13.008  12.085  65.711  1.00  0.00     2.553 C  
HETATM   13  C   UNL     1     -12.574  12.896  66.892  1.00  0.00     0.699 C  
HETATM   14  N   UNL     1     -11.134  12.703  66.987  1.00  0.00    -0.269 N  
HETATM   15  C   UNL     1     -10.769  11.162  66.510  1.00  0.00    -0.260 C  
HETATM   16  C   UNL     1     -10.852   9.647  67.412  1.00  0.00    -0.172 C  
HETATM   17  O   UNL     1      -9.730   8.848  67.658  1.00  0.00    -0.150 OA 
HETATM   18  O   UNL     1     -11.970   9.246  67.773  1.00  0.00     1.802 OA 
HETATM   19  C   UNL     1      -9.533   7.488  68.539  1.00  0.00    -0.146 C  
HETATM   20  C   UNL     1      -9.886   7.380  70.151  1.00  0.00    -0.180 C  
HETATM   21  C   UNL     1      -9.397   6.030  67.902  1.00  0.00    -0.110 C  
HETATM   22  C   UNL     1     -10.363   5.567  66.828  1.00  0.00    -0.321 C  
HETATM   23  C   UNL     1      -7.953   5.655  67.487  1.00  0.00    -0.102 C  
HETATM   24  C   UNL     1      -9.510   6.107  70.936  1.00  0.00    -0.187 C  
HETATM   25  C   UNL     1     -11.207   7.782  70.765  1.00  0.00    -0.281 C  
HETATM   26  C   UNL     1     -12.346   8.055  70.128  1.00  0.00     0.808 C  
HETATM   27  C   UNL     1     -12.905   9.421  70.403  1.00  0.00     0.425 C  
HETATM   28  O   UNL     1     -14.090   9.638  70.398  1.00  0.00     0.352 OA 
HETATM   29  N   UNL     1     -11.962  10.457  70.429  1.00  0.00    -0.297 N  
HETATM   30  C   UNL     1     -10.493  10.363  70.563  1.00  0.00     0.173 C  
HETATM   31  H   UNL     1     -12.339  11.401  70.343  1.00  0.00     0.000 HD 
HETATM   32  C   UNL     1      -9.838  11.606  70.245  1.00  0.00     2.790 C  
HETATM   33  C   UNL     1      -8.621  12.123  70.157  1.00  0.00     3.811 C  
HETATM   34  C   UNL     1      -8.484  13.559  69.989  1.00  0.00     2.561 C  
HETATM   35  C   UNL     1      -9.497  14.442  70.124  1.00  0.00     1.259 C  
HETATM   36  C   UNL     1      -7.094  14.114  69.762  1.00  0.00     0.107 C  
HETATM   37  C   UNL     1     -11.011  14.337  70.296  1.00  0.00     0.200 C  
HETATM   38  C   UNL     1     -11.720  14.881  71.471  1.00  0.00    -0.394 C  
HETATM   39  O   UNL     1     -11.838  13.454  69.564  1.00  0.00    -0.298 OA 
HETATM   40  H   UNL     1     -12.780  13.388  69.670  1.00  0.00     0.000 HD 
HETATM   41  C   UNL     1     -11.470  16.378  71.487  1.00  0.00    -0.178 C  
HETATM   42  O   UNL     1     -11.328  16.885  72.611  1.00  0.00     0.185 OA 
HETATM   43  C   UNL     1     -11.464  17.322  70.211  1.00  0.00     1.609 C  
HETATM   44  C   UNL     1     -11.230  16.844  68.701  1.00  0.00    -0.091 A  
HETATM   45  N   UNL     1     -11.733  15.814  67.991  1.00  0.00    -0.212 NA 
HETATM   46  C   UNL     1     -10.661  15.341  67.176  1.00  0.00    -0.316 A  
HETATM   47  C   UNL     1      -9.748  16.389  67.152  1.00  0.00    -0.239 A  
HETATM   48  C   UNL     1     -10.345  13.900  66.622  1.00  0.00    -0.278 C  
HETATM   49  O   UNL     1     -10.064  17.307  68.132  1.00  0.00    -0.290 OA 
HETATM   50  O   UNL     1      -9.322  13.740  65.951  1.00  0.00    -0.109 OA 
ENDBRANCH   8  11
ENDBRANCH   7   8
ENDBRANCH   6   7
ENDBRANCH   3   6
ENDBRANCH   2   3
TORSDOF 6
ENDMDL
MODEL       87
REMARK 921   NORMALIZED FREE ENERGY PREDICTED BY IDOCK:   82.09 KCAL/MOL
REMARK 922        TOTAL FREE ENERGY PREDICTED BY IDOCK:  109.74 KCAL/MOL
REMARK 923 INTER-LIGAND FREE ENERGY PREDICTED BY IDOCK:   39.05 KCAL/MOL
REMARK 924 INTRA-LIGAND FREE ENERGY PREDICTED BY IDOCK:   70.70 KCAL/MOL
REMARK 927      BINDING AFFINITY PREDICTED BY RF-SCORE:    0.00 PKD
ROOT
HETATM    1  C   UNL     1     -12.676  10.571  68.143  1.00  0.00     3.568 C  
HETATM    2  C   UNL     1     -11.396  10.513  67.302  1.00  0.00     0.024 C  
ENDROOT
BRANCH   2   3
HETATM    3  N   UNL     1     -10.348   9.647  67.859  1.00  0.00    -0.209 NA 
BRANCH   3   4
HETATM    4  C   UNL     1      -9.483  10.336  68.842  1.00  0.00    -0.188 C  
HETATM    5  C   UNL     1      -8.108  10.766  68.340  1.00  0.00    -0.127 C  
ENDBRANCH   3   4
BRANCH   3   6
HETATM    6  C   UNL     1     -10.921   8.363  68.325  1.00  0.00     0.216 C  
BRANCH   6   7
HETATM    7  C   UNL     1     -11.597   8.587  69.657  1.00  0.00     0.500 C  
BRANCH   7   8
HETATM    8  S   UNL     1     -12.226  10.219  70.013  1.00  0.00    -0.051 S  
HETATM    9  O   UNL     1     -13.311  10.487  69.050  1.00  0.00     1.341 OA 
HETATM   10  O   UNL     1     -12.412  10.360  71.430  1.00  0.00    -0.360 OA 
BRANCH   8  11
HETATM   11  C   UNL     1     -10.816  11.122  69.499  1.00  0.00    -0.188 C  
HETATM   12  C   UNL     1     -10.233  11.970  70.628  1.00  0.00     4.343 C  
HETATM   13  C   UNL     1      -9.719  13.224  69.991  1.00  0.00     2.664 C  
HETATM   14  N   UNL     1     -10.536  13.417  68.802  1.00  0.00    -0.223 N  
HETATM   15  C   UNL     1     -10.925  11.937  68.174  1.00  0.00    -0.227 C  
HETATM   16  C   UNL     1      -9.984  10.864  67.135  1.00  0.00    -0.189 C  
HETATM   17  O   UNL     1     -10.402  10.488  65.855  1.00  0.00    -0.249 OA 
HETATM   18  O   UNL     1      -8.945  10.369  67.601  1.00  0.00    -0.137 OA 
HETATM   19  C   UNL     1      -9.676   9.614  64.683  1.00  0.00     0.030 C  
HETATM   20  C   UNL     1      -8.212  10.004  64.022  1.00  0.00    -0.156 C  
HETATM   21  C   UNL     1     -10.052   8.099  64.345  1.00  0.00     4.612 C  
HETATM   22  C   UNL     1     -10.193   7.075  65.455  1.00  0.00     1.942 C  
HETATM   23  C   UNL     1     -11.236   7.948  63.357  1.00  0.00    17.493 C  
HETATM   24  C   UNL     1      -7.684   9.216  62.806  1.00  0.00    -0.118 C  
HETATM   25  C   UNL     1      -6.959  10.279  64.821  1.00  0.00    -0.093 C  
HETATM   26  C   UNL     1      -6.756  10.035  66.116  1.00  0.00    -0.100 C  
HETATM   27  C   UNL     1      -6.374  11.241  66.926  1.00  0.00    -0.125 C  
HETATM   28  O   UNL     1      -5.653  11.160  67.889  1.00  0.00    -0.043 OA 
HETATM   29  N   UNL     1      -7.093  12.407  66.634  1.00  0.00    -0.305 N  
HETATM   30  C   UNL     1      -7.912  12.711  65.442  1.00  0.00     3.037 C  
HETATM   31  H   UNL     1      -7.044  13.145  67.338  1.00  0.00     0.000 HD 
HETATM   32  C   UNL     1      -8.737  13.877  65.632  1.00  0.00     1.492 C  
HETATM   33  C   UNL     1      -9.645  14.597  64.993  1.00  0.00     0.363 C  
HETATM   34  C   UNL     1     -10.053  15.871  65.559  1.00  0.00    -0.353 C  
HETATM   35  C   UNL     1      -9.424  16.483  66.586  1.00  0.00    -0.278 C  
HETATM   36  C   UNL     1     -11.183  16.616  64.883  1.00  0.00    -0.065 C  
HETATM   37  C   UNL     1      -8.317  16.097  67.565  1.00  0.00    -0.159 C  
HETATM   38  C   UNL     1      -7.046  16.840  67.666  1.00  0.00    -0.154 C  
HETATM   39  O   UNL     1      -8.230  14.845  68.219  1.00  0.00    -0.134 OA 
HETATM   40  H   UNL     1      -7.541  14.604  68.827  1.00  0.00     0.000 HD 
HETATM   41  C   UNL     1      -7.393  18.261  68.074  1.00  0.00    -0.239 C  
HETATM   42  O   UNL     1      -6.696  19.150  67.561  1.00  0.00    -0.198 OA 
HETATM   43  C   UNL     1      -8.493  18.665  69.144  1.00  0.00     0.016 C  
HETATM   44  C   UNL     1      -9.725  17.752  69.602  1.00  0.00     0.495 A  
HETATM   45  N   UNL     1      -9.808  16.451  69.946  1.00  0.00     0.075 NA 
HETATM   46  C   UNL     1     -11.045  15.983  69.410  1.00  0.00    -0.331 A  
HETATM   47  C   UNL     1     -11.785  17.137  69.173  1.00  0.00     1.306 A  
HETATM   48  C   UNL     1     -11.476  14.556  68.901  1.00  0.00    -0.300 C  
HETATM   49  O   UNL     1     -10.961  18.242  69.240  1.00  0.00     0.764 OA 
HETATM   50  O   UNL     1     -12.614  14.412  68.449  1.00  0.00     0.066 OA 
ENDBRANCH   8  11
ENDBRANCH   7   8
ENDBRANCH   6   7
ENDBRANCH   3   6
ENDBRANCH   2   3
TORSDOF 6
ENDMDL
MODEL       88
REMARK 921   NORMALIZED FREE ENERGY PREDICTED BY IDOCK:   83.27 KCAL/MOL
REMARK 922        TOTAL FREE ENERGY PREDICTED BY IDOCK:  111.34 KCAL/MOL
REMARK 923 INTER-LIGAND FREE ENERGY PREDICTED BY IDOCK:   99.72 KCAL/MOL
REMARK 924 INTRA-LIGAND FREE ENERGY PREDICTED BY IDOCK:   11.62 KCAL/MOL
REMARK 927      BINDING AFFINITY PREDICTED BY RF-SCORE:    0.00 PKD
ROOT
HETATM    1  C   UNL     1      -6.990  20.355  64.459  1.00  0.00     0.093 C  
HETATM    2  C   UNL     1      -7.023  20.091  65.970  1.00  0.00    -0.267 C  
ENDROOT
BRANCH   2   3
HETATM    3  N   UNL     1      -8.332  20.327  66.594  1.00  0.00    -0.272 NA 
BRANCH   3   4
HETATM    4  C   UNL     1      -9.220  19.144  66.552  1.00  0.00    -0.345 C  
HETATM    5  C   UNL     1     -10.596  19.362  65.930  1.00  0.00    -0.551 C  
ENDBRANCH   3   4
BRANCH   3   6
HETATM    6  C   UNL     1      -8.171  20.938  67.933  1.00  0.00     0.208 C  
BRANCH   6   7
HETATM    7  C   UNL     1      -7.538  19.926  68.858  1.00  0.00    -0.172 C  
BRANCH   7   8
HETATM    8  S   UNL     1      -8.314  19.636  70.439  1.00  0.00     1.889 S  
HETATM    9  O   UNL     1      -7.328  18.939  71.287  1.00  0.00     2.801 OA 
HETATM   10  O   UNL     1      -8.980  20.834  70.870  1.00  0.00     1.487 OA 
BRANCH   8  11
HETATM   11  C   UNL     1      -9.491  18.456  69.900  1.00  0.00     1.117 C  
HETATM   12  C   UNL     1     -10.786  18.526  70.706  1.00  0.00     2.821 C  
HETATM   13  C   UNL     1     -11.284  17.118  70.824  1.00  0.00     1.033 C  
HETATM   14  N   UNL     1     -10.098  16.279  70.751  1.00  0.00     1.046 N  
HETATM   15  C   UNL     1      -9.007  16.984  69.726  1.00  0.00     1.012 C  
HETATM   16  C   UNL     1      -8.922  16.948  67.964  1.00  0.00    -0.224 C  
HETATM   17  O   UNL     1      -7.834  16.412  67.267  1.00  0.00    -0.144 OA 
HETATM   18  O   UNL     1      -9.837  17.492  67.327  1.00  0.00    -0.277 OA 
HETATM   19  C   UNL     1      -7.571  16.169  65.674  1.00  0.00     2.260 C  
HETATM   20  C   UNL     1      -8.557  15.256  64.711  1.00  0.00     5.442 C  
HETATM   21  C   UNL     1      -6.622  17.092  64.781  1.00  0.00     4.192 C  
HETATM   22  C   UNL     1      -6.732  18.604  64.851  1.00  0.00     0.342 C  
HETATM   23  C   UNL     1      -5.128  16.686  64.819  1.00  0.00     4.355 C  
HETATM   24  C   UNL     1      -8.139  14.946  63.259  1.00  0.00    21.219 C  
HETATM   25  C   UNL     1     -10.053  15.437  64.604  1.00  0.00     0.465 C  
HETATM   26  C   UNL     1     -10.779  16.461  65.055  1.00  0.00    -0.279 C  
HETATM   27  C   UNL     1     -11.867  16.081  66.018  1.00  0.00     1.019 C  
HETATM   28  O   UNL     1     -12.900  16.697  66.088  1.00  0.00     4.428 OA 
HETATM   29  N   UNL     1     -11.508  15.124  66.976  1.00  0.00    -0.283 N  
HETATM   30  C   UNL     1     -10.352  14.202  66.970  1.00  0.00    -0.267 C  
HETATM   31  H   UNL     1     -12.126  15.054  67.785  1.00  0.00     0.000 HD 
HETATM   32  C   UNL     1     -10.144  13.584  68.255  1.00  0.00    -0.247 C  
HETATM   33  C   UNL     1      -9.318  12.743  68.858  1.00  0.00     0.281 C  
HETATM   34  C   UNL     1      -9.668  12.247  70.178  1.00  0.00     3.370 C  
HETATM   35  C   UNL     1     -10.876  12.414  70.758  1.00  0.00     3.013 C  
HETATM   36  C   UNL     1      -8.653  11.390  70.903  1.00  0.00     6.426 C  
HETATM   37  C   UNL     1     -12.134  13.216  70.432  1.00  0.00    -0.317 C  
HETATM   38  C   UNL     1     -13.450  12.583  70.214  1.00  0.00     1.743 C  
HETATM   39  O   UNL     1     -12.132  14.557  69.982  1.00  0.00    -0.301 OA 
HETATM   40  H   UNL     1     -12.915  15.056  69.778  1.00  0.00     0.000 HD 
HETATM   41  C   UNL     1     -13.816  11.866  71.501  1.00  0.00     0.975 C  
HETATM   42  O   UNL     1     -14.410  10.785  71.361  1.00  0.00     1.301 OA 
HETATM   43  C   UNL     1     -13.577  12.429  72.965  1.00  0.00     1.830 C  
HETATM   44  C   UNL     1     -12.515  13.557  73.366  1.00  0.00     1.877 A  
HETATM   45  N   UNL     1     -12.207  14.747  72.812  1.00  0.00    -0.269 NA 
HETATM   46  C   UNL     1     -10.792  14.883  72.938  1.00  0.00     1.809 A  
HETATM   47  C   UNL     1     -10.438  13.975  73.930  1.00  0.00     6.772 A  
HETATM   48  C   UNL     1      -9.742  15.633  72.034  1.00  0.00     4.439 C  
HETATM   49  O   UNL     1     -11.488  13.112  74.169  1.00  0.00     6.180 OA 
HETATM   50  O   UNL     1      -8.551  15.577  72.347  1.00  0.00     6.687 OA 
ENDBRANCH   8  11
ENDBRANCH   7   8
ENDBRANCH   6   7
ENDBRANCH   3   6
ENDBRANCH   2   3
TORSDOF 6
ENDMDL
MODEL       89
REMARK 921   NORMALIZED FREE ENERGY PREDICTED BY IDOCK:   85.61 KCAL/MOL
REMARK 922        TOTAL FREE ENERGY PREDICTED BY IDOCK:  114.50 KCAL/MOL
REMARK 923 INTER-LIGAND FREE ENERGY PREDICTED BY IDOCK:   47.95 KCAL/MOL
REMARK 924 INTRA-LIGAND FREE ENERGY PREDICTED BY IDOCK:   66.55 KCAL/MOL
REMARK 927      BINDING AFFINITY PREDICTED BY RF-SCORE:    0.00 PKD
ROOT
HETATM    1  C   UNL     1     -10.227   6.874  69.494  1.00  0.00    -0.198 C  
HETATM    2  C   UNL     1     -10.084   5.696  68.523  1.00  0.00    -0.182 C  
ENDROOT
BRANCH   2   3
HETATM    3  N   UNL     1      -9.448   4.508  69.108  1.00  0.00    -0.150 NA 
BRANCH   3   4
HETATM    4  C   UNL     1      -8.869   4.755  70.447  1.00  0.00    -0.103 C  
HETATM    5  C   UNL     1      -9.742   4.368  71.637  1.00  0.00    -0.238 C  
ENDBRANCH   3   4
BRANCH   3   6
HETATM    6  C   UNL     1     -10.350   3.336  69.026  1.00  0.00     1.656 C  
BRANCH   6   7
HETATM    7  C   UNL     1     -11.295   3.365  70.204  1.00  0.00     7.029 C  
BRANCH   7   8
HETATM    8  S   UNL     1     -12.026   4.931  70.651  1.00  0.00     5.440 S  
HETATM    9  O   UNL     1     -13.313   5.031  69.937  1.00  0.00    11.705 OA 
HETATM   10  O   UNL     1     -11.925   5.115  72.072  1.00  0.00     0.422 OA 
BRANCH   8  11
HETATM   11  C   UNL     1     -10.873   5.962  69.829  1.00  0.00    -0.377 C  
HETATM   12  C   UNL     1     -10.140   6.891  70.795  1.00  0.00    -0.208 C  
HETATM   13  C   UNL     1      -9.921   8.176  70.057  1.00  0.00    -0.192 C  
HETATM   14  N   UNL     1     -11.003   8.257  69.087  1.00  0.00    -0.005 N  
HETATM   15  C   UNL     1     -11.366   6.729  68.564  1.00  0.00     0.034 C  
HETATM   16  C   UNL     1     -10.579   5.735  67.337  1.00  0.00    -0.265 C  
HETATM   17  O   UNL     1     -11.236   5.288  66.186  1.00  0.00    -0.038 OA 
HETATM   18  O   UNL     1      -9.415   5.360  67.552  1.00  0.00    -0.115 OA 
HETATM   19  C   UNL     1     -10.708   4.465  64.879  1.00  0.00    -0.073 C  
HETATM   20  C   UNL     1      -9.483   4.988  63.900  1.00  0.00     0.358 C  
HETATM   21  C   UNL     1     -10.989   2.912  64.635  1.00  0.00     1.020 C  
HETATM   22  C   UNL     1     -10.764   1.906  65.748  1.00  0.00     3.343 C  
HETATM   23  C   UNL     1     -12.344   2.616  63.945  1.00  0.00     5.748 C  
HETATM   24  C   UNL     1      -9.165   4.230  62.595  1.00  0.00    -0.123 C  
HETATM   25  C   UNL     1      -8.117   5.409  64.391  1.00  0.00    -0.123 C  
HETATM   26  C   UNL     1      -7.599   5.219  65.605  1.00  0.00    -0.082 C  
HETATM   27  C   UNL     1      -7.172   6.476  66.307  1.00  0.00    -0.072 C  
HETATM   28  O   UNL     1      -6.247   6.492  67.078  1.00  0.00    -0.036 OA 
HETATM   29  N   UNL     1      -8.058   7.555  66.187  1.00  0.00    -0.110 N  
HETATM   30  C   UNL     1      -9.154   7.745  65.215  1.00  0.00     0.334 C  
HETATM   31  H   UNL     1      -7.928   8.310  66.862  1.00  0.00     0.000 HD 
HETATM   32  C   UNL     1     -10.032   8.824  65.590  1.00  0.00     0.282 C  
HETATM   33  C   UNL     1     -11.134   9.431  65.176  1.00  0.00     4.010 C  
HETATM   34  C   UNL     1     -11.533  10.669  65.821  1.00  0.00     0.925 C  
HETATM   35  C   UNL     1     -10.755  11.367  66.677  1.00  0.00    -0.316 C  
HETATM   36  C   UNL     1     -12.860  11.278  65.423  1.00  0.00     3.986 C  
HETATM   37  C   UNL     1      -9.420  11.120  67.376  1.00  0.00    -0.164 C  
HETATM   38  C   UNL     1      -8.245  11.992  67.183  1.00  0.00    -0.181 C  
HETATM   39  O   UNL     1      -9.054   9.900  67.991  1.00  0.00    -0.122 OA 
HETATM   40  H   UNL     1      -8.224   9.745  68.426  1.00  0.00     0.000 HD 
HETATM   41  C   UNL     1      -8.638  13.379  67.661  1.00  0.00    -0.193 C  
HETATM   42  O   UNL     1      -8.174  14.323  67.002  1.00  0.00    -0.180 OA 
HETATM   43  C   UNL     1      -9.501  13.693  68.954  1.00  0.00     0.118 C  
HETATM   44  C   UNL     1     -10.494  12.669  69.682  1.00  0.00     0.774 A  
HETATM   45  N   UNL     1     -10.358  11.376  70.035  1.00  0.00     0.677 NA 
HETATM   46  C   UNL     1     -11.628  10.770  69.797  1.00  0.00    -0.317 A  
HETATM   47  C   UNL     1     -12.520  11.836  69.736  1.00  0.00     0.012 A  
HETATM   48  C   UNL     1     -12.010   9.295  69.399  1.00  0.00     0.958 C  
HETATM   49  O   UNL     1     -11.824  13.021  69.613  1.00  0.00    -0.305 OA 
HETATM   50  O   UNL     1     -13.200   9.023  69.220  1.00  0.00     3.581 OA 
ENDBRANCH   8  11
ENDBRANCH   7   8
ENDBRANCH   6   7
ENDBRANCH   3   6
ENDBRANCH   2   3
TORSDOF 6
ENDMDL
MODEL       90
REMARK 921   NORMALIZED FREE ENERGY PREDICTED BY IDOCK:   86.23 KCAL/MOL
REMARK 922        TOTAL FREE ENERGY PREDICTED BY IDOCK:  115.33 KCAL/MOL
REMARK 923 INTER-LIGAND FREE ENERGY PREDICTED BY IDOCK:   68.70 KCAL/MOL
REMARK 924 INTRA-LIGAND FREE ENERGY PREDICTED BY IDOCK:   46.64 KCAL/MOL
REMARK 927      BINDING AFFINITY PREDICTED BY RF-SCORE:    0.00 PKD
ROOT
HETATM    1  C   UNL     1     -12.328  12.923  68.951  1.00  0.00     0.153 C  
HETATM    2  C   UNL     1     -11.293  13.684  69.788  1.00  0.00    -0.112 C  
ENDROOT
BRANCH   2   3
HETATM    3  N   UNL     1      -9.921  13.603  69.269  1.00  0.00     0.241 NA 
BRANCH   3   4
HETATM    4  C   UNL     1      -9.163  14.864  69.422  1.00  0.00    -0.041 C  
HETATM    5  C   UNL     1      -9.826  16.117  68.857  1.00  0.00    -0.239 C  
ENDBRANCH   3   4
BRANCH   3   6
HETATM    6  C   UNL     1      -9.235  12.396  69.787  1.00  0.00     2.409 C  
BRANCH   6   7
HETATM    7  C   UNL     1      -8.032  12.828  70.591  1.00  0.00     5.674 C  
BRANCH   7   8
HETATM    8  S   UNL     1      -6.439  12.815  69.786  1.00  0.00     0.069 S  
HETATM    9  O   UNL     1      -5.533  13.648  70.599  1.00  0.00    -0.121 OA 
HETATM   10  O   UNL     1      -6.106  11.469  69.410  1.00  0.00    -0.066 OA 
BRANCH   8  11
HETATM   11  C   UNL     1      -6.894  13.740  68.370  1.00  0.00    -0.101 C  
HETATM   12  C   UNL     1      -6.158  15.076  68.294  1.00  0.00    -0.122 C  
HETATM   13  C   UNL     1      -7.123  16.055  67.702  1.00  0.00    -0.154 C  
HETATM   14  N   UNL     1      -8.445  15.565  68.065  1.00  0.00    -0.142 N  
HETATM   15  C   UNL     1      -8.416  13.911  68.079  1.00  0.00    -0.173 C  
HETATM   16  C   UNL     1      -8.554  12.764  66.745  1.00  0.00    -0.078 C  
HETATM   17  O   UNL     1      -9.586  11.825  66.655  1.00  0.00    -0.196 OA 
HETATM   18  O   UNL     1      -7.649  12.750  65.895  1.00  0.00     1.658 OA 
HETATM   19  C   UNL     1      -9.986  10.751  65.492  1.00  0.00    -0.263 C  
HETATM   20  C   UNL     1     -10.320  11.174  63.930  1.00  0.00    -0.441 C  
HETATM   21  C   UNL     1      -9.692   9.184  65.593  1.00  0.00    -0.247 C  
HETATM   22  C   UNL     1      -8.326   8.684  66.023  1.00  0.00    -0.135 C  
HETATM   23  C   UNL     1     -10.788   8.383  66.339  1.00  0.00     0.861 C  
HETATM   24  C   UNL     1     -10.849  10.113  62.943  1.00  0.00     2.373 C  
HETATM   25  C   UNL     1      -9.420  12.026  63.064  1.00  0.00     0.265 C  
HETATM   26  C   UNL     1      -8.155  12.371  63.305  1.00  0.00     4.050 C  
HETATM   27  C   UNL     1      -7.907  13.852  63.337  1.00  0.00    16.484 C  
HETATM   28  O   UNL     1      -6.855  14.329  62.994  1.00  0.00    16.960 OA 
HETATM   29  N   UNL     1      -8.879  14.605  64.007  1.00  0.00     6.493 N  
HETATM   30  C   UNL     1     -10.254  14.212  64.382  1.00  0.00     0.303 C  
HETATM   31  H   UNL     1      -8.602  15.551  64.272  1.00  0.00     0.000 HD 
HETATM   32  C   UNL     1     -10.846  15.131  65.319  1.00  0.00    -0.414 C  
HETATM   33  C   UNL     1     -11.965  15.306  66.006  1.00  0.00     0.327 C  
HETATM   34  C   UNL     1     -12.172  16.568  66.695  1.00  0.00     2.581 C  
HETATM   35  C   UNL     1     -11.403  17.665  66.521  1.00  0.00     1.073 C  
HETATM   36  C   UNL     1     -13.393  16.699  67.579  1.00  0.00     6.372 C  
HETATM   37  C   UNL     1     -10.093  17.967  65.797  1.00  0.00    -0.030 C  
HETATM   38  C   UNL     1      -9.993  18.962  64.711  1.00  0.00     3.482 C  
HETATM   39  O   UNL     1      -8.949  17.136  65.834  1.00  0.00    -0.519 OA 
HETATM   40  H   UNL     1      -8.134  17.323  65.383  1.00  0.00     0.000 HD 
HETATM   41  C   UNL     1     -10.384  20.305  65.301  1.00  0.00     0.287 C  
HETATM   42  O   UNL     1     -11.029  21.052  64.549  1.00  0.00     1.373 OA 
HETATM   43  C   UNL     1      -9.962  20.834  66.736  1.00  0.00    -0.127 C  
HETATM   44  C   UNL     1      -9.500  19.920  67.966  1.00  0.00    -0.351 A  
HETATM   45  N   UNL     1      -8.644  18.882  68.050  1.00  0.00    -0.291 NA 
HETATM   46  C   UNL     1      -9.228  17.967  68.977  1.00  0.00    -0.045 A  
HETATM   47  C   UNL     1     -10.154  18.726  69.684  1.00  0.00     0.450 A  
HETATM   48  C   UNL     1      -9.134  16.398  69.075  1.00  0.00    -0.252 C  
HETATM   49  O   UNL     1     -10.369  19.925  69.035  1.00  0.00    -0.390 OA 
HETATM   50  O   UNL     1      -9.766  15.826  69.967  1.00  0.00    -0.192 OA 
ENDBRANCH   8  11
ENDBRANCH   7   8
ENDBRANCH   6   7
ENDBRANCH   3   6
ENDBRANCH   2   3
TORSDOF 6
ENDMDL
MODEL       91
REMARK 921   NORMALIZED FREE ENERGY PREDICTED BY IDOCK:   90.43 KCAL/MOL
REMARK 922        TOTAL FREE ENERGY PREDICTED BY IDOCK:  121.01 KCAL/MOL
REMARK 923 INTER-LIGAND FREE ENERGY PREDICTED BY IDOCK:   95.09 KCAL/MOL
REMARK 924 INTRA-LIGAND FREE ENERGY PREDICTED BY IDOCK:   25.92 KCAL/MOL
REMARK 927      BINDING AFFINITY PREDICTED BY RF-SCORE:    0.00 PKD
ROOT
HETATM    1  C   UNL     1     -13.922   7.054  64.458  1.00  0.00    14.300 C  
HETATM    2  C   UNL     1     -13.325   8.210  65.271  1.00  0.00    22.246 C  
ENDROOT
BRANCH   2   3
HETATM    3  N   UNL     1     -12.160   8.847  64.644  1.00  0.00    13.810 NA 
BRANCH   3   4
HETATM    4  C   UNL     1     -11.552   9.905  65.481  1.00  0.00     3.700 C  
HETATM    5  C   UNL     1     -12.083  11.319  65.264  1.00  0.00     1.187 C  
ENDBRANCH   3   4
BRANCH   3   6
HETATM    6  C   UNL     1     -11.211   7.827  64.141  1.00  0.00    15.921 C  
BRANCH   6   7
HETATM    7  C   UNL     1     -11.913   6.491  64.092  1.00  0.00    13.214 C  
BRANCH   7   8
HETATM    8  S   UNL     1     -11.363   5.214  65.212  1.00  0.00     1.495 S  
HETATM    9  O   UNL     1     -12.555   4.442  65.611  1.00  0.00     4.424 OA 
HETATM   10  O   UNL     1     -10.189   4.584  64.676  1.00  0.00    -0.062 OA 
BRANCH   8  11
HETATM   11  C   UNL     1     -10.927   6.259  66.549  1.00  0.00     0.011 C  
HETATM   12  C   UNL     1     -11.916   7.410  66.726  1.00  0.00     3.981 C  
HETATM   13  C   UNL     1     -11.111   8.590  67.174  1.00  0.00     0.513 C  
HETATM   14  N   UNL     1      -9.777   8.381  66.629  1.00  0.00    -0.229 N  
HETATM   15  C   UNL     1      -9.452   6.759  66.621  1.00  0.00    -0.165 C  
HETATM   16  C   UNL     1      -8.889   5.711  67.924  1.00  0.00    -0.105 C  
HETATM   17  O   UNL     1      -7.677   5.015  67.869  1.00  0.00    -0.083 OA 
HETATM   18  O   UNL     1      -9.644   5.531  68.893  1.00  0.00    -0.123 OA 
HETATM   19  C   UNL     1      -6.900   4.088  68.965  1.00  0.00    -0.046 C  
HETATM   20  C   UNL     1      -6.453   4.622  70.465  1.00  0.00    -0.030 C  
HETATM   21  C   UNL     1      -6.861   2.492  68.910  1.00  0.00    -0.036 C  
HETATM   22  C   UNL     1      -8.134   1.700  68.677  1.00  0.00    -0.060 C  
HETATM   23  C   UNL     1      -5.732   1.919  68.018  1.00  0.00    -0.019 C  
HETATM   24  C   UNL     1      -5.578   3.729  71.368  1.00  0.00    -0.008 C  
HETATM   25  C   UNL     1      -7.387   5.290  71.448  1.00  0.00    -0.086 C  
HETATM   26  C   UNL     1      -8.718   5.351  71.387  1.00  0.00    -0.136 C  
HETATM   27  C   UNL     1      -9.280   6.743  71.388  1.00  0.00    -0.153 C  
HETATM   28  O   UNL     1     -10.353   6.997  71.875  1.00  0.00    -0.193 OA 
HETATM   29  N   UNL     1      -8.594   7.664  70.586  1.00  0.00    -0.134 N  
HETATM   30  C   UNL     1      -7.231   7.560  70.022  1.00  0.00    -0.069 C  
HETATM   31  H   UNL     1      -9.102   8.521  70.362  1.00  0.00     0.000 HD 
HETATM   32  C   UNL     1      -6.985   8.555  69.009  1.00  0.00    -0.064 C  
HETATM   33  C   UNL     1      -6.035   8.941  68.171  1.00  0.00    -0.046 C  
HETATM   34  C   UNL     1      -6.201  10.195  67.458  1.00  0.00    -0.058 C  
HETATM   35  C   UNL     1      -7.156  11.109  67.737  1.00  0.00    -0.086 C  
HETATM   36  C   UNL     1      -5.170  10.555  66.411  1.00  0.00    -0.058 C  
HETATM   37  C   UNL     1      -8.388  11.149  68.639  1.00  0.00    -0.154 C  
HETATM   38  C   UNL     1      -8.549  12.134  69.727  1.00  0.00     2.156 C  
HETATM   39  O   UNL     1      -9.321  10.093  68.764  1.00  0.00    -0.152 OA 
HETATM   40  H   UNL     1     -10.087  10.117  69.325  1.00  0.00     0.000 HD 
HETATM   41  C   UNL     1      -8.541  13.510  69.085  1.00  0.00     0.529 C  
HETATM   42  O   UNL     1      -7.974  14.401  69.737  1.00  0.00     0.206 OA 
HETATM   43  C   UNL     1      -9.260  13.891  67.723  1.00  0.00    -0.197 C  
HETATM   44  C   UNL     1      -9.679  12.862  66.572  1.00  0.00    -0.257 A  
HETATM   45  N   UNL     1     -10.296  11.664  66.611  1.00  0.00    -0.215 NA 
HETATM   46  C   UNL     1      -9.662  10.865  65.613  1.00  0.00    -0.232 A  
HETATM   47  C   UNL     1      -9.026  11.780  64.781  1.00  0.00     0.432 A  
HETATM   48  C   UNL     1      -9.429   9.309  65.530  1.00  0.00    -0.240 C  
HETATM   49  O   UNL     1      -8.987  13.017  65.391  1.00  0.00     0.609 OA 
HETATM   50  O   UNL     1      -8.818   8.857  64.559  1.00  0.00    -0.144 OA 
ENDBRANCH   8  11
ENDBRANCH   7   8
ENDBRANCH   6   7
ENDBRANCH   3   6
ENDBRANCH   2   3
TORSDOF 6
ENDMDL
MODEL       92
REMARK 921   NORMALIZED FREE ENERGY PREDICTED BY IDOCK:   91.70 KCAL/MOL
REMARK 922        TOTAL FREE ENERGY PREDICTED BY IDOCK:  122.72 KCAL/MOL
REMARK 923 INTER-LIGAND FREE ENERGY PREDICTED BY IDOCK:   49.49 KCAL/MOL
REMARK 924 INTRA-LIGAND FREE ENERGY PREDICTED BY IDOCK:   73.23 KCAL/MOL
REMARK 927      BINDING AFFINITY PREDICTED BY RF-SCORE:    0.00 PKD
ROOT
HETATM    1  C   UNL     1     -13.127  10.104  68.681  1.00  0.00     4.579 C  
HETATM    2  C   UNL     1     -11.865  10.376  67.854  1.00  0.00     0.744 C  
ENDROOT
BRANCH   2   3
HETATM    3  N   UNL     1     -10.682   9.625  68.295  1.00  0.00    -0.232 NA 
BRANCH   3   4
HETATM    4  C   UNL     1     -10.053  10.189  69.509  1.00  0.00    -0.235 C  
HETATM    5  C   UNL     1      -8.803  11.036  69.285  1.00  0.00     0.090 C  
ENDBRANCH   3   4
BRANCH   3   6
HETATM    6  C   UNL     1     -10.976   8.175  68.362  1.00  0.00     0.225 C  
BRANCH   6   7
HETATM    7  C   UNL     1     -11.869   7.914  69.552  1.00  0.00     0.966 C  
BRANCH   7   8
HETATM    8  S   UNL     1     -12.957   9.225  70.086  1.00  0.00     1.328 S  
HETATM    9  O   UNL     1     -13.871   9.516  68.965  1.00  0.00     4.479 OA 
HETATM   10  O   UNL     1     -13.437   8.937  71.408  1.00  0.00    -0.328 OA 
BRANCH   8  11
HETATM   11  C   UNL     1     -11.758  10.501  70.147  1.00  0.00    -0.326 C  
HETATM   12  C   UNL     1     -11.579  11.055  71.559  1.00  0.00     0.977 C  
HETATM   13  C   UNL     1     -11.309  12.520  71.405  1.00  0.00     3.155 C  
HETATM   14  N   UNL     1     -11.964  12.908  70.164  1.00  0.00    -0.337 N  
HETATM   15  C   UNL     1     -11.872  11.647  69.095  1.00  0.00    -0.326 C  
HETATM   16  C   UNL     1     -10.550  11.156  68.035  1.00  0.00    -0.198 C  
HETATM   17  O   UNL     1     -10.667  11.119  66.642  1.00  0.00    -0.258 OA 
HETATM   18  O   UNL     1      -9.500  10.755  68.563  1.00  0.00    -0.165 OA 
HETATM   19  C   UNL     1      -9.581  10.811  65.463  1.00  0.00    -0.222 C  
HETATM   20  C   UNL     1      -8.181  11.666  65.260  1.00  0.00     0.762 C  
HETATM   21  C   UNL     1      -9.511   9.432  64.660  1.00  0.00    -0.022 C  
HETATM   22  C   UNL     1      -9.552   8.108  65.400  1.00  0.00     0.599 C  
HETATM   23  C   UNL     1     -10.460   9.364  63.438  1.00  0.00     4.021 C  
HETATM   24  C   UNL     1      -7.299  11.412  64.021  1.00  0.00     1.735 C  
HETATM   25  C   UNL     1      -7.168  11.921  66.353  1.00  0.00     0.306 C  
HETATM   26  C   UNL     1      -7.103  11.334  67.549  1.00  0.00    -0.099 C  
HETATM   27  C   UNL     1      -7.160  12.280  68.713  1.00  0.00    -0.107 C  
HETATM   28  O   UNL     1      -6.591  12.048  69.750  1.00  0.00    -0.097 OA 
HETATM   29  N   UNL     1      -8.097  13.314  68.596  1.00  0.00    -0.309 N  
HETATM   30  C   UNL     1      -8.782  13.805  67.382  1.00  0.00    -0.207 C  
HETATM   31  H   UNL     1      -8.339  13.793  69.465  1.00  0.00     0.000 HD 
HETATM   32  C   UNL     1      -9.891  14.669  67.695  1.00  0.00    -0.218 C  
HETATM   33  C   UNL     1     -10.847  15.358  67.091  1.00  0.00    -0.321 C  
HETATM   34  C   UNL     1     -11.640  16.288  67.876  1.00  0.00     0.059 C  
HETATM   35  C   UNL     1     -11.343  16.664  69.139  1.00  0.00    -0.051 C  
HETATM   36  C   UNL     1     -12.809  16.969  67.197  1.00  0.00     5.596 C  
HETATM   37  C   UNL     1     -10.331  16.219  70.193  1.00  0.00     0.025 C  
HETATM   38  C   UNL     1      -9.316  17.129  70.758  1.00  0.00     4.285 C  
HETATM   39  O   UNL     1     -10.030  14.870  70.492  1.00  0.00    -0.328 OA 
HETATM   40  H   UNL     1      -9.400  14.592  71.147  1.00  0.00     0.000 HD 
HETATM   41  C   UNL     1     -10.065  18.256  71.447  1.00  0.00     4.280 C  
HETATM   42  O   UNL     1      -9.546  19.380  71.351  1.00  0.00     2.425 OA 
HETATM   43  C   UNL     1     -11.376  18.086  72.324  1.00  0.00     2.814 C  
HETATM   44  C   UNL     1     -12.394  16.853  72.247  1.00  0.00     1.127 A  
HETATM   45  N   UNL     1     -12.197  15.520  72.204  1.00  0.00    -0.362 NA 
HETATM   46  C   UNL     1     -13.185  15.007  71.311  1.00  0.00    -0.432 A  
HETATM   47  C   UNL     1     -14.147  16.009  71.237  1.00  0.00     1.180 A  
HETATM   48  C   UNL     1     -13.163  13.752  70.359  1.00  0.00     0.295 C  
HETATM   49  O   UNL     1     -13.645  17.178  71.772  1.00  0.00     4.865 OA 
HETATM   50  O   UNL     1     -14.150  13.533  69.652  1.00  0.00     3.754 OA 
ENDBRANCH   8  11
ENDBRANCH   7   8
ENDBRANCH   6   7
ENDBRANCH   3   6
ENDBRANCH   2   3
TORSDOF 6
ENDMDL
MODEL       93
REMARK 921   NORMALIZED FREE ENERGY PREDICTED BY IDOCK:  104.21 KCAL/MOL
REMARK 922        TOTAL FREE ENERGY PREDICTED BY IDOCK:  139.62 KCAL/MOL
REMARK 923 INTER-LIGAND FREE ENERGY PREDICTED BY IDOCK:  134.26 KCAL/MOL
REMARK 924 INTRA-LIGAND FREE ENERGY PREDICTED BY IDOCK:    5.36 KCAL/MOL
REMARK 927      BINDING AFFINITY PREDICTED BY RF-SCORE:    0.00 PKD
ROOT
HETATM    1  C   UNL     1      -6.320  14.629  63.553  1.00  0.00    25.875 C  
HETATM    2  C   UNL     1      -7.496  13.903  64.217  1.00  0.00    17.117 C  
ENDROOT
BRANCH   2   3
HETATM    3  N   UNL     1      -7.814  12.599  63.619  1.00  0.00     5.108 NA 
BRANCH   3   4
HETATM    4  C   UNL     1      -7.258  11.458  64.377  1.00  0.00     1.777 C  
HETATM    5  C   UNL     1      -6.204  10.622  63.656  1.00  0.00     0.074 C  
ENDBRANCH   3   4
BRANCH   3   6
HETATM    6  C   UNL     1      -9.260  12.501  63.314  1.00  0.00     1.691 C  
BRANCH   6   7
HETATM    7  C   UNL     1     -10.036  12.582  64.608  1.00  0.00    -0.233 C  
BRANCH   7   8
HETATM    8  S   UNL     1      -9.668  13.928  65.721  1.00  0.00    -0.096 S  
HETATM    9  O   UNL     1      -8.425  14.563  65.242  1.00  0.00     2.457 OA 
HETATM   10  O   UNL     1     -10.865  14.683  65.968  1.00  0.00    -0.303 OA 
BRANCH   8  11
HETATM   11  C   UNL     1      -9.270  12.958  67.124  1.00  0.00    -0.225 C  
HETATM   12  C   UNL     1      -9.454  11.464  66.862  1.00  0.00    -0.193 C  
HETATM   13  C   UNL     1      -9.944  10.869  68.146  1.00  0.00    -0.174 C  
HETATM   14  N   UNL     1     -10.649  11.945  68.829  1.00  0.00    -0.219 N  
HETATM   15  C   UNL     1      -9.893  13.377  68.491  1.00  0.00    -0.178 C  
HETATM   16  C   UNL     1      -8.456  14.099  69.218  1.00  0.00     0.328 C  
HETATM   17  O   UNL     1      -8.478  15.330  69.881  1.00  0.00    -0.111 OA 
HETATM   18  O   UNL     1      -7.371  13.516  69.062  1.00  0.00    -0.087 OA 
HETATM   19  C   UNL     1      -7.331  16.141  70.713  1.00  0.00     2.499 C  
HETATM   20  C   UNL     1      -6.537  15.520  72.023  1.00  0.00     2.523 C  
HETATM   21  C   UNL     1      -6.547  17.407  70.137  1.00  0.00     0.532 C  
HETATM   22  C   UNL     1      -5.955  17.376  68.740  1.00  0.00    -0.170 C  
HETATM   23  C   UNL     1      -7.280  18.755  70.351  1.00  0.00     1.360 C  
HETATM   24  C   UNL     1      -5.591  16.419  72.845  1.00  0.00     2.116 C  
HETATM   25  C   UNL     1      -5.836  14.181  72.042  1.00  0.00    -0.024 C  
HETATM   26  C   UNL     1      -5.540  13.407  70.997  1.00  0.00    -0.202 C  
HETATM   27  C   UNL     1      -6.113  12.021  71.064  1.00  0.00     0.674 C  
HETATM   28  O   UNL     1      -5.552  11.075  70.571  1.00  0.00    -0.099 OA 
HETATM   29  N   UNL     1      -7.435  11.943  71.520  1.00  0.00     6.545 N  
HETATM   30  C   UNL     1      -8.218  12.960  72.254  1.00  0.00    16.568 C  
HETATM   31  H   UNL     1      -7.922  11.069  71.320  1.00  0.00     0.000 HD 
HETATM   32  C   UNL     1      -9.624  12.644  72.286  1.00  0.00    19.733 C  
HETATM   33  C   UNL     1     -10.768  13.136  72.735  1.00  0.00    10.424 C  
HETATM   34  C   UNL     1     -11.953  12.297  72.694  1.00  0.00     4.328 C  
HETATM   35  C   UNL     1     -11.940  10.974  72.425  1.00  0.00     2.652 C  
HETATM   36  C   UNL     1     -13.274  12.920  73.090  1.00  0.00     1.816 C  
HETATM   37  C   UNL     1     -10.889   9.976  71.943  1.00  0.00     1.363 C  
HETATM   38  C   UNL     1     -10.490   8.794  72.732  1.00  0.00     0.279 C  
HETATM   39  O   UNL     1      -9.968  10.227  70.899  1.00  0.00    -0.087 OA 
HETATM   40  H   UNL     1      -9.314   9.607  70.599  1.00  0.00     0.000 HD 
HETATM   41  C   UNL     1     -11.731   7.937  72.907  1.00  0.00    -0.181 C  
HETATM   42  O   UNL     1     -11.838   7.369  74.005  1.00  0.00     1.729 OA 
HETATM   43  C   UNL     1     -12.820   7.659  71.787  1.00  0.00    -0.357 C  
HETATM   44  C   UNL     1     -13.082   8.570  70.497  1.00  0.00     0.851 A  
HETATM   45  N   UNL     1     -12.245   9.135  69.604  1.00  0.00     0.921 NA 
HETATM   46  C   UNL     1     -12.804  10.411  69.296  1.00  0.00     1.182 A  
HETATM   47  C   UNL     1     -14.133  10.319  69.695  1.00  0.00     3.671 A  
HETATM   48  C   UNL     1     -12.117  11.764  68.872  1.00  0.00    -0.178 C  
HETATM   49  O   UNL     1     -14.306   9.202  70.487  1.00  0.00     0.342 OA 
HETATM   50  O   UNL     1     -12.830  12.753  68.686  1.00  0.00     0.843 OA 
ENDBRANCH   8  11
ENDBRANCH   7   8
ENDBRANCH   6   7
ENDBRANCH   3   6
ENDBRANCH   2   3
TORSDOF 6
ENDMDL
MODEL       94
REMARK 921   NORMALIZED FREE ENERGY PREDICTED BY IDOCK:  107.42 KCAL/MOL
REMARK 922        TOTAL FREE ENERGY PREDICTED BY IDOCK:  143.95 KCAL/MOL
REMARK 923 INTER-LIGAND FREE ENERGY PREDICTED BY IDOCK:  142.89 KCAL/MOL
REMARK 924 INTRA-LIGAND FREE ENERGY PREDICTED BY IDOCK:    1.06 KCAL/MOL
REMARK 927      BINDING AFFINITY PREDICTED BY RF-SCORE:    0.00 PKD
ROOT
HETATM    1  C   UNL     1     -11.691  18.156  74.133  1.00  0.00     1.190 C  
HETATM    2  C   UNL     1     -10.454  17.389  73.650  1.00  0.00     5.888 C  
ENDROOT
BRANCH   2   3
HETATM    3  N   UNL     1     -10.435  17.127  72.205  1.00  0.00     3.670 NA 
BRANCH   3   4
HETATM    4  C   UNL     1      -9.761  18.191  71.428  1.00  0.00     5.925 C  
HETATM    5  C   UNL     1     -10.304  19.605  71.615  1.00  0.00     3.153 C  
ENDBRANCH   3   4
BRANCH   3   6
HETATM    6  C   UNL     1      -9.955  15.754  71.927  1.00  0.00     3.363 C  
BRANCH   6   7
HETATM    7  C   UNL     1     -10.164  14.907  73.160  1.00  0.00     4.778 C  
BRANCH   7   8
HETATM    8  S   UNL     1     -10.749  13.235  72.939  1.00  0.00    11.279 S  
HETATM    9  O   UNL     1     -10.393  12.483  74.157  1.00  0.00    14.953 OA 
HETATM   10  O   UNL     1     -12.090  13.264  72.425  1.00  0.00     0.737 OA 
BRANCH   8  11
HETATM   11  C   UNL     1      -9.631  12.770  71.673  1.00  0.00    15.366 C  
HETATM   12  C   UNL     1      -8.511  13.792  71.491  1.00  0.00     8.803 C  
HETATM   13  C   UNL     1      -8.204  13.823  70.025  1.00  0.00     1.932 C  
HETATM   14  N   UNL     1      -9.442  13.442  69.361  1.00  0.00     0.751 N  
HETATM   15  C   UNL     1     -10.235  12.336  70.302  1.00  0.00     2.960 C  
HETATM   16  C   UNL     1      -9.990  10.595  70.453  1.00  0.00     0.868 C  
HETATM   17  O   UNL     1     -10.980   9.659  70.138  1.00  0.00    -0.242 OA 
HETATM   18  O   UNL     1      -8.916  10.199  70.933  1.00  0.00     0.388 OA 
HETATM   19  C   UNL     1     -10.963   8.027  70.092  1.00  0.00    -0.226 C  
HETATM   20  C   UNL     1      -9.922   7.147  69.157  1.00  0.00    -0.168 C  
HETATM   21  C   UNL     1     -11.618   7.101  71.216  1.00  0.00    -0.327 C  
HETATM   22  C   UNL     1     -11.356   7.374  72.686  1.00  0.00    -0.360 C  
HETATM   23  C   UNL     1     -13.128   6.828  71.009  1.00  0.00    -0.004 C  
HETATM   24  C   UNL     1     -10.090   5.618  69.051  1.00  0.00    -0.259 C  
HETATM   25  C   UNL     1      -8.421   7.326  69.149  1.00  0.00    -0.133 C  
HETATM   26  C   UNL     1      -7.684   8.018  70.018  1.00  0.00    -0.088 C  
HETATM   27  C   UNL     1      -6.846   9.102  69.403  1.00  0.00    -0.048 C  
HETATM   28  O   UNL     1      -5.783   9.427  69.869  1.00  0.00    -0.034 OA 
HETATM   29  N   UNL     1      -7.484   9.859  68.412  1.00  0.00    -0.082 N  
HETATM   30  C   UNL     1      -8.713   9.539  67.656  1.00  0.00    -0.122 C  
HETATM   31  H   UNL     1      -7.041  10.749  68.181  1.00  0.00     0.000 HD 
HETATM   32  C   UNL     1      -9.227  10.682  66.946  1.00  0.00    -0.172 C  
HETATM   33  C   UNL     1     -10.240  11.025  66.165  1.00  0.00    -0.298 C  
HETATM   34  C   UNL     1     -10.203  12.315  65.499  1.00  0.00    -0.296 C  
HETATM   35  C   UNL     1      -9.115  13.114  65.446  1.00  0.00     0.813 C  
HETATM   36  C   UNL     1     -11.425  12.742  64.715  1.00  0.00    -0.356 C  
HETATM   37  C   UNL     1      -7.736  13.112  66.103  1.00  0.00     2.073 C  
HETATM   38  C   UNL     1      -6.482  13.052  65.327  1.00  0.00     8.807 C  
HETATM   39  O   UNL     1      -7.504  12.836  67.471  1.00  0.00    -0.133 OA 
HETATM   40  H   UNL     1      -6.646  12.834  67.880  1.00  0.00     0.000 HD 
HETATM   41  C   UNL     1      -6.447  14.286  64.444  1.00  0.00    22.753 C  
HETATM   42  O   UNL     1      -5.962  14.121  63.313  1.00  0.00    16.290 OA 
HETATM   43  C   UNL     1      -6.893  15.744  64.885  1.00  0.00    10.798 C  
HETATM   44  C   UNL     1      -7.879  16.088  66.098  1.00  0.00     0.331 A  
HETATM   45  N   UNL     1      -7.943  15.637  67.367  1.00  0.00    -0.162 NA 
HETATM   46  C   UNL     1      -9.332  15.530  67.675  1.00  0.00    -0.203 A  
HETATM   47  C   UNL     1      -9.965  16.327  66.727  1.00  0.00    -0.261 A  
HETATM   48  C   UNL     1     -10.102  14.555  68.644  1.00  0.00    -0.244 C  
HETATM   49  O   UNL     1      -9.082  16.638  65.714  1.00  0.00    -0.503 OA 
HETATM   50  O   UNL     1     -11.330  14.645  68.714  1.00  0.00    -0.254 OA 
ENDBRANCH   8  11
ENDBRANCH   7   8
ENDBRANCH   6   7
ENDBRANCH   3   6
ENDBRANCH   2   3
TORSDOF 6
ENDMDL
MODEL       95
REMARK 921   NORMALIZED FREE ENERGY PREDICTED BY IDOCK:  107.74 KCAL/MOL
REMARK 922        TOTAL FREE ENERGY PREDICTED BY IDOCK:  144.38 KCAL/MOL
REMARK 923 INTER-LIGAND FREE ENERGY PREDICTED BY IDOCK:   86.68 KCAL/MOL
REMARK 924 INTRA-LIGAND FREE ENERGY PREDICTED BY IDOCK:   57.70 KCAL/MOL
REMARK 927      BINDING AFFINITY PREDICTED BY RF-SCORE:    0.00 PKD
ROOT
HETATM    1  C   UNL     1     -10.871  12.008  70.993  1.00  0.00     3.665 C  
HETATM    2  C   UNL     1     -11.810  13.220  70.986  1.00  0.00     0.355 C  
ENDROOT
BRANCH   2   3
HETATM    3  N   UNL     1     -13.219  12.889  70.737  1.00  0.00     0.203 NA 
BRANCH   3   4
HETATM    4  C   UNL     1     -13.506  11.441  70.841  1.00  0.00     0.720 C  
HETATM    5  C   UNL     1     -13.891  10.932  72.227  1.00  0.00     0.337 C  
ENDBRANCH   3   4
BRANCH   3   6
HETATM    6  C   UNL     1     -14.112  13.760  71.536  1.00  0.00     0.014 C  
BRANCH   6   7
HETATM    7  C   UNL     1     -13.286  14.486  72.571  1.00  0.00    -0.448 C  
BRANCH   7   8
HETATM    8  S   UNL     1     -11.540  14.685  72.257  1.00  0.00     0.410 S  
HETATM    9  O   UNL     1     -11.395  15.774  71.272  1.00  0.00    -0.358 OA 
HETATM   10  O   UNL     1     -10.828  14.686  73.505  1.00  0.00     1.479 OA 
BRANCH   8  11
HETATM   11  C   UNL     1     -11.285  13.167  71.422  1.00  0.00     3.204 C  
HETATM   12  C   UNL     1     -11.186  11.988  72.388  1.00  0.00     8.080 C  
HETATM   13  C   UNL     1     -10.186  11.043  71.797  1.00  0.00     7.269 C  
HETATM   14  N   UNL     1      -9.291  11.871  71.002  1.00  0.00     8.391 N  
HETATM   15  C   UNL     1     -10.159  13.117  70.345  1.00  0.00     3.622 C  
HETATM   16  C   UNL     1     -11.179  13.150  68.905  1.00  0.00    -0.277 C  
HETATM   17  O   UNL     1     -10.916  13.977  67.808  1.00  0.00    -0.251 OA 
HETATM   18  O   UNL     1     -12.212  12.463  68.909  1.00  0.00    -0.183 OA 
HETATM   19  C   UNL     1     -11.631  14.111  66.346  1.00  0.00    -0.369 C  
HETATM   20  C   UNL     1     -11.785  12.854  65.283  1.00  0.00    -0.399 C  
HETATM   21  C   UNL     1     -12.620  15.300  65.948  1.00  0.00     0.944 C  
HETATM   22  C   UNL     1     -13.742  15.713  66.883  1.00  0.00     6.582 C  
HETATM   23  C   UNL     1     -11.903  16.566  65.418  1.00  0.00     1.307 C  
HETATM   24  C   UNL     1     -12.324  13.113  63.861  1.00  0.00    -0.439 C  
HETATM   25  C   UNL     1     -12.375  11.507  65.631  1.00  0.00     1.528 C  
HETATM   26  C   UNL     1     -13.060  11.182  66.729  1.00  0.00     7.851 C  
HETATM   27  C   UNL     1     -12.473  10.049  67.519  1.00  0.00     5.552 C  
HETATM   28  O   UNL     1     -13.162   9.289  68.152  1.00  0.00     8.003 OA 
HETATM   29  N   UNL     1     -11.079  10.079  67.661  1.00  0.00    -0.422 N  
HETATM   30  C   UNL     1     -10.090  10.851  66.880  1.00  0.00    -0.212 C  
HETATM   31  H   UNL     1     -10.697   9.490  68.401  1.00  0.00     0.000 HD 
HETATM   32  C   UNL     1      -8.792  10.862  67.506  1.00  0.00    -0.133 C  
HETATM   33  C   UNL     1      -7.579  11.362  67.327  1.00  0.00    -0.138 C  
HETATM   34  C   UNL     1      -6.497  10.890  68.173  1.00  0.00    -0.058 C  
HETATM   35  C   UNL     1      -6.584   9.823  68.996  1.00  0.00    -0.049 C  
HETATM   36  C   UNL     1      -5.150  11.567  68.041  1.00  0.00    -0.044 C  
HETATM   37  C   UNL     1      -7.712   8.907  69.468  1.00  0.00    -0.088 C  
HETATM   38  C   UNL     1      -7.710   7.451  69.228  1.00  0.00    -0.107 C  
HETATM   39  O   UNL     1      -8.992   9.357  69.867  1.00  0.00    -0.166 OA 
HETATM   40  H   UNL     1      -9.694   8.787  70.161  1.00  0.00     0.000 HD 
HETATM   41  C   UNL     1      -6.486   6.887  69.927  1.00  0.00    -0.043 C  
HETATM   42  O   UNL     1      -5.913   5.958  69.336  1.00  0.00    -0.024 OA 
HETATM   43  C   UNL     1      -5.960   7.331  71.357  1.00  0.00    -0.036 C  
HETATM   44  C   UNL     1      -6.288   8.722  72.078  1.00  0.00    -0.068 A  
HETATM   45  N   UNL     1      -7.438   9.406  72.241  1.00  0.00     0.213 NA 
HETATM   46  C   UNL     1      -7.096  10.785  72.105  1.00  0.00     4.993 A  
HETATM   47  C   UNL     1      -5.720  10.827  72.303  1.00  0.00     0.871 A  
HETATM   48  C   UNL     1      -7.936  12.010  71.579  1.00  0.00    11.299 C  
HETATM   49  O   UNL     1      -5.199   9.551  72.237  1.00  0.00    -0.074 OA 
HETATM   50  O   UNL     1      -7.394  13.117  71.532  1.00  0.00     4.182 OA 
ENDBRANCH   8  11
ENDBRANCH   7   8
ENDBRANCH   6   7
ENDBRANCH   3   6
ENDBRANCH   2   3
TORSDOF 6
ENDMDL
MODEL       96
REMARK 921   NORMALIZED FREE ENERGY PREDICTED BY IDOCK:  121.00 KCAL/MOL
REMARK 922        TOTAL FREE ENERGY PREDICTED BY IDOCK:  162.30 KCAL/MOL
REMARK 923 INTER-LIGAND FREE ENERGY PREDICTED BY IDOCK:  150.02 KCAL/MOL
REMARK 924 INTRA-LIGAND FREE ENERGY PREDICTED BY IDOCK:   12.29 KCAL/MOL
REMARK 927      BINDING AFFINITY PREDICTED BY RF-SCORE:    0.00 PKD
ROOT
HETATM    1  C   UNL     1     -11.640  10.881  69.205  1.00  0.00    -0.389 C  
HETATM    2  C   UNL     1     -12.258  10.323  67.917  1.00  0.00     2.421 C  
ENDROOT
BRANCH   2   3
HETATM    3  N   UNL     1     -11.307   9.613  67.051  1.00  0.00     0.383 NA 
BRANCH   3   4
HETATM    4  C   UNL     1     -11.538   8.153  67.004  1.00  0.00     2.549 C  
HETATM    5  C   UNL     1     -10.567   7.348  66.145  1.00  0.00     1.015 C  
ENDBRANCH   3   4
BRANCH   3   6
HETATM    6  C   UNL     1     -11.212  10.272  65.727  1.00  0.00     0.935 C  
BRANCH   6   7
HETATM    7  C   UNL     1      -9.870   9.944  65.117  1.00  0.00    -0.278 C  
BRANCH   7   8
HETATM    8  S   UNL     1      -8.507   9.610  66.220  1.00  0.00    -0.120 S  
HETATM    9  O   UNL     1      -8.986   8.638  67.222  1.00  0.00    -0.131 OA 
HETATM   10  O   UNL     1      -7.314   9.388  65.451  1.00  0.00    -0.092 OA 
BRANCH   8  11
HETATM   11  C   UNL     1      -8.444  11.184  66.985  1.00  0.00    -0.146 C  
HETATM   12  C   UNL     1      -7.190  11.360  67.839  1.00  0.00    -0.084 C  
HETATM   13  C   UNL     1      -7.596  12.191  69.017  1.00  0.00     0.081 C  
HETATM   14  N   UNL     1      -9.012  11.918  69.215  1.00  0.00     0.518 N  
HETATM   15  C   UNL     1      -9.720  11.670  67.740  1.00  0.00    -0.173 C  
HETATM   16  C   UNL     1     -10.294  12.839  66.548  1.00  0.00    -0.251 C  
HETATM   17  O   UNL     1     -11.630  12.916  66.143  1.00  0.00    -0.333 OA 
HETATM   18  O   UNL     1      -9.453  13.567  65.997  1.00  0.00    -0.208 OA 
HETATM   19  C   UNL     1     -12.414  13.956  65.159  1.00  0.00    -0.453 C  
HETATM   20  C   UNL     1     -12.458  15.591  65.402  1.00  0.00     0.921 C  
HETATM   21  C   UNL     1     -12.849  13.605  63.663  1.00  0.00     0.448 C  
HETATM   22  C   UNL     1     -11.865  12.954  62.709  1.00  0.00     0.818 C  
HETATM   23  C   UNL     1     -14.217  12.887  63.556  1.00  0.00     5.675 C  
HETATM   24  C   UNL     1     -13.360  16.474  64.516  1.00  0.00     5.001 C  
HETATM   25  C   UNL     1     -11.239  16.456  65.617  1.00  0.00     0.205 C  
HETATM   26  C   UNL     1      -9.963  16.120  65.423  1.00  0.00    -0.141 C  
HETATM   27  C   UNL     1      -9.086  16.266  66.633  1.00  0.00    -0.248 C  
HETATM   28  O   UNL     1      -7.918  16.548  66.544  1.00  0.00    -0.252 OA 
HETATM   29  N   UNL     1      -9.653  15.825  67.836  1.00  0.00    -0.213 N  
HETATM   30  C   UNL     1     -11.074  15.562  68.144  1.00  0.00    -0.325 C  
HETATM   31  H   UNL     1      -8.996  15.665  68.601  1.00  0.00     0.000 HD 
HETATM   32  C   UNL     1     -11.237  14.837  69.378  1.00  0.00    -0.308 C  
HETATM   33  C   UNL     1     -12.191  14.315  70.135  1.00  0.00    -0.407 C  
HETATM   34  C   UNL     1     -11.847  13.837  71.462  1.00  0.00     0.426 C  
HETATM   35  C   UNL     1     -10.665  14.072  72.073  1.00  0.00     4.065 C  
HETATM   36  C   UNL     1     -12.921  13.129  72.259  1.00  0.00    -0.354 C  
HETATM   37  C   UNL     1      -9.327  14.675  71.650  1.00  0.00     4.751 C  
HETATM   38  C   UNL     1      -8.751  15.870  72.297  1.00  0.00     9.726 C  
HETATM   39  O   UNL     1      -8.673  14.390  70.429  1.00  0.00     0.777 OA 
HETATM   40  H   UNL     1      -7.840  14.764  70.166  1.00  0.00     0.000 HD 
HETATM   41  C   UNL     1      -8.531  15.522  73.759  1.00  0.00    13.569 C  
HETATM   42  O   UNL     1      -8.746  16.440  74.565  1.00  0.00    17.181 OA 
HETATM   43  C   UNL     1      -7.980  14.136  74.299  1.00  0.00     7.409 C  
HETATM   44  C   UNL     1      -8.024  12.745  73.508  1.00  0.00    15.097 A  
HETATM   45  N   UNL     1      -7.721  12.418  72.236  1.00  0.00    12.308 NA 
HETATM   46  C   UNL     1      -8.689  11.447  71.839  1.00  0.00    14.099 A  
HETATM   47  C   UNL     1      -9.213  10.965  73.034  1.00  0.00    16.089 A  
HETATM   48  C   UNL     1      -9.304  11.121  70.426  1.00  0.00     2.764 C  
HETATM   49  O   UNL     1      -8.847  11.795  74.073  1.00  0.00    15.858 OA 
HETATM   50  O   UNL     1     -10.161  10.237  70.348  1.00  0.00    -0.161 OA 
ENDBRANCH   8  11
ENDBRANCH   7   8
ENDBRANCH   6   7
ENDBRANCH   3   6
ENDBRANCH   2   3
TORSDOF 6
ENDMDL
MODEL       97
REMARK 921   NORMALIZED FREE ENERGY PREDICTED BY IDOCK:  132.18 KCAL/MOL
REMARK 922        TOTAL FREE ENERGY PREDICTED BY IDOCK:  177.40 KCAL/MOL
REMARK 923 INTER-LIGAND FREE ENERGY PREDICTED BY IDOCK:  175.71 KCAL/MOL
REMARK 924 INTRA-LIGAND FREE ENERGY PREDICTED BY IDOCK:    1.69 KCAL/MOL
REMARK 927      BINDING AFFINITY PREDICTED BY RF-SCORE:    0.00 PKD
ROOT
HETATM    1  C   UNL     1      -9.805   7.398  68.634  1.00  0.00    -0.165 C  
HETATM    2  C   UNL     1     -10.436   7.872  69.949  1.00  0.00    -0.229 C  
ENDROOT
BRANCH   2   3
HETATM    3  N   UNL     1     -11.650   8.681  69.778  1.00  0.00     0.237 NA 
BRANCH   3   4
HETATM    4  C   UNL     1     -12.891   7.946  70.104  1.00  0.00     1.409 C  
HETATM    5  C   UNL     1     -12.780   6.424  70.143  1.00  0.00     1.564 C  
ENDBRANCH   3   4
BRANCH   3   6
HETATM    6  C   UNL     1     -11.505   9.992  70.452  1.00  0.00    -0.314 C  
BRANCH   6   7
HETATM    7  C   UNL     1     -11.768   9.812  71.928  1.00  0.00    -0.048 C  
BRANCH   7   8
HETATM    8  S   UNL     1     -11.821  11.273  72.953  1.00  0.00     7.785 S  
HETATM    9  O   UNL     1     -13.075  11.982  72.636  1.00  0.00     0.005 OA 
HETATM   10  O   UNL     1     -11.460  10.924  74.299  1.00  0.00    15.567 OA 
BRANCH   8  11
HETATM   11  C   UNL     1     -10.506  12.137  72.183  1.00  0.00    12.603 C  
HETATM   12  C   UNL     1      -9.403  12.506  73.172  1.00  0.00    24.010 C  
HETATM   13  C   UNL     1      -8.873  13.836  72.734  1.00  0.00    12.837 C  
HETATM   14  N   UNL     1      -9.980  14.490  72.051  1.00  0.00     3.818 N  
HETATM   15  C   UNL     1     -10.875  13.342  71.265  1.00  0.00     4.230 C  
HETATM   16  C   UNL     1     -10.603  12.568  69.702  1.00  0.00     0.609 C  
HETATM   17  O   UNL     1     -11.502  12.672  68.637  1.00  0.00    -0.261 OA 
HETATM   18  O   UNL     1      -9.604  11.840  69.581  1.00  0.00     0.765 OA 
HETATM   19  C   UNL     1     -11.429  12.151  67.092  1.00  0.00    -0.346 C  
HETATM   20  C   UNL     1     -10.228  12.575  66.038  1.00  0.00    -0.269 C  
HETATM   21  C   UNL     1     -12.221  10.876  66.547  1.00  0.00     2.737 C  
HETATM   22  C   UNL     1     -12.199   9.569  67.318  1.00  0.00     5.691 C  
HETATM   23  C   UNL     1     -13.672  11.179  66.097  1.00  0.00    12.920 C  
HETATM   24  C   UNL     1     -10.330  12.169  64.553  1.00  0.00    -0.335 C  
HETATM   25  C   UNL     1      -8.750  12.440  66.326  1.00  0.00     0.099 C  
HETATM   26  C   UNL     1      -8.179  11.772  67.329  1.00  0.00    -0.163 C  
HETATM   27  C   UNL     1      -7.289  12.603  68.208  1.00  0.00    -0.116 C  
HETATM   28  O   UNL     1      -6.322  12.139  68.756  1.00  0.00    -0.066 OA 
HETATM   29  N   UNL     1      -7.788  13.871  68.532  1.00  0.00    -0.138 N  
HETATM   30  C   UNL     1      -8.875  14.630  67.877  1.00  0.00    -0.170 C  
HETATM   31  H   UNL     1      -7.343  14.332  69.326  1.00  0.00     0.000 HD 
HETATM   32  C   UNL     1      -9.307  15.753  68.668  1.00  0.00    -0.206 C  
HETATM   33  C   UNL     1     -10.197  16.734  68.644  1.00  0.00    -0.298 C  
HETATM   34  C   UNL     1     -10.096  17.792  69.633  1.00  0.00     0.290 C  
HETATM   35  C   UNL     1      -9.038  17.969  70.454  1.00  0.00     3.324 C  
HETATM   36  C   UNL     1     -11.195  18.833  69.669  1.00  0.00     3.123 C  
HETATM   37  C   UNL     1      -7.779  17.171  70.787  1.00  0.00     4.536 C  
HETATM   38  C   UNL     1      -6.419  17.702  70.573  1.00  0.00     1.032 C  
HETATM   39  O   UNL     1      -7.754  15.774  71.007  1.00  0.00     2.130 OA 
HETATM   40  H   UNL     1      -6.971  15.277  71.214  1.00  0.00     0.000 HD 
HETATM   41  C   UNL     1      -6.285  18.943  71.437  1.00  0.00     0.915 C  
HETATM   42  O   UNL     1      -5.625  19.871  70.942  1.00  0.00    -0.245 OA 
HETATM   43  C   UNL     1      -6.839  19.096  72.916  1.00  0.00     3.776 C  
HETATM   44  C   UNL     1      -8.012  18.221  73.565  1.00  0.00    10.929 A  
HETATM   45  N   UNL     1      -8.258  16.896  73.564  1.00  0.00    17.251 NA 
HETATM   46  C   UNL     1      -9.674  16.761  73.452  1.00  0.00    12.101 A  
HETATM   47  C   UNL     1     -10.177  18.002  73.829  1.00  0.00     5.939 A  
HETATM   48  C   UNL     1     -10.555  15.629  72.800  1.00  0.00     2.462 C  
HETATM   49  O   UNL     1      -9.157  18.931  73.853  1.00  0.00     4.833 OA 
HETATM   50  O   UNL     1     -11.781  15.761  72.807  1.00  0.00    -0.444 OA 
ENDBRANCH   8  11
ENDBRANCH   7   8
ENDBRANCH   6   7
ENDBRANCH   3   6
ENDBRANCH   2   3
TORSDOF 6
ENDMDL
MODEL       98
REMARK 921   NORMALIZED FREE ENERGY PREDICTED BY IDOCK:  134.16 KCAL/MOL
REMARK 922        TOTAL FREE ENERGY PREDICTED BY IDOCK:  180.07 KCAL/MOL
REMARK 923 INTER-LIGAND FREE ENERGY PREDICTED BY IDOCK:  123.02 KCAL/MOL
REMARK 924 INTRA-LIGAND FREE ENERGY PREDICTED BY IDOCK:   57.05 KCAL/MOL
REMARK 927      BINDING AFFINITY PREDICTED BY RF-SCORE:    0.00 PKD
ROOT
HETATM    1  C   UNL     1     -11.160  13.464  65.633  1.00  0.00    -0.298 C  
HETATM    2  C   UNL     1      -9.757  12.933  65.312  1.00  0.00     0.012 C  
ENDROOT
BRANCH   2   3
HETATM    3  N   UNL     1      -9.536  12.639  63.890  1.00  0.00     0.177 NA 
BRANCH   3   4
HETATM    4  C   UNL     1      -9.774  11.221  63.543  1.00  0.00    -0.336 C  
HETATM    5  C   UNL     1     -11.003  10.939  62.684  1.00  0.00     1.119 C  
ENDBRANCH   3   4
BRANCH   3   6
HETATM    6  C   UNL     1     -10.247  13.618  63.035  1.00  0.00     4.770 C  
BRANCH   6   7
HETATM    7  C   UNL     1      -9.781  15.009  63.397  1.00  0.00     9.163 C  
BRANCH   7   8
HETATM    8  S   UNL     1      -8.100  15.207  63.965  1.00  0.00    17.249 S  
HETATM    9  O   UNL     1      -7.250  14.349  63.118  1.00  0.00    17.445 OA 
HETATM   10  O   UNL     1      -7.823  16.603  64.158  1.00  0.00     8.238 OA 
BRANCH   8  11
HETATM   11  C   UNL     1      -8.291  14.413  65.515  1.00  0.00     3.203 C  
HETATM   12  C   UNL     1      -7.070  13.574  65.886  1.00  0.00     5.217 C  
HETATM   13  C   UNL     1      -7.589  12.375  66.617  1.00  0.00     0.298 C  
HETATM   14  N   UNL     1      -8.936  12.162  66.106  1.00  0.00    -0.109 N  
HETATM   15  C   UNL     1      -9.617  13.632  65.766  1.00  0.00    -0.061 C  
HETATM   16  C   UNL     1     -10.400  14.792  66.840  1.00  0.00    -0.267 C  
HETATM   17  O   UNL     1     -11.737  15.177  66.697  1.00  0.00    -0.215 OA 
HETATM   18  O   UNL     1      -9.703  15.342  67.709  1.00  0.00    -0.213 OA 
HETATM   19  C   UNL     1     -12.701  16.130  67.606  1.00  0.00     2.678 C  
HETATM   20  C   UNL     1     -13.017  15.855  69.205  1.00  0.00     1.262 C  
HETATM   21  C   UNL     1     -13.096  17.626  67.211  1.00  0.00     7.711 C  
HETATM   22  C   UNL     1     -12.034  18.607  66.751  1.00  0.00     2.974 C  
HETATM   23  C   UNL     1     -14.325  17.728  66.274  1.00  0.00    15.413 C  
HETATM   24  C   UNL     1     -14.070  16.711  69.938  1.00  0.00     6.946 C  
HETATM   25  C   UNL     1     -11.957  15.641  70.261  1.00  0.00    -0.398 C  
HETATM   26  C   UNL     1     -10.646  15.860  70.149  1.00  0.00    -0.302 C  
HETATM   27  C   UNL     1      -9.786  14.659  70.421  1.00  0.00     0.995 C  
HETATM   28  O   UNL     1      -8.684  14.760  70.897  1.00  0.00     1.800 OA 
HETATM   29  N   UNL     1     -10.249  13.457  69.871  1.00  0.00     0.551 N  
HETATM   30  C   UNL     1     -11.600  13.134  69.366  1.00  0.00    -0.300 C  
HETATM   31  H   UNL     1      -9.563  12.704  69.810  1.00  0.00     0.000 HD 
HETATM   32  C   UNL     1     -11.618  11.912  68.603  1.00  0.00    -0.366 C  
HETATM   33  C   UNL     1     -12.457  11.152  67.916  1.00  0.00     1.585 C  
HETATM   34  C   UNL     1     -12.015   9.839  67.481  1.00  0.00     2.966 C  
HETATM   35  C   UNL     1     -10.880   9.240  67.903  1.00  0.00    -0.181 C  
HETATM   36  C   UNL     1     -12.940   9.041  66.589  1.00  0.00    16.140 C  
HETATM   37  C   UNL     1      -9.670   9.670  68.730  1.00  0.00    -0.163 C  
HETATM   38  C   UNL     1      -9.292   9.009  69.994  1.00  0.00    -0.198 C  
HETATM   39  O   UNL     1      -8.997  10.906  68.579  1.00  0.00    -0.144 OA 
HETATM   40  H   UNL     1      -8.245  11.174  69.093  1.00  0.00     0.000 HD 
HETATM   41  C   UNL     1      -8.992   7.558  69.664  1.00  0.00    -0.141 C  
HETATM   42  O   UNL     1      -9.344   6.731  70.520  1.00  0.00    -0.162 OA 
HETATM   43  C   UNL     1      -8.206   7.052  68.382  1.00  0.00    -0.124 C  
HETATM   44  C   UNL     1      -8.028   7.868  67.017  1.00  0.00    -0.112 A  
HETATM   45  N   UNL     1      -7.696   9.151  66.767  1.00  0.00    -0.096 NA 
HETATM   46  C   UNL     1      -8.493   9.552  65.653  1.00  0.00    -0.133 A  
HETATM   47  C   UNL     1      -8.908   8.360  65.070  1.00  0.00     0.017 A  
HETATM   48  C   UNL     1      -9.068  10.962  65.251  1.00  0.00    -0.197 C  
HETATM   49  O   UNL     1      -8.669   7.310  65.933  1.00  0.00    -0.149 OA 
HETATM   50  O   UNL     1      -9.766  11.045  64.237  1.00  0.00    -0.242 OA 
ENDBRANCH   8  11
ENDBRANCH   7   8
ENDBRANCH   6   7
ENDBRANCH   3   6
ENDBRANCH   2   3
TORSDOF 6
ENDMDL
