MODEL        1
REMARK 921   NORMALIZED FREE ENERGY PREDICTED BY IDOCK:   -7.15 KCAL/MOL
REMARK 922        TOTAL FREE ENERGY PREDICTED BY IDOCK:   -7.59 KCAL/MOL
REMARK 923 INTER-LIGAND FREE ENERGY PREDICTED BY IDOCK:   -7.57 KCAL/MOL
REMARK 924 INTRA-LIGAND FREE ENERGY PREDICTED BY IDOCK:   -0.02 KCAL/MOL
REMARK 927      BINDING AFFINITY PREDICTED BY RF-SCORE:    0.00 PKD
ROOT
HETATM    1  C   UNL     1      -9.475   9.813  64.929  1.00  0.00    -0.331 C  
HETATM    2  C   UNL     1      -8.766  10.323  63.812  1.00  0.00    -0.211 C  
HETATM    3  C   UNL     1      -8.344  10.893  65.114  1.00  0.00     0.001 C  
HETATM    4  C   UNL     1      -9.154  10.004  66.779  1.00  0.00    -0.139 C  
HETATM    5  C   UNL     1      -7.977   9.675  66.154  1.00  0.00    -0.108 C  
HETATM    6  C   UNL     1     -11.974  13.062  67.735  1.00  0.00    -0.344 C  
HETATM    7  O   UNL     1      -8.797  10.111  68.167  1.00  0.00    -0.124 OA 
HETATM    8  C   UNL     1      -7.322  11.246  66.974  1.00  0.00    -0.136 C  
HETATM    9  C   UNL     1      -7.138   8.435  66.196  1.00  0.00    -0.076 C  
HETATM   10  O   UNL     1     -11.172  17.194  64.273  1.00  0.00    -1.126 OA 
HETATM   11  H   UNL     1      -9.171   9.700  68.937  1.00  0.00     0.000 HD 
HETATM   12  C   UNL     1      -8.644  12.428  67.212  1.00  0.00    -0.185 C  
HETATM   13  C   UNL     1      -9.975  12.569  66.159  1.00  0.00    -0.267 C  
HETATM   14  C   UNL     1     -10.657  11.142  65.459  1.00  0.00    -0.289 C  
HETATM   15  C   UNL     1     -11.630  11.478  64.322  1.00  0.00    -0.219 C  
HETATM   16  C   UNL     1     -12.657  12.516  64.750  1.00  0.00    -0.493 C  
HETATM   17  C   UNL     1     -11.950  13.749  65.255  1.00  0.00    -0.388 C  
HETATM   18  C   UNL     1     -11.931  14.842  64.463  1.00  0.00    -0.451 C  
HETATM   19  C   UNL     1     -11.282  15.998  64.925  1.00  0.00    -0.312 A  
HETATM   20  C   UNL     1     -10.704  16.130  66.165  1.00  0.00    -0.222 A  
HETATM   21  C   UNL     1     -10.506  14.987  67.093  1.00  0.00    -0.277 C  
HETATM   22  C   UNL     1     -10.476  17.510  66.297  1.00  0.00    -0.283 A  
HETATM   23  C   UNL     1     -11.113  13.605  66.576  1.00  0.00    -0.310 C  
HETATM   24  N   UNL     1     -10.682  18.155  65.145  1.00  0.00    -0.541 NA 
ENDROOT
BRANCH   4  25
HETATM   25  C   UNL     1      -9.981   8.684  66.882  1.00  0.00    -0.330 C  
HETATM   26  C   UNL     1     -10.635   7.685  67.008  1.00  0.00    -0.406 C  
ENDBRANCH   4  25
TORSDOF 1
ENDMDL
MODEL        2
REMARK 921   NORMALIZED FREE ENERGY PREDICTED BY IDOCK:   -7.05 KCAL/MOL
REMARK 922        TOTAL FREE ENERGY PREDICTED BY IDOCK:   -7.49 KCAL/MOL
REMARK 923 INTER-LIGAND FREE ENERGY PREDICTED BY IDOCK:   -7.53 KCAL/MOL
REMARK 924 INTRA-LIGAND FREE ENERGY PREDICTED BY IDOCK:    0.04 KCAL/MOL
REMARK 927      BINDING AFFINITY PREDICTED BY RF-SCORE:    0.00 PKD
ROOT
HETATM    1  C   UNL     1      -6.564  18.027  67.165  1.00  0.00    -0.201 C  
HETATM    2  C   UNL     1      -6.446  17.903  65.758  1.00  0.00    -0.263 C  
HETATM    3  C   UNL     1      -7.763  18.405  66.218  1.00  0.00    -0.279 C  
HETATM    4  C   UNL     1      -7.897  18.848  68.218  1.00  0.00    -0.308 C  
HETATM    5  C   UNL     1      -7.543  19.701  67.204  1.00  0.00    -0.282 C  
HETATM    6  C   UNL     1     -10.154  15.424  69.402  1.00  0.00    -0.269 C  
HETATM    7  O   UNL     1      -8.897  19.573  68.954  1.00  0.00    -0.355 OA 
HETATM    8  C   UNL     1      -9.390  19.687  66.802  1.00  0.00    -0.451 C  
HETATM    9  C   UNL     1      -6.816  21.011  67.209  1.00  0.00    -0.434 C  
HETATM   10  O   UNL     1     -11.415  12.633  64.894  1.00  0.00    -0.303 OA 
HETATM   11  H   UNL     1      -8.960  19.777  69.880  1.00  0.00     0.000 HD 
HETATM   12  C   UNL     1     -10.129  18.136  67.303  1.00  0.00    -0.354 C  
HETATM   13  C   UNL     1      -9.294  16.652  67.287  1.00  0.00    -0.234 C  
HETATM   14  C   UNL     1      -7.624  16.615  67.735  1.00  0.00    -0.172 C  
HETATM   15  C   UNL     1      -6.970  15.275  67.374  1.00  0.00    -0.212 C  
HETATM   16  C   UNL     1      -7.782  14.096  67.890  1.00  0.00    -0.161 C  
HETATM   17  C   UNL     1      -9.193  14.183  67.363  1.00  0.00    -0.204 C  
HETATM   18  C   UNL     1      -9.556  13.341  66.373  1.00  0.00    -0.260 C  
HETATM   19  C   UNL     1     -10.868  13.408  65.877  1.00  0.00    -0.274 A  
HETATM   20  C   UNL     1     -11.849  14.237  66.367  1.00  0.00    -0.427 A  
HETATM   21  C   UNL     1     -11.581  15.322  67.345  1.00  0.00    -0.196 C  
HETATM   22  C   UNL     1     -13.036  13.742  65.802  1.00  0.00    -0.256 A  
HETATM   23  C   UNL     1     -10.072  15.385  67.863  1.00  0.00    -0.226 C  
HETATM   24  N   UNL     1     -12.788  12.828  64.859  1.00  0.00    -0.825 NA 
ENDROOT
BRANCH   4  25
HETATM   25  C   UNL     1      -6.759  18.934  69.283  1.00  0.00    -0.310 C  
HETATM   26  C   UNL     1      -5.855  19.029  70.068  1.00  0.00    -0.269 C  
ENDBRANCH   4  25
TORSDOF 1
ENDMDL
MODEL        3
REMARK 921   NORMALIZED FREE ENERGY PREDICTED BY IDOCK:   -6.51 KCAL/MOL
REMARK 922        TOTAL FREE ENERGY PREDICTED BY IDOCK:   -6.91 KCAL/MOL
REMARK 923 INTER-LIGAND FREE ENERGY PREDICTED BY IDOCK:   -6.96 KCAL/MOL
REMARK 924 INTRA-LIGAND FREE ENERGY PREDICTED BY IDOCK:    0.05 KCAL/MOL
REMARK 927      BINDING AFFINITY PREDICTED BY RF-SCORE:    0.00 PKD
ROOT
HETATM    1  C   UNL     1      -9.067   9.969  66.181  1.00  0.00    -0.188 C  
HETATM    2  C   UNL     1      -8.307  10.351  65.047  1.00  0.00    -0.166 C  
HETATM    3  C   UNL     1      -8.025  11.146  66.266  1.00  0.00    -0.125 C  
HETATM    4  C   UNL     1      -8.904  10.468  67.993  1.00  0.00    -0.131 C  
HETATM    5  C   UNL     1      -7.664  10.134  67.510  1.00  0.00    -0.091 C  
HETATM    6  C   UNL     1     -11.978  13.418  68.256  1.00  0.00    -0.352 C  
HETATM    7  O   UNL     1      -8.664  10.815  69.368  1.00  0.00    -0.357 OA 
HETATM    8  C   UNL     1      -7.175  11.858  68.110  1.00  0.00    -0.085 C  
HETATM    9  C   UNL     1      -6.754   8.982  67.806  1.00  0.00    -0.065 C  
HETATM   10  O   UNL     1     -11.171  17.010  64.238  1.00  0.00    -1.186 OA 
HETATM   11  H   UNL     1      -9.071  10.501  70.167  1.00  0.00     0.000 HD 
HETATM   12  C   UNL     1      -8.584  12.961  68.066  1.00  0.00    -0.186 C  
HETATM   13  C   UNL     1      -9.834  12.837  66.917  1.00  0.00    -0.236 C  
HETATM   14  C   UNL     1     -10.368  11.271  66.411  1.00  0.00    -0.291 C  
HETATM   15  C   UNL     1     -11.268  11.353  65.172  1.00  0.00    -0.146 C  
HETATM   16  C   UNL     1     -12.390  12.366  65.357  1.00  0.00    -0.308 C  
HETATM   17  C   UNL     1     -11.804  13.712  65.705  1.00  0.00    -0.387 C  
HETATM   18  C   UNL     1     -11.792  14.666  64.751  1.00  0.00    -0.444 C  
HETATM   19  C   UNL     1     -11.255  15.926  65.065  1.00  0.00    -0.290 A  
HETATM   20  C   UNL     1     -10.785  16.291  66.303  1.00  0.00    -0.185 A  
HETATM   21  C   UNL     1     -10.588  15.324  67.413  1.00  0.00    -0.282 C  
HETATM   22  C   UNL     1     -10.656  17.688  66.228  1.00  0.00    -0.215 A  
HETATM   23  C   UNL     1     -11.066  13.837  67.086  1.00  0.00    -0.315 C  
HETATM   24  N   UNL     1     -10.812  18.129  64.976  1.00  0.00    -0.529 NA 
ENDROOT
BRANCH   4  25
HETATM   25  C   UNL     1      -9.652   9.122  68.251  1.00  0.00    -0.161 C  
HETATM   26  C   UNL     1     -10.221   8.074  68.399  1.00  0.00    -0.239 C  
ENDBRANCH   4  25
TORSDOF 1
ENDMDL
MODEL        4
REMARK 921   NORMALIZED FREE ENERGY PREDICTED BY IDOCK:   -6.50 KCAL/MOL
REMARK 922        TOTAL FREE ENERGY PREDICTED BY IDOCK:   -6.90 KCAL/MOL
REMARK 923 INTER-LIGAND FREE ENERGY PREDICTED BY IDOCK:   -6.88 KCAL/MOL
REMARK 924 INTRA-LIGAND FREE ENERGY PREDICTED BY IDOCK:   -0.02 KCAL/MOL
REMARK 927      BINDING AFFINITY PREDICTED BY RF-SCORE:    0.00 PKD
ROOT
HETATM    1  C   UNL     1     -11.689  12.462  67.457  1.00  0.00    -0.425 C  
HETATM    2  C   UNL     1     -11.976  12.711  66.090  1.00  0.00    -0.458 C  
HETATM    3  C   UNL     1     -10.548  12.424  66.372  1.00  0.00    -0.271 C  
HETATM    4  C   UNL     1     -10.125  11.803  68.282  1.00  0.00    -0.197 C  
HETATM    5  C   UNL     1     -10.426  11.012  67.202  1.00  0.00    -0.274 C  
HETATM    6  C   UNL     1      -8.411  15.448  69.694  1.00  0.00    -0.127 C  
HETATM    7  O   UNL     1      -8.939  11.208  68.835  1.00  0.00    -0.273 OA 
HETATM    8  C   UNL     1      -8.665  11.423  66.651  1.00  0.00    -0.178 C  
HETATM    9  C   UNL     1     -10.900   9.594  67.103  1.00  0.00    -0.184 C  
HETATM   10  O   UNL     1      -8.160  18.898  65.482  1.00  0.00    -0.324 OA 
HETATM   11  H   UNL     1      -8.743  10.921  69.719  1.00  0.00     0.000 HD 
HETATM   12  C   UNL     1      -8.169  13.024  67.279  1.00  0.00    -0.174 C  
HETATM   13  C   UNL     1      -9.255  14.313  67.520  1.00  0.00    -0.197 C  
HETATM   14  C   UNL     1     -10.847  13.981  68.109  1.00  0.00    -0.260 C  
HETATM   15  C   UNL     1     -11.767  15.201  67.974  1.00  0.00    -0.304 C  
HETATM   16  C   UNL     1     -11.130  16.452  68.565  1.00  0.00    -0.357 C  
HETATM   17  C   UNL     1      -9.791  16.694  67.914  1.00  0.00    -0.248 C  
HETATM   18  C   UNL     1      -9.693  17.692  67.011  1.00  0.00    -0.292 C  
HETATM   19  C   UNL     1      -8.450  17.931  66.403  1.00  0.00    -0.234 A  
HETATM   20  C   UNL     1      -7.289  17.258  66.701  1.00  0.00    -0.282 A  
HETATM   21  C   UNL     1      -7.253  16.043  67.553  1.00  0.00    -0.196 C  
HETATM   22  C   UNL     1      -6.278  18.030  66.105  1.00  0.00    -0.227 A  
HETATM   23  C   UNL     1      -8.661  15.636  68.184  1.00  0.00    -0.168 C  
HETATM   24  N   UNL     1      -6.785  18.975  65.308  1.00  0.00    -0.467 NA 
ENDROOT
BRANCH   4  25
HETATM   25  C   UNL     1     -11.110  11.385  69.419  1.00  0.00    -0.301 C  
HETATM   26  C   UNL     1     -11.828  11.067  70.328  1.00  0.00    -0.456 C  
ENDBRANCH   4  25
TORSDOF 1
ENDMDL
MODEL        5
REMARK 921   NORMALIZED FREE ENERGY PREDICTED BY IDOCK:   -6.41 KCAL/MOL
REMARK 922        TOTAL FREE ENERGY PREDICTED BY IDOCK:   -6.81 KCAL/MOL
REMARK 923 INTER-LIGAND FREE ENERGY PREDICTED BY IDOCK:   -6.79 KCAL/MOL
REMARK 924 INTRA-LIGAND FREE ENERGY PREDICTED BY IDOCK:   -0.02 KCAL/MOL
REMARK 927      BINDING AFFINITY PREDICTED BY RF-SCORE:    0.00 PKD
ROOT
HETATM    1  C   UNL     1      -8.749   9.624  65.732  1.00  0.00    -0.168 C  
HETATM    2  C   UNL     1      -7.803  10.192  64.841  1.00  0.00    -0.147 C  
HETATM    3  C   UNL     1      -7.750  10.739  66.219  1.00  0.00    -0.146 C  
HETATM    4  C   UNL     1      -8.917   9.774  67.605  1.00  0.00    -0.128 C  
HETATM    5  C   UNL     1      -7.607   9.506  67.295  1.00  0.00    -0.091 C  
HETATM    6  C   UNL     1     -12.017  12.696  67.866  1.00  0.00    -0.307 C  
HETATM    7  O   UNL     1      -8.929   9.854  69.040  1.00  0.00    -0.142 OA 
HETATM    8  C   UNL     1      -7.250  11.077  68.283  1.00  0.00    -0.085 C  
HETATM    9  C   UNL     1      -6.753   8.298  67.527  1.00  0.00    -0.063 C  
HETATM   10  O   UNL     1     -10.542  16.952  64.798  1.00  0.00    -0.635 OA 
HETATM   11  H   UNL     1      -9.469   9.407  69.682  1.00  0.00     0.000 HD 
HETATM   12  C   UNL     1      -8.639  12.202  68.198  1.00  0.00    -0.177 C  
HETATM   13  C   UNL     1      -9.663  12.323  66.843  1.00  0.00    -0.217 C  
HETATM   14  C   UNL     1     -10.083  10.892  65.967  1.00  0.00    -0.303 C  
HETATM   15  C   UNL     1     -10.749  11.223  64.625  1.00  0.00    -0.371 C  
HETATM   16  C   UNL     1     -11.895  12.211  64.796  1.00  0.00    -0.385 C  
HETATM   17  C   UNL     1     -11.394  13.454  65.487  1.00  0.00    -0.310 C  
HETATM   18  C   UNL     1     -11.222  14.569  64.746  1.00  0.00    -0.395 C  
HETATM   19  C   UNL     1     -10.761  15.735  65.379  1.00  0.00    -0.404 A  
HETATM   20  C   UNL     1     -10.523  15.853  66.727  1.00  0.00    -0.309 A  
HETATM   21  C   UNL     1     -10.518  14.692  67.654  1.00  0.00    -0.243 C  
HETATM   22  C   UNL     1     -10.397  17.236  66.938  1.00  0.00    -0.310 A  
HETATM   23  C   UNL     1     -10.915  13.304  66.975  1.00  0.00    -0.291 C  
HETATM   24  N   UNL     1     -10.331  17.906  65.784  1.00  0.00    -0.615 NA 
ENDROOT
BRANCH   4  25
HETATM   25  C   UNL     1      -9.685   8.421  67.470  1.00  0.00    -0.209 C  
HETATM   26  C   UNL     1     -10.291   7.386  67.417  1.00  0.00    -0.340 C  
ENDBRANCH   4  25
TORSDOF 1
ENDMDL
MODEL        6
REMARK 921   NORMALIZED FREE ENERGY PREDICTED BY IDOCK:   -6.22 KCAL/MOL
REMARK 922        TOTAL FREE ENERGY PREDICTED BY IDOCK:   -6.61 KCAL/MOL
REMARK 923 INTER-LIGAND FREE ENERGY PREDICTED BY IDOCK:   -6.59 KCAL/MOL
REMARK 924 INTRA-LIGAND FREE ENERGY PREDICTED BY IDOCK:   -0.01 KCAL/MOL
REMARK 927      BINDING AFFINITY PREDICTED BY RF-SCORE:    0.00 PKD
ROOT
HETATM    1  C   UNL     1     -11.333  14.182  68.277  1.00  0.00    -0.319 C  
HETATM    2  C   UNL     1     -10.844  14.776  69.469  1.00  0.00    -0.268 C  
HETATM    3  C   UNL     1      -9.804  14.112  68.646  1.00  0.00    -0.206 C  
HETATM    4  C   UNL     1     -10.412  13.466  66.794  1.00  0.00    -0.275 C  
HETATM    5  C   UNL     1      -9.870  14.687  67.108  1.00  0.00    -0.237 C  
HETATM    6  C   UNL     1     -10.630   9.299  67.695  1.00  0.00    -0.324 C  
HETATM    7  O   UNL     1      -9.650  13.026  65.657  1.00  0.00    -0.455 OA 
HETATM    8  C   UNL     1      -8.245  13.727  67.214  1.00  0.00    -0.173 C  
HETATM    9  C   UNL     1      -9.885  16.001  66.390  1.00  0.00    -0.308 C  
HETATM   10  O   UNL     1      -8.797   8.607  72.780  1.00  0.00    -0.374 OA 
HETATM   11  H   UNL     1      -9.931  12.727  64.801  1.00  0.00     0.000 HD 
HETATM   12  C   UNL     1      -8.550  12.027  67.683  1.00  0.00    -0.163 C  
HETATM   13  C   UNL     1      -9.830  11.552  68.701  1.00  0.00    -0.184 C  
HETATM   14  C   UNL     1     -11.359  12.350  68.570  1.00  0.00    -0.336 C  
HETATM   15  C   UNL     1     -12.279  12.009  69.748  1.00  0.00    -0.226 C  
HETATM   16  C   UNL     1     -12.376  10.506  69.970  1.00  0.00    -0.290 C  
HETATM   17  C   UNL     1     -10.994   9.933  70.162  1.00  0.00    -0.356 C  
HETATM   18  C   UNL     1     -10.621   9.575  71.409  1.00  0.00    -0.307 C  
HETATM   19  C   UNL     1      -9.339   9.035  71.601  1.00  0.00    -0.183 A  
HETATM   20  C   UNL     1      -8.437   8.780  70.595  1.00  0.00    -0.193 A  
HETATM   21  C   UNL     1      -8.627   9.248  69.199  1.00  0.00    -0.134 C  
HETATM   22  C   UNL     1      -7.462   7.971  71.200  1.00  0.00    -0.070 A  
HETATM   23  C   UNL     1     -10.018   9.985  68.933  1.00  0.00    -0.198 C  
HETATM   24  N   UNL     1      -7.620   7.917  72.526  1.00  0.00    -0.098 NA 
ENDROOT
BRANCH   4  25
HETATM   25  C   UNL     1     -11.748  13.759  66.043  1.00  0.00    -0.383 C  
HETATM   26  C   UNL     1     -12.781  13.933  65.455  1.00  0.00    -0.536 C  
ENDBRANCH   4  25
TORSDOF 1
ENDMDL
MODEL        7
REMARK 921   NORMALIZED FREE ENERGY PREDICTED BY IDOCK:   -6.18 KCAL/MOL
REMARK 922        TOTAL FREE ENERGY PREDICTED BY IDOCK:   -6.57 KCAL/MOL
REMARK 923 INTER-LIGAND FREE ENERGY PREDICTED BY IDOCK:   -6.58 KCAL/MOL
REMARK 924 INTRA-LIGAND FREE ENERGY PREDICTED BY IDOCK:    0.01 KCAL/MOL
REMARK 927      BINDING AFFINITY PREDICTED BY RF-SCORE:    0.00 PKD
ROOT
HETATM    1  C   UNL     1     -10.475  16.986  68.336  1.00  0.00    -0.370 C  
HETATM    2  C   UNL     1     -10.419  16.582  69.694  1.00  0.00    -0.267 C  
HETATM    3  C   UNL     1      -9.226  16.207  68.896  1.00  0.00    -0.234 C  
HETATM    4  C   UNL     1      -9.141  16.992  67.000  1.00  0.00    -0.221 C  
HETATM    5  C   UNL     1      -8.626  17.541  68.147  1.00  0.00    -0.258 C  
HETATM    6  C   UNL     1     -10.171  13.437  64.874  1.00  0.00    -0.339 C  
HETATM    7  O   UNL     1      -8.056  17.058  66.060  1.00  0.00    -0.452 OA 
HETATM    8  C   UNL     1      -7.291  16.217  67.956  1.00  0.00    -0.138 C  
HETATM    9  C   UNL     1      -8.210  18.940  68.485  1.00  0.00    -0.388 C  
HETATM   10  O   UNL     1     -10.538   9.386  68.502  1.00  0.00    -0.213 OA 
HETATM   11  H   UNL     1      -8.016  17.421  65.183  1.00  0.00     0.000 HD 
HETATM   12  C   UNL     1      -7.947  14.781  67.114  1.00  0.00    -0.205 C  
HETATM   13  C   UNL     1      -9.567  14.273  67.253  1.00  0.00    -0.232 C  
HETATM   14  C   UNL     1     -10.823  15.459  67.341  1.00  0.00    -0.309 C  
HETATM   15  C   UNL     1     -12.160  14.838  67.765  1.00  0.00    -0.141 C  
HETATM   16  C   UNL     1     -12.508  13.621  66.919  1.00  0.00    -0.189 C  
HETATM   17  C   UNL     1     -11.384  12.617  66.990  1.00  0.00    -0.377 C  
HETATM   18  C   UNL     1     -11.566  11.509  67.740  1.00  0.00    -0.338 C  
HETATM   19  C   UNL     1     -10.529  10.564  67.809  1.00  0.00    -0.224 A  
HETATM   20  C   UNL     1      -9.345  10.648  67.117  1.00  0.00    -0.172 A  
HETATM   21  C   UNL     1      -8.925  11.862  66.372  1.00  0.00    -0.180 C  
HETATM   22  C   UNL     1      -8.780   9.368  67.240  1.00  0.00    -0.128 A  
HETATM   23  C   UNL     1     -10.009  13.032  66.353  1.00  0.00    -0.277 C  
HETATM   24  N   UNL     1      -9.443   8.620  68.128  1.00  0.00    -0.140 NA 
ENDROOT
BRANCH   4  25
HETATM   25  C   UNL     1     -10.040  18.091  66.352  1.00  0.00    -0.384 C  
HETATM   26  C   UNL     1     -10.693  18.973  65.864  1.00  0.00    -0.404 C  
ENDBRANCH   4  25
TORSDOF 1
ENDMDL
MODEL        8
REMARK 921   NORMALIZED FREE ENERGY PREDICTED BY IDOCK:   -6.17 KCAL/MOL
REMARK 922        TOTAL FREE ENERGY PREDICTED BY IDOCK:   -6.55 KCAL/MOL
REMARK 923 INTER-LIGAND FREE ENERGY PREDICTED BY IDOCK:   -6.57 KCAL/MOL
REMARK 924 INTRA-LIGAND FREE ENERGY PREDICTED BY IDOCK:    0.02 KCAL/MOL
REMARK 927      BINDING AFFINITY PREDICTED BY RF-SCORE:    0.00 PKD
ROOT
HETATM    1  C   UNL     1      -9.348  14.574  68.919  1.00  0.00    -0.136 C  
HETATM    2  C   UNL     1      -7.994  14.150  68.943  1.00  0.00    -0.051 C  
HETATM    3  C   UNL     1      -8.420  14.763  67.661  1.00  0.00    -0.185 C  
HETATM    4  C   UNL     1     -10.284  15.624  67.662  1.00  0.00    -0.261 C  
HETATM    5  C   UNL     1      -9.089  16.235  67.952  1.00  0.00    -0.196 C  
HETATM    6  C   UNL     1     -12.315  12.573  65.475  1.00  0.00    -0.364 C  
HETATM    7  O   UNL     1     -10.910  16.507  66.716  1.00  0.00    -0.217 OA 
HETATM    8  C   UNL     1      -8.818  16.169  66.083  1.00  0.00    -0.367 C  
HETATM    9  C   UNL     1      -8.768  17.502  68.683  1.00  0.00    -0.258 C  
HETATM   10  O   UNL     1      -8.598   8.909  63.907  1.00  0.00    -0.175 OA 
HETATM   11  H   UNL     1     -11.772  16.906  66.716  1.00  0.00     0.000 HD 
HETATM   12  C   UNL     1      -9.686  14.774  65.371  1.00  0.00    -0.193 C  
HETATM   13  C   UNL     1      -9.935  13.306  66.198  1.00  0.00    -0.295 C  
HETATM   14  C   UNL     1     -10.273  13.335  67.894  1.00  0.00    -0.233 C  
HETATM   15  C   UNL     1     -10.166  11.938  68.517  1.00  0.00    -0.221 C  
HETATM   16  C   UNL     1     -10.974  10.910  67.736  1.00  0.00    -0.339 C  
HETATM   17  C   UNL     1     -10.531  10.909  66.293  1.00  0.00    -0.304 C  
HETATM   18  C   UNL     1      -9.769   9.882  65.863  1.00  0.00    -0.326 C  
HETATM   19  C   UNL     1      -9.356   9.866  64.520  1.00  0.00    -0.275 A  
HETATM   20  C   UNL     1      -9.719  10.797  63.577  1.00  0.00    -0.387 A  
HETATM   21  C   UNL     1     -10.422  12.061  63.915  1.00  0.00    -0.440 C  
HETATM   22  C   UNL     1      -9.350  10.214  62.354  1.00  0.00    -0.268 A  
HETATM   23  C   UNL     1     -10.817  12.205  65.454  1.00  0.00    -0.335 C  
HETATM   24  N   UNL     1      -8.610   9.116  62.535  1.00  0.00    -0.213 NA 
ENDROOT
BRANCH   4  25
HETATM   25  C   UNL     1     -11.230  15.915  68.869  1.00  0.00    -0.343 C  
HETATM   26  C   UNL     1     -11.963  16.087  69.805  1.00  0.00    -0.188 C  
ENDBRANCH   4  25
TORSDOF 1
ENDMDL
MODEL        9
REMARK 921   NORMALIZED FREE ENERGY PREDICTED BY IDOCK:   -6.14 KCAL/MOL
REMARK 922        TOTAL FREE ENERGY PREDICTED BY IDOCK:   -6.52 KCAL/MOL
REMARK 923 INTER-LIGAND FREE ENERGY PREDICTED BY IDOCK:   -6.50 KCAL/MOL
REMARK 924 INTRA-LIGAND FREE ENERGY PREDICTED BY IDOCK:   -0.02 KCAL/MOL
REMARK 927      BINDING AFFINITY PREDICTED BY RF-SCORE:    0.00 PKD
ROOT
HETATM    1  C   UNL     1     -10.380   7.229  69.719  1.00  0.00    -0.227 C  
HETATM    2  C   UNL     1     -11.750   6.967  69.463  1.00  0.00    -0.008 C  
HETATM    3  C   UNL     1     -10.869   6.821  68.279  1.00  0.00    -0.290 C  
HETATM    4  C   UNL     1      -8.853   6.935  68.650  1.00  0.00    -0.124 C  
HETATM    5  C   UNL     1      -9.630   5.803  68.638  1.00  0.00    -0.154 C  
HETATM    6  C   UNL     1      -8.218  10.868  67.121  1.00  0.00    -0.126 C  
HETATM    7  O   UNL     1      -7.726   6.596  67.824  1.00  0.00    -0.103 OA 
HETATM    8  C   UNL     1      -9.575   6.015  66.761  1.00  0.00    -0.171 C  
HETATM    9  C   UNL     1      -9.416   4.438  69.216  1.00  0.00    -0.249 C  
HETATM   10  O   UNL     1     -12.916  12.577  64.950  1.00  0.00    -0.821 OA 
HETATM   11  H   UNL     1      -6.793   6.648  67.996  1.00  0.00     0.000 HD 
HETATM   12  C   UNL     1      -9.387   7.742  66.329  1.00  0.00    -0.210 C  
HETATM   13  C   UNL     1     -10.027   9.015  67.262  1.00  0.00    -0.275 C  
HETATM   14  C   UNL     1     -10.012   8.893  68.987  1.00  0.00    -0.195 C  
HETATM   15  C   UNL     1     -10.888   9.970  69.638  1.00  0.00    -0.292 C  
HETATM   16  C   UNL     1     -10.561  11.359  69.107  1.00  0.00    -0.196 C  
HETATM   17  C   UNL     1     -10.695  11.371  67.605  1.00  0.00    -0.261 C  
HETATM   18  C   UNL     1     -11.773  11.979  67.067  1.00  0.00    -0.341 C  
HETATM   19  C   UNL     1     -11.906  12.002  65.669  1.00  0.00    -0.172 A  
HETATM   20  C   UNL     1     -10.982  11.498  64.785  1.00  0.00    -0.338 A  
HETATM   21  C   UNL     1      -9.823  10.671  65.207  1.00  0.00    -0.334 C  
HETATM   22  C   UNL     1     -11.372  12.019  63.540  1.00  0.00    -0.442 A  
HETATM   23  C   UNL     1      -9.677  10.497  66.787  1.00  0.00    -0.220 C  
HETATM   24  N   UNL     1     -12.571  12.607  63.607  1.00  0.00    -0.739 NA 
ENDROOT
BRANCH   4  25
HETATM   25  C   UNL     1      -8.106   6.939  70.021  1.00  0.00    -0.125 C  
HETATM   26  C   UNL     1      -7.493   6.972  71.054  1.00  0.00    -0.081 C  
ENDBRANCH   4  25
TORSDOF 1
ENDMDL
MODEL       10
REMARK 921   NORMALIZED FREE ENERGY PREDICTED BY IDOCK:   -6.05 KCAL/MOL
REMARK 922        TOTAL FREE ENERGY PREDICTED BY IDOCK:   -6.42 KCAL/MOL
REMARK 923 INTER-LIGAND FREE ENERGY PREDICTED BY IDOCK:   -6.40 KCAL/MOL
REMARK 924 INTRA-LIGAND FREE ENERGY PREDICTED BY IDOCK:   -0.02 KCAL/MOL
REMARK 927      BINDING AFFINITY PREDICTED BY RF-SCORE:    0.00 PKD
ROOT
HETATM    1  C   UNL     1      -9.217   7.758  71.110  1.00  0.00    -0.158 C  
HETATM    2  C   UNL     1      -8.606   8.551  72.115  1.00  0.00    -0.242 C  
HETATM    3  C   UNL     1     -10.047   8.834  71.906  1.00  0.00    -0.409 C  
HETATM    4  C   UNL     1     -11.035   7.543  70.652  1.00  0.00    -0.249 C  
HETATM    5  C   UNL     1     -10.903   7.436  72.014  1.00  0.00    -0.263 C  
HETATM    6  C   UNL     1     -11.283  10.127  67.264  1.00  0.00    -0.024 C  
HETATM    7  O   UNL     1     -12.441   7.352  70.419  1.00  0.00    -0.542 OA 
HETATM    8  C   UNL     1     -12.193   8.816  72.058  1.00  0.00    -0.447 C  
HETATM    9  C   UNL     1     -11.060   6.272  72.944  1.00  0.00    -0.268 C  
HETATM   10  O   UNL     1      -9.282  14.978  68.733  1.00  0.00    -0.186 OA 
HETATM   11  H   UNL     1     -12.898   6.755  69.839  1.00  0.00     0.000 HD 
HETATM   12  C   UNL     1     -12.076   9.831  70.589  1.00  0.00    -0.311 C  
HETATM   13  C   UNL     1     -10.612  10.127  69.769  1.00  0.00    -0.298 C  
HETATM   14  C   UNL     1      -9.445   8.857  69.633  1.00  0.00    -0.168 C  
HETATM   15  C   UNL     1      -8.090   9.384  69.143  1.00  0.00    -0.107 C  
HETATM   16  C   UNL     1      -8.238  10.234  67.889  1.00  0.00    -0.109 C  
HETATM   17  C   UNL     1      -9.206  11.360  68.152  1.00  0.00    -0.178 C  
HETATM   18  C   UNL     1      -8.707  12.603  68.317  1.00  0.00    -0.169 C  
HETATM   19  C   UNL     1      -9.600  13.662  68.556  1.00  0.00    -0.165 A  
HETATM   20  C   UNL     1     -10.968  13.542  68.578  1.00  0.00    -0.291 A  
HETATM   21  C   UNL     1     -11.669  12.233  68.565  1.00  0.00    -0.381 C  
HETATM   22  C   UNL     1     -11.433  14.867  68.529  1.00  0.00    -0.315 A  
HETATM   23  C   UNL     1     -10.704  10.970  68.418  1.00  0.00    -0.240 C  
HETATM   24  N   UNL     1     -10.438  15.744  68.696  1.00  0.00    -0.224 NA 
ENDROOT
BRANCH   4  25
HETATM   25  C   UNL     1     -10.544   6.186  70.056  1.00  0.00    -0.323 C  
HETATM   26  C   UNL     1     -10.217   5.128  69.590  1.00  0.00    -0.337 C  
ENDBRANCH   4  25
TORSDOF 1
ENDMDL
MODEL       11
REMARK 921   NORMALIZED FREE ENERGY PREDICTED BY IDOCK:   -6.02 KCAL/MOL
REMARK 922        TOTAL FREE ENERGY PREDICTED BY IDOCK:   -6.39 KCAL/MOL
REMARK 923 INTER-LIGAND FREE ENERGY PREDICTED BY IDOCK:   -6.42 KCAL/MOL
REMARK 924 INTRA-LIGAND FREE ENERGY PREDICTED BY IDOCK:    0.03 KCAL/MOL
REMARK 927      BINDING AFFINITY PREDICTED BY RF-SCORE:    0.00 PKD
ROOT
HETATM    1  C   UNL     1     -11.410  14.975  67.580  1.00  0.00    -0.340 C  
HETATM    2  C   UNL     1     -11.785  15.139  68.937  1.00  0.00    -0.357 C  
HETATM    3  C   UNL     1     -10.322  15.196  68.697  1.00  0.00    -0.232 C  
HETATM    4  C   UNL     1      -9.746  15.226  66.726  1.00  0.00    -0.236 C  
HETATM    5  C   UNL     1     -10.001  16.308  67.530  1.00  0.00    -0.248 C  
HETATM    6  C   UNL     1      -8.399  11.183  66.474  1.00  0.00    -0.166 C  
HETATM    7  O   UNL     1      -8.475  15.527  66.125  1.00  0.00    -0.395 OA 
HETATM    8  C   UNL     1      -8.326  15.893  68.300  1.00  0.00    -0.165 C  
HETATM    9  C   UNL     1     -10.313  17.738  67.210  1.00  0.00    -0.364 C  
HETATM   10  O   UNL     1      -8.735   9.013  71.461  1.00  0.00    -0.304 OA 
HETATM   11  H   UNL     1      -8.208  15.540  65.213  1.00  0.00     0.000 HD 
HETATM   12  C   UNL     1      -7.989  14.141  68.162  1.00  0.00    -0.143 C  
HETATM   13  C   UNL     1      -9.204  12.948  68.195  1.00  0.00    -0.212 C  
HETATM   14  C   UNL     1     -10.720  13.261  67.422  1.00  0.00    -0.266 C  
HETATM   15  C   UNL     1     -11.778  12.220  67.809  1.00  0.00    -0.403 C  
HETATM   16  C   UNL     1     -11.264  10.799  67.624  1.00  0.00    -0.370 C  
HETATM   17  C   UNL     1      -9.992  10.615  68.414  1.00  0.00    -0.176 C  
HETATM   18  C   UNL     1     -10.050   9.898  69.556  1.00  0.00    -0.240 C  
HETATM   19  C   UNL     1      -8.871   9.714  70.297  1.00  0.00    -0.211 A  
HETATM   20  C   UNL     1      -7.628  10.162  69.917  1.00  0.00    -0.174 A  
HETATM   21  C   UNL     1      -7.414  11.087  68.775  1.00  0.00    -0.116 C  
HETATM   22  C   UNL     1      -6.740   9.488  70.771  1.00  0.00    -0.105 A  
HETATM   23  C   UNL     1      -8.737  11.442  67.956  1.00  0.00    -0.148 C  
HETATM   24  N   UNL     1      -7.388   8.852  71.752  1.00  0.00    -0.299 NA 
ENDROOT
BRANCH   4  25
HETATM   25  C   UNL     1     -10.624  15.410  65.449  1.00  0.00    -0.430 C  
HETATM   26  C   UNL     1     -11.334  15.517  64.486  1.00  0.00    -0.322 C  
ENDBRANCH   4  25
TORSDOF 1
ENDMDL
MODEL       12
REMARK 921   NORMALIZED FREE ENERGY PREDICTED BY IDOCK:   -6.01 KCAL/MOL
REMARK 922        TOTAL FREE ENERGY PREDICTED BY IDOCK:   -6.39 KCAL/MOL
REMARK 923 INTER-LIGAND FREE ENERGY PREDICTED BY IDOCK:   -6.37 KCAL/MOL
REMARK 924 INTRA-LIGAND FREE ENERGY PREDICTED BY IDOCK:   -0.02 KCAL/MOL
REMARK 927      BINDING AFFINITY PREDICTED BY RF-SCORE:    0.00 PKD
ROOT
HETATM    1  C   UNL     1      -8.075  19.702  66.157  1.00  0.00    -0.356 C  
HETATM    2  C   UNL     1      -9.052  20.582  66.688  1.00  0.00    -0.245 C  
HETATM    3  C   UNL     1      -8.188  19.942  67.709  1.00  0.00    -0.337 C  
HETATM    4  C   UNL     1      -6.598  18.866  66.982  1.00  0.00    -0.195 C  
HETATM    5  C   UNL     1      -6.610  20.194  67.329  1.00  0.00    -0.253 C  
HETATM    6  C   UNL     1      -8.201  14.967  67.655  1.00  0.00    -0.181 C  
HETATM    7  O   UNL     1      -5.438  18.338  67.648  1.00  0.00    -0.148 OA 
HETATM    8  C   UNL     1      -6.599  19.535  69.101  1.00  0.00    -0.362 C  
HETATM    9  C   UNL     1      -5.696  21.326  66.975  1.00  0.00    -0.376 C  
HETATM   10  O   UNL     1     -12.949  15.558  70.263  1.00  0.00    -0.312 OA 
HETATM   11  H   UNL     1      -4.703  17.841  67.312  1.00  0.00     0.000 HD 
HETATM   12  C   UNL     1      -7.387  17.931  69.179  1.00  0.00    -0.117 C  
HETATM   13  C   UNL     1      -8.670  17.468  68.160  1.00  0.00    -0.262 C  
HETATM   14  C   UNL     1      -8.667  17.979  66.507  1.00  0.00    -0.279 C  
HETATM   15  C   UNL     1     -10.024  17.732  65.836  1.00  0.00    -0.132 C  
HETATM   16  C   UNL     1     -10.504  16.303  66.046  1.00  0.00    -0.342 C  
HETATM   17  C   UNL     1     -10.555  15.999  67.523  1.00  0.00    -0.313 C  
HETATM   18  C   UNL     1     -11.763  15.950  68.122  1.00  0.00    -0.134 C  
HETATM   19  C   UNL     1     -11.824  15.662  69.496  1.00  0.00    -0.372 A  
HETATM   20  C   UNL     1     -10.737  15.362  70.282  1.00  0.00    -0.320 A  
HETATM   21  C   UNL     1      -9.334  15.517  69.820  1.00  0.00    -0.136 C  
HETATM   22  C   UNL     1     -11.296  14.845  71.462  1.00  0.00    -0.168 A  
HETATM   23  C   UNL     1      -9.187  15.964  68.295  1.00  0.00    -0.189 C  
HETATM   24  N   UNL     1     -12.620  15.023  71.500  1.00  0.00    -0.316 NA 
ENDROOT
BRANCH   4  25
HETATM   25  C   UNL     1      -6.043  18.798  65.524  1.00  0.00    -0.275 C  
HETATM   26  C   UNL     1      -5.572  18.725  64.422  1.00  0.00    -0.247 C  
ENDBRANCH   4  25
TORSDOF 1
ENDMDL
MODEL       13
REMARK 921   NORMALIZED FREE ENERGY PREDICTED BY IDOCK:   -5.98 KCAL/MOL
REMARK 922        TOTAL FREE ENERGY PREDICTED BY IDOCK:   -6.35 KCAL/MOL
REMARK 923 INTER-LIGAND FREE ENERGY PREDICTED BY IDOCK:   -6.33 KCAL/MOL
REMARK 924 INTRA-LIGAND FREE ENERGY PREDICTED BY IDOCK:   -0.02 KCAL/MOL
REMARK 927      BINDING AFFINITY PREDICTED BY RF-SCORE:    0.00 PKD
ROOT
HETATM    1  C   UNL     1      -9.091   7.989  70.015  1.00  0.00    -0.152 C  
HETATM    2  C   UNL     1      -8.060   8.860  70.451  1.00  0.00    -0.133 C  
HETATM    3  C   UNL     1      -9.098   8.582  71.473  1.00  0.00    -0.281 C  
HETATM    4  C   UNL     1     -10.464   7.131  70.982  1.00  0.00    -0.215 C  
HETATM    5  C   UNL     1      -9.276   6.958  71.647  1.00  0.00    -0.146 C  
HETATM    6  C   UNL     1     -13.746   9.719  70.113  1.00  0.00     1.053 C  
HETATM    7  O   UNL     1     -11.426   6.434  71.793  1.00  0.00    -0.272 OA 
HETATM    8  C   UNL     1     -10.201   7.722  73.108  1.00  0.00    -0.398 C  
HETATM    9  C   UNL     1      -8.432   5.744  71.883  1.00  0.00    -0.127 C  
HETATM   10  O   UNL     1     -12.196  14.809  71.292  1.00  0.00    -0.297 OA 
HETATM   11  H   UNL     1     -12.058   5.763  71.566  1.00  0.00     0.000 HD 
HETATM   12  C   UNL     1     -11.478   8.834  72.530  1.00  0.00    -0.183 C  
HETATM   13  C   UNL     1     -11.347   9.747  71.098  1.00  0.00    -0.459 C  
HETATM   14  C   UNL     1     -10.585   9.046  69.713  1.00  0.00    -0.236 C  
HETATM   15  C   UNL     1     -10.289  10.098  68.636  1.00  0.00    -0.208 C  
HETATM   16  C   UNL     1     -11.518  10.937  68.316  1.00  0.00    -0.376 C  
HETATM   17  C   UNL     1     -12.041  11.571  69.581  1.00  0.00    -0.363 C  
HETATM   18  C   UNL     1     -11.822  12.890  69.769  1.00  0.00    -0.380 C  
HETATM   19  C   UNL     1     -12.310  13.494  70.939  1.00  0.00    -0.356 A  
HETATM   20  C   UNL     1     -13.056  12.853  71.899  1.00  0.00    -0.474 A  
HETATM   21  C   UNL     1     -13.258  11.382  71.922  1.00  0.00    -0.485 C  
HETATM   22  C   UNL     1     -13.574  13.894  72.688  1.00  0.00    -0.517 A  
HETATM   23  C   UNL     1     -12.622  10.610  70.679  1.00  0.00    -0.454 C  
HETATM   24  N   UNL     1     -13.011  15.068  72.386  1.00  0.00    -0.331 NA 
ENDROOT
BRANCH   4  25
HETATM   25  C   UNL     1     -10.446   6.131  69.784  1.00  0.00    -0.299 C  
HETATM   26  C   UNL     1     -10.483   5.351  68.871  1.00  0.00    -0.238 C  
ENDBRANCH   4  25
TORSDOF 1
ENDMDL
MODEL       14
REMARK 921   NORMALIZED FREE ENERGY PREDICTED BY IDOCK:   -5.96 KCAL/MOL
REMARK 922        TOTAL FREE ENERGY PREDICTED BY IDOCK:   -6.33 KCAL/MOL
REMARK 923 INTER-LIGAND FREE ENERGY PREDICTED BY IDOCK:   -6.32 KCAL/MOL
REMARK 924 INTRA-LIGAND FREE ENERGY PREDICTED BY IDOCK:   -0.02 KCAL/MOL
REMARK 927      BINDING AFFINITY PREDICTED BY RF-SCORE:    0.00 PKD
ROOT
HETATM    1  C   UNL     1     -11.371   8.747  71.146  1.00  0.00    -0.345 C  
HETATM    2  C   UNL     1     -12.759   8.604  70.892  1.00  0.00     0.082 C  
HETATM    3  C   UNL     1     -11.883   8.025  69.844  1.00  0.00     0.526 C  
HETATM    4  C   UNL     1      -9.879   7.975  70.287  1.00  0.00    -0.184 C  
HETATM    5  C   UNL     1     -10.807   6.994  70.536  1.00  0.00    -0.279 C  
HETATM    6  C   UNL     1      -8.669  11.219  67.790  1.00  0.00    -0.134 C  
HETATM    7  O   UNL     1      -8.794   7.279  69.650  1.00  0.00    -0.141 OA 
HETATM    8  C   UNL     1     -10.685   6.672  68.678  1.00  0.00    -0.303 C  
HETATM    9  C   UNL     1     -10.797   5.826  71.473  1.00  0.00    -0.316 C  
HETATM   10  O   UNL     1     -13.036  12.854  64.970  1.00  0.00    -0.794 OA 
HETATM   11  H   UNL     1      -7.867   7.256  69.855  1.00  0.00     0.000 HD 
HETATM   12  C   UNL     1     -10.247   8.173  67.807  1.00  0.00    -0.288 C  
HETATM   13  C   UNL     1     -10.722   9.725  68.322  1.00  0.00    -0.277 C  
HETATM   14  C   UNL     1     -10.760  10.083  70.014  1.00  0.00    -0.348 C  
HETATM   15  C   UNL     1     -11.490  11.401  70.298  1.00  0.00    -0.244 C  
HETATM   16  C   UNL     1     -10.960  12.536  69.431  1.00  0.00    -0.055 C  
HETATM   17  C   UNL     1     -11.061  12.150  67.976  1.00  0.00    -0.292 C  
HETATM   18  C   UNL     1     -12.032  12.720  67.232  1.00  0.00    -0.345 C  
HETATM   19  C   UNL     1     -12.132  12.373  65.875  1.00  0.00    -0.281 A  
HETATM   20  C   UNL     1     -11.270  11.531  65.215  1.00  0.00    -0.203 A  
HETATM   21  C   UNL     1     -10.247  10.710  65.912  1.00  0.00    -0.314 C  
HETATM   22  C   UNL     1     -11.558  11.734  63.856  1.00  0.00    -0.377 A  
HETATM   23  C   UNL     1     -10.159  10.961  67.485  1.00  0.00    -0.214 C  
HETATM   24  N   UNL     1     -12.663  12.467  63.691  1.00  0.00    -0.761 NA 
ENDROOT
BRANCH   4  25
HETATM   25  C   UNL     1      -9.167   8.261  71.647  1.00  0.00    -0.245 C  
HETATM   26  C   UNL     1      -8.582   8.508  72.667  1.00  0.00    -0.185 C  
ENDBRANCH   4  25
TORSDOF 1
ENDMDL
MODEL       15
REMARK 921   NORMALIZED FREE ENERGY PREDICTED BY IDOCK:   -5.96 KCAL/MOL
REMARK 922        TOTAL FREE ENERGY PREDICTED BY IDOCK:   -6.33 KCAL/MOL
REMARK 923 INTER-LIGAND FREE ENERGY PREDICTED BY IDOCK:   -6.31 KCAL/MOL
REMARK 924 INTRA-LIGAND FREE ENERGY PREDICTED BY IDOCK:   -0.02 KCAL/MOL
REMARK 927      BINDING AFFINITY PREDICTED BY RF-SCORE:    0.00 PKD
ROOT
HETATM    1  C   UNL     1     -11.344   8.183  71.478  1.00  0.00    -0.308 C  
HETATM    2  C   UNL     1     -12.638   7.870  70.989  1.00  0.00    -0.111 C  
HETATM    3  C   UNL     1     -11.530   7.463  70.091  1.00  0.00    -0.154 C  
HETATM    4  C   UNL     1      -9.639   7.658  70.866  1.00  0.00    -0.164 C  
HETATM    5  C   UNL     1     -10.450   6.552  70.929  1.00  0.00    -0.263 C  
HETATM    6  C   UNL     1      -8.496  11.149  68.691  1.00  0.00    -0.153 C  
HETATM    7  O   UNL     1      -8.378   7.143  70.404  1.00  0.00    -0.125 OA 
HETATM    8  C   UNL     1      -9.980   6.338  69.111  1.00  0.00    -0.181 C  
HETATM    9  C   UNL     1     -10.433   5.352  71.825  1.00  0.00    -0.288 C  
HETATM   10  O   UNL     1     -12.524  12.325  65.214  1.00  0.00    -0.585 OA 
HETATM   11  H   UNL     1      -7.503   7.233  70.763  1.00  0.00     0.000 HD 
HETATM   12  C   UNL     1      -9.618   7.924  68.365  1.00  0.00    -0.155 C  
HETATM   13  C   UNL     1     -10.381   9.373  68.830  1.00  0.00    -0.230 C  
HETATM   14  C   UNL     1     -10.745   9.641  70.500  1.00  0.00    -0.374 C  
HETATM   15  C   UNL     1     -11.688  10.836  70.689  1.00  0.00    -0.442 C  
HETATM   16  C   UNL     1     -11.185  12.071  69.953  1.00  0.00    -0.020 C  
HETATM   17  C   UNL     1     -10.991  11.745  68.493  1.00  0.00    -0.270 C  
HETATM   18  C   UNL     1     -11.896  12.216  67.610  1.00  0.00    -0.316 C  
HETATM   19  C   UNL     1     -11.723  11.925  66.246  1.00  0.00    -0.147 A  
HETATM   20  C   UNL     1     -10.656  11.237  65.722  1.00  0.00    -0.306 A  
HETATM   21  C   UNL     1      -9.657  10.526  66.561  1.00  0.00    -0.216 C  
HETATM   22  C   UNL     1     -10.742  11.465  64.339  1.00  0.00    -0.342 A  
HETATM   23  C   UNL     1      -9.865  10.711  68.132  1.00  0.00    -0.170 C  
HETATM   24  N   UNL     1     -11.895  12.052  64.007  1.00  0.00    -0.405 NA 
ENDROOT
BRANCH   4  25
HETATM   25  C   UNL     1      -9.206   7.970  72.333  1.00  0.00    -0.264 C  
HETATM   26  C   UNL     1      -8.824   8.200  73.448  1.00  0.00    -0.322 C  
ENDBRANCH   4  25
TORSDOF 1
ENDMDL
MODEL       16
REMARK 921   NORMALIZED FREE ENERGY PREDICTED BY IDOCK:   -5.89 KCAL/MOL
REMARK 922        TOTAL FREE ENERGY PREDICTED BY IDOCK:   -6.25 KCAL/MOL
REMARK 923 INTER-LIGAND FREE ENERGY PREDICTED BY IDOCK:   -6.24 KCAL/MOL
REMARK 924 INTRA-LIGAND FREE ENERGY PREDICTED BY IDOCK:   -0.01 KCAL/MOL
REMARK 927      BINDING AFFINITY PREDICTED BY RF-SCORE:    0.00 PKD
ROOT
HETATM    1  C   UNL     1     -11.306  12.840  66.895  1.00  0.00    -0.371 C  
HETATM    2  C   UNL     1     -12.504  13.263  67.525  1.00  0.00     0.206 C  
HETATM    3  C   UNL     1     -12.182  13.991  66.274  1.00  0.00    -0.493 C  
HETATM    4  C   UNL     1     -10.606  13.245  65.190  1.00  0.00    -0.330 C  
HETATM    5  C   UNL     1     -11.931  12.913  65.060  1.00  0.00    -0.445 C  
HETATM    6  C   UNL     1      -7.743  16.236  66.228  1.00  0.00    -0.063 C  
HETATM    7  O   UNL     1     -10.179  13.519  63.845  1.00  0.00    -0.676 OA 
HETATM    8  C   UNL     1     -12.075  14.595  64.212  1.00  0.00    -0.437 C  
HETATM    9  C   UNL     1     -12.608  11.731  64.436  1.00  0.00     0.010 C  
HETATM   10  O   UNL     1     -10.300  20.007  69.217  1.00  0.00    -0.310 OA 
HETATM   11  H   UNL     1      -9.450  13.174  63.343  1.00  0.00     0.000 HD 
HETATM   12  C   UNL     1     -10.841  15.725  64.846  1.00  0.00    -0.433 C  
HETATM   13  C   UNL     1     -10.267  15.682  66.449  1.00  0.00    -0.300 C  
HETATM   14  C   UNL     1     -10.039  14.153  67.226  1.00  0.00    -0.256 C  
HETATM   15  C   UNL     1      -9.816  14.314  68.735  1.00  0.00    -0.189 C  
HETATM   16  C   UNL     1      -8.730  15.337  69.038  1.00  0.00    -0.226 C  
HETATM   17  C   UNL     1      -9.079  16.653  68.388  1.00  0.00    -0.226 C  
HETATM   18  C   UNL     1      -9.526  17.653  69.175  1.00  0.00    -0.000 C  
HETATM   19  C   UNL     1      -9.849  18.885  68.583  1.00  0.00    -0.407 A  
HETATM   20  C   UNL     1      -9.688  19.179  67.250  1.00  0.00    -0.386 A  
HETATM   21  C   UNL     1      -9.353  18.155  66.228  1.00  0.00    -0.220 C  
HETATM   22  C   UNL     1      -9.828  20.575  67.184  1.00  0.00    -0.426 A  
HETATM   23  C   UNL     1      -9.092  16.695  66.817  1.00  0.00    -0.261 C  
HETATM   24  N   UNL     1     -10.268  21.082  68.339  1.00  0.00     0.487 NA 
ENDROOT
BRANCH   4  25
HETATM   25  C   UNL     1      -9.833  11.902  65.379  1.00  0.00    -0.258 C  
HETATM   26  C   UNL     1      -9.193  10.896  65.524  1.00  0.00    -0.232 C  
ENDBRANCH   4  25
TORSDOF 1
ENDMDL
MODEL       17
REMARK 921   NORMALIZED FREE ENERGY PREDICTED BY IDOCK:   -5.88 KCAL/MOL
REMARK 922        TOTAL FREE ENERGY PREDICTED BY IDOCK:   -6.25 KCAL/MOL
REMARK 923 INTER-LIGAND FREE ENERGY PREDICTED BY IDOCK:   -6.27 KCAL/MOL
REMARK 924 INTRA-LIGAND FREE ENERGY PREDICTED BY IDOCK:    0.02 KCAL/MOL
REMARK 927      BINDING AFFINITY PREDICTED BY RF-SCORE:    0.00 PKD
ROOT
HETATM    1  C   UNL     1      -9.921   8.355  69.980  1.00  0.00    -0.188 C  
HETATM    2  C   UNL     1     -11.227   7.861  69.732  1.00  0.00     0.003 C  
HETATM    3  C   UNL     1     -10.305   7.759  68.574  1.00  0.00    -0.226 C  
HETATM    4  C   UNL     1      -8.341   8.216  68.958  1.00  0.00    -0.128 C  
HETATM    5  C   UNL     1      -8.933   6.980  69.033  1.00  0.00    -0.133 C  
HETATM    6  C   UNL     1      -8.287  12.062  67.106  1.00  0.00    -0.181 C  
HETATM    7  O   UNL     1      -7.155   7.991  68.177  1.00  0.00    -0.084 OA 
HETATM    8  C   UNL     1      -8.865   7.043  67.145  1.00  0.00    -0.121 C  
HETATM    9  C   UNL     1      -8.524   5.718  69.728  1.00  0.00    -0.123 C  
HETATM   10  O   UNL     1     -13.138  12.829  64.744  1.00  0.00    -0.813 OA 
HETATM   11  H   UNL     1      -6.246   8.203  68.354  1.00  0.00     0.000 HD 
HETATM   12  C   UNL     1      -8.936   8.736  66.570  1.00  0.00    -0.180 C  
HETATM   13  C   UNL     1      -9.789   9.966  67.383  1.00  0.00    -0.223 C  
HETATM   14  C   UNL     1      -9.798   9.990  69.113  1.00  0.00    -0.213 C  
HETATM   15  C   UNL     1     -10.847  10.966  69.660  1.00  0.00    -0.271 C  
HETATM   16  C   UNL     1     -10.726  12.341  69.016  1.00  0.00    -0.149 C  
HETATM   17  C   UNL     1     -10.823  12.208  67.517  1.00  0.00    -0.283 C  
HETATM   18  C   UNL     1     -11.969  12.593  66.917  1.00  0.00    -0.345 C  
HETATM   19  C   UNL     1     -12.069  12.479  65.520  1.00  0.00    -0.419 A  
HETATM   20  C   UNL     1     -11.057  12.056  64.693  1.00  0.00    -0.375 A  
HETATM   21  C   UNL     1      -9.794  11.458  65.198  1.00  0.00    -0.302 C  
HETATM   22  C   UNL     1     -11.492  12.405  63.405  1.00  0.00    -0.448 A  
HETATM   23  C   UNL     1      -9.662  11.440  66.788  1.00  0.00    -0.221 C  
HETATM   24  N   UNL     1     -12.768  12.801  63.406  1.00  0.00    -0.684 NA 
ENDROOT
BRANCH   4  25
HETATM   25  C   UNL     1      -7.638   8.451  70.332  1.00  0.00    -0.072 C  
HETATM   26  C   UNL     1      -7.125   8.675  71.395  1.00  0.00    -0.092 C  
ENDBRANCH   4  25
TORSDOF 1
ENDMDL
MODEL       18
REMARK 921   NORMALIZED FREE ENERGY PREDICTED BY IDOCK:   -5.88 KCAL/MOL
REMARK 922        TOTAL FREE ENERGY PREDICTED BY IDOCK:   -6.25 KCAL/MOL
REMARK 923 INTER-LIGAND FREE ENERGY PREDICTED BY IDOCK:   -6.23 KCAL/MOL
REMARK 924 INTRA-LIGAND FREE ENERGY PREDICTED BY IDOCK:   -0.01 KCAL/MOL
REMARK 927      BINDING AFFINITY PREDICTED BY RF-SCORE:    0.00 PKD
ROOT
HETATM    1  C   UNL     1      -8.176  10.441  68.145  1.00  0.00    -0.116 C  
HETATM    2  C   UNL     1      -7.507  10.562  69.390  1.00  0.00    -0.141 C  
HETATM    3  C   UNL     1      -8.933  10.169  69.498  1.00  0.00    -0.205 C  
HETATM    4  C   UNL     1      -9.872   9.728  67.726  1.00  0.00    -0.160 C  
HETATM    5  C   UNL     1      -9.213   8.854  68.554  1.00  0.00    -0.137 C  
HETATM    6  C   UNL     1     -12.150  13.322  67.387  1.00  0.00    -0.327 C  
HETATM    7  O   UNL     1     -11.131   9.085  67.466  1.00  0.00    -0.458 OA 
HETATM    8  C   UNL     1     -10.749   9.024  69.643  1.00  0.00    -0.228 C  
HETATM    9  C   UNL     1      -8.646   7.488  68.315  1.00  0.00    -0.124 C  
HETATM   10  O   UNL     1     -11.335  16.232  71.922  1.00  0.00    -0.264 OA 
HETATM   11  H   UNL     1     -11.565   8.881  66.646  1.00  0.00     0.000 HD 
HETATM   12  C   UNL     1     -11.508  10.628  69.411  1.00  0.00    -0.356 C  
HETATM   13  C   UNL     1     -10.625  12.037  69.045  1.00  0.00    -0.136 C  
HETATM   14  C   UNL     1      -9.265  11.933  67.980  1.00  0.00    -0.190 C  
HETATM   15  C   UNL     1      -8.424  13.216  68.008  1.00  0.00    -0.181 C  
HETATM   16  C   UNL     1      -9.284  14.456  67.805  1.00  0.00    -0.192 C  
HETATM   17  C   UNL     1     -10.378  14.489  68.843  1.00  0.00    -0.237 C  
HETATM   18  C   UNL     1     -10.260  15.364  69.864  1.00  0.00    -0.279 C  
HETATM   19  C   UNL     1     -11.276  15.409  70.833  1.00  0.00    -0.358 A  
HETATM   20  C   UNL     1     -12.429  14.662  70.795  1.00  0.00    -0.407 A  
HETATM   21  C   UNL     1     -12.646  13.553  69.832  1.00  0.00    -0.078 C  
HETATM   22  C   UNL     1     -13.260  15.258  71.759  1.00  0.00    -0.424 A  
HETATM   23  C   UNL     1     -11.470  13.362  68.770  1.00  0.00    -0.344 C  
HETATM   24  N   UNL     1     -12.595  16.153  72.496  1.00  0.00    -0.438 NA 
ENDROOT
BRANCH   4  25
HETATM   25  C   UNL     1      -9.250   9.541  66.306  1.00  0.00    -0.219 C  
HETATM   26  C   UNL     1      -8.811   9.428  65.194  1.00  0.00    -0.233 C  
ENDBRANCH   4  25
TORSDOF 1
ENDMDL
MODEL       19
REMARK 921   NORMALIZED FREE ENERGY PREDICTED BY IDOCK:   -5.82 KCAL/MOL
REMARK 922        TOTAL FREE ENERGY PREDICTED BY IDOCK:   -6.18 KCAL/MOL
REMARK 923 INTER-LIGAND FREE ENERGY PREDICTED BY IDOCK:   -6.16 KCAL/MOL
REMARK 924 INTRA-LIGAND FREE ENERGY PREDICTED BY IDOCK:   -0.02 KCAL/MOL
REMARK 927      BINDING AFFINITY PREDICTED BY RF-SCORE:    0.00 PKD
ROOT
HETATM    1  C   UNL     1      -9.051  15.007  68.182  1.00  0.00    -0.178 C  
HETATM    2  C   UNL     1      -7.939  15.462  67.428  1.00  0.00    -0.213 C  
HETATM    3  C   UNL     1      -9.161  15.215  66.625  1.00  0.00    -0.298 C  
HETATM    4  C   UNL     1     -10.864  14.807  67.697  1.00  0.00    -0.285 C  
HETATM    5  C   UNL     1     -10.424  16.038  67.278  1.00  0.00    -0.308 C  
HETATM    6  C   UNL     1     -11.000  10.604  66.962  1.00  0.00    -0.274 C  
HETATM    7  O   UNL     1     -12.243  14.769  67.291  1.00  0.00    -0.502 OA 
HETATM    8  C   UNL     1     -11.026  15.464  65.581  1.00  0.00    -0.330 C  
HETATM    9  C   UNL     1     -10.760  17.425  67.731  1.00  0.00    -0.332 C  
HETATM   10  O   UNL     1      -6.982   9.403  63.482  1.00  0.00    -0.094 OA 
HETATM   11  H   UNL     1     -13.030  14.580  67.788  1.00  0.00     0.000 HD 
HETATM   12  C   UNL     1     -10.926  13.682  65.449  1.00  0.00    -0.302 C  
HETATM   13  C   UNL     1      -9.738  12.750  66.235  1.00  0.00    -0.262 C  
HETATM   14  C   UNL     1      -9.227  13.195  67.827  1.00  0.00    -0.203 C  
HETATM   15  C   UNL     1      -7.958  12.442  68.246  1.00  0.00    -0.160 C  
HETATM   16  C   UNL     1      -8.098  10.941  68.031  1.00  0.00    -0.119 C  
HETATM   17  C   UNL     1      -8.454  10.667  66.591  1.00  0.00    -0.137 C  
HETATM   18  C   UNL     1      -7.494  10.176  65.781  1.00  0.00    -0.131 C  
HETATM   19  C   UNL     1      -7.814   9.910  64.439  1.00  0.00    -0.142 A  
HETATM   20  C   UNL     1      -9.065  10.057  63.889  1.00  0.00    -0.296 A  
HETATM   21  C   UNL     1     -10.189  10.723  64.595  1.00  0.00    -0.419 C  
HETATM   22  C   UNL     1      -8.982   9.389  62.656  1.00  0.00    -0.203 A  
HETATM   23  C   UNL     1      -9.858  11.166  66.092  1.00  0.00    -0.265 C  
HETATM   24  N   UNL     1      -7.722   9.054  62.361  1.00  0.00    -0.114 NA 
ENDROOT
BRANCH   4  25
HETATM   25  C   UNL     1     -11.108  14.928  69.235  1.00  0.00    -0.284 C  
HETATM   26  C   UNL     1     -11.327  14.979  70.415  1.00  0.00    -0.309 C  
ENDBRANCH   4  25
TORSDOF 1
ENDMDL
MODEL       20
REMARK 921   NORMALIZED FREE ENERGY PREDICTED BY IDOCK:   -5.80 KCAL/MOL
REMARK 922        TOTAL FREE ENERGY PREDICTED BY IDOCK:   -6.16 KCAL/MOL
REMARK 923 INTER-LIGAND FREE ENERGY PREDICTED BY IDOCK:   -6.14 KCAL/MOL
REMARK 924 INTRA-LIGAND FREE ENERGY PREDICTED BY IDOCK:   -0.02 KCAL/MOL
REMARK 927      BINDING AFFINITY PREDICTED BY RF-SCORE:    0.00 PKD
ROOT
HETATM    1  C   UNL     1     -11.697  13.405  67.927  1.00  0.00    -0.396 C  
HETATM    2  C   UNL     1     -11.583  14.088  69.166  1.00  0.00    -0.356 C  
HETATM    3  C   UNL     1     -10.286  13.798  68.506  1.00  0.00    -0.244 C  
HETATM    4  C   UNL     1     -10.406  13.049  66.598  1.00  0.00    -0.260 C  
HETATM    5  C   UNL     1     -10.315  14.368  66.965  1.00  0.00    -0.263 C  
HETATM    6  C   UNL     1      -9.451   8.993  67.525  1.00  0.00    -0.168 C  
HETATM    7  O   UNL     1      -9.397  12.895  65.585  1.00  0.00    -0.462 OA 
HETATM    8  C   UNL     1      -8.504  13.951  67.310  1.00  0.00    -0.212 C  
HETATM    9  C   UNL     1     -10.636  15.633  66.230  1.00  0.00    -0.310 C  
HETATM   10  O   UNL     1      -8.208   8.756  72.826  1.00  0.00    -0.407 OA 
HETATM   11  H   UNL     1      -9.452  12.549  64.703  1.00  0.00     0.000 HD 
HETATM   12  C   UNL     1      -8.332  12.227  67.759  1.00  0.00    -0.162 C  
HETATM   13  C   UNL     1      -9.530  11.354  68.597  1.00  0.00    -0.168 C  
HETATM   14  C   UNL     1     -11.197  11.647  68.242  1.00  0.00    -0.320 C  
HETATM   15  C   UNL     1     -12.119  11.007  69.287  1.00  0.00    -0.363 C  
HETATM   16  C   UNL     1     -11.778   9.541  69.516  1.00  0.00     0.278 C  
HETATM   17  C   UNL     1     -10.327   9.415  69.908  1.00  0.00    -0.252 C  
HETATM   18  C   UNL     1     -10.037   9.155  71.201  1.00  0.00    -0.384 C  
HETATM   19  C   UNL     1      -8.689   9.029  71.577  1.00  0.00    -0.075 A  
HETATM   20  C   UNL     1      -7.624   9.092  70.710  1.00  0.00    -0.149 A  
HETATM   21  C   UNL     1      -7.756   9.518  69.294  1.00  0.00    -0.086 C  
HETATM   22  C   UNL     1      -6.540   8.605  71.458  1.00  0.00    -0.075 A  
HETATM   23  C   UNL     1      -9.255   9.799  68.826  1.00  0.00    -0.143 C  
HETATM   24  N   UNL     1      -6.853   8.468  72.750  1.00  0.00    -0.220 NA 
ENDROOT
BRANCH   4  25
HETATM   25  C   UNL     1     -11.651  12.938  65.664  1.00  0.00    -0.401 C  
HETATM   26  C   UNL     1     -12.585  12.814  64.918  1.00  0.00    -0.541 C  
ENDBRANCH   4  25
TORSDOF 1
ENDMDL
MODEL       21
REMARK 921   NORMALIZED FREE ENERGY PREDICTED BY IDOCK:   -5.78 KCAL/MOL
REMARK 922        TOTAL FREE ENERGY PREDICTED BY IDOCK:   -6.14 KCAL/MOL
REMARK 923 INTER-LIGAND FREE ENERGY PREDICTED BY IDOCK:   -6.11 KCAL/MOL
REMARK 924 INTRA-LIGAND FREE ENERGY PREDICTED BY IDOCK:   -0.02 KCAL/MOL
REMARK 927      BINDING AFFINITY PREDICTED BY RF-SCORE:    0.00 PKD
ROOT
HETATM    1  C   UNL     1     -10.762  14.067  66.219  1.00  0.00    -0.289 C  
HETATM    2  C   UNL     1     -12.061  13.635  65.848  1.00  0.00    -0.476 C  
HETATM    3  C   UNL     1     -11.749  13.463  67.288  1.00  0.00    -0.424 C  
HETATM    4  C   UNL     1      -9.989  14.307  67.924  1.00  0.00    -0.230 C  
HETATM    5  C   UNL     1     -11.230  14.892  67.911  1.00  0.00    -0.324 C  
HETATM    6  C   UNL     1      -7.724  10.703  68.252  1.00  0.00    -0.107 C  
HETATM    7  O   UNL     1      -9.494  14.559  69.250  1.00  0.00    -0.390 OA 
HETATM    8  C   UNL     1     -11.559  13.783  69.406  1.00  0.00    -0.365 C  
HETATM    9  C   UNL     1     -11.658  16.326  67.969  1.00  0.00    -0.012 C  
HETATM   10  O   UNL     1     -11.084   6.538  67.220  1.00  0.00    -0.378 OA 
HETATM   11  H   UNL     1      -8.680  14.949  69.544  1.00  0.00     0.000 HD 
HETATM   12  C   UNL     1     -10.574  12.292  69.311  1.00  0.00     0.064 C  
HETATM   13  C   UNL     1     -10.142  11.549  67.841  1.00  0.00    -0.202 C  
HETATM   14  C   UNL     1      -9.748  12.535  66.476  1.00  0.00    -0.249 C  
HETATM   15  C   UNL     1      -9.684  11.713  65.182  1.00  0.00    -0.245 C  
HETATM   16  C   UNL     1      -8.800  10.483  65.341  1.00  0.00    -0.203 C  
HETATM   17  C   UNL     1      -9.291   9.653  66.501  1.00  0.00    -0.212 C  
HETATM   18  C   UNL     1      -9.954   8.509  66.229  1.00  0.00    -0.251 C  
HETATM   19  C   UNL     1     -10.411   7.724  67.301  1.00  0.00    -0.322 A  
HETATM   20  C   UNL     1     -10.183   8.000  68.627  1.00  0.00    -0.225 A  
HETATM   21  C   UNL     1      -9.606   9.284  69.101  1.00  0.00    -0.161 C  
HETATM   22  C   UNL     1     -10.532   6.814  69.293  1.00  0.00    -0.215 A  
HETATM   23  C   UNL     1      -9.174  10.284  67.935  1.00  0.00    -0.143 C  
HETATM   24  N   UNL     1     -11.144   5.952  68.476  1.00  0.00    -0.208 NA 
ENDROOT
BRANCH   4  25
HETATM   25  C   UNL     1      -9.036  15.282  67.163  1.00  0.00    -0.226 C  
HETATM   26  C   UNL     1      -8.266  16.022  66.613  1.00  0.00    -0.324 C  
ENDBRANCH   4  25
TORSDOF 1
ENDMDL
MODEL       22
REMARK 921   NORMALIZED FREE ENERGY PREDICTED BY IDOCK:   -5.77 KCAL/MOL
REMARK 922        TOTAL FREE ENERGY PREDICTED BY IDOCK:   -6.13 KCAL/MOL
REMARK 923 INTER-LIGAND FREE ENERGY PREDICTED BY IDOCK:   -6.12 KCAL/MOL
REMARK 924 INTRA-LIGAND FREE ENERGY PREDICTED BY IDOCK:   -0.01 KCAL/MOL
REMARK 927      BINDING AFFINITY PREDICTED BY RF-SCORE:    0.00 PKD
ROOT
HETATM    1  C   UNL     1      -8.716   9.077  69.889  1.00  0.00    -0.160 C  
HETATM    2  C   UNL     1      -9.897   9.588  70.484  1.00  0.00    -0.331 C  
HETATM    3  C   UNL     1     -10.133   8.733  69.295  1.00  0.00    -0.206 C  
HETATM    4  C   UNL     1      -8.481   7.762  68.556  1.00  0.00    -0.129 C  
HETATM    5  C   UNL     1      -9.367   7.293  69.494  1.00  0.00    -0.152 C  
HETATM    6  C   UNL     1      -7.852  10.240  65.138  1.00  0.00    -0.138 C  
HETATM    7  O   UNL     1      -8.371   6.687  67.608  1.00  0.00    -0.121 OA 
HETATM    8  C   UNL     1     -10.514   7.049  68.011  1.00  0.00    -0.255 C  
HETATM    9  C   UNL     1      -9.259   6.198  70.509  1.00  0.00    -0.166 C  
HETATM   10  O   UNL     1     -11.959  13.816  64.908  1.00  0.00    -0.356 OA 
HETATM   11  H   UNL     1      -7.607   6.238  67.266  1.00  0.00     0.000 HD 
HETATM   12  C   UNL     1     -10.140   8.237  66.726  1.00  0.00    -0.373 C  
HETATM   13  C   UNL     1      -9.560   9.806  67.041  1.00  0.00    -0.218 C  
HETATM   14  C   UNL     1      -8.439  10.052  68.335  1.00  0.00    -0.112 C  
HETATM   15  C   UNL     1      -8.267  11.541  68.661  1.00  0.00    -0.124 C  
HETATM   16  C   UNL     1      -7.969  12.359  67.412  1.00  0.00    -0.178 C  
HETATM   17  C   UNL     1      -9.057  12.138  66.391  1.00  0.00    -0.177 C  
HETATM   18  C   UNL     1      -9.959  13.123  66.199  1.00  0.00    -0.291 C  
HETATM   19  C   UNL     1     -10.973  12.932  65.246  1.00  0.00    -0.283 A  
HETATM   20  C   UNL     1     -11.090  11.827  64.436  1.00  0.00    -0.396 A  
HETATM   21  C   UNL     1     -10.277  10.598  64.620  1.00  0.00    -0.404 C  
HETATM   22  C   UNL     1     -12.022  12.211  63.459  1.00  0.00    -0.524 A  
HETATM   23  C   UNL     1      -9.180  10.699  65.774  1.00  0.00    -0.218 C  
HETATM   24  N   UNL     1     -12.610  13.371  63.766  1.00  0.00    -0.708 NA 
ENDROOT
BRANCH   4  25
HETATM   25  C   UNL     1      -7.060   7.624  69.187  1.00  0.00    -0.077 C  
HETATM   26  C   UNL     1      -5.947   7.545  69.632  1.00  0.00    -0.024 C  
ENDBRANCH   4  25
TORSDOF 1
ENDMDL
MODEL       23
REMARK 921   NORMALIZED FREE ENERGY PREDICTED BY IDOCK:   -5.76 KCAL/MOL
REMARK 922        TOTAL FREE ENERGY PREDICTED BY IDOCK:   -6.12 KCAL/MOL
REMARK 923 INTER-LIGAND FREE ENERGY PREDICTED BY IDOCK:   -6.12 KCAL/MOL
REMARK 924 INTRA-LIGAND FREE ENERGY PREDICTED BY IDOCK:    0.00 KCAL/MOL
REMARK 927      BINDING AFFINITY PREDICTED BY RF-SCORE:    0.00 PKD
ROOT
HETATM    1  C   UNL     1     -10.186   6.569  69.579  1.00  0.00    -0.219 C  
HETATM    2  C   UNL     1     -11.595   6.455  69.461  1.00  0.00    -0.303 C  
HETATM    3  C   UNL     1     -10.859   6.282  68.185  1.00  0.00    -0.401 C  
HETATM    4  C   UNL     1      -8.815   6.179  68.343  1.00  0.00    -0.113 C  
HETATM    5  C   UNL     1      -9.701   5.131  68.370  1.00  0.00    -0.200 C  
HETATM    6  C   UNL     1      -7.940  10.102  66.907  1.00  0.00    -0.114 C  
HETATM    7  O   UNL     1      -7.819   5.772  67.389  1.00  0.00    -0.100 OA 
HETATM    8  C   UNL     1      -9.817   5.429  66.507  1.00  0.00    -0.195 C  
HETATM    9  C   UNL     1      -9.570   3.725  68.869  1.00  0.00    -0.183 C  
HETATM   10  O   UNL     1     -12.636  12.367  65.317  1.00  0.00    -0.636 OA 
HETATM   11  H   UNL     1      -6.873   5.725  67.462  1.00  0.00     0.000 HD 
HETATM   12  C   UNL     1      -9.498   7.148  66.125  1.00  0.00    -0.059 C  
HETATM   13  C   UNL     1      -9.905   8.430  67.168  1.00  0.00    -0.279 C  
HETATM   14  C   UNL     1      -9.727   8.223  68.876  1.00  0.00    -0.164 C  
HETATM   15  C   UNL     1     -10.417   9.347  69.658  1.00  0.00    -0.236 C  
HETATM   16  C   UNL     1     -10.005  10.722  69.149  1.00  0.00    -0.206 C  
HETATM   17  C   UNL     1     -10.291  10.820  67.671  1.00  0.00    -0.236 C  
HETATM   18  C   UNL     1     -11.350  11.556  67.275  1.00  0.00    -0.359 C  
HETATM   19  C   UNL     1     -11.623  11.660  65.901  1.00  0.00    -0.020 A  
HETATM   20  C   UNL     1     -10.850  11.113  64.905  1.00  0.00    -0.261 A  
HETATM   21  C   UNL     1      -9.745  10.157  65.169  1.00  0.00    -0.370 C  
HETATM   22  C   UNL     1     -11.310  11.730  63.730  1.00  0.00    -0.438 A  
HETATM   23  C   UNL     1      -9.456   9.893  66.717  1.00  0.00    -0.212 C  
HETATM   24  N   UNL     1     -12.429  12.428  63.946  1.00  0.00    -0.631 NA 
ENDROOT
BRANCH   4  25
HETATM   25  C   UNL     1      -7.935   6.043  69.626  1.00  0.00    -0.106 C  
HETATM   26  C   UNL     1      -7.248   5.990  70.609  1.00  0.00    -0.080 C  
ENDBRANCH   4  25
TORSDOF 1
ENDMDL
MODEL       24
REMARK 921   NORMALIZED FREE ENERGY PREDICTED BY IDOCK:   -5.65 KCAL/MOL
REMARK 922        TOTAL FREE ENERGY PREDICTED BY IDOCK:   -6.00 KCAL/MOL
REMARK 923 INTER-LIGAND FREE ENERGY PREDICTED BY IDOCK:   -6.03 KCAL/MOL
REMARK 924 INTRA-LIGAND FREE ENERGY PREDICTED BY IDOCK:    0.03 KCAL/MOL
REMARK 927      BINDING AFFINITY PREDICTED BY RF-SCORE:    0.00 PKD
ROOT
HETATM    1  C   UNL     1      -9.541   8.032  67.973  1.00  0.00    -0.170 C  
HETATM    2  C   UNL     1     -10.661   7.558  67.243  1.00  0.00    -0.394 C  
HETATM    3  C   UNL     1      -9.638   8.245  66.416  1.00  0.00    -0.300 C  
HETATM    4  C   UNL     1      -7.887   8.716  67.377  1.00  0.00    -0.098 C  
HETATM    5  C   UNL     1      -8.167   7.564  66.686  1.00  0.00    -0.125 C  
HETATM    6  C   UNL     1      -8.590  12.904  67.808  1.00  0.00    -0.185 C  
HETATM    7  O   UNL     1      -6.614   9.137  66.856  1.00  0.00    -0.066 OA 
HETATM    8  C   UNL     1      -7.943   8.652  65.157  1.00  0.00    -0.127 C  
HETATM    9  C   UNL     1      -7.532   6.208  66.705  1.00  0.00    -0.087 C  
HETATM   10  O   UNL     1     -13.243  14.075  65.223  1.00  0.00    -0.782 OA 
HETATM   11  H   UNL     1      -5.804   9.356  67.301  1.00  0.00     0.000 HD 
HETATM   12  C   UNL     1      -8.366  10.351  65.527  1.00  0.00    -0.168 C  
HETATM   13  C   UNL     1      -9.561  10.793  66.657  1.00  0.00    -0.208 C  
HETATM   14  C   UNL     1      -9.736   9.871  68.111  1.00  0.00    -0.161 C  
HETATM   15  C   UNL     1     -11.035  10.218  68.848  1.00  0.00    -0.279 C  
HETATM   16  C   UNL     1     -11.190  11.721  69.039  1.00  0.00    -0.324 C  
HETATM   17  C   UNL     1     -11.113  12.411  67.699  1.00  0.00    -0.306 C  
HETATM   18  C   UNL     1     -12.257  12.879  67.158  1.00  0.00    -0.131 C  
HETATM   19  C   UNL     1     -12.198  13.529  65.914  1.00  0.00    -0.460 A  
HETATM   20  C   UNL     1     -11.041  13.784  65.218  1.00  0.00    -0.315 A  
HETATM   21  C   UNL     1      -9.724  13.211  65.595  1.00  0.00    -0.107 C  
HETATM   22  C   UNL     1     -11.427  14.706  64.230  1.00  0.00    -0.161 A  
HETATM   23  C   UNL     1      -9.739  12.352  66.940  1.00  0.00    -0.217 C  
HETATM   24  N   UNL     1     -12.755  14.836  64.170  1.00  0.00    -0.715 NA 
ENDROOT
BRANCH   4  25
HETATM   25  C   UNL     1      -7.391   8.271  68.789  1.00  0.00    -0.088 C  
HETATM   26  C   UNL     1      -7.056   7.942  69.895  1.00  0.00    -0.061 C  
ENDBRANCH   4  25
TORSDOF 1
ENDMDL
MODEL       25
REMARK 921   NORMALIZED FREE ENERGY PREDICTED BY IDOCK:   -5.50 KCAL/MOL
REMARK 922        TOTAL FREE ENERGY PREDICTED BY IDOCK:   -5.84 KCAL/MOL
REMARK 923 INTER-LIGAND FREE ENERGY PREDICTED BY IDOCK:   -5.82 KCAL/MOL
REMARK 924 INTRA-LIGAND FREE ENERGY PREDICTED BY IDOCK:   -0.02 KCAL/MOL
REMARK 927      BINDING AFFINITY PREDICTED BY RF-SCORE:    0.00 PKD
ROOT
HETATM    1  C   UNL     1     -10.848   6.070  70.798  1.00  0.00    -0.358 C  
HETATM    2  C   UNL     1      -9.678   5.267  70.795  1.00  0.00    -0.247 C  
HETATM    3  C   UNL     1      -9.436   6.698  71.102  1.00  0.00    -0.167 C  
HETATM    4  C   UNL     1     -11.115   7.846  71.375  1.00  0.00    -0.243 C  
HETATM    5  C   UNL     1     -10.412   7.167  72.337  1.00  0.00    -0.247 C  
HETATM    6  C   UNL     1     -11.015   9.890  67.628  1.00  0.00    -0.263 C  
HETATM    7  O   UNL     1     -11.270   9.168  71.919  1.00  0.00    -0.364 OA 
HETATM    8  C   UNL     1      -9.154   8.564  72.134  1.00  0.00    -0.319 C  
HETATM    9  C   UNL     1     -10.782   6.726  73.720  1.00  0.00    -0.228 C  
HETATM   10  O   UNL     1      -6.450   8.399  65.052  1.00  0.00    -0.059 OA 
HETATM   11  H   UNL     1     -12.047   9.700  72.045  1.00  0.00     0.000 HD 
HETATM   12  C   UNL     1      -9.217   9.228  70.474  1.00  0.00    -0.311 C  
HETATM   13  C   UNL     1      -9.603   8.292  69.105  1.00  0.00    -0.160 C  
HETATM   14  C   UNL     1     -10.814   7.063  69.232  1.00  0.00    -0.241 C  
HETATM   15  C   UNL     1     -10.811   6.136  68.010  1.00  0.00    -0.398 C  
HETATM   16  C   UNL     1     -10.854   6.923  66.707  1.00  0.00    -0.270 C  
HETATM   17  C   UNL     1      -9.702   7.897  66.666  1.00  0.00    -0.305 C  
HETATM   18  C   UNL     1      -8.656   7.611  65.863  1.00  0.00    -0.164 C  
HETATM   19  C   UNL     1      -7.580   8.513  65.811  1.00  0.00    -0.085 A  
HETATM   20  C   UNL     1      -7.531   9.713  66.479  1.00  0.00    -0.094 A  
HETATM   21  C   UNL     1      -8.522  10.108  67.512  1.00  0.00    -0.118 C  
HETATM   22  C   UNL     1      -6.453  10.394  65.890  1.00  0.00    -0.123 A  
HETATM   23  C   UNL     1      -9.714   9.066  67.715  1.00  0.00    -0.190 C  
HETATM   24  N   UNL     1      -5.747   9.594  65.085  1.00  0.00    -0.062 NA 
ENDROOT
BRANCH   4  25
HETATM   25  C   UNL     1     -12.603   7.393  71.516  1.00  0.00    -0.401 C  
HETATM   26  C   UNL     1     -13.762   7.093  71.614  1.00  0.00    -0.406 C  
ENDBRANCH   4  25
TORSDOF 1
ENDMDL
MODEL       26
REMARK 921   NORMALIZED FREE ENERGY PREDICTED BY IDOCK:   -5.47 KCAL/MOL
REMARK 922        TOTAL FREE ENERGY PREDICTED BY IDOCK:   -5.81 KCAL/MOL
REMARK 923 INTER-LIGAND FREE ENERGY PREDICTED BY IDOCK:   -5.82 KCAL/MOL
REMARK 924 INTRA-LIGAND FREE ENERGY PREDICTED BY IDOCK:    0.00 KCAL/MOL
REMARK 927      BINDING AFFINITY PREDICTED BY RF-SCORE:    0.00 PKD
ROOT
HETATM    1  C   UNL     1      -9.516  17.483  68.674  1.00  0.00    -0.278 C  
HETATM    2  C   UNL     1      -8.532  17.006  69.578  1.00  0.00     0.529 C  
HETATM    3  C   UNL     1      -8.448  16.418  68.219  1.00  0.00    -0.195 C  
HETATM    4  C   UNL     1      -9.677  17.263  66.808  1.00  0.00    -0.281 C  
HETATM    5  C   UNL     1      -8.386  17.623  67.103  1.00  0.00    -0.233 C  
HETATM    6  C   UNL     1     -12.585  14.142  66.653  1.00  0.00    -0.087 C  
HETATM    7  O   UNL     1      -9.687  17.136  65.375  1.00  0.00    -0.425 OA 
HETATM    8  C   UNL     1      -7.931  16.047  66.164  1.00  0.00     0.172 C  
HETATM    9  C   UNL     1      -7.611  18.875  66.829  1.00  0.00    -0.242 C  
HETATM   10  O   UNL     1     -10.835  10.089  69.849  1.00  0.00    -0.244 OA 
HETATM   11  H   UNL     1     -10.255  17.526  64.722  1.00  0.00     0.000 HD 
HETATM   12  C   UNL     1      -9.246  14.839  66.291  1.00  0.00    -0.278 C  
HETATM   13  C   UNL     1     -10.258  14.697  67.654  1.00  0.00    -0.232 C  
HETATM   14  C   UNL     1     -10.766  16.126  68.485  1.00  0.00    -0.300 C  
HETATM   15  C   UNL     1     -11.406  15.796  69.839  1.00  0.00    -0.349 C  
HETATM   16  C   UNL     1     -12.488  14.732  69.705  1.00  0.00    -0.230 C  
HETATM   17  C   UNL     1     -11.910  13.502  69.052  1.00  0.00    -0.385 C  
HETATM   18  C   UNL     1     -11.665  12.425  69.828  1.00  0.00    -0.361 C  
HETATM   19  C   UNL     1     -11.133  11.271  69.230  1.00  0.00    -0.255 A  
HETATM   20  C   UNL     1     -10.890  11.125  67.885  1.00  0.00    -0.285 A  
HETATM   21  C   UNL     1     -10.961  12.253  66.922  1.00  0.00    -0.312 C  
HETATM   22  C   UNL     1     -10.677   9.747  67.718  1.00  0.00    -0.272 A  
HETATM   23  C   UNL     1     -11.444  13.635  67.558  1.00  0.00    -0.360 C  
HETATM   24  N   UNL     1     -10.566   9.120  68.893  1.00  0.00    -0.215 NA 
ENDROOT
BRANCH   4  25
HETATM   25  C   UNL     1     -10.530  18.567  66.902  1.00  0.00    -0.434 C  
HETATM   26  C   UNL     1     -11.156  19.591  66.936  1.00  0.00    -0.262 C  
ENDBRANCH   4  25
TORSDOF 1
ENDMDL
MODEL       27
REMARK 921   NORMALIZED FREE ENERGY PREDICTED BY IDOCK:   -5.44 KCAL/MOL
REMARK 922        TOTAL FREE ENERGY PREDICTED BY IDOCK:   -5.78 KCAL/MOL
REMARK 923 INTER-LIGAND FREE ENERGY PREDICTED BY IDOCK:   -5.81 KCAL/MOL
REMARK 924 INTRA-LIGAND FREE ENERGY PREDICTED BY IDOCK:    0.03 KCAL/MOL
REMARK 927      BINDING AFFINITY PREDICTED BY RF-SCORE:    0.00 PKD
ROOT
HETATM    1  C   UNL     1      -8.109   8.628  69.427  1.00  0.00    -0.111 C  
HETATM    2  C   UNL     1      -7.437   9.198  70.539  1.00  0.00    -0.119 C  
HETATM    3  C   UNL     1      -8.915   9.188  70.658  1.00  0.00    -0.292 C  
HETATM    4  C   UNL     1      -9.919   8.145  69.202  1.00  0.00    -0.192 C  
HETATM    5  C   UNL     1      -9.476   7.664  70.409  1.00  0.00    -0.164 C  
HETATM    6  C   UNL     1     -11.338  11.503  66.981  1.00  0.00    -0.340 C  
HETATM    7  O   UNL     1     -11.289   7.713  69.133  1.00  0.00    -0.411 OA 
HETATM    8  C   UNL     1     -10.941   8.627  71.116  1.00  0.00    -0.320 C  
HETATM    9  C   UNL     1      -9.226   6.270  70.897  1.00  0.00    -0.163 C  
HETATM   10  O   UNL     1      -9.918  16.006  69.703  1.00  0.00    -0.263 OA 
HETATM   11  H   UNL     1     -11.753   7.231  68.459  1.00  0.00     0.000 HD 
HETATM   12  C   UNL     1     -11.322  10.038  70.083  1.00  0.00    -0.357 C  
HETATM   13  C   UNL     1     -10.145  10.899  69.204  1.00  0.00    -0.198 C  
HETATM   14  C   UNL     1      -8.838  10.039  68.468  1.00  0.00    -0.120 C  
HETATM   15  C   UNL     1      -7.733  10.988  67.990  1.00  0.00    -0.106 C  
HETATM   16  C   UNL     1      -8.293  12.120  67.139  1.00  0.00    -0.183 C  
HETATM   17  C   UNL     1      -9.358  12.856  67.914  1.00  0.00    -0.208 C  
HETATM   18  C   UNL     1      -9.053  14.071  68.417  1.00  0.00    -0.191 C  
HETATM   19  C   UNL     1     -10.038  14.769  69.136  1.00  0.00    -0.197 A  
HETATM   20  C   UNL     1     -11.329  14.334  69.321  1.00  0.00    -0.322 A  
HETATM   21  C   UNL     1     -11.782  12.965  68.966  1.00  0.00    -0.375 C  
HETATM   22  C   UNL     1     -12.011  15.465  69.799  1.00  0.00    -0.358 A  
HETATM   23  C   UNL     1     -10.673  12.067  68.253  1.00  0.00    -0.252 C  
HETATM   24  N   UNL     1     -11.168  16.456  70.104  1.00  0.00    -0.325 NA 
ENDROOT
BRANCH   4  25
HETATM   25  C   UNL     1      -9.347   7.186  68.111  1.00  0.00    -0.129 C  
HETATM   26  C   UNL     1      -8.873   6.486  67.258  1.00  0.00    -0.112 C  
ENDBRANCH   4  25
TORSDOF 1
ENDMDL
MODEL       28
REMARK 921   NORMALIZED FREE ENERGY PREDICTED BY IDOCK:   -5.37 KCAL/MOL
REMARK 922        TOTAL FREE ENERGY PREDICTED BY IDOCK:   -5.71 KCAL/MOL
REMARK 923 INTER-LIGAND FREE ENERGY PREDICTED BY IDOCK:   -5.68 KCAL/MOL
REMARK 924 INTRA-LIGAND FREE ENERGY PREDICTED BY IDOCK:   -0.02 KCAL/MOL
REMARK 927      BINDING AFFINITY PREDICTED BY RF-SCORE:    0.00 PKD
ROOT
HETATM    1  C   UNL     1      -7.804   6.717  71.448  1.00  0.00    -0.099 C  
HETATM    2  C   UNL     1      -7.022   7.857  71.763  1.00  0.00    -0.068 C  
HETATM    3  C   UNL     1      -8.135   7.599  72.709  1.00  0.00    -0.145 C  
HETATM    4  C   UNL     1      -9.131   5.822  72.448  1.00  0.00    -0.141 C  
HETATM    5  C   UNL     1      -8.044   6.051  73.254  1.00  0.00    -0.115 C  
HETATM    6  C   UNL     1     -12.655   7.413  70.639  1.00  0.00     0.009 C  
HETATM    7  O   UNL     1     -10.062   5.134  73.300  1.00  0.00    -0.162 OA 
HETATM    8  C   UNL     1      -9.298   6.905  74.381  1.00  0.00    -0.252 C  
HETATM    9  C   UNL     1      -7.041   5.122  73.865  1.00  0.00    -0.082 C  
HETATM   10  O   UNL     1     -12.236  12.846  70.696  1.00  0.00    -0.372 OA 
HETATM   11  H   UNL     1     -10.523   4.312  73.179  1.00  0.00     0.000 HD 
HETATM   12  C   UNL     1     -10.653   7.572  73.420  1.00  0.00    -0.409 C  
HETATM   13  C   UNL     1     -10.475   8.157  71.830  1.00  0.00    -0.312 C  
HETATM   14  C   UNL     1      -9.401   7.345  70.744  1.00  0.00    -0.159 C  
HETATM   15  C   UNL     1      -9.139   8.175  69.481  1.00  0.00    -0.151 C  
HETATM   16  C   UNL     1     -10.437   8.647  68.840  1.00  0.00    -0.211 C  
HETATM   17  C   UNL     1     -11.249   9.419  69.850  1.00  0.00    -0.180 C  
HETATM   18  C   UNL     1     -11.300  10.763  69.733  1.00  0.00    -0.372 C  
HETATM   19  C   UNL     1     -12.058  11.492  70.664  1.00  0.00    -0.353 A  
HETATM   20  C   UNL     1     -12.813  10.935  71.669  1.00  0.00    -0.554 A  
HETATM   21  C   UNL     1     -12.749   9.496  72.028  1.00  0.00    -0.479 C  
HETATM   22  C   UNL     1     -13.620  11.991  72.122  1.00  0.00    -0.133 A  
HETATM   23  C   UNL     1     -11.806   8.621  71.083  1.00  0.00    -0.331 C  
HETATM   24  N   UNL     1     -13.237  13.162  71.603  1.00  0.00    -0.375 NA 
ENDROOT
BRANCH   4  25
HETATM   25  C   UNL     1      -8.755   4.611  71.537  1.00  0.00    -0.137 C  
HETATM   26  C   UNL     1      -8.514   3.660  70.844  1.00  0.00    -0.101 C  
ENDBRANCH   4  25
TORSDOF 1
ENDMDL
MODEL       29
REMARK 921   NORMALIZED FREE ENERGY PREDICTED BY IDOCK:   -5.33 KCAL/MOL
REMARK 922        TOTAL FREE ENERGY PREDICTED BY IDOCK:   -5.66 KCAL/MOL
REMARK 923 INTER-LIGAND FREE ENERGY PREDICTED BY IDOCK:   -5.66 KCAL/MOL
REMARK 924 INTRA-LIGAND FREE ENERGY PREDICTED BY IDOCK:    0.00 KCAL/MOL
REMARK 927      BINDING AFFINITY PREDICTED BY RF-SCORE:    0.00 PKD
ROOT
HETATM    1  C   UNL     1     -10.722  13.190  66.105  1.00  0.00    -0.289 C  
HETATM    2  C   UNL     1     -11.958  12.638  65.684  1.00  0.00    -0.507 C  
HETATM    3  C   UNL     1     -11.681  12.481  67.133  1.00  0.00    -0.425 C  
HETATM    4  C   UNL     1     -10.035  13.486  67.838  1.00  0.00    -0.245 C  
HETATM    5  C   UNL     1     -11.327  13.947  67.786  1.00  0.00    -0.335 C  
HETATM    6  C   UNL     1      -7.440  10.119  68.218  1.00  0.00    -0.082 C  
HETATM    7  O   UNL     1      -9.614  13.771  69.182  1.00  0.00    -0.405 OA 
HETATM    8  C   UNL     1     -11.597  12.795  69.259  1.00  0.00    -0.372 C  
HETATM    9  C   UNL     1     -11.896  15.332  67.839  1.00  0.00    -0.144 C  
HETATM   10  O   UNL     1     -10.336   5.656  67.036  1.00  0.00    -0.199 OA 
HETATM   11  H   UNL     1      -8.853  14.236  69.509  1.00  0.00     0.000 HD 
HETATM   12  C   UNL     1     -10.467  11.409  69.188  1.00  0.00    -0.159 C  
HETATM   13  C   UNL     1      -9.913  10.728  67.728  1.00  0.00    -0.195 C  
HETATM   14  C   UNL     1      -9.571  11.763  66.386  1.00  0.00    -0.234 C  
HETATM   15  C   UNL     1      -9.382  10.965  65.089  1.00  0.00    -0.252 C  
HETATM   16  C   UNL     1      -8.387   9.827  65.270  1.00  0.00    -0.146 C  
HETATM   17  C   UNL     1      -8.834   8.939  66.405  1.00  0.00    -0.178 C  
HETATM   18  C   UNL     1      -9.372   7.739  66.101  1.00  0.00    -0.162 C  
HETATM   19  C   UNL     1      -9.786   6.902  67.150  1.00  0.00    -0.165 A  
HETATM   20  C   UNL     1      -9.632   7.184  68.486  1.00  0.00    -0.139 A  
HETATM   21  C   UNL     1      -9.201   8.513  68.990  1.00  0.00    -0.146 C  
HETATM   22  C   UNL     1      -9.885   5.962  69.130  1.00  0.00    -0.156 A  
HETATM   23  C   UNL     1      -8.829   9.563  67.847  1.00  0.00    -0.119 C  
HETATM   24  N   UNL     1     -10.381   5.053  68.285  1.00  0.00    -0.074 NA 
ENDROOT
BRANCH   4  25
HETATM   25  C   UNL     1      -9.157  14.558  67.118  1.00  0.00    -0.237 C  
HETATM   26  C   UNL     1      -8.496  15.418  66.602  1.00  0.00    -0.296 C  
ENDBRANCH   4  25
TORSDOF 1
ENDMDL
MODEL       30
REMARK 921   NORMALIZED FREE ENERGY PREDICTED BY IDOCK:   -5.30 KCAL/MOL
REMARK 922        TOTAL FREE ENERGY PREDICTED BY IDOCK:   -5.63 KCAL/MOL
REMARK 923 INTER-LIGAND FREE ENERGY PREDICTED BY IDOCK:   -5.61 KCAL/MOL
REMARK 924 INTRA-LIGAND FREE ENERGY PREDICTED BY IDOCK:   -0.02 KCAL/MOL
REMARK 927      BINDING AFFINITY PREDICTED BY RF-SCORE:    0.00 PKD
ROOT
HETATM    1  C   UNL     1     -12.077  12.813  66.466  1.00  0.00    -0.338 C  
HETATM    2  C   UNL     1     -12.285  13.436  67.723  1.00  0.00    -0.171 C  
HETATM    3  C   UNL     1     -10.991  13.774  67.081  1.00  0.00    -0.299 C  
HETATM    4  C   UNL     1     -10.755  13.109  65.153  1.00  0.00    -0.315 C  
HETATM    5  C   UNL     1     -11.262  14.319  65.555  1.00  0.00    -0.320 C  
HETATM    6  C   UNL     1      -8.102   9.873  65.994  1.00  0.00    -0.120 C  
HETATM    7  O   UNL     1      -9.777  13.452  64.156  1.00  0.00    -0.654 OA 
HETATM    8  C   UNL     1      -9.456  14.740  65.924  1.00  0.00    -0.266 C  
HETATM    9  C   UNL     1     -12.108  15.332  64.847  1.00  0.00    -0.039 C  
HETATM   10  O   UNL     1      -6.913  10.047  71.310  1.00  0.00    -0.278 OA 
HETATM   11  H   UNL     1      -9.668  13.144  63.264  1.00  0.00     0.000 HD 
HETATM   12  C   UNL     1      -8.538  13.258  66.332  1.00  0.00     0.313 C  
HETATM   13  C   UNL     1      -9.227  11.918  67.124  1.00  0.00    -0.183 C  
HETATM   14  C   UNL     1     -10.849  11.451  66.745  1.00  0.00    -0.336 C  
HETATM   15  C   UNL     1     -11.397  10.435  67.756  1.00  0.00    -0.205 C  
HETATM   16  C   UNL     1     -10.440   9.267  67.954  1.00  0.00    -0.290 C  
HETATM   17  C   UNL     1      -9.086   9.787  68.370  1.00  0.00    -0.123 C  
HETATM   18  C   UNL     1      -8.718   9.642  69.660  1.00  0.00    -0.206 C  
HETATM   19  C   UNL     1      -7.457  10.117  70.059  1.00  0.00    -0.162 A  
HETATM   20  C   UNL     1      -6.527  10.673  69.214  1.00  0.00    -0.062 A  
HETATM   21  C   UNL     1      -6.826  11.040  67.807  1.00  0.00    -0.069 C  
HETATM   22  C   UNL     1      -5.343  10.695  69.970  1.00  0.00    -0.044 A  
HETATM   23  C   UNL     1      -8.291  10.640  67.318  1.00  0.00    -0.120 C  
HETATM   24  N   UNL     1      -5.570  10.393  71.251  1.00  0.00    -0.242 NA 
ENDROOT
BRANCH   4  25
HETATM   25  C   UNL     1     -11.816  12.486  64.192  1.00  0.00    -0.487 C  
HETATM   26  C   UNL     1     -12.600  12.017  63.413  1.00  0.00    -0.592 C  
ENDBRANCH   4  25
TORSDOF 1
ENDMDL
MODEL       31
REMARK 921   NORMALIZED FREE ENERGY PREDICTED BY IDOCK:   -5.26 KCAL/MOL
REMARK 922        TOTAL FREE ENERGY PREDICTED BY IDOCK:   -5.59 KCAL/MOL
REMARK 923 INTER-LIGAND FREE ENERGY PREDICTED BY IDOCK:   -5.63 KCAL/MOL
REMARK 924 INTRA-LIGAND FREE ENERGY PREDICTED BY IDOCK:    0.04 KCAL/MOL
REMARK 927      BINDING AFFINITY PREDICTED BY RF-SCORE:    0.00 PKD
ROOT
HETATM    1  C   UNL     1      -8.683   6.965  71.469  1.00  0.00    -0.122 C  
HETATM    2  C   UNL     1      -8.020   7.999  72.178  1.00  0.00    -0.154 C  
HETATM    3  C   UNL     1      -9.455   8.265  71.910  1.00  0.00    -0.287 C  
HETATM    4  C   UNL     1     -10.518   6.697  71.121  1.00  0.00    -0.217 C  
HETATM    5  C   UNL     1     -10.357   7.002  72.449  1.00  0.00    -0.227 C  
HETATM    6  C   UNL     1     -10.756   8.139  67.111  1.00  0.00    -0.264 C  
HETATM    7  O   UNL     1     -11.935   6.503  70.974  1.00  0.00    -0.361 OA 
HETATM    8  C   UNL     1     -11.595   8.383  72.087  1.00  0.00    -0.442 C  
HETATM    9  C   UNL     1     -10.533   6.183  73.691  1.00  0.00    -0.289 C  
HETATM   10  O   UNL     1      -8.548  13.120  67.010  1.00  0.00    -0.205 OA 
HETATM   11  H   UNL     1     -12.428   5.777  70.609  1.00  0.00     0.000 HD 
HETATM   12  C   UNL     1     -11.478   8.899  70.377  1.00  0.00    -0.182 C  
HETATM   13  C   UNL     1     -10.025   8.871  69.489  1.00  0.00    -0.191 C  
HETATM   14  C   UNL     1      -8.908   7.573  69.731  1.00  0.00    -0.141 C  
HETATM   15  C   UNL     1      -7.547   7.869  69.087  1.00  0.00    -0.098 C  
HETATM   16  C   UNL     1      -7.695   8.304  67.636  1.00  0.00    -0.099 C  
HETATM   17  C   UNL     1      -8.616   9.496  67.556  1.00  0.00    -0.126 C  
HETATM   18  C   UNL     1      -8.069  10.709  67.328  1.00  0.00    -0.116 C  
HETATM   19  C   UNL     1      -8.917  11.826  67.246  1.00  0.00    -0.172 A  
HETATM   20  C   UNL     1     -10.288  11.776  67.320  1.00  0.00    -0.231 A  
HETATM   21  C   UNL     1     -11.035  10.554  67.714  1.00  0.00    -0.372 C  
HETATM   22  C   UNL     1     -10.706  13.041  66.876  1.00  0.00    -0.262 A  
HETATM   23  C   UNL     1     -10.120   9.268  67.946  1.00  0.00    -0.246 C  
HETATM   24  N   UNL     1      -9.677  13.886  66.756  1.00  0.00    -0.270 NA 
ENDROOT
BRANCH   4  25
HETATM   25  C   UNL     1     -10.091   5.204  70.959  1.00  0.00    -0.297 C  
HETATM   26  C   UNL     1      -9.712   4.070  70.840  1.00  0.00    -0.257 C  
ENDBRANCH   4  25
TORSDOF 1
ENDMDL
MODEL       32
REMARK 921   NORMALIZED FREE ENERGY PREDICTED BY IDOCK:   -5.15 KCAL/MOL
REMARK 922        TOTAL FREE ENERGY PREDICTED BY IDOCK:   -5.48 KCAL/MOL
REMARK 923 INTER-LIGAND FREE ENERGY PREDICTED BY IDOCK:   -5.48 KCAL/MOL
REMARK 924 INTRA-LIGAND FREE ENERGY PREDICTED BY IDOCK:    0.01 KCAL/MOL
REMARK 927      BINDING AFFINITY PREDICTED BY RF-SCORE:    0.00 PKD
ROOT
HETATM    1  C   UNL     1     -11.172  11.400  67.982  1.00  0.00    -0.346 C  
HETATM    2  C   UNL     1     -11.918  11.849  66.861  1.00  0.00    -0.002 C  
HETATM    3  C   UNL     1     -10.470  11.663  66.597  1.00  0.00    -0.268 C  
HETATM    4  C   UNL     1      -9.398  10.772  68.104  1.00  0.00    -0.155 C  
HETATM    5  C   UNL     1     -10.019  10.150  67.050  1.00  0.00    -0.249 C  
HETATM    6  C   UNL     1      -7.441  14.278  69.552  1.00  0.00     0.091 C  
HETATM    7  O   UNL     1      -8.072  10.214  68.109  1.00  0.00    -0.103 OA 
HETATM    8  C   UNL     1      -8.569  10.823  66.042  1.00  0.00    -0.181 C  
HETATM    9  C   UNL     1     -10.445   8.729  66.840  1.00  0.00    -0.319 C  
HETATM   10  O   UNL     1      -8.772  18.401  66.246  1.00  0.00    -0.398 OA 
HETATM   11  H   UNL     1      -7.576   9.802  68.806  1.00  0.00     0.000 HD 
HETATM   12  C   UNL     1      -7.948  12.336  66.771  1.00  0.00     0.010 C  
HETATM   13  C   UNL     1      -8.934  13.449  67.600  1.00  0.00    -0.202 C  
HETATM   14  C   UNL     1     -10.216  12.863  68.603  1.00  0.00    -0.170 C  
HETATM   15  C   UNL     1     -11.170  13.990  69.017  1.00  0.00    -0.311 C  
HETATM   16  C   UNL     1     -10.418  15.180  69.597  1.00  0.00    -0.261 C  
HETATM   17  C   UNL     1      -9.391  15.663  68.602  1.00  0.00    -0.201 C  
HETATM   18  C   UNL     1      -9.645  16.804  67.929  1.00  0.00    -0.236 C  
HETATM   19  C   UNL     1      -8.694  17.267  67.004  1.00  0.00    -0.231 A  
HETATM   20  C   UNL     1      -7.477  16.674  66.768  1.00  0.00    -0.289 A  
HETATM   21  C   UNL     1      -7.106  15.341  67.308  1.00  0.00    -0.187 C  
HETATM   22  C   UNL     1      -6.760  17.633  66.035  1.00  0.00    -0.261 A  
HETATM   23  C   UNL     1      -8.199  14.694  68.275  1.00  0.00    -0.146 C  
HETATM   24  N   UNL     1      -7.543  18.644  65.648  1.00  0.00    -0.495 NA 
ENDROOT
BRANCH   4  25
HETATM   25  C   UNL     1      -9.919  10.070  69.397  1.00  0.00    -0.239 C  
HETATM   26  C   UNL     1     -10.308   9.484  70.371  1.00  0.00    -0.334 C  
ENDBRANCH   4  25
TORSDOF 1
ENDMDL
MODEL       33
REMARK 921   NORMALIZED FREE ENERGY PREDICTED BY IDOCK:   -5.15 KCAL/MOL
REMARK 922        TOTAL FREE ENERGY PREDICTED BY IDOCK:   -5.47 KCAL/MOL
REMARK 923 INTER-LIGAND FREE ENERGY PREDICTED BY IDOCK:   -5.45 KCAL/MOL
REMARK 924 INTRA-LIGAND FREE ENERGY PREDICTED BY IDOCK:   -0.02 KCAL/MOL
REMARK 927      BINDING AFFINITY PREDICTED BY RF-SCORE:    0.00 PKD
ROOT
HETATM    1  C   UNL     1      -9.699   9.078  71.103  1.00  0.00    -0.369 C  
HETATM    2  C   UNL     1      -8.348   9.102  70.671  1.00  0.00    -0.239 C  
HETATM    3  C   UNL     1      -9.162   8.020  70.067  1.00  0.00    -0.156 C  
HETATM    4  C   UNL     1     -11.176   8.099  70.456  1.00  0.00    -0.247 C  
HETATM    5  C   UNL     1     -10.516   8.662  69.393  1.00  0.00    -0.224 C  
HETATM    6  C   UNL     1     -11.321   4.943  73.327  1.00  0.00    -0.408 C  
HETATM    7  O   UNL     1     -12.277   7.396  69.853  1.00  0.00    -0.248 OA 
HETATM    8  C   UNL     1     -10.430   6.887  68.749  1.00  0.00    -0.223 C  
HETATM    9  C   UNL     1     -10.900   9.755  68.444  1.00  0.00    -0.244 C  
HETATM   10  O   UNL     1      -6.349   2.728  73.602  1.00  0.00    -0.018 OA 
HETATM   11  H   UNL     1     -13.209   7.433  70.033  1.00  0.00     0.000 HD 
HETATM   12  C   UNL     1     -10.420   5.725  70.111  1.00  0.00    -0.348 C  
HETATM   13  C   UNL     1      -9.717   6.064  71.624  1.00  0.00    -0.180 C  
HETATM   14  C   UNL     1      -9.853   7.657  72.285  1.00  0.00    -0.229 C  
HETATM   15  C   UNL     1      -8.917   7.854  73.484  1.00  0.00    -0.343 C  
HETATM   16  C   UNL     1      -9.071   6.738  74.508  1.00  0.00    -0.227 C  
HETATM   17  C   UNL     1      -8.842   5.405  73.841  1.00  0.00    -0.120 C  
HETATM   18  C   UNL     1      -7.677   4.766  74.079  1.00  0.00    -0.097 C  
HETATM   19  C   UNL     1      -7.454   3.521  73.469  1.00  0.00    -0.061 A  
HETATM   20  C   UNL     1      -8.366   2.860  72.681  1.00  0.00    -0.071 A  
HETATM   21  C   UNL     1      -9.625   3.483  72.201  1.00  0.00    -0.207 C  
HETATM   22  C   UNL     1      -7.848   1.559  72.568  1.00  0.00    -0.044 A  
HETATM   23  C   UNL     1      -9.887   4.955  72.758  1.00  0.00    -0.192 C  
HETATM   24  N   UNL     1      -6.604   1.480  73.050  1.00  0.00    -0.013 NA 
ENDROOT
BRANCH   4  25
HETATM   25  C   UNL     1     -12.004   9.246  71.116  1.00  0.00    -0.394 C  
HETATM   26  C   UNL     1     -12.676  10.093  71.640  1.00  0.00    -0.549 C  
ENDBRANCH   4  25
TORSDOF 1
ENDMDL
MODEL       34
REMARK 921   NORMALIZED FREE ENERGY PREDICTED BY IDOCK:   -5.14 KCAL/MOL
REMARK 922        TOTAL FREE ENERGY PREDICTED BY IDOCK:   -5.47 KCAL/MOL
REMARK 923 INTER-LIGAND FREE ENERGY PREDICTED BY IDOCK:   -5.45 KCAL/MOL
REMARK 924 INTRA-LIGAND FREE ENERGY PREDICTED BY IDOCK:   -0.01 KCAL/MOL
REMARK 927      BINDING AFFINITY PREDICTED BY RF-SCORE:    0.00 PKD
ROOT
HETATM    1  C   UNL     1      -9.976  12.347  66.081  1.00  0.00    -0.267 C  
HETATM    2  C   UNL     1     -10.915  11.602  65.323  1.00  0.00    -0.327 C  
HETATM    3  C   UNL     1     -11.238  11.702  66.767  1.00  0.00    -0.371 C  
HETATM    4  C   UNL     1     -10.058  12.981  67.856  1.00  0.00    -0.235 C  
HETATM    5  C   UNL     1     -11.237  13.281  67.221  1.00  0.00    -0.320 C  
HETATM    6  C   UNL     1      -7.701  10.023  69.835  1.00  0.00    -0.183 C  
HETATM    7  O   UNL     1     -10.226  13.514  69.181  1.00  0.00    -0.426 OA 
HETATM    8  C   UNL     1     -12.030  12.347  68.660  1.00  0.00    -0.272 C  
HETATM    9  C   UNL     1     -11.835  14.585  66.791  1.00  0.00    -0.390 C  
HETATM   10  O   UNL     1      -9.691   5.136  68.470  1.00  0.00    -0.133 OA 
HETATM   11  H   UNL     1      -9.680  14.106  69.685  1.00  0.00     0.000 HD 
HETATM   12  C   UNL     1     -10.912  11.101  69.292  1.00  0.00    -0.300 C  
HETATM   13  C   UNL     1      -9.790  10.269  68.318  1.00  0.00    -0.161 C  
HETATM   14  C   UNL     1      -8.978  11.117  67.047  1.00  0.00    -0.156 C  
HETATM   15  C   UNL     1      -8.251  10.156  66.099  1.00  0.00    -0.125 C  
HETATM   16  C   UNL     1      -7.367   9.177  66.860  1.00  0.00    -0.090 C  
HETATM   17  C   UNL     1      -8.197   8.430  67.875  1.00  0.00    -0.127 C  
HETATM   18  C   UNL     1      -8.518   7.145  67.615  1.00  0.00    -0.120 C  
HETATM   19  C   UNL     1      -9.284   6.438  68.555  1.00  0.00    -0.124 A  
HETATM   20  C   UNL     1      -9.693   6.938  69.768  1.00  0.00    -0.166 A  
HETATM   21  C   UNL     1      -9.556   8.368  70.144  1.00  0.00    -0.166 C  
HETATM   22  C   UNL     1     -10.134   5.809  70.478  1.00  0.00    -0.208 A  
HETATM   23  C   UNL     1      -8.799   9.265  69.062  1.00  0.00    -0.136 C  
HETATM   24  N   UNL     1     -10.210   4.731  69.692  1.00  0.00    -0.209 NA 
ENDROOT
BRANCH   4  25
HETATM   25  C   UNL     1      -9.010  14.020  67.350  1.00  0.00    -0.208 C  
HETATM   26  C   UNL     1      -8.214  14.850  67.002  1.00  0.00    -0.228 C  
ENDBRANCH   4  25
TORSDOF 1
ENDMDL
MODEL       35
REMARK 921   NORMALIZED FREE ENERGY PREDICTED BY IDOCK:   -5.13 KCAL/MOL
REMARK 922        TOTAL FREE ENERGY PREDICTED BY IDOCK:   -5.45 KCAL/MOL
REMARK 923 INTER-LIGAND FREE ENERGY PREDICTED BY IDOCK:   -5.49 KCAL/MOL
REMARK 924 INTRA-LIGAND FREE ENERGY PREDICTED BY IDOCK:    0.04 KCAL/MOL
REMARK 927      BINDING AFFINITY PREDICTED BY RF-SCORE:    0.00 PKD
ROOT
HETATM    1  C   UNL     1     -10.123  14.278  68.418  1.00  0.00    -0.243 C  
HETATM    2  C   UNL     1     -10.841  15.011  69.398  1.00  0.00    -0.265 C  
HETATM    3  C   UNL     1     -10.576  15.762  68.146  1.00  0.00    -0.275 C  
HETATM    4  C   UNL     1      -9.774  14.667  66.605  1.00  0.00    -0.270 C  
HETATM    5  C   UNL     1     -11.105  14.887  66.859  1.00  0.00    -0.337 C  
HETATM    6  C   UNL     1      -5.777  16.136  66.893  1.00  0.00     0.235 C  
HETATM    7  O   UNL     1      -9.627  14.980  65.209  1.00  0.00    -0.397 OA 
HETATM    8  C   UNL     1     -10.755  16.615  66.179  1.00  0.00    -0.132 C  
HETATM    9  C   UNL     1     -12.339  14.169  66.406  1.00  0.00    -0.431 C  
HETATM   10  O   UNL     1      -5.719  20.039  70.696  1.00  0.00    -0.263 OA 
HETATM   11  H   UNL     1      -9.255  14.474  64.496  1.00  0.00     0.000 HD 
HETATM   12  C   UNL     1      -9.050  17.072  66.473  1.00  0.00    -0.291 C  
HETATM   13  C   UNL     1      -8.161  16.549  67.828  1.00  0.00    -0.170 C  
HETATM   14  C   UNL     1      -8.391  14.941  68.423  1.00  0.00    -0.153 C  
HETATM   15  C   UNL     1      -7.749  14.751  69.803  1.00  0.00     0.068 C  
HETATM   16  C   UNL     1      -6.301  15.222  69.820  1.00  0.00    -0.162 C  
HETATM   17  C   UNL     1      -6.232  16.661  69.371  1.00  0.00    -0.205 C  
HETATM   18  C   UNL     1      -6.015  17.610  70.306  1.00  0.00    -0.027 C  
HETATM   19  C   UNL     1      -5.943  18.952  69.900  1.00  0.00    -0.247 A  
HETATM   20  C   UNL     1      -6.018  19.382  68.597  1.00  0.00    -0.252 A  
HETATM   21  C   UNL     1      -6.401  18.493  67.470  1.00  0.00    -0.194 C  
HETATM   22  C   UNL     1      -5.585  20.717  68.646  1.00  0.00    -0.347 A  
HETATM   23  C   UNL     1      -6.622  16.966  67.880  1.00  0.00    -0.152 C  
HETATM   24  N   UNL     1      -5.472  21.152  69.905  1.00  0.00    -0.478 NA 
ENDROOT
BRANCH   4  25
HETATM   25  C   UNL     1      -9.599  13.121  66.487  1.00  0.00    -0.268 C  
HETATM   26  C   UNL     1      -9.468  11.927  66.448  1.00  0.00    -0.238 C  
ENDBRANCH   4  25
TORSDOF 1
ENDMDL
MODEL       36
REMARK 921   NORMALIZED FREE ENERGY PREDICTED BY IDOCK:   -5.03 KCAL/MOL
REMARK 922        TOTAL FREE ENERGY PREDICTED BY IDOCK:   -5.35 KCAL/MOL
REMARK 923 INTER-LIGAND FREE ENERGY PREDICTED BY IDOCK:   -5.34 KCAL/MOL
REMARK 924 INTRA-LIGAND FREE ENERGY PREDICTED BY IDOCK:   -0.01 KCAL/MOL
REMARK 927      BINDING AFFINITY PREDICTED BY RF-SCORE:    0.00 PKD
ROOT
HETATM    1  C   UNL     1      -9.153  10.686  69.558  1.00  0.00     0.016 C  
HETATM    2  C   UNL     1      -7.777  10.452  69.310  1.00  0.00    -0.140 C  
HETATM    3  C   UNL     1      -8.694   9.745  68.383  1.00  0.00    -0.120 C  
HETATM    4  C   UNL     1     -10.678  10.253  68.534  1.00  0.00    -0.227 C  
HETATM    5  C   UNL     1      -9.737  10.824  67.714  1.00  0.00    -0.179 C  
HETATM    6  C   UNL     1     -12.003   6.748  70.577  1.00  0.00    -0.385 C  
HETATM    7  O   UNL     1     -11.786   9.979  67.661  1.00  0.00    -0.445 OA 
HETATM    8  C   UNL     1      -9.936   9.242  66.700  1.00  0.00    -0.333 C  
HETATM    9  C   UNL     1      -9.703  12.139  66.998  1.00  0.00    -0.208 C  
HETATM   10  O   UNL     1      -7.763   3.342  70.939  1.00  0.00    -0.043 OA 
HETATM   11  H   UNL     1     -12.704  10.214  67.731  1.00  0.00     0.000 HD 
HETATM   12  C   UNL     1     -10.415   7.877  67.754  1.00  0.00    -0.278 C  
HETATM   13  C   UNL     1      -9.924   7.732  69.378  1.00  0.00    -0.188 C  
HETATM   14  C   UNL     1      -9.817   9.151  70.361  1.00  0.00    -0.263 C  
HETATM   15  C   UNL     1      -9.080   8.874  71.677  1.00  0.00    -0.280 C  
HETATM   16  C   UNL     1      -9.649   7.658  72.396  1.00  0.00    -0.220 C  
HETATM   17  C   UNL     1      -9.608   6.463  71.477  1.00  0.00    -0.169 C  
HETATM   18  C   UNL     1      -8.671   5.518  71.702  1.00  0.00    -0.137 C  
HETATM   19  C   UNL     1      -8.627   4.397  70.857  1.00  0.00    -0.092 A  
HETATM   20  C   UNL     1      -9.514   4.150  69.837  1.00  0.00    -0.265 A  
HETATM   21  C   UNL     1     -10.503   5.150  69.362  1.00  0.00    -0.203 C  
HETATM   22  C   UNL     1      -9.283   2.807  69.495  1.00  0.00    -0.134 A  
HETATM   23  C   UNL     1     -10.526   6.506  70.203  1.00  0.00    -0.259 C  
HETATM   24  N   UNL     1      -8.189   2.327  70.093  1.00  0.00    -0.041 NA 
ENDROOT
BRANCH   4  25
HETATM   25  C   UNL     1     -11.333  11.424  69.332  1.00  0.00    -0.365 C  
HETATM   26  C   UNL     1     -11.864  12.338  69.903  1.00  0.00    -0.383 C  
ENDBRANCH   4  25
TORSDOF 1
ENDMDL
MODEL       37
REMARK 921   NORMALIZED FREE ENERGY PREDICTED BY IDOCK:   -4.97 KCAL/MOL
REMARK 922        TOTAL FREE ENERGY PREDICTED BY IDOCK:   -5.28 KCAL/MOL
REMARK 923 INTER-LIGAND FREE ENERGY PREDICTED BY IDOCK:   -5.27 KCAL/MOL
REMARK 924 INTRA-LIGAND FREE ENERGY PREDICTED BY IDOCK:   -0.00 KCAL/MOL
REMARK 927      BINDING AFFINITY PREDICTED BY RF-SCORE:    0.00 PKD
ROOT
HETATM    1  C   UNL     1      -9.415  13.498  68.158  1.00  0.00    -0.214 C  
HETATM    2  C   UNL     1      -8.325  14.250  67.650  1.00  0.00    -0.187 C  
HETATM    3  C   UNL     1      -9.294  13.806  66.619  1.00  0.00    -0.277 C  
HETATM    4  C   UNL     1     -11.016  12.942  67.328  1.00  0.00    -0.261 C  
HETATM    5  C   UNL     1     -10.809  14.270  67.053  1.00  0.00    -0.297 C  
HETATM    6  C   UNL     1     -10.034   8.892  66.405  1.00  0.00    -0.354 C  
HETATM    7  O   UNL     1     -12.253  12.633  66.665  1.00  0.00    -0.517 OA 
HETATM    8  C   UNL     1     -10.951  13.724  65.249  1.00  0.00    -0.322 C  
HETATM    9  C   UNL     1     -11.534  15.505  67.491  1.00  0.00    -0.184 C  
HETATM   10  O   UNL     1      -5.297   8.910  63.710  1.00  0.00    -0.060 OA 
HETATM   11  H   UNL     1     -13.050  12.233  66.993  1.00  0.00     0.000 HD 
HETATM   12  C   UNL     1     -10.416  12.026  65.064  1.00  0.00    -0.327 C  
HETATM   13  C   UNL     1      -9.200  11.318  66.024  1.00  0.00    -0.224 C  
HETATM   14  C   UNL     1      -9.097  11.728  67.701  1.00  0.00    -0.177 C  
HETATM   15  C   UNL     1      -7.781  11.243  68.323  1.00  0.00    -0.122 C  
HETATM   16  C   UNL     1      -7.527   9.772  68.023  1.00  0.00    -0.082 C  
HETATM   17  C   UNL     1      -7.549   9.548  66.531  1.00  0.00    -0.094 C  
HETATM   18  C   UNL     1      -6.373   9.353  65.899  1.00  0.00    -0.068 C  
HETATM   19  C   UNL     1      -6.381   9.138  64.511  1.00  0.00    -0.075 A  
HETATM   20  C   UNL     1      -7.514   9.050  63.738  1.00  0.00    -0.107 A  
HETATM   21  C   UNL     1      -8.868   9.387  64.244  1.00  0.00    -0.220 C  
HETATM   22  C   UNL     1      -7.061   8.523  62.517  1.00  0.00    -0.097 A  
HETATM   23  C   UNL     1      -8.919   9.764  65.794  1.00  0.00    -0.195 C  
HETATM   24  N   UNL     1      -5.726   8.502  62.455  1.00  0.00    -0.082 NA 
ENDROOT
BRANCH   4  25
HETATM   25  C   UNL     1     -11.549  12.875  68.794  1.00  0.00    -0.351 C  
HETATM   26  C   UNL     1     -12.004  12.844  69.905  1.00  0.00    -0.377 C  
ENDBRANCH   4  25
TORSDOF 1
ENDMDL
MODEL       38
REMARK 921   NORMALIZED FREE ENERGY PREDICTED BY IDOCK:   -4.93 KCAL/MOL
REMARK 922        TOTAL FREE ENERGY PREDICTED BY IDOCK:   -5.24 KCAL/MOL
REMARK 923 INTER-LIGAND FREE ENERGY PREDICTED BY IDOCK:   -5.25 KCAL/MOL
REMARK 924 INTRA-LIGAND FREE ENERGY PREDICTED BY IDOCK:    0.01 KCAL/MOL
REMARK 927      BINDING AFFINITY PREDICTED BY RF-SCORE:    0.00 PKD
ROOT
HETATM    1  C   UNL     1      -8.264  16.389  68.990  1.00  0.00    -0.222 C  
HETATM    2  C   UNL     1      -7.651  15.923  70.181  1.00  0.00     0.738 C  
HETATM    3  C   UNL     1      -7.736  14.910  69.100  1.00  0.00    -0.164 C  
HETATM    4  C   UNL     1      -8.375  15.605  67.277  1.00  0.00    -0.184 C  
HETATM    5  C   UNL     1      -7.080  15.520  67.723  1.00  0.00    -0.179 C  
HETATM    6  C   UNL     1     -12.330  14.006  67.421  1.00  0.00    -0.150 C  
HETATM    7  O   UNL     1      -8.340  14.995  65.976  1.00  0.00    -0.187 OA 
HETATM    8  C   UNL     1      -7.289  13.670  67.400  1.00  0.00    -0.127 C  
HETATM    9  C   UNL     1      -5.822  16.194  67.268  1.00  0.00    -0.122 C  
HETATM   10  O   UNL     1     -12.737  11.003  71.951  1.00  0.00    -0.355 OA 
HETATM   11  H   UNL     1      -8.636  15.317  65.132  1.00  0.00     0.000 HD 
HETATM   12  C   UNL     1      -9.003  13.189  67.590  1.00  0.00    -0.192 C  
HETATM   13  C   UNL     1     -10.068  13.937  68.688  1.00  0.00    -0.203 C  
HETATM   14  C   UNL     1      -9.963  15.645  68.942  1.00  0.00    -0.215 C  
HETATM   15  C   UNL     1     -10.776  16.087  70.165  1.00  0.00    -0.316 C  
HETATM   16  C   UNL     1     -12.199  15.549  70.119  1.00  0.00    -0.404 C  
HETATM   17  C   UNL     1     -12.168  14.046  69.989  1.00  0.00    -0.414 C  
HETATM   18  C   UNL     1     -12.469  13.307  71.077  1.00  0.00    -0.422 C  
HETATM   19  C   UNL     1     -12.450  11.907  70.968  1.00  0.00    -0.290 A  
HETATM   20  C   UNL     1     -12.202  11.215  69.806  1.00  0.00    -0.369 A  
HETATM   21  C   UNL     1     -11.709  11.865  68.565  1.00  0.00    -0.388 C  
HETATM   22  C   UNL     1     -12.596   9.898  70.095  1.00  0.00     0.195 A  
HETATM   23  C   UNL     1     -11.588  13.454  68.655  1.00  0.00    -0.362 C  
HETATM   24  N   UNL     1     -12.849   9.735  71.397  1.00  0.00    -0.365 NA 
ENDROOT
BRANCH   4  25
HETATM   25  C   UNL     1      -8.582  17.079  66.806  1.00  0.00    -0.266 C  
HETATM   26  C   UNL     1      -8.792  18.209  66.457  1.00  0.00    -0.286 C  
ENDBRANCH   4  25
TORSDOF 1
ENDMDL
MODEL       39
REMARK 921   NORMALIZED FREE ENERGY PREDICTED BY IDOCK:   -4.93 KCAL/MOL
REMARK 922        TOTAL FREE ENERGY PREDICTED BY IDOCK:   -5.24 KCAL/MOL
REMARK 923 INTER-LIGAND FREE ENERGY PREDICTED BY IDOCK:   -5.24 KCAL/MOL
REMARK 924 INTRA-LIGAND FREE ENERGY PREDICTED BY IDOCK:   -0.00 KCAL/MOL
REMARK 927      BINDING AFFINITY PREDICTED BY RF-SCORE:    0.00 PKD
ROOT
HETATM    1  C   UNL     1      -8.041   8.742  68.746  1.00  0.00    -0.115 C  
HETATM    2  C   UNL     1      -7.165   7.651  68.514  1.00  0.00    -0.086 C  
HETATM    3  C   UNL     1      -8.603   7.325  68.351  1.00  0.00    -0.124 C  
HETATM    4  C   UNL     1      -9.890   8.923  68.418  1.00  0.00    -0.174 C  
HETATM    5  C   UNL     1      -9.291   8.389  67.305  1.00  0.00    -0.181 C  
HETATM    6  C   UNL     1     -11.433   8.237  72.339  1.00  0.00    -0.463 C  
HETATM    7  O   UNL     1     -11.278   9.026  68.055  1.00  0.00    -0.481 OA 
HETATM    8  C   UNL     1     -10.560   7.005  67.517  1.00  0.00    -0.351 C  
HETATM    9  C   UNL     1      -9.054   8.946  65.935  1.00  0.00    -0.271 C  
HETATM   10  O   UNL     1      -9.315   3.555  74.154  1.00  0.00    -0.092 OA 
HETATM   11  H   UNL     1     -11.874   9.765  68.086  1.00  0.00     0.000 HD 
HETATM   12  C   UNL     1     -11.012   6.827  69.240  1.00  0.00    -0.303 C  
HETATM   13  C   UNL     1      -9.940   7.136  70.526  1.00  0.00    -0.191 C  
HETATM   14  C   UNL     1      -8.824   8.452  70.402  1.00  0.00    -0.149 C  
HETATM   15  C   UNL     1      -7.753   8.391  71.498  1.00  0.00    -0.125 C  
HETATM   16  C   UNL     1      -8.370   8.224  72.879  1.00  0.00    -0.245 C  
HETATM   17  C   UNL     1      -9.248   6.997  72.896  1.00  0.00    -0.162 C  
HETATM   18  C   UNL     1      -8.792   5.896  73.528  1.00  0.00    -0.125 C  
HETATM   19  C   UNL     1      -9.603   4.749  73.555  1.00  0.00    -0.131 A  
HETATM   20  C   UNL     1     -10.871   4.674  73.032  1.00  0.00    -0.321 A  
HETATM   21  C   UNL     1     -11.461   5.737  72.179  1.00  0.00    -0.295 C  
HETATM   22  C   UNL     1     -11.395   3.484  73.563  1.00  0.00    -0.123 A  
HETATM   23  C   UNL     1     -10.539   7.027  72.001  1.00  0.00    -0.237 C  
HETATM   24  N   UNL     1     -10.454   2.762  74.178  1.00  0.00    -0.152 NA 
ENDROOT
BRANCH   4  25
HETATM   25  C   UNL     1      -9.563  10.449  68.404  1.00  0.00    -0.153 C  
HETATM   26  C   UNL     1      -9.325  11.626  68.444  1.00  0.00    -0.191 C  
ENDBRANCH   4  25
TORSDOF 1
ENDMDL
MODEL       40
REMARK 921   NORMALIZED FREE ENERGY PREDICTED BY IDOCK:   -4.90 KCAL/MOL
REMARK 922        TOTAL FREE ENERGY PREDICTED BY IDOCK:   -5.21 KCAL/MOL
REMARK 923 INTER-LIGAND FREE ENERGY PREDICTED BY IDOCK:   -5.19 KCAL/MOL
REMARK 924 INTRA-LIGAND FREE ENERGY PREDICTED BY IDOCK:   -0.02 KCAL/MOL
REMARK 927      BINDING AFFINITY PREDICTED BY RF-SCORE:    0.00 PKD
ROOT
HETATM    1  C   UNL     1      -6.991   7.705  70.618  1.00  0.00    -0.047 C  
HETATM    2  C   UNL     1      -6.370   8.969  70.781  1.00  0.00    -0.055 C  
HETATM    3  C   UNL     1      -7.283   8.590  71.887  1.00  0.00    -0.113 C  
HETATM    4  C   UNL     1      -8.003   6.668  71.827  1.00  0.00    -0.103 C  
HETATM    5  C   UNL     1      -6.867   7.107  72.459  1.00  0.00    -0.064 C  
HETATM    6  C   UNL     1     -11.956   7.589  70.504  1.00  0.00    -0.088 C  
HETATM    7  O   UNL     1      -8.682   5.889  72.826  1.00  0.00    -0.125 OA 
HETATM    8  C   UNL     1      -8.074   7.813  73.730  1.00  0.00    -0.234 C  
HETATM    9  C   UNL     1      -5.651   6.380  72.946  1.00  0.00    -0.038 C  
HETATM   10  O   UNL     1     -12.422  13.016  70.335  1.00  0.00    -0.280 OA 
HETATM   11  H   UNL     1      -9.016   5.000  72.799  1.00  0.00     0.000 HD 
HETATM   12  C   UNL     1      -9.640   8.208  72.957  1.00  0.00    -0.336 C  
HETATM   13  C   UNL     1      -9.781   8.727  71.342  1.00  0.00    -0.351 C  
HETATM   14  C   UNL     1      -8.751   8.037  70.136  1.00  0.00    -0.135 C  
HETATM   15  C   UNL     1      -8.807   8.829  68.823  1.00  0.00    -0.134 C  
HETATM   16  C   UNL     1     -10.240   9.057  68.364  1.00  0.00    -0.232 C  
HETATM   17  C   UNL     1     -11.018   9.745  69.459  1.00  0.00    -0.256 C  
HETATM   18  C   UNL     1     -11.303  11.056  69.309  1.00  0.00    -0.350 C  
HETATM   19  C   UNL     1     -12.032  11.706  70.318  1.00  0.00    -0.358 A  
HETATM   20  C   UNL     1     -12.539  11.092  71.438  1.00  0.00    -0.479 A  
HETATM   21  C   UNL     1     -12.193   9.702  71.828  1.00  0.00    -0.464 C  
HETATM   22  C   UNL     1     -13.437  12.032  71.972  1.00  0.00    -0.261 A  
HETATM   23  C   UNL     1     -11.261   8.937  70.783  1.00  0.00    -0.321 C  
HETATM   24  N   UNL     1     -13.326  13.218  71.368  1.00  0.00    -0.227 NA 
ENDROOT
BRANCH   4  25
HETATM   25  C   UNL     1      -7.565   5.484  70.909  1.00  0.00    -0.090 C  
HETATM   26  C   UNL     1      -7.270   4.546  70.219  1.00  0.00    -0.049 C  
ENDBRANCH   4  25
TORSDOF 1
ENDMDL
MODEL       41
REMARK 921   NORMALIZED FREE ENERGY PREDICTED BY IDOCK:   -4.90 KCAL/MOL
REMARK 922        TOTAL FREE ENERGY PREDICTED BY IDOCK:   -5.21 KCAL/MOL
REMARK 923 INTER-LIGAND FREE ENERGY PREDICTED BY IDOCK:   -5.19 KCAL/MOL
REMARK 924 INTRA-LIGAND FREE ENERGY PREDICTED BY IDOCK:   -0.02 KCAL/MOL
REMARK 927      BINDING AFFINITY PREDICTED BY RF-SCORE:    0.00 PKD
ROOT
HETATM    1  C   UNL     1     -12.354  13.389  66.723  1.00  0.00    -0.287 C  
HETATM    2  C   UNL     1     -13.120  14.290  65.940  1.00  0.00     0.156 C  
HETATM    3  C   UNL     1     -11.708  14.154  65.508  1.00  0.00    -0.344 C  
HETATM    4  C   UNL     1     -10.631  12.675  66.439  1.00  0.00    -0.251 C  
HETATM    5  C   UNL     1     -11.355  12.566  65.278  1.00  0.00    -0.363 C  
HETATM    6  C   UNL     1      -8.328  15.187  69.009  1.00  0.00    -0.209 C  
HETATM    7  O   UNL     1      -9.356  12.096  66.114  1.00  0.00    -0.233 OA 
HETATM    8  C   UNL     1      -9.911  13.515  64.512  1.00  0.00    -0.018 C  
HETATM    9  C   UNL     1     -11.903  11.377  64.551  1.00  0.00     0.131 C  
HETATM   10  O   UNL     1      -9.501  20.358  67.752  1.00  0.00    -0.348 OA 
HETATM   11  H   UNL     1      -8.857  11.411  66.544  1.00  0.00     0.000 HD 
HETATM   12  C   UNL     1      -9.134  14.568  65.733  1.00  0.00     0.322 C  
HETATM   13  C   UNL     1      -9.983  15.298  67.016  1.00  0.00    -0.235 C  
HETATM   14  C   UNL     1     -11.253  14.423  67.799  1.00  0.00    -0.316 C  
HETATM   15  C   UNL     1     -12.092  15.332  68.706  1.00  0.00    -0.195 C  
HETATM   16  C   UNL     1     -11.217  16.144  69.651  1.00  0.00    -0.331 C  
HETATM   17  C   UNL     1     -10.210  16.936  68.854  1.00  0.00    -0.314 C  
HETATM   18  C   UNL     1     -10.408  18.264  68.718  1.00  0.00    -0.246 C  
HETATM   19  C   UNL     1      -9.473  19.012  67.984  1.00  0.00    -0.319 A  
HETATM   20  C   UNL     1      -8.322  18.504  67.432  1.00  0.00    -0.264 A  
HETATM   21  C   UNL     1      -8.030  17.050  67.361  1.00  0.00    -0.197 C  
HETATM   22  C   UNL     1      -7.571  19.640  67.090  1.00  0.00    -0.252 A  
HETATM   23  C   UNL     1      -9.117  16.123  68.071  1.00  0.00    -0.190 C  
HETATM   24  N   UNL     1      -8.291  20.760  67.205  1.00  0.00    -0.242 NA 
ENDROOT
BRANCH   4  25
HETATM   25  C   UNL     1     -11.137  11.536  67.380  1.00  0.00    -0.339 C  
HETATM   26  C   UNL     1     -11.476  10.653  68.120  1.00  0.00    -0.303 C  
ENDBRANCH   4  25
TORSDOF 1
ENDMDL
MODEL       42
REMARK 921   NORMALIZED FREE ENERGY PREDICTED BY IDOCK:   -4.89 KCAL/MOL
REMARK 922        TOTAL FREE ENERGY PREDICTED BY IDOCK:   -5.20 KCAL/MOL
REMARK 923 INTER-LIGAND FREE ENERGY PREDICTED BY IDOCK:   -5.18 KCAL/MOL
REMARK 924 INTRA-LIGAND FREE ENERGY PREDICTED BY IDOCK:   -0.02 KCAL/MOL
REMARK 927      BINDING AFFINITY PREDICTED BY RF-SCORE:    0.00 PKD
ROOT
HETATM    1  C   UNL     1      -8.568   7.653  70.510  1.00  0.00    -0.137 C  
HETATM    2  C   UNL     1      -7.680   8.293  71.411  1.00  0.00    -0.108 C  
HETATM    3  C   UNL     1      -8.991   8.969  71.263  1.00  0.00    -0.281 C  
HETATM    4  C   UNL     1     -10.402   7.947  70.177  1.00  0.00    -0.215 C  
HETATM    5  C   UNL     1     -10.199   7.889  71.533  1.00  0.00    -0.232 C  
HETATM    6  C   UNL     1     -10.167  10.282  66.611  1.00  0.00    -0.294 C  
HETATM    7  O   UNL     1     -11.818   8.160  70.042  1.00  0.00    -0.424 OA 
HETATM    8  C   UNL     1     -11.034   9.585  71.540  1.00  0.00    -0.369 C  
HETATM    9  C   UNL     1     -10.609   6.880  72.562  1.00  0.00    -0.251 C  
HETATM   10  O   UNL     1      -6.755  14.422  67.566  1.00  0.00    -0.185 OA 
HETATM   11  H   UNL     1     -12.471   7.687  69.539  1.00  0.00     0.000 HD 
HETATM   12  C   UNL     1     -10.747  10.431  69.989  1.00  0.00    -0.321 C  
HETATM   13  C   UNL     1      -9.330  10.239  69.065  1.00  0.00    -0.195 C  
HETATM   14  C   UNL     1      -8.588   8.679  68.965  1.00  0.00    -0.129 C  
HETATM   15  C   UNL     1      -7.183   8.758  68.357  1.00  0.00    -0.081 C  
HETATM   16  C   UNL     1      -7.179   9.537  67.048  1.00  0.00    -0.087 C  
HETATM   17  C   UNL     1      -7.762  10.910  67.275  1.00  0.00    -0.112 C  
HETATM   18  C   UNL     1      -6.917  11.962  67.310  1.00  0.00    -0.145 C  
HETATM   19  C   UNL     1      -7.448  13.246  67.514  1.00  0.00    -0.157 A  
HETATM   20  C   UNL     1      -8.788  13.532  67.625  1.00  0.00    -0.202 A  
HETATM   21  C   UNL     1      -9.832  12.484  67.758  1.00  0.00    -0.204 C  
HETATM   22  C   UNL     1      -8.857  14.929  67.496  1.00  0.00    -0.188 A  
HETATM   23  C   UNL     1      -9.283  10.989  67.658  1.00  0.00    -0.151 C  
HETATM   24  N   UNL     1      -7.643  15.487  67.534  1.00  0.00    -0.157 NA 
ENDROOT
BRANCH   4  25
HETATM   25  C   UNL     1     -10.368   6.473  69.665  1.00  0.00    -0.234 C  
HETATM   26  C   UNL     1     -10.371   5.354  69.229  1.00  0.00    -0.322 C  
ENDBRANCH   4  25
TORSDOF 1
ENDMDL
MODEL       43
REMARK 921   NORMALIZED FREE ENERGY PREDICTED BY IDOCK:   -4.88 KCAL/MOL
REMARK 922        TOTAL FREE ENERGY PREDICTED BY IDOCK:   -5.19 KCAL/MOL
REMARK 923 INTER-LIGAND FREE ENERGY PREDICTED BY IDOCK:   -5.17 KCAL/MOL
REMARK 924 INTRA-LIGAND FREE ENERGY PREDICTED BY IDOCK:   -0.02 KCAL/MOL
REMARK 927      BINDING AFFINITY PREDICTED BY RF-SCORE:    0.00 PKD
ROOT
HETATM    1  C   UNL     1      -8.370   4.707  68.777  1.00  0.00    -0.085 C  
HETATM    2  C   UNL     1      -9.641   4.078  68.788  1.00  0.00    -0.201 C  
HETATM    3  C   UNL     1      -9.596   5.352  68.030  1.00  0.00    -0.153 C  
HETATM    4  C   UNL     1      -7.730   6.165  67.765  1.00  0.00    -0.098 C  
HETATM    5  C   UNL     1      -8.379   5.292  66.928  1.00  0.00    -0.107 C  
HETATM    6  C   UNL     1      -8.069   9.301  70.641  1.00  0.00    -0.207 C  
HETATM    7  O   UNL     1      -7.279   7.217  66.895  1.00  0.00    -0.083 OA 
HETATM    8  C   UNL     1      -9.407   6.806  66.456  1.00  0.00    -0.197 C  
HETATM    9  C   UNL     1      -7.877   4.393  65.840  1.00  0.00    -0.095 C  
HETATM   10  O   UNL     1     -13.158   9.214  72.591  1.00  0.00    -0.415 OA 
HETATM   11  H   UNL     1      -6.416   7.594  66.773  1.00  0.00     0.000 HD 
HETATM   12  C   UNL     1      -9.492   7.958  67.823  1.00  0.00    -0.165 C  
HETATM   13  C   UNL     1      -9.479   7.475  69.456  1.00  0.00    -0.156 C  
HETATM   14  C   UNL     1      -8.481   6.148  69.940  1.00  0.00    -0.129 C  
HETATM   15  C   UNL     1      -8.823   5.668  71.356  1.00  0.00    -0.141 C  
HETATM   16  C   UNL     1      -8.853   6.822  72.349  1.00  0.00    -0.136 C  
HETATM   17  C   UNL     1      -9.822   7.875  71.872  1.00  0.00    -0.233 C  
HETATM   18  C   UNL     1     -11.012   7.976  72.501  1.00  0.00    -0.430 C  
HETATM   19  C   UNL     1     -11.921   8.957  72.070  1.00  0.00    -0.369 A  
HETATM   20  C   UNL     1     -11.670   9.877  71.081  1.00  0.00    -0.478 A  
HETATM   21  C   UNL     1     -10.481   9.810  70.194  1.00  0.00    -0.338 C  
HETATM   22  C   UNL     1     -12.700  10.822  71.217  1.00  0.00    -0.441 A  
HETATM   23  C   UNL     1      -9.458   8.638  70.548  1.00  0.00    -0.206 C  
HETATM   24  N   UNL     1     -13.643  10.404  72.067  1.00  0.00    -0.259 NA 
ENDROOT
BRANCH   4  25
HETATM   25  C   UNL     1      -6.333   5.533  68.061  1.00  0.00    -0.042 C  
HETATM   26  C   UNL     1      -5.237   5.079  68.252  1.00  0.00    -0.007 C  
ENDBRANCH   4  25
TORSDOF 1
ENDMDL
MODEL       44
REMARK 921   NORMALIZED FREE ENERGY PREDICTED BY IDOCK:   -4.86 KCAL/MOL
REMARK 922        TOTAL FREE ENERGY PREDICTED BY IDOCK:   -5.17 KCAL/MOL
REMARK 923 INTER-LIGAND FREE ENERGY PREDICTED BY IDOCK:   -5.17 KCAL/MOL
REMARK 924 INTRA-LIGAND FREE ENERGY PREDICTED BY IDOCK:   -0.00 KCAL/MOL
REMARK 927      BINDING AFFINITY PREDICTED BY RF-SCORE:    0.00 PKD
ROOT
HETATM    1  C   UNL     1     -10.994   7.400  71.099  1.00  0.00    -0.265 C  
HETATM    2  C   UNL     1     -12.184   7.048  70.414  1.00  0.00    -0.138 C  
HETATM    3  C   UNL     1     -10.943   6.530  69.788  1.00  0.00    -0.396 C  
HETATM    4  C   UNL     1      -9.222   6.790  70.877  1.00  0.00    -0.157 C  
HETATM    5  C   UNL     1     -10.066   5.707  70.907  1.00  0.00    -0.263 C  
HETATM    6  C   UNL     1      -7.587  10.001  68.590  1.00  0.00    -0.088 C  
HETATM    7  O   UNL     1      -7.915   6.212  70.718  1.00  0.00    -0.110 OA 
HETATM    8  C   UNL     1      -9.276   5.284  69.243  1.00  0.00    -0.151 C  
HETATM    9  C   UNL     1     -10.253   4.615  71.915  1.00  0.00    -0.254 C  
HETATM   10  O   UNL     1     -10.864  10.823  64.314  1.00  0.00    -0.221 OA 
HETATM   11  H   UNL     1      -7.119   6.332  71.222  1.00  0.00     0.000 HD 
HETATM   12  C   UNL     1      -8.732   6.772  68.410  1.00  0.00    -0.123 C  
HETATM   13  C   UNL     1      -9.521   8.273  68.565  1.00  0.00    -0.149 C  
HETATM   14  C   UNL     1     -10.179   8.732  70.098  1.00  0.00    -0.207 C  
HETATM   15  C   UNL     1     -11.101   9.951  69.977  1.00  0.00    -0.335 C  
HETATM   16  C   UNL     1     -10.432  11.089  69.218  1.00  0.00    -0.210 C  
HETATM   17  C   UNL     1      -9.982  10.599  67.864  1.00  0.00    -0.189 C  
HETATM   18  C   UNL     1     -10.694  10.978  66.782  1.00  0.00    -0.319 C  
HETATM   19  C   UNL     1     -10.281  10.534  65.515  1.00  0.00    -0.256 A  
HETATM   20  C   UNL     1      -9.158   9.779  65.277  1.00  0.00    -0.259 A  
HETATM   21  C   UNL     1      -8.355   9.156  66.360  1.00  0.00    -0.124 C  
HETATM   22  C   UNL     1      -8.980   9.851  63.885  1.00  0.00    -0.248 A  
HETATM   23  C   UNL     1      -8.842   9.519  67.835  1.00  0.00    -0.119 C  
HETATM   24  N   UNL     1     -10.033  10.410  63.282  1.00  0.00    -0.175 NA 
ENDROOT
BRANCH   4  25
HETATM   25  C   UNL     1      -9.059   7.260  72.356  1.00  0.00    -0.155 C  
HETATM   26  C   UNL     1      -8.907   7.577  73.505  1.00  0.00    -0.258 C  
ENDBRANCH   4  25
TORSDOF 1
ENDMDL
MODEL       45
REMARK 921   NORMALIZED FREE ENERGY PREDICTED BY IDOCK:   -4.86 KCAL/MOL
REMARK 922        TOTAL FREE ENERGY PREDICTED BY IDOCK:   -5.17 KCAL/MOL
REMARK 923 INTER-LIGAND FREE ENERGY PREDICTED BY IDOCK:   -5.14 KCAL/MOL
REMARK 924 INTRA-LIGAND FREE ENERGY PREDICTED BY IDOCK:   -0.02 KCAL/MOL
REMARK 927      BINDING AFFINITY PREDICTED BY RF-SCORE:    0.00 PKD
ROOT
HETATM    1  C   UNL     1      -9.151   9.660  66.976  1.00  0.00    -0.154 C  
HETATM    2  C   UNL     1     -10.042   8.742  66.365  1.00  0.00    -0.313 C  
HETATM    3  C   UNL     1     -10.587   9.410  67.571  1.00  0.00    -0.333 C  
HETATM    4  C   UNL     1      -9.443  10.933  68.338  1.00  0.00    -0.178 C  
HETATM    5  C   UNL     1     -10.446  11.039  67.407  1.00  0.00    -0.255 C  
HETATM    6  C   UNL     1      -7.883   8.823  71.704  1.00  0.00    -0.124 C  
HETATM    7  O   UNL     1      -9.757  11.945  69.310  1.00  0.00    -0.378 OA 
HETATM    8  C   UNL     1     -11.591  10.783  68.888  1.00  0.00    -0.361 C  
HETATM    9  C   UNL     1     -10.778  12.112  66.415  1.00  0.00    -0.292 C  
HETATM   10  O   UNL     1     -10.267   3.924  71.837  1.00  0.00    -0.161 OA 
HETATM   11  H   UNL     1      -9.228  12.649  69.665  1.00  0.00     0.000 HD 
HETATM   12  C   UNL     1     -10.777   9.809  70.150  1.00  0.00    -0.339 C  
HETATM   13  C   UNL     1      -9.632   8.597  69.803  1.00  0.00    -0.171 C  
HETATM   14  C   UNL     1      -8.509   8.837  68.509  1.00  0.00    -0.130 C  
HETATM   15  C   UNL     1      -7.771   7.541  68.152  1.00  0.00    -0.120 C  
HETATM   16  C   UNL     1      -7.172   6.877  69.384  1.00  0.00    -0.089 C  
HETATM   17  C   UNL     1      -8.256   6.633  70.405  1.00  0.00    -0.125 C  
HETATM   18  C   UNL     1      -8.701   5.370  70.571  1.00  0.00    -0.130 C  
HETATM   19  C   UNL     1      -9.706   5.129  71.523  1.00  0.00    -0.166 A  
HETATM   20  C   UNL     1     -10.241   6.083  72.356  1.00  0.00    -0.216 A  
HETATM   21  C   UNL     1      -9.974   7.536  72.203  1.00  0.00    -0.218 C  
HETATM   22  C   UNL     1     -10.946   5.345  73.321  1.00  0.00    -0.307 A  
HETATM   23  C   UNL     1      -8.929   7.897  71.052  1.00  0.00    -0.152 C  
HETATM   24  N   UNL     1     -11.035   4.054  72.985  1.00  0.00    -0.149 NA 
ENDROOT
BRANCH   4  25
HETATM   25  C   UNL     1      -8.191  11.629  67.717  1.00  0.00    -0.141 C  
HETATM   26  C   UNL     1      -7.214  12.180  67.287  1.00  0.00    -0.144 C  
ENDBRANCH   4  25
TORSDOF 1
ENDMDL
MODEL       46
REMARK 921   NORMALIZED FREE ENERGY PREDICTED BY IDOCK:   -4.77 KCAL/MOL
REMARK 922        TOTAL FREE ENERGY PREDICTED BY IDOCK:   -5.07 KCAL/MOL
REMARK 923 INTER-LIGAND FREE ENERGY PREDICTED BY IDOCK:   -5.06 KCAL/MOL
REMARK 924 INTRA-LIGAND FREE ENERGY PREDICTED BY IDOCK:   -0.01 KCAL/MOL
REMARK 927      BINDING AFFINITY PREDICTED BY RF-SCORE:    0.00 PKD
ROOT
HETATM    1  C   UNL     1      -8.783  10.574  68.048  1.00  0.00    -0.128 C  
HETATM    2  C   UNL     1      -7.916  11.047  69.066  1.00  0.00    -0.114 C  
HETATM    3  C   UNL     1      -7.679   9.638  68.667  1.00  0.00    -0.080 C  
HETATM    4  C   UNL     1      -8.728   8.989  67.026  1.00  0.00    -0.116 C  
HETATM    5  C   UNL     1      -7.477   9.554  67.039  1.00  0.00    -0.091 C  
HETATM    6  C   UNL     1     -11.624   6.639  69.103  1.00  0.00    -0.079 C  
HETATM    7  O   UNL     1      -8.572   7.809  66.219  1.00  0.00    -0.134 OA 
HETATM    8  C   UNL     1      -6.929   7.870  67.698  1.00  0.00    -0.074 C  
HETATM    9  C   UNL     1      -6.665  10.206  65.962  1.00  0.00    -0.106 C  
HETATM   10  O   UNL     1     -10.290   6.659  74.387  1.00  0.00    -0.357 OA 
HETATM   11  H   UNL     1      -9.057   7.509  65.460  1.00  0.00     0.000 HD 
HETATM   12  C   UNL     1      -8.260   7.088  68.605  1.00  0.00    -0.122 C  
HETATM   13  C   UNL     1      -9.424   7.956  69.493  1.00  0.00    -0.160 C  
HETATM   14  C   UNL     1     -10.014   9.460  68.875  1.00  0.00    -0.188 C  
HETATM   15  C   UNL     1     -10.810  10.234  69.933  1.00  0.00    -0.355 C  
HETATM   16  C   UNL     1     -11.878   9.364  70.582  1.00  0.00    -0.268 C  
HETATM   17  C   UNL     1     -11.238   8.129  71.165  1.00  0.00    -0.289 C  
HETATM   18  C   UNL     1     -11.094   8.059  72.505  1.00  0.00    -0.440 C  
HETATM   19  C   UNL     1     -10.505   6.911  73.061  1.00  0.00    -0.264 A  
HETATM   20  C   UNL     1     -10.109   5.808  72.344  1.00  0.00    -0.207 A  
HETATM   21  C   UNL     1     -10.058   5.781  70.860  1.00  0.00    -0.256 C  
HETATM   22  C   UNL     1      -9.889   4.821  73.319  1.00  0.00    -0.148 A  
HETATM   23  C   UNL     1     -10.600   7.107  70.157  1.00  0.00    -0.247 C  
HETATM   24  N   UNL     1      -9.920   5.332  74.553  1.00  0.00    -0.213 NA 
ENDROOT
BRANCH   4  25
HETATM   25  C   UNL     1      -9.575   9.819  66.011  1.00  0.00    -0.296 C  
HETATM   26  C   UNL     1     -10.206  10.430  65.191  1.00  0.00    -0.326 C  
ENDBRANCH   4  25
TORSDOF 1
ENDMDL
MODEL       47
REMARK 921   NORMALIZED FREE ENERGY PREDICTED BY IDOCK:   -4.74 KCAL/MOL
REMARK 922        TOTAL FREE ENERGY PREDICTED BY IDOCK:   -5.04 KCAL/MOL
REMARK 923 INTER-LIGAND FREE ENERGY PREDICTED BY IDOCK:   -5.02 KCAL/MOL
REMARK 924 INTRA-LIGAND FREE ENERGY PREDICTED BY IDOCK:   -0.02 KCAL/MOL
REMARK 927      BINDING AFFINITY PREDICTED BY RF-SCORE:    0.00 PKD
ROOT
HETATM    1  C   UNL     1      -9.567  17.706  66.044  1.00  0.00    -0.123 C  
HETATM    2  C   UNL     1     -10.906  17.950  65.646  1.00  0.00     0.058 C  
HETATM    3  C   UNL     1     -10.547  18.523  66.966  1.00  0.00    -0.421 C  
HETATM    4  C   UNL     1      -8.559  18.423  67.469  1.00  0.00    -0.257 C  
HETATM    5  C   UNL     1      -9.196  19.447  66.815  1.00  0.00    -0.387 C  
HETATM    6  C   UNL     1      -8.853  15.237  70.295  1.00  0.00     0.787 C  
HETATM    7  O   UNL     1      -7.821  19.079  68.514  1.00  0.00    -0.314 OA 
HETATM    8  C   UNL     1      -9.892  19.854  68.525  1.00  0.00    -0.463 C  
HETATM    9  C   UNL     1      -8.677  20.565  65.963  1.00  0.00     0.144 C  
HETATM   10  O   UNL     1     -14.134  14.027  70.879  1.00  0.00     0.089 OA 
HETATM   11  H   UNL     1      -6.901  19.033  68.747  1.00  0.00     0.000 HD 
HETATM   12  C   UNL     1     -10.010  18.373  69.523  1.00  0.00     0.212 C  
HETATM   13  C   UNL     1     -10.326  16.830  68.874  1.00  0.00    -0.317 C  
HETATM   14  C   UNL     1      -9.633  16.392  67.352  1.00  0.00    -0.231 C  
HETATM   15  C   UNL     1     -10.262  15.110  66.791  1.00  0.00    -0.265 C  
HETATM   16  C   UNL     1     -10.267  13.989  67.821  1.00  0.00    -0.240 C  
HETATM   17  C   UNL     1     -10.976  14.452  69.070  1.00  0.00    -0.274 C  
HETATM   18  C   UNL     1     -12.219  13.984  69.307  1.00  0.00    -0.319 C  
HETATM   19  C   UNL     1     -12.887  14.403  70.469  1.00  0.00    -0.294 A  
HETATM   20  C   UNL     1     -12.345  15.220  71.432  1.00  0.00    -0.424 A  
HETATM   21  C   UNL     1     -11.057  15.938  71.256  1.00  0.00    -0.197 C  
HETATM   22  C   UNL     1     -13.225  15.104  72.521  1.00  0.00    -0.409 A  
HETATM   23  C   UNL     1     -10.296  15.604  69.894  1.00  0.00    -0.322 C  
HETATM   24  N   UNL     1     -14.342  14.452  72.184  1.00  0.00    -0.530 NA 
ENDROOT
BRANCH   4  25
HETATM   25  C   UNL     1      -7.340  18.025  66.579  1.00  0.00    -0.273 C  
HETATM   26  C   UNL     1      -6.370  17.731  65.933  1.00  0.00    -0.253 C  
ENDBRANCH   4  25
TORSDOF 1
ENDMDL
MODEL       48
REMARK 921   NORMALIZED FREE ENERGY PREDICTED BY IDOCK:   -4.72 KCAL/MOL
REMARK 922        TOTAL FREE ENERGY PREDICTED BY IDOCK:   -5.01 KCAL/MOL
REMARK 923 INTER-LIGAND FREE ENERGY PREDICTED BY IDOCK:   -5.06 KCAL/MOL
REMARK 924 INTRA-LIGAND FREE ENERGY PREDICTED BY IDOCK:    0.04 KCAL/MOL
REMARK 927      BINDING AFFINITY PREDICTED BY RF-SCORE:    0.00 PKD
ROOT
HETATM    1  C   UNL     1     -10.974  11.843  67.337  1.00  0.00    -0.315 C  
HETATM    2  C   UNL     1     -11.521  12.546  68.441  1.00  0.00    -0.355 C  
HETATM    3  C   UNL     1     -10.042  12.613  68.345  1.00  0.00    -0.222 C  
HETATM    4  C   UNL     1      -9.225  11.836  66.630  1.00  0.00    -0.198 C  
HETATM    5  C   UNL     1      -9.612  13.135  66.848  1.00  0.00    -0.248 C  
HETATM    6  C   UNL     1      -7.733   8.207  68.310  1.00  0.00    -0.114 C  
HETATM    7  O   UNL     1      -7.899  11.952  66.086  1.00  0.00    -0.365 OA 
HETATM    8  C   UNL     1      -8.034  13.232  67.884  1.00  0.00    -0.159 C  
HETATM    9  C   UNL     1      -9.925  14.255  65.904  1.00  0.00    -0.340 C  
HETATM   10  O   UNL     1      -8.623   8.383  73.683  1.00  0.00    -0.290 OA 
HETATM   11  H   UNL     1      -7.520  11.592  65.292  1.00  0.00     0.000 HD 
HETATM   12  C   UNL     1      -7.628  11.626  68.562  1.00  0.00    -0.127 C  
HETATM   13  C   UNL     1      -8.801  10.469  68.994  1.00  0.00    -0.174 C  
HETATM   14  C   UNL     1     -10.217  10.292  68.016  1.00  0.00    -0.200 C  
HETATM   15  C   UNL     1     -11.283   9.437  68.714  1.00  0.00     0.112 C  
HETATM   16  C   UNL     1     -10.706   8.123  69.222  1.00  0.00    -0.141 C  
HETATM   17  C   UNL     1      -9.537   8.403  70.134  1.00  0.00    -0.166 C  
HETATM   18  C   UNL     1      -9.716   8.248  71.463  1.00  0.00    -0.251 C  
HETATM   19  C   UNL     1      -8.633   8.499  72.322  1.00  0.00    -0.165 A  
HETATM   20  C   UNL     1      -7.368   8.840  71.909  1.00  0.00    -0.050 A  
HETATM   21  C   UNL     1      -7.041   9.196  70.505  1.00  0.00    -0.088 C  
HETATM   22  C   UNL     1      -6.573   8.676  73.056  1.00  0.00    -0.011 A  
HETATM   23  C   UNL     1      -8.261   9.051  69.487  1.00  0.00    -0.114 C  
HETATM   24  N   UNL     1      -7.318   8.475  74.147  1.00  0.00    -0.345 NA 
ENDROOT
BRANCH   4  25
HETATM   25  C   UNL     1      -9.942  11.378  65.321  1.00  0.00    -0.303 C  
HETATM   26  C   UNL     1     -10.531  11.061  64.323  1.00  0.00    -0.427 C  
ENDBRANCH   4  25
TORSDOF 1
ENDMDL
MODEL       49
REMARK 921   NORMALIZED FREE ENERGY PREDICTED BY IDOCK:   -4.71 KCAL/MOL
REMARK 922        TOTAL FREE ENERGY PREDICTED BY IDOCK:   -5.00 KCAL/MOL
REMARK 923 INTER-LIGAND FREE ENERGY PREDICTED BY IDOCK:   -5.00 KCAL/MOL
REMARK 924 INTRA-LIGAND FREE ENERGY PREDICTED BY IDOCK:   -0.01 KCAL/MOL
REMARK 927      BINDING AFFINITY PREDICTED BY RF-SCORE:    0.00 PKD
ROOT
HETATM    1  C   UNL     1      -7.091   5.230  72.189  1.00  0.00    -0.085 C  
HETATM    2  C   UNL     1      -6.806   6.171  73.211  1.00  0.00    -0.075 C  
HETATM    3  C   UNL     1      -8.125   5.505  73.345  1.00  0.00    -0.114 C  
HETATM    4  C   UNL     1      -8.474   3.954  72.045  1.00  0.00    -0.099 C  
HETATM    5  C   UNL     1      -7.923   3.875  73.300  1.00  0.00    -0.088 C  
HETATM    6  C   UNL     1     -11.142   6.007  69.422  1.00  0.00    -0.445 C  
HETATM    7  O   UNL     1      -9.494   2.941  72.045  1.00  0.00    -0.106 OA 
HETATM    8  C   UNL     1      -9.698   4.143  73.890  1.00  0.00    -0.144 C  
HETATM    9  C   UNL     1      -7.095   2.817  73.962  1.00  0.00    -0.037 C  
HETATM   10  O   UNL     1     -12.051  10.952  71.524  1.00  0.00    -0.225 OA 
HETATM   11  H   UNL     1      -9.656   2.224  71.444  1.00  0.00     0.000 HD 
HETATM   12  C   UNL     1     -10.623   5.091  72.687  1.00  0.00    -0.274 C  
HETATM   13  C   UNL     1      -9.920   6.282  71.693  1.00  0.00    -0.202 C  
HETATM   14  C   UNL     1      -8.329   6.029  71.062  1.00  0.00    -0.124 C  
HETATM   15  C   UNL     1      -7.750   7.313  70.454  1.00  0.00    -0.094 C  
HETATM   16  C   UNL     1      -8.718   7.955  69.470  1.00  0.00    -0.134 C  
HETATM   17  C   UNL     1     -10.038   8.213  70.153  1.00  0.00    -0.194 C  
HETATM   18  C   UNL     1     -10.342   9.484  70.492  1.00  0.00    -0.350 C  
HETATM   19  C   UNL     1     -11.570   9.738  71.123  1.00  0.00    -0.392 A  
HETATM   20  C   UNL     1     -12.532   8.789  71.376  1.00  0.00    -0.348 A  
HETATM   21  C   UNL     1     -12.299   7.332  71.205  1.00  0.00    -0.401 C  
HETATM   22  C   UNL     1     -13.675   9.535  71.710  1.00  0.00    -0.309 A  
HETATM   23  C   UNL     1     -10.869   6.959  70.604  1.00  0.00    -0.280 C  
HETATM   24  N   UNL     1     -13.388  10.829  71.876  1.00  0.00    -0.403 NA 
ENDROOT
BRANCH   4  25
HETATM   25  C   UNL     1      -7.476   3.237  71.082  1.00  0.00    -0.040 C  
HETATM   26  C   UNL     1      -6.740   2.698  70.300  1.00  0.00    -0.033 C  
ENDBRANCH   4  25
TORSDOF 1
ENDMDL
MODEL       50
REMARK 921   NORMALIZED FREE ENERGY PREDICTED BY IDOCK:   -4.66 KCAL/MOL
REMARK 922        TOTAL FREE ENERGY PREDICTED BY IDOCK:   -4.95 KCAL/MOL
REMARK 923 INTER-LIGAND FREE ENERGY PREDICTED BY IDOCK:   -4.96 KCAL/MOL
REMARK 924 INTRA-LIGAND FREE ENERGY PREDICTED BY IDOCK:    0.01 KCAL/MOL
REMARK 927      BINDING AFFINITY PREDICTED BY RF-SCORE:    0.00 PKD
ROOT
HETATM    1  C   UNL     1      -8.996   9.201  69.227  1.00  0.00    -0.145 C  
HETATM    2  C   UNL     1      -8.332   9.480  70.449  1.00  0.00    -0.226 C  
HETATM    3  C   UNL     1      -9.553  10.291  70.218  1.00  0.00     0.235 C  
HETATM    4  C   UNL     1     -10.688   9.747  68.596  1.00  0.00    -0.216 C  
HETATM    5  C   UNL     1     -10.818   9.296  69.886  1.00  0.00    -0.252 C  
HETATM    6  C   UNL     1      -9.547  12.946  66.011  1.00  0.00    -0.172 C  
HETATM    7  O   UNL     1     -12.024  10.120  68.219  1.00  0.00    -0.601 OA 
HETATM    8  C   UNL     1     -11.586  10.994  70.202  1.00  0.00    -0.421 C  
HETATM    9  C   UNL     1     -11.487   8.084  70.458  1.00  0.00    -0.192 C  
HETATM   10  O   UNL     1      -6.358  16.321  68.863  1.00  0.00    -0.128 OA 
HETATM   11  H   UNL     1     -12.550   9.868  67.468  1.00  0.00     0.000 HD 
HETATM   12  C   UNL     1     -10.915  12.206  69.069  1.00  0.00    -0.255 C  
HETATM   13  C   UNL     1      -9.323  12.146  68.468  1.00  0.00    -0.108 C  
HETATM   14  C   UNL     1      -8.619  10.613  68.084  1.00  0.00    -0.123 C  
HETATM   15  C   UNL     1      -7.107  10.726  67.853  1.00  0.00    -0.085 C  
HETATM   16  C   UNL     1      -6.770  11.833  66.864  1.00  0.00    -0.105 C  
HETATM   17  C   UNL     1      -7.355  13.137  67.346  1.00  0.00    -0.119 C  
HETATM   18  C   UNL     1      -6.517  14.055  67.872  1.00  0.00    -0.170 C  
HETATM   19  C   UNL     1      -7.049  15.276  68.319  1.00  0.00    -0.115 A  
HETATM   20  C   UNL     1      -8.368  15.643  68.208  1.00  0.00    -0.154 A  
HETATM   21  C   UNL     1      -9.440  14.702  67.794  1.00  0.00    -0.205 C  
HETATM   22  C   UNL     1      -8.369  17.021  68.480  1.00  0.00    -0.260 A  
HETATM   23  C   UNL     1      -8.922  13.249  67.387  1.00  0.00    -0.215 C  
HETATM   24  N   UNL     1      -7.186  17.431  68.947  1.00  0.00    -0.252 NA 
ENDROOT
BRANCH   4  25
HETATM   25  C   UNL     1     -10.570   8.476  67.697  1.00  0.00    -0.268 C  
HETATM   26  C   UNL     1     -10.442   7.523  66.977  1.00  0.00    -0.409 C  
ENDBRANCH   4  25
TORSDOF 1
ENDMDL
MODEL       51
REMARK 921   NORMALIZED FREE ENERGY PREDICTED BY IDOCK:   -4.61 KCAL/MOL
REMARK 922        TOTAL FREE ENERGY PREDICTED BY IDOCK:   -4.90 KCAL/MOL
REMARK 923 INTER-LIGAND FREE ENERGY PREDICTED BY IDOCK:   -4.88 KCAL/MOL
REMARK 924 INTRA-LIGAND FREE ENERGY PREDICTED BY IDOCK:   -0.02 KCAL/MOL
REMARK 927      BINDING AFFINITY PREDICTED BY RF-SCORE:    0.00 PKD
ROOT
HETATM    1  C   UNL     1      -9.864   4.326  73.268  1.00  0.00    -0.168 C  
HETATM    2  C   UNL     1     -11.281   4.354  73.206  1.00  0.00    -0.364 C  
HETATM    3  C   UNL     1     -10.614   4.224  71.888  1.00  0.00     0.031 C  
HETATM    4  C   UNL     1      -8.585   3.919  71.943  1.00  0.00    -0.099 C  
HETATM    5  C   UNL     1      -9.566   2.960  71.924  1.00  0.00    -0.215 C  
HETATM    6  C   UNL     1      -7.392   7.854  70.796  1.00  0.00    -0.061 C  
HETATM    7  O   UNL     1      -7.669   3.506  70.914  1.00  0.00    -0.046 OA 
HETATM    8  C   UNL     1      -9.723   3.426  70.100  1.00  0.00    -0.125 C  
HETATM    9  C   UNL     1      -9.551   1.510  72.299  1.00  0.00    -0.152 C  
HETATM   10  O   UNL     1     -11.905  10.672  69.615  1.00  0.00    -0.279 OA 
HETATM   11  H   UNL     1      -6.730   3.365  70.939  1.00  0.00     0.000 HD 
HETATM   12  C   UNL     1      -9.255   5.135  69.846  1.00  0.00    -0.173 C  
HETATM   13  C   UNL     1      -9.497   6.354  71.009  1.00  0.00    -0.181 C  
HETATM   14  C   UNL     1      -9.275   5.985  72.684  1.00  0.00    -0.143 C  
HETATM   15  C   UNL     1      -9.824   7.097  73.587  1.00  0.00    -0.342 C  
HETATM   16  C   UNL     1      -9.301   8.466  73.174  1.00  0.00    -0.205 C  
HETATM   17  C   UNL     1      -9.632   8.718  71.724  1.00  0.00    -0.371 C  
HETATM   18  C   UNL     1     -10.630   9.580  71.439  1.00  0.00    -0.307 C  
HETATM   19  C   UNL     1     -10.943   9.827  70.092  1.00  0.00    -0.291 A  
HETATM   20  C   UNL     1     -10.265   9.299  69.020  1.00  0.00    -0.217 A  
HETATM   21  C   UNL     1      -9.247   8.225  69.154  1.00  0.00    -0.151 C  
HETATM   22  C   UNL     1     -10.708  10.054  67.922  1.00  0.00    -0.272 A  
HETATM   23  C   UNL     1      -8.927   7.803  70.659  1.00  0.00    -0.145 C  
HETATM   24  N   UNL     1     -11.745  10.832  68.246  1.00  0.00    -0.494 NA 
ENDROOT
BRANCH   4  25
HETATM   25  C   UNL     1      -7.674   3.592  73.168  1.00  0.00    -0.066 C  
HETATM   26  C   UNL     1      -6.932   3.352  74.081  1.00  0.00    -0.046 C  
ENDBRANCH   4  25
TORSDOF 1
ENDMDL
MODEL       52
REMARK 921   NORMALIZED FREE ENERGY PREDICTED BY IDOCK:   -4.60 KCAL/MOL
REMARK 922        TOTAL FREE ENERGY PREDICTED BY IDOCK:   -4.89 KCAL/MOL
REMARK 923 INTER-LIGAND FREE ENERGY PREDICTED BY IDOCK:   -4.89 KCAL/MOL
REMARK 924 INTRA-LIGAND FREE ENERGY PREDICTED BY IDOCK:   -0.00 KCAL/MOL
REMARK 927      BINDING AFFINITY PREDICTED BY RF-SCORE:    0.00 PKD
ROOT
HETATM    1  C   UNL     1      -7.504   6.604  67.354  1.00  0.00    -0.096 C  
HETATM    2  C   UNL     1      -7.249   6.867  68.724  1.00  0.00    -0.091 C  
HETATM    3  C   UNL     1      -8.686   6.885  68.356  1.00  0.00    -0.124 C  
HETATM    4  C   UNL     1      -9.124   6.257  66.451  1.00  0.00    -0.153 C  
HETATM    5  C   UNL     1      -9.073   5.487  67.586  1.00  0.00    -0.107 C  
HETATM    6  C   UNL     1      -9.893  10.098  64.755  1.00  0.00    -0.382 C  
HETATM    7  O   UNL     1     -10.379   5.906  65.845  1.00  0.00    -0.409 OA 
HETATM    8  C   UNL     1     -10.726   6.308  67.991  1.00  0.00    -0.369 C  
HETATM    9  C   UNL     1      -8.935   4.008  67.783  1.00  0.00    -0.149 C  
HETATM   10  O   UNL     1      -9.613  13.768  68.774  1.00  0.00    -0.160 OA 
HETATM   11  H   UNL     1     -10.582   5.616  64.963  1.00  0.00     0.000 HD 
HETATM   12  C   UNL     1     -10.814   7.938  67.256  1.00  0.00    -0.189 C  
HETATM   13  C   UNL     1      -9.454   8.939  67.033  1.00  0.00    -0.215 C  
HETATM   14  C   UNL     1      -7.944   8.229  66.575  1.00  0.00    -0.100 C  
HETATM   15  C   UNL     1      -6.785   9.223  66.717  1.00  0.00    -0.076 C  
HETATM   16  C   UNL     1      -7.089  10.545  66.026  1.00  0.00    -0.137 C  
HETATM   17  C   UNL     1      -8.376  11.115  66.568  1.00  0.00    -0.166 C  
HETATM   18  C   UNL     1      -8.301  12.163  67.415  1.00  0.00    -0.174 C  
HETATM   19  C   UNL     1      -9.493  12.707  67.923  1.00  0.00    -0.204 A  
HETATM   20  C   UNL     1     -10.755  12.289  67.575  1.00  0.00    -0.255 A  
HETATM   21  C   UNL     1     -11.013  11.062  66.779  1.00  0.00    -0.279 C  
HETATM   22  C   UNL     1     -11.601  13.299  68.061  1.00  0.00    -0.336 A  
HETATM   23  C   UNL     1      -9.696  10.318  66.269  1.00  0.00    -0.263 C  
HETATM   24  N   UNL     1     -10.943  14.156  68.847  1.00  0.00    -0.252 NA 
ENDROOT
BRANCH   4  25
HETATM   25  C   UNL     1      -8.193   5.565  65.407  1.00  0.00    -0.133 C  
HETATM   26  C   UNL     1      -7.480   5.075  64.574  1.00  0.00    -0.068 C  
ENDBRANCH   4  25
TORSDOF 1
ENDMDL
MODEL       53
REMARK 921   NORMALIZED FREE ENERGY PREDICTED BY IDOCK:   -4.57 KCAL/MOL
REMARK 922        TOTAL FREE ENERGY PREDICTED BY IDOCK:   -4.85 KCAL/MOL
REMARK 923 INTER-LIGAND FREE ENERGY PREDICTED BY IDOCK:   -4.86 KCAL/MOL
REMARK 924 INTRA-LIGAND FREE ENERGY PREDICTED BY IDOCK:    0.00 KCAL/MOL
REMARK 927      BINDING AFFINITY PREDICTED BY RF-SCORE:    0.00 PKD
ROOT
HETATM    1  C   UNL     1     -10.411  11.866  68.430  1.00  0.00    -0.216 C  
HETATM    2  C   UNL     1     -11.785  12.178  68.592  1.00  0.00    -0.382 C  
HETATM    3  C   UNL     1     -11.259  12.426  67.228  1.00  0.00    -0.357 C  
HETATM    4  C   UNL     1      -9.354  11.750  66.871  1.00  0.00    -0.192 C  
HETATM    5  C   UNL     1     -10.526  11.067  66.666  1.00  0.00    -0.307 C  
HETATM    6  C   UNL     1      -7.381  15.533  67.001  1.00  0.00    -0.172 C  
HETATM    7  O   UNL     1      -8.631  11.586  65.639  1.00  0.00    -0.383 OA 
HETATM    8  C   UNL     1     -10.702  12.198  65.162  1.00  0.00    -0.333 C  
HETATM    9  C   UNL     1     -10.816   9.606  66.507  1.00  0.00     0.074 C  
HETATM   10  O   UNL     1     -11.206  19.375  67.558  1.00  0.00    -0.325 OA 
HETATM   11  H   UNL     1      -7.749  11.274  65.474  1.00  0.00     0.000 HD 
HETATM   12  C   UNL     1      -9.876  13.760  65.452  1.00  0.00    -0.171 C  
HETATM   13  C   UNL     1      -9.752  14.482  66.989  1.00  0.00    -0.247 C  
HETATM   14  C   UNL     1      -9.502  13.482  68.378  1.00  0.00    -0.185 C  
HETATM   15  C   UNL     1      -9.719  14.260  69.682  1.00  0.00     0.530 C  
HETATM   16  C   UNL     1      -8.929  15.562  69.699  1.00  0.00    -0.158 C  
HETATM   17  C   UNL     1      -9.295  16.391  68.493  1.00  0.00    -0.225 C  
HETATM   18  C   UNL     1     -10.088  17.467  68.677  1.00  0.00    -0.361 C  
HETATM   19  C   UNL     1     -10.431  18.251  67.563  1.00  0.00    -0.411 A  
HETATM   20  C   UNL     1      -9.968  18.042  66.286  1.00  0.00    -0.338 A  
HETATM   21  C   UNL     1      -9.214  16.826  65.885  1.00  0.00    -0.142 C  
HETATM   22  C   UNL     1     -10.303  19.220  65.598  1.00  0.00    -0.164 A  
HETATM   23  C   UNL     1      -8.893  15.823  67.084  1.00  0.00    -0.224 C  
HETATM   24  N   UNL     1     -11.111  20.000  66.323  1.00  0.00     0.037 NA 
ENDROOT
BRANCH   4  25
HETATM   25  C   UNL     1      -8.457  10.828  67.757  1.00  0.00    -0.120 C  
HETATM   26  C   UNL     1      -7.770  10.082  68.400  1.00  0.00    -0.084 C  
ENDBRANCH   4  25
TORSDOF 1
ENDMDL
MODEL       54
REMARK 921   NORMALIZED FREE ENERGY PREDICTED BY IDOCK:   -4.56 KCAL/MOL
REMARK 922        TOTAL FREE ENERGY PREDICTED BY IDOCK:   -4.85 KCAL/MOL
REMARK 923 INTER-LIGAND FREE ENERGY PREDICTED BY IDOCK:   -4.83 KCAL/MOL
REMARK 924 INTRA-LIGAND FREE ENERGY PREDICTED BY IDOCK:   -0.02 KCAL/MOL
REMARK 927      BINDING AFFINITY PREDICTED BY RF-SCORE:    0.00 PKD
ROOT
HETATM    1  C   UNL     1      -8.776   9.868  68.799  1.00  0.00    -0.132 C  
HETATM    2  C   UNL     1      -7.394   9.609  68.980  1.00  0.00    -0.073 C  
HETATM    3  C   UNL     1      -8.128   8.535  68.269  1.00  0.00    -0.119 C  
HETATM    4  C   UNL     1     -10.067   8.972  67.754  1.00  0.00    -0.208 C  
HETATM    5  C   UNL     1      -8.942   9.177  66.994  1.00  0.00    -0.139 C  
HETATM    6  C   UNL     1     -11.990   6.626  70.757  1.00  0.00    -0.412 C  
HETATM    7  O   UNL     1     -10.975   8.303  66.864  1.00  0.00    -0.330 OA 
HETATM    8  C   UNL     1      -9.006   7.306  66.737  1.00  0.00    -0.154 C  
HETATM    9  C   UNL     1      -8.683  10.059  65.812  1.00  0.00    -0.160 C  
HETATM   10  O   UNL     1      -8.121   3.890  73.449  1.00  0.00    -0.086 OA 
HETATM   11  H   UNL     1     -11.873   8.505  66.625  1.00  0.00     0.000 HD 
HETATM   12  C   UNL     1      -9.774   6.505  68.141  1.00  0.00    -0.126 C  
HETATM   13  C   UNL     1      -9.652   7.091  69.735  1.00  0.00    -0.151 C  
HETATM   14  C   UNL     1      -9.680   8.798  70.015  1.00  0.00    -0.182 C  
HETATM   15  C   UNL     1      -9.259   9.143  71.449  1.00  0.00    -0.208 C  
HETATM   16  C   UNL     1     -10.035   8.329  72.475  1.00  0.00    -0.373 C  
HETATM   17  C   UNL     1      -9.864   6.858  72.188  1.00  0.00    -0.159 C  
HETATM   18  C   UNL     1      -9.050   6.142  72.992  1.00  0.00    -0.130 C  
HETATM   19  C   UNL     1      -8.888   4.770  72.739  1.00  0.00    -0.117 A  
HETATM   20  C   UNL     1      -9.547   4.072  71.756  1.00  0.00    -0.223 A  
HETATM   21  C   UNL     1     -10.356   4.728  70.697  1.00  0.00    -0.184 C  
HETATM   22  C   UNL     1      -9.324   2.723  72.080  1.00  0.00    -0.108 A  
HETATM   23  C   UNL     1     -10.484   6.312  70.851  1.00  0.00    -0.274 C  
HETATM   24  N   UNL     1      -8.411   2.594  73.047  1.00  0.00    -0.069 NA 
ENDROOT
BRANCH   4  25
HETATM   25  C   UNL     1     -10.812  10.343  67.813  1.00  0.00    -0.351 C  
HETATM   26  C   UNL     1     -11.427  11.375  67.833  1.00  0.00    -0.361 C  
ENDBRANCH   4  25
TORSDOF 1
ENDMDL
MODEL       55
REMARK 921   NORMALIZED FREE ENERGY PREDICTED BY IDOCK:   -4.55 KCAL/MOL
REMARK 922        TOTAL FREE ENERGY PREDICTED BY IDOCK:   -4.84 KCAL/MOL
REMARK 923 INTER-LIGAND FREE ENERGY PREDICTED BY IDOCK:   -4.88 KCAL/MOL
REMARK 924 INTRA-LIGAND FREE ENERGY PREDICTED BY IDOCK:    0.05 KCAL/MOL
REMARK 927      BINDING AFFINITY PREDICTED BY RF-SCORE:    0.00 PKD
ROOT
HETATM    1  C   UNL     1      -9.236  13.360  67.964  1.00  0.00    -0.209 C  
HETATM    2  C   UNL     1      -8.049  13.632  67.238  1.00  0.00    -0.152 C  
HETATM    3  C   UNL     1      -9.097  12.933  66.455  1.00  0.00    -0.138 C  
HETATM    4  C   UNL     1     -10.922  12.749  67.377  1.00  0.00    -0.253 C  
HETATM    5  C   UNL     1     -10.508  13.769  66.558  1.00  0.00    -0.282 C  
HETATM    6  C   UNL     1     -10.631   8.611  68.383  1.00  0.00    -0.169 C  
HETATM    7  O   UNL     1     -12.207  12.375  66.851  1.00  0.00    -0.527 OA 
HETATM    8  C   UNL     1     -10.773  12.510  65.173  1.00  0.00    -0.323 C  
HETATM    9  C   UNL     1     -11.014  15.166  66.369  1.00  0.00    -0.329 C  
HETATM   10  O   UNL     1      -6.009   6.703  66.216  1.00  0.00    -0.030 OA 
HETATM   11  H   UNL     1     -13.051  12.290  67.277  1.00  0.00     0.000 HD 
HETATM   12  C   UNL     1     -10.525  10.846  65.783  1.00  0.00    -0.275 C  
HETATM   13  C   UNL     1      -9.422  10.457  67.020  1.00  0.00    -0.189 C  
HETATM   14  C   UNL     1      -9.220  11.545  68.349  1.00  0.00    -0.190 C  
HETATM   15  C   UNL     1      -7.989  11.188  69.192  1.00  0.00    -0.046 C  
HETATM   16  C   UNL     1      -7.983   9.717  69.583  1.00  0.00    -0.137 C  
HETATM   17  C   UNL     1      -8.071   8.863  68.342  1.00  0.00    -0.109 C  
HETATM   18  C   UNL     1      -6.954   8.229  67.926  1.00  0.00    -0.078 C  
HETATM   19  C   UNL     1      -7.025   7.426  66.775  1.00  0.00    -0.077 A  
HETATM   20  C   UNL     1      -8.172   7.182  66.059  1.00  0.00    -0.129 A  
HETATM   21  C   UNL     1      -9.444   7.913  66.291  1.00  0.00    -0.220 C  
HETATM   22  C   UNL     1      -7.835   6.106  65.221  1.00  0.00    -0.105 A  
HETATM   23  C   UNL     1      -9.402   8.939  67.512  1.00  0.00    -0.160 C  
HETATM   24  N   UNL     1      -6.523   5.854  65.247  1.00  0.00    -0.041 NA 
ENDROOT
BRANCH   4  25
HETATM   25  C   UNL     1     -11.430  13.421  68.692  1.00  0.00    -0.345 C  
HETATM   26  C   UNL     1     -11.778  13.969  69.703  1.00  0.00    -0.368 C  
ENDBRANCH   4  25
TORSDOF 1
ENDMDL
MODEL       56
REMARK 921   NORMALIZED FREE ENERGY PREDICTED BY IDOCK:   -4.47 KCAL/MOL
REMARK 922        TOTAL FREE ENERGY PREDICTED BY IDOCK:   -4.75 KCAL/MOL
REMARK 923 INTER-LIGAND FREE ENERGY PREDICTED BY IDOCK:   -4.74 KCAL/MOL
REMARK 924 INTRA-LIGAND FREE ENERGY PREDICTED BY IDOCK:   -0.01 KCAL/MOL
REMARK 927      BINDING AFFINITY PREDICTED BY RF-SCORE:    0.00 PKD
ROOT
HETATM    1  C   UNL     1      -9.274  10.353  69.670  1.00  0.00    -0.085 C  
HETATM    2  C   UNL     1      -7.917  10.673  69.406  1.00  0.00    -0.118 C  
HETATM    3  C   UNL     1      -8.751  10.502  68.192  1.00  0.00    -0.130 C  
HETATM    4  C   UNL     1     -10.768  10.296  68.518  1.00  0.00    -0.227 C  
HETATM    5  C   UNL     1     -10.080  11.463  68.298  1.00  0.00    -0.204 C  
HETATM    6  C   UNL     1     -11.026   6.095  67.808  1.00  0.00    -0.400 C  
HETATM    7  O   UNL     1     -11.878  10.365  67.607  1.00  0.00    -0.549 OA 
HETATM    8  C   UNL     1     -10.031  10.873  66.503  1.00  0.00    -0.255 C  
HETATM    9  C   UNL     1     -10.425  12.893  68.578  1.00  0.00    -0.260 C  
HETATM   10  O   UNL     1      -6.115   4.388  66.173  1.00  0.00    -0.029 OA 
HETATM   11  H   UNL     1     -12.811  10.269  67.758  1.00  0.00     0.000 HD 
HETATM   12  C   UNL     1     -10.066   9.085  66.428  1.00  0.00    -0.351 C  
HETATM   13  C   UNL     1      -9.374   8.085  67.620  1.00  0.00    -0.162 C  
HETATM   14  C   UNL     1      -9.478   8.550  69.283  1.00  0.00    -0.158 C  
HETATM   15  C   UNL     1      -8.552   7.705  70.167  1.00  0.00    -0.140 C  
HETATM   16  C   UNL     1      -8.747   6.215  69.921  1.00  0.00    -0.136 C  
HETATM   17  C   UNL     1      -8.543   5.912  68.458  1.00  0.00    -0.110 C  
HETATM   18  C   UNL     1      -7.397   5.302  68.088  1.00  0.00    -0.072 C  
HETATM   19  C   UNL     1      -7.198   5.009  66.728  1.00  0.00    -0.077 A  
HETATM   20  C   UNL     1      -8.117   5.244  65.733  1.00  0.00    -0.112 A  
HETATM   21  C   UNL     1      -9.354   6.038  65.943  1.00  0.00    -0.047 C  
HETATM   22  C   UNL     1      -7.630   4.518  64.634  1.00  0.00    -0.073 A  
HETATM   23  C   UNL     1      -9.586   6.513  67.449  1.00  0.00    -0.142 C  
HETATM   24  N   UNL     1      -6.395   4.059  64.854  1.00  0.00    -0.027 NA 
ENDROOT
BRANCH   4  25
HETATM   25  C   UNL     1     -11.575  10.504  69.838  1.00  0.00    -0.384 C  
HETATM   26  C   UNL     1     -12.212  10.615  70.850  1.00  0.00    -0.497 C  
ENDBRANCH   4  25
TORSDOF 1
ENDMDL
MODEL       57
REMARK 921   NORMALIZED FREE ENERGY PREDICTED BY IDOCK:   -4.47 KCAL/MOL
REMARK 922        TOTAL FREE ENERGY PREDICTED BY IDOCK:   -4.75 KCAL/MOL
REMARK 923 INTER-LIGAND FREE ENERGY PREDICTED BY IDOCK:   -4.79 KCAL/MOL
REMARK 924 INTRA-LIGAND FREE ENERGY PREDICTED BY IDOCK:    0.05 KCAL/MOL
REMARK 927      BINDING AFFINITY PREDICTED BY RF-SCORE:    0.00 PKD
ROOT
HETATM    1  C   UNL     1     -10.324  13.623  68.573  1.00  0.00    -0.244 C  
HETATM    2  C   UNL     1     -11.352  14.537  68.917  1.00  0.00    -0.298 C  
HETATM    3  C   UNL     1     -10.858  14.669  67.525  1.00  0.00    -0.286 C  
HETATM    4  C   UNL     1      -9.560  13.207  66.899  1.00  0.00    -0.248 C  
HETATM    5  C   UNL     1     -10.927  13.208  66.777  1.00  0.00    -0.298 C  
HETATM    6  C   UNL     1      -5.974  15.514  67.098  1.00  0.00     0.300 C  
HETATM    7  O   UNL     1      -9.090  12.871  65.582  1.00  0.00    -0.380 OA 
HETATM    8  C   UNL     1     -10.614  14.462  65.398  1.00  0.00    -0.380 C  
HETATM    9  C   UNL     1     -11.909  12.103  66.537  1.00  0.00    -0.322 C  
HETATM   10  O   UNL     1      -7.363  20.621  68.396  1.00  0.00    -0.071 OA 
HETATM   11  H   UNL     1      -8.489  12.194  65.292  1.00  0.00     0.000 HD 
HETATM   12  C   UNL     1      -9.109  15.379  65.713  1.00  0.00    -0.053 C  
HETATM   13  C   UNL     1      -8.550  15.751  67.278  1.00  0.00    -0.209 C  
HETATM   14  C   UNL     1      -8.741  14.590  68.545  1.00  0.00    -0.177 C  
HETATM   15  C   UNL     1      -8.465  15.205  69.923  1.00  0.00     0.198 C  
HETATM   16  C   UNL     1      -7.136  15.948  69.951  1.00  0.00     0.085 C  
HETATM   17  C   UNL     1      -7.119  16.994  68.865  1.00  0.00    -0.233 C  
HETATM   18  C   UNL     1      -7.265  18.287  69.224  1.00  0.00    -0.091 C  
HETATM   19  C   UNL     1      -7.244  19.272  68.222  1.00  0.00    -0.281 A  
HETATM   20  C   UNL     1      -7.025  19.027  66.888  1.00  0.00    -0.209 A  
HETATM   21  C   UNL     1      -6.996  17.661  66.308  1.00  0.00    -0.326 C  
HETATM   22  C   UNL     1      -6.777  20.296  66.339  1.00  0.00    -0.226 A  
HETATM   23  C   UNL     1      -7.138  16.486  67.378  1.00  0.00    -0.184 C  
HETATM   24  N   UNL     1      -7.048  21.272  67.211  1.00  0.00    -0.536 NA 
ENDROOT
BRANCH   4  25
HETATM   25  C   UNL     1      -9.182  11.864  67.599  1.00  0.00    -0.183 C  
HETATM   26  C   UNL     1      -8.931  10.838  68.172  1.00  0.00    -0.140 C  
ENDBRANCH   4  25
TORSDOF 1
ENDMDL
MODEL       58
REMARK 921   NORMALIZED FREE ENERGY PREDICTED BY IDOCK:   -4.44 KCAL/MOL
REMARK 922        TOTAL FREE ENERGY PREDICTED BY IDOCK:   -4.72 KCAL/MOL
REMARK 923 INTER-LIGAND FREE ENERGY PREDICTED BY IDOCK:   -4.76 KCAL/MOL
REMARK 924 INTRA-LIGAND FREE ENERGY PREDICTED BY IDOCK:    0.03 KCAL/MOL
REMARK 927      BINDING AFFINITY PREDICTED BY RF-SCORE:    0.00 PKD
ROOT
HETATM    1  C   UNL     1      -8.241   9.208  68.132  1.00  0.00    -0.116 C  
HETATM    2  C   UNL     1      -6.937   9.075  68.672  1.00  0.00    -0.063 C  
HETATM    3  C   UNL     1      -7.542   7.800  68.215  1.00  0.00    -0.109 C  
HETATM    4  C   UNL     1      -9.313   7.973  67.191  1.00  0.00    -0.149 C  
HETATM    5  C   UNL     1      -8.048   7.960  66.660  1.00  0.00    -0.107 C  
HETATM    6  C   UNL     1     -11.903   6.668  70.323  1.00  0.00    -0.378 C  
HETATM    7  O   UNL     1     -10.037   7.015  66.400  1.00  0.00    -0.425 OA 
HETATM    8  C   UNL     1      -8.120   6.106  67.022  1.00  0.00    -0.106 C  
HETATM    9  C   UNL     1      -7.516   8.415  65.336  1.00  0.00    -0.085 C  
HETATM   10  O   UNL     1      -8.782   5.109  74.510  1.00  0.00    -0.108 OA 
HETATM   11  H   UNL     1     -10.857   7.095  65.926  1.00  0.00     0.000 HD 
HETATM   12  C   UNL     1      -9.193   5.780  68.417  1.00  0.00    -0.121 C  
HETATM   13  C   UNL     1      -9.388   6.860  69.720  1.00  0.00    -0.146 C  
HETATM   14  C   UNL     1      -9.416   8.562  69.413  1.00  0.00    -0.161 C  
HETATM   15  C   UNL     1      -9.294   9.373  70.709  1.00  0.00    -0.292 C  
HETATM   16  C   UNL     1     -10.295   8.910  71.759  1.00  0.00    -0.426 C  
HETATM   17  C   UNL     1     -10.118   7.434  72.011  1.00  0.00    -0.212 C  
HETATM   18  C   UNL     1      -9.517   7.051  73.157  1.00  0.00    -0.186 C  
HETATM   19  C   UNL     1      -9.352   5.679  73.407  1.00  0.00    -0.134 A  
HETATM   20  C   UNL     1      -9.814   4.673  72.592  1.00  0.00    -0.197 A  
HETATM   21  C   UNL     1     -10.359   4.917  71.232  1.00  0.00    -0.219 C  
HETATM   22  C   UNL     1      -9.709   3.514  73.378  1.00  0.00    -0.109 A  
HETATM   23  C   UNL     1     -10.462   6.458  70.829  1.00  0.00    -0.270 C  
HETATM   24  N   UNL     1      -9.025   3.742  74.503  1.00  0.00    -0.089 NA 
ENDROOT
BRANCH   4  25
HETATM   25  C   UNL     1     -10.007   9.258  66.640  1.00  0.00    -0.333 C  
HETATM   26  C   UNL     1     -10.535  10.270  66.264  1.00  0.00    -0.214 C  
ENDBRANCH   4  25
TORSDOF 1
ENDMDL
MODEL       59
REMARK 921   NORMALIZED FREE ENERGY PREDICTED BY IDOCK:   -4.43 KCAL/MOL
REMARK 922        TOTAL FREE ENERGY PREDICTED BY IDOCK:   -4.71 KCAL/MOL
REMARK 923 INTER-LIGAND FREE ENERGY PREDICTED BY IDOCK:   -4.69 KCAL/MOL
REMARK 924 INTRA-LIGAND FREE ENERGY PREDICTED BY IDOCK:   -0.02 KCAL/MOL
REMARK 927      BINDING AFFINITY PREDICTED BY RF-SCORE:    0.00 PKD
ROOT
HETATM    1  C   UNL     1      -9.741   9.134  70.824  1.00  0.00    -0.337 C  
HETATM    2  C   UNL     1     -10.401   9.952  69.872  1.00  0.00    -0.298 C  
HETATM    3  C   UNL     1     -10.877   8.548  69.905  1.00  0.00    -0.205 C  
HETATM    4  C   UNL     1     -10.140   7.394  71.435  1.00  0.00    -0.186 C  
HETATM    5  C   UNL     1     -11.290   8.144  71.443  1.00  0.00    -0.299 C  
HETATM    6  C   UNL     1      -7.359   5.116  69.134  1.00  0.00    -0.058 C  
HETATM    7  O   UNL     1     -10.556   6.108  71.924  1.00  0.00    -0.208 OA 
HETATM    8  C   UNL     1     -11.978   6.756  70.360  1.00  0.00    -0.343 C  
HETATM    9  C   UNL     1     -12.132   8.667  72.565  1.00  0.00    -0.368 C  
HETATM   10  O   UNL     1      -8.007   6.507  63.905  1.00  0.00    -0.117 OA 
HETATM   11  H   UNL     1     -10.216   5.574  72.632  1.00  0.00     0.000 HD 
HETATM   12  C   UNL     1     -10.665   5.985  69.418  1.00  0.00    -0.403 C  
HETATM   13  C   UNL     1      -9.290   6.826  68.867  1.00  0.00    -0.129 C  
HETATM   14  C   UNL     1      -8.581   8.042  69.872  1.00  0.00    -0.135 C  
HETATM   15  C   UNL     1      -7.560   8.889  69.102  1.00  0.00    -0.080 C  
HETATM   16  C   UNL     1      -6.550   8.020  68.366  1.00  0.00    -0.059 C  
HETATM   17  C   UNL     1      -7.276   7.063  67.453  1.00  0.00    -0.090 C  
HETATM   18  C   UNL     1      -7.260   7.312  66.127  1.00  0.00    -0.074 C  
HETATM   19  C   UNL     1      -7.927   6.425  65.266  1.00  0.00    -0.114 A  
HETATM   20  C   UNL     1      -8.557   5.271  65.665  1.00  0.00    -0.143 A  
HETATM   21  C   UNL     1      -8.796   4.928  67.090  1.00  0.00    -0.106 C  
HETATM   22  C   UNL     1      -8.787   4.570  64.470  1.00  0.00    -0.151 A  
HETATM   23  C   UNL     1      -8.169   5.963  68.132  1.00  0.00    -0.109 C  
HETATM   24  N   UNL     1      -8.532   5.327  63.398  1.00  0.00    -0.121 NA 
ENDROOT
BRANCH   4  25
HETATM   25  C   UNL     1      -9.321   7.833  72.689  1.00  0.00    -0.246 C  
HETATM   26  C   UNL     1      -8.706   8.128  73.678  1.00  0.00    -0.309 C  
ENDBRANCH   4  25
TORSDOF 1
ENDMDL
MODEL       60
REMARK 921   NORMALIZED FREE ENERGY PREDICTED BY IDOCK:   -4.42 KCAL/MOL
REMARK 922        TOTAL FREE ENERGY PREDICTED BY IDOCK:   -4.70 KCAL/MOL
REMARK 923 INTER-LIGAND FREE ENERGY PREDICTED BY IDOCK:   -4.73 KCAL/MOL
REMARK 924 INTRA-LIGAND FREE ENERGY PREDICTED BY IDOCK:    0.03 KCAL/MOL
REMARK 927      BINDING AFFINITY PREDICTED BY RF-SCORE:    0.00 PKD
ROOT
HETATM    1  C   UNL     1      -8.692   4.870  70.381  1.00  0.00    -0.123 C  
HETATM    2  C   UNL     1      -9.997   4.529  69.944  1.00  0.00    -0.273 C  
HETATM    3  C   UNL     1      -9.126   5.097  68.885  1.00  0.00    -0.135 C  
HETATM    4  C   UNL     1      -7.157   5.364  69.401  1.00  0.00    -0.063 C  
HETATM    5  C   UNL     1      -7.718   4.253  68.821  1.00  0.00    -0.066 C  
HETATM    6  C   UNL     1      -7.270   9.603  69.882  1.00  0.00    -0.106 C  
HETATM    7  O   UNL     1      -6.003   5.639  68.588  1.00  0.00    -0.021 OA 
HETATM    8  C   UNL     1      -7.738   5.312  67.256  1.00  0.00    -0.096 C  
HETATM    9  C   UNL     1      -7.251   2.833  68.725  1.00  0.00    -0.048 C  
HETATM   10  O   UNL     1     -12.239  11.302  68.424  1.00  0.00    -0.604 OA 
HETATM   11  H   UNL     1      -5.092   5.762  68.827  1.00  0.00     0.000 HD 
HETATM   12  C   UNL     1      -7.871   7.047  67.675  1.00  0.00    -0.113 C  
HETATM   13  C   UNL     1      -8.713   7.619  69.040  1.00  0.00    -0.136 C  
HETATM   14  C   UNL     1      -8.644   6.720  70.516  1.00  0.00    -0.142 C  
HETATM   15  C   UNL     1      -9.687   7.210  71.528  1.00  0.00    -0.169 C  
HETATM   16  C   UNL     1      -9.625   8.720  71.713  1.00  0.00    -0.371 C  
HETATM   17  C   UNL     1      -9.788   9.400  70.376  1.00  0.00    -0.313 C  
HETATM   18  C   UNL     1     -10.968   9.997  70.104  1.00  0.00    -0.368 C  
HETATM   19  C   UNL     1     -11.129  10.639  68.866  1.00  0.00    -0.261 A  
HETATM   20  C   UNL     1     -10.146  10.763  67.914  1.00  0.00    -0.197 A  
HETATM   21  C   UNL     1      -8.849  10.043  67.988  1.00  0.00    -0.125 C  
HETATM   22  C   UNL     1     -10.647  11.725  67.021  1.00  0.00    -0.232 A  
HETATM   23  C   UNL     1      -8.645   9.188  69.320  1.00  0.00    -0.137 C  
HETATM   24  N   UNL     1     -11.930  12.005  67.268  1.00  0.00    -0.590 NA 
ENDROOT
BRANCH   4  25
HETATM   25  C   UNL     1      -6.398   4.861  70.669  1.00  0.00    -0.026 C  
HETATM   26  C   UNL     1      -5.851   4.495  71.674  1.00  0.00    -0.013 C  
ENDBRANCH   4  25
TORSDOF 1
ENDMDL
MODEL       61
REMARK 921   NORMALIZED FREE ENERGY PREDICTED BY IDOCK:   -4.41 KCAL/MOL
REMARK 922        TOTAL FREE ENERGY PREDICTED BY IDOCK:   -4.68 KCAL/MOL
REMARK 923 INTER-LIGAND FREE ENERGY PREDICTED BY IDOCK:   -4.67 KCAL/MOL
REMARK 924 INTRA-LIGAND FREE ENERGY PREDICTED BY IDOCK:   -0.02 KCAL/MOL
REMARK 927      BINDING AFFINITY PREDICTED BY RF-SCORE:    0.00 PKD
ROOT
HETATM    1  C   UNL     1      -7.625   4.706  71.573  1.00  0.00    -0.082 C  
HETATM    2  C   UNL     1      -6.538   5.398  70.981  1.00  0.00    -0.043 C  
HETATM    3  C   UNL     1      -7.246   6.163  72.035  1.00  0.00    -0.092 C  
HETATM    4  C   UNL     1      -8.655   5.117  73.100  1.00  0.00    -0.110 C  
HETATM    5  C   UNL     1      -7.326   5.262  73.407  1.00  0.00    -0.095 C  
HETATM    6  C   UNL     1     -12.118   6.801  71.258  1.00  0.00    -0.421 C  
HETATM    7  O   UNL     1      -9.336   5.439  74.325  1.00  0.00    -0.127 OA 
HETATM    8  C   UNL     1      -7.831   7.008  73.925  1.00  0.00    -0.123 C  
HETATM    9  C   UNL     1      -6.416   4.480  74.304  1.00  0.00    -0.057 C  
HETATM   10  O   UNL     1     -10.441  10.696  67.834  1.00  0.00    -0.184 OA 
HETATM   11  H   UNL     1      -9.988   4.955  74.817  1.00  0.00     0.000 HD 
HETATM   12  C   UNL     1      -9.248   7.558  72.979  1.00  0.00    -0.233 C  
HETATM   13  C   UNL     1      -9.542   7.081  71.371  1.00  0.00    -0.162 C  
HETATM   14  C   UNL     1      -9.173   5.462  70.885  1.00  0.00    -0.183 C  
HETATM   15  C   UNL     1      -9.213   5.306  69.360  1.00  0.00    -0.152 C  
HETATM   16  C   UNL     1     -10.505   5.855  68.772  1.00  0.00    -0.314 C  
HETATM   17  C   UNL     1     -10.676   7.296  69.184  1.00  0.00    -0.201 C  
HETATM   18  C   UNL     1     -10.450   8.254  68.261  1.00  0.00    -0.211 C  
HETATM   19  C   UNL     1     -10.612   9.599  68.631  1.00  0.00    -0.217 A  
HETATM   20  C   UNL     1     -11.047  10.026  69.863  1.00  0.00    -0.336 A  
HETATM   21  C   UNL     1     -11.195   9.119  71.030  1.00  0.00    -0.380 C  
HETATM   22  C   UNL     1     -11.355  11.383  69.671  1.00  0.00    -0.275 A  
HETATM   23  C   UNL     1     -10.905   7.582  70.712  1.00  0.00    -0.253 C  
HETATM   24  N   UNL     1     -10.929  11.821  68.483  1.00  0.00    -0.212 NA 
ENDROOT
BRANCH   4  25
HETATM   25  C   UNL     1      -8.941   3.582  73.106  1.00  0.00    -0.107 C  
HETATM   26  C   UNL     1      -9.212   2.412  73.114  1.00  0.00    -0.098 C  
ENDBRANCH   4  25
TORSDOF 1
ENDMDL
MODEL       62
REMARK 921   NORMALIZED FREE ENERGY PREDICTED BY IDOCK:   -4.33 KCAL/MOL
REMARK 922        TOTAL FREE ENERGY PREDICTED BY IDOCK:   -4.61 KCAL/MOL
REMARK 923 INTER-LIGAND FREE ENERGY PREDICTED BY IDOCK:   -4.59 KCAL/MOL
REMARK 924 INTRA-LIGAND FREE ENERGY PREDICTED BY IDOCK:   -0.02 KCAL/MOL
REMARK 927      BINDING AFFINITY PREDICTED BY RF-SCORE:    0.00 PKD
ROOT
HETATM    1  C   UNL     1     -10.636  10.658  66.731  1.00  0.00    -0.297 C  
HETATM    2  C   UNL     1     -11.217  10.848  68.011  1.00  0.00    -0.378 C  
HETATM    3  C   UNL     1      -9.739  10.971  67.987  1.00  0.00    -0.181 C  
HETATM    4  C   UNL     1      -8.876  10.963  66.124  1.00  0.00    -0.186 C  
HETATM    5  C   UNL     1      -9.298  12.058  66.836  1.00  0.00    -0.200 C  
HETATM    6  C   UNL     1      -7.327   6.987  66.237  1.00  0.00    -0.076 C  
HETATM    7  O   UNL     1      -7.545  11.307  65.705  1.00  0.00    -0.362 OA 
HETATM    8  C   UNL     1      -7.739  11.753  67.861  1.00  0.00    -0.125 C  
HETATM    9  C   UNL     1      -9.622  13.458  66.416  1.00  0.00    -0.265 C  
HETATM   10  O   UNL     1      -8.306   4.971  71.204  1.00  0.00    -0.110 OA 
HETATM   11  H   UNL     1      -7.146  11.304  64.843  1.00  0.00     0.000 HD 
HETATM   12  C   UNL     1      -7.307  10.017  67.846  1.00  0.00    -0.088 C  
HETATM   13  C   UNL     1      -8.459   8.766  67.747  1.00  0.00    -0.125 C  
HETATM   14  C   UNL     1      -9.854   8.976  66.747  1.00  0.00    -0.300 C  
HETATM   15  C   UNL     1     -10.911   7.897  67.016  1.00  0.00    -0.148 C  
HETATM   16  C   UNL     1     -10.311   6.498  66.967  1.00  0.00    -0.319 C  
HETATM   17  C   UNL     1      -9.164   6.405  67.942  1.00  0.00    -0.113 C  
HETATM   18  C   UNL     1      -9.360   5.725  69.091  1.00  0.00    -0.146 C  
HETATM   19  C   UNL     1      -8.298   5.625  70.005  1.00  0.00    -0.121 A  
HETATM   20  C   UNL     1      -7.034   6.122  69.795  1.00  0.00    -0.070 A  
HETATM   21  C   UNL     1      -6.694   7.019  68.661  1.00  0.00    -0.063 C  
HETATM   22  C   UNL     1      -6.254   5.523  70.797  1.00  0.00    -0.030 A  
HETATM   23  C   UNL     1      -7.894   7.278  67.641  1.00  0.00    -0.113 C  
HETATM   24  N   UNL     1      -7.012   4.888  71.697  1.00  0.00    -0.051 NA 
ENDROOT
BRANCH   4  25
HETATM   25  C   UNL     1      -9.562  11.060  64.724  1.00  0.00    -0.292 C  
HETATM   26  C   UNL     1     -10.043  11.153  63.628  1.00  0.00    -0.432 C  
ENDBRANCH   4  25
TORSDOF 1
ENDMDL
MODEL       63
REMARK 921   NORMALIZED FREE ENERGY PREDICTED BY IDOCK:   -4.33 KCAL/MOL
REMARK 922        TOTAL FREE ENERGY PREDICTED BY IDOCK:   -4.60 KCAL/MOL
REMARK 923 INTER-LIGAND FREE ENERGY PREDICTED BY IDOCK:   -4.58 KCAL/MOL
REMARK 924 INTRA-LIGAND FREE ENERGY PREDICTED BY IDOCK:   -0.02 KCAL/MOL
REMARK 927      BINDING AFFINITY PREDICTED BY RF-SCORE:    0.00 PKD
ROOT
HETATM    1  C   UNL     1      -8.937  10.606  67.147  1.00  0.00    -0.143 C  
HETATM    2  C   UNL     1      -9.835  11.353  67.952  1.00  0.00    -0.188 C  
HETATM    3  C   UNL     1      -8.658  10.820  68.682  1.00  0.00    -0.151 C  
HETATM    4  C   UNL     1      -7.204   9.959  67.517  1.00  0.00    -0.089 C  
HETATM    5  C   UNL     1      -7.281  11.272  67.908  1.00  0.00    -0.086 C  
HETATM    6  C   UNL     1      -8.088   5.884  68.433  1.00  0.00    -0.109 C  
HETATM    7  O   UNL     1      -5.853   9.578  67.831  1.00  0.00    -0.041 OA 
HETATM    8  C   UNL     1      -6.717  10.609  69.585  1.00  0.00    -0.116 C  
HETATM    9  C   UNL     1      -6.638  12.513  67.370  1.00  0.00    -0.152 C  
HETATM   10  O   UNL     1     -12.000   5.854  72.227  1.00  0.00    -0.295 OA 
HETATM   11  H   UNL     1      -5.180   9.179  67.292  1.00  0.00     0.000 HD 
HETATM   12  C   UNL     1      -7.258   8.917  69.805  1.00  0.00    -0.055 C  
HETATM   13  C   UNL     1      -8.702   8.302  69.144  1.00  0.00    -0.143 C  
HETATM   14  C   UNL     1      -9.202   8.820  67.572  1.00  0.00    -0.154 C  
HETATM   15  C   UNL     1     -10.649   8.409  67.274  1.00  0.00    -0.328 C  
HETATM   16  C   UNL     1     -10.881   6.929  67.547  1.00  0.00    -0.363 C  
HETATM   17  C   UNL     1     -10.497   6.611  68.971  1.00  0.00    -0.243 C  
HETATM   18  C   UNL     1     -11.486   6.406  69.866  1.00  0.00    -0.483 C  
HETATM   19  C   UNL     1     -11.142   6.103  71.194  1.00  0.00    -0.298 A  
HETATM   20  C   UNL     1      -9.857   5.938  71.652  1.00  0.00    -0.197 A  
HETATM   21  C   UNL     1      -8.658   6.272  70.842  1.00  0.00    -0.135 C  
HETATM   22  C   UNL     1     -10.013   5.347  72.917  1.00  0.00    -0.169 A  
HETATM   23  C   UNL     1      -8.979   6.745  69.352  1.00  0.00    -0.137 C  
HETATM   24  N   UNL     1     -11.290   5.356  73.311  1.00  0.00    -0.265 NA 
ENDROOT
BRANCH   4  25
HETATM   25  C   UNL     1      -7.055   9.971  65.963  1.00  0.00    -0.111 C  
HETATM   26  C   UNL     1      -6.904   9.943  64.772  1.00  0.00    -0.129 C  
ENDBRANCH   4  25
TORSDOF 1
ENDMDL
MODEL       64
REMARK 921   NORMALIZED FREE ENERGY PREDICTED BY IDOCK:   -4.31 KCAL/MOL
REMARK 922        TOTAL FREE ENERGY PREDICTED BY IDOCK:   -4.58 KCAL/MOL
REMARK 923 INTER-LIGAND FREE ENERGY PREDICTED BY IDOCK:   -4.63 KCAL/MOL
REMARK 924 INTRA-LIGAND FREE ENERGY PREDICTED BY IDOCK:    0.04 KCAL/MOL
REMARK 927      BINDING AFFINITY PREDICTED BY RF-SCORE:    0.00 PKD
ROOT
HETATM    1  C   UNL     1      -8.139   6.859  70.462  1.00  0.00    -0.115 C  
HETATM    2  C   UNL     1      -8.718   7.540  71.562  1.00  0.00    -0.124 C  
HETATM    3  C   UNL     1      -9.680   7.181  70.492  1.00  0.00    -0.176 C  
HETATM    4  C   UNL     1      -8.945   5.971  69.005  1.00  0.00    -0.124 C  
HETATM    5  C   UNL     1      -9.563   5.575  70.164  1.00  0.00    -0.223 C  
HETATM    6  C   UNL     1      -8.567   8.961  65.982  1.00  0.00    -0.162 C  
HETATM    7  O   UNL     1      -9.624   5.232  67.975  1.00  0.00    -0.121 OA 
HETATM    8  C   UNL     1     -11.141   6.148  69.297  1.00  0.00    -0.463 C  
HETATM    9  C   UNL     1      -9.575   4.266  70.892  1.00  0.00    -0.253 C  
HETATM   10  O   UNL     1     -10.626  13.597  67.973  1.00  0.00    -0.239 OA 
HETATM   11  H   UNL     1      -9.284   4.672  67.287  1.00  0.00     0.000 HD 
HETATM   12  C   UNL     1     -10.776   7.458  68.132  1.00  0.00    -0.169 C  
HETATM   13  C   UNL     1      -9.529   8.594  68.362  1.00  0.00    -0.144 C  
HETATM   14  C   UNL     1      -8.037   8.084  69.073  1.00  0.00    -0.123 C  
HETATM   15  C   UNL     1      -7.164   9.279  69.476  1.00  0.00    -0.061 C  
HETATM   16  C   UNL     1      -7.004  10.270  68.331  1.00  0.00    -0.069 C  
HETATM   17  C   UNL     1      -8.364  10.715  67.854  1.00  0.00    -0.120 C  
HETATM   18  C   UNL     1      -8.783  11.953  68.189  1.00  0.00    -0.173 C  
HETATM   19  C   UNL     1     -10.045  12.382  67.745  1.00  0.00    -0.203 A  
HETATM   20  C   UNL     1     -10.879  11.652  66.933  1.00  0.00    -0.322 A  
HETATM   21  C   UNL     1     -10.640  10.225  66.598  1.00  0.00    -0.232 C  
HETATM   22  C   UNL     1     -11.843  12.578  66.503  1.00  0.00    -0.367 A  
HETATM   23  C   UNL     1      -9.276   9.631  67.176  1.00  0.00    -0.156 C  
HETATM   24  N   UNL     1     -11.752  13.731  67.173  1.00  0.00    -0.362 NA 
ENDROOT
BRANCH   4  25
HETATM   25  C   UNL     1      -7.587   5.202  68.946  1.00  0.00    -0.081 C  
HETATM   26  C   UNL     1      -6.541   4.613  68.953  1.00  0.00    -0.045 C  
ENDBRANCH   4  25
TORSDOF 1
ENDMDL
MODEL       65
REMARK 921   NORMALIZED FREE ENERGY PREDICTED BY IDOCK:   -4.29 KCAL/MOL
REMARK 922        TOTAL FREE ENERGY PREDICTED BY IDOCK:   -4.56 KCAL/MOL
REMARK 923 INTER-LIGAND FREE ENERGY PREDICTED BY IDOCK:   -4.54 KCAL/MOL
REMARK 924 INTRA-LIGAND FREE ENERGY PREDICTED BY IDOCK:   -0.02 KCAL/MOL
REMARK 927      BINDING AFFINITY PREDICTED BY RF-SCORE:    0.00 PKD
ROOT
HETATM    1  C   UNL     1      -9.307   9.997  69.117  1.00  0.00    -0.200 C  
HETATM    2  C   UNL     1      -8.342   9.827  70.142  1.00  0.00    -0.201 C  
HETATM    3  C   UNL     1      -7.931   9.292  68.821  1.00  0.00    -0.099 C  
HETATM    4  C   UNL     1      -9.176   9.742  67.252  1.00  0.00    -0.134 C  
HETATM    5  C   UNL     1      -8.091  10.464  67.681  1.00  0.00    -0.107 C  
HETATM    6  C   UNL     1     -11.012   5.907  66.873  1.00  0.00    -0.304 C  
HETATM    7  O   UNL     1      -8.980   9.620  65.833  1.00  0.00    -0.151 OA 
HETATM    8  C   UNL     1      -7.090   9.091  66.852  1.00  0.00    -0.078 C  
HETATM    9  C   UNL     1      -7.686  11.888  67.455  1.00  0.00    -0.158 C  
HETATM   10  O   UNL     1      -8.548   2.539  70.379  1.00  0.00    -0.049 OA 
HETATM   11  H   UNL     1      -9.556   9.828  65.107  1.00  0.00     0.000 HD 
HETATM   12  C   UNL     1      -8.001   7.551  66.869  1.00  0.00    -0.115 C  
HETATM   13  C   UNL     1      -9.081   7.117  68.112  1.00  0.00    -0.133 C  
HETATM   14  C   UNL     1     -10.078   8.334  68.833  1.00  0.00    -0.208 C  
HETATM   15  C   UNL     1     -10.750   7.828  70.116  1.00  0.00    -0.242 C  
HETATM   16  C   UNL     1     -11.452   6.495  69.896  1.00  0.00    -0.467 C  
HETATM   17  C   UNL     1     -10.468   5.489  69.353  1.00  0.00    -0.360 C  
HETATM   18  C   UNL     1     -10.014   4.529  70.187  1.00  0.00    -0.278 C  
HETATM   19  C   UNL     1      -9.102   3.582  69.692  1.00  0.00    -0.135 A  
HETATM   20  C   UNL     1      -8.671   3.516  68.389  1.00  0.00    -0.138 A  
HETATM   21  C   UNL     1      -8.952   4.575  67.387  1.00  0.00    -0.124 C  
HETATM   22  C   UNL     1      -8.047   2.261  68.293  1.00  0.00    -0.057 A  
HETATM   23  C   UNL     1      -9.888   5.754  67.918  1.00  0.00    -0.147 C  
HETATM   24  N   UNL     1      -7.898   1.692  69.493  1.00  0.00    -0.042 NA 
ENDROOT
BRANCH   4  25
HETATM   25  C   UNL     1     -10.376  10.739  67.206  1.00  0.00    -0.262 C  
HETATM   26  C   UNL     1     -11.324  11.474  67.137  1.00  0.00    -0.354 C  
ENDBRANCH   4  25
TORSDOF 1
ENDMDL
MODEL       66
REMARK 921   NORMALIZED FREE ENERGY PREDICTED BY IDOCK:   -4.25 KCAL/MOL
REMARK 922        TOTAL FREE ENERGY PREDICTED BY IDOCK:   -4.52 KCAL/MOL
REMARK 923 INTER-LIGAND FREE ENERGY PREDICTED BY IDOCK:   -4.50 KCAL/MOL
REMARK 924 INTRA-LIGAND FREE ENERGY PREDICTED BY IDOCK:   -0.02 KCAL/MOL
REMARK 927      BINDING AFFINITY PREDICTED BY RF-SCORE:    0.00 PKD
ROOT
HETATM    1  C   UNL     1      -8.981   8.772  65.651  1.00  0.00    -0.248 C  
HETATM    2  C   UNL     1      -9.689   9.928  66.069  1.00  0.00    -0.310 C  
HETATM    3  C   UNL     1      -8.462   9.646  66.852  1.00  0.00    -0.121 C  
HETATM    4  C   UNL     1      -7.267   8.143  66.126  1.00  0.00    -0.066 C  
HETATM    5  C   UNL     1      -7.185   9.481  65.832  1.00  0.00    -0.096 C  
HETATM    6  C   UNL     1      -8.315   5.157  68.991  1.00  0.00    -0.087 C  
HETATM    7  O   UNL     1      -5.918   7.772  66.458  1.00  0.00    -0.039 OA 
HETATM    8  C   UNL     1      -6.430   9.621  67.559  1.00  0.00    -0.069 C  
HETATM    9  C   UNL     1      -6.536  10.216  64.699  1.00  0.00    -0.125 C  
HETATM   10  O   UNL     1     -11.608   7.473  72.664  1.00  0.00    -0.317 OA 
HETATM   11  H   UNL     1      -5.366   7.077  66.122  1.00  0.00     0.000 HD 
HETATM   12  C   UNL     1      -7.059   8.329  68.625  1.00  0.00    -0.072 C  
HETATM   13  C   UNL     1      -8.628   7.682  68.486  1.00  0.00    -0.129 C  
HETATM   14  C   UNL     1      -9.317   7.457  66.915  1.00  0.00    -0.195 C  
HETATM   15  C   UNL     1     -10.819   7.160  66.993  1.00  0.00    -0.382 C  
HETATM   16  C   UNL     1     -11.120   6.034  67.973  1.00  0.00    -0.233 C  
HETATM   17  C   UNL     1     -10.554   6.380  69.329  1.00  0.00    -0.311 C  
HETATM   18  C   UNL     1     -11.411   6.763  70.298  1.00  0.00    -0.414 C  
HETATM   19  C   UNL     1     -10.897   7.081  71.566  1.00  0.00    -0.230 A  
HETATM   20  C   UNL     1      -9.575   6.975  71.924  1.00  0.00    -0.159 A  
HETATM   21  C   UNL     1      -8.488   6.715  70.946  1.00  0.00    -0.133 C  
HETATM   22  C   UNL     1      -9.585   7.082  73.324  1.00  0.00    -0.177 A  
HETATM   23  C   UNL     1      -8.990   6.465  69.452  1.00  0.00    -0.131 C  
HETATM   24  N   UNL     1     -10.785   7.454  73.781  1.00  0.00    -0.302 NA 
ENDROOT
BRANCH   4  25
HETATM   25  C   UNL     1      -7.352   7.397  64.757  1.00  0.00    -0.077 C  
HETATM   26  C   UNL     1      -7.371   6.800  63.715  1.00  0.00    -0.079 C  
ENDBRANCH   4  25
TORSDOF 1
ENDMDL
MODEL       67
REMARK 921   NORMALIZED FREE ENERGY PREDICTED BY IDOCK:   -4.21 KCAL/MOL
REMARK 922        TOTAL FREE ENERGY PREDICTED BY IDOCK:   -4.48 KCAL/MOL
REMARK 923 INTER-LIGAND FREE ENERGY PREDICTED BY IDOCK:   -4.46 KCAL/MOL
REMARK 924 INTRA-LIGAND FREE ENERGY PREDICTED BY IDOCK:   -0.02 KCAL/MOL
REMARK 927      BINDING AFFINITY PREDICTED BY RF-SCORE:    0.00 PKD
ROOT
HETATM    1  C   UNL     1      -8.009  17.841  67.284  1.00  0.00    -0.223 C  
HETATM    2  C   UNL     1      -7.087  17.622  66.228  1.00  0.00    -0.337 C  
HETATM    3  C   UNL     1      -8.489  17.273  65.897  1.00  0.00    -0.003 C  
HETATM    4  C   UNL     1      -9.895  17.812  67.292  1.00  0.00    -0.312 C  
HETATM    5  C   UNL     1      -9.466  18.554  66.220  1.00  0.00    -0.256 C  
HETATM    6  C   UNL     1     -10.594  13.927  68.918  1.00  0.00    -0.228 C  
HETATM    7  O   UNL     1     -11.329  17.868  67.207  1.00  0.00     0.185 OA 
HETATM    8  C   UNL     1     -10.527  17.359  65.211  1.00  0.00     0.124 C  
HETATM    9  C   UNL     1      -9.549  20.019  65.923  1.00  0.00    -0.326 C  
HETATM   10  O   UNL     1      -7.712  10.359  65.974  1.00  0.00    -0.124 OA 
HETATM   11  H   UNL     1     -11.980  18.117  67.853  1.00  0.00     0.000 HD 
HETATM   12  C   UNL     1     -10.626  15.767  66.023  1.00  0.00    -0.334 C  
HETATM   13  C   UNL     1      -9.367  15.119  66.968  1.00  0.00    -0.244 C  
HETATM   14  C   UNL     1      -8.432  16.172  67.973  1.00  0.00    -0.168 C  
HETATM   15  C   UNL     1      -7.172  15.477  68.505  1.00  0.00    -0.119 C  
HETATM   16  C   UNL     1      -7.498  14.132  69.141  1.00  0.00    -0.037 C  
HETATM   17  C   UNL     1      -8.230  13.266  68.146  1.00  0.00    -0.160 C  
HETATM   18  C   UNL     1      -7.554  12.251  67.568  1.00  0.00    -0.155 C  
HETATM   19  C   UNL     1      -8.226  11.433  66.645  1.00  0.00    -0.163 A  
HETATM   20  C   UNL     1      -9.556  11.548  66.320  1.00  0.00    -0.239 A  
HETATM   21  C   UNL     1     -10.400  12.693  66.747  1.00  0.00    -0.246 C  
HETATM   22  C   UNL     1      -9.849  10.358  65.632  1.00  0.00    -0.259 A  
HETATM   23  C   UNL     1      -9.662  13.735  67.704  1.00  0.00    -0.227 C  
HETATM   24  N   UNL     1      -8.740   9.667  65.350  1.00  0.00    -0.148 NA 
ENDROOT
BRANCH   4  25
HETATM   25  C   UNL     1      -9.731  18.722  68.550  1.00  0.00    -0.426 C  
HETATM   26  C   UNL     1      -9.656  19.430  69.518  1.00  0.00    -0.032 C  
ENDBRANCH   4  25
TORSDOF 1
ENDMDL
MODEL       68
REMARK 921   NORMALIZED FREE ENERGY PREDICTED BY IDOCK:   -4.19 KCAL/MOL
REMARK 922        TOTAL FREE ENERGY PREDICTED BY IDOCK:   -4.45 KCAL/MOL
REMARK 923 INTER-LIGAND FREE ENERGY PREDICTED BY IDOCK:   -4.43 KCAL/MOL
REMARK 924 INTRA-LIGAND FREE ENERGY PREDICTED BY IDOCK:   -0.02 KCAL/MOL
REMARK 927      BINDING AFFINITY PREDICTED BY RF-SCORE:    0.00 PKD
ROOT
HETATM    1  C   UNL     1      -7.554  10.298  65.529  1.00  0.00    -0.149 C  
HETATM    2  C   UNL     1      -6.742  10.986  66.467  1.00  0.00    -0.135 C  
HETATM    3  C   UNL     1      -6.663   9.508  66.559  1.00  0.00    -0.075 C  
HETATM    4  C   UNL     1      -7.613   8.471  65.063  1.00  0.00    -0.093 C  
HETATM    5  C   UNL     1      -6.304   8.884  65.081  1.00  0.00    -0.061 C  
HETATM    6  C   UNL     1     -11.010   7.213  67.319  1.00  0.00    -0.333 C  
HETATM    7  O   UNL     1      -7.538   7.085  64.688  1.00  0.00    -0.091 OA 
HETATM    8  C   UNL     1      -6.068   7.457  66.297  1.00  0.00    -0.037 C  
HETATM    9  C   UNL     1      -5.300   9.071  63.986  1.00  0.00    -0.060 C  
HETATM   10  O   UNL     1     -10.252   8.802  72.476  1.00  0.00    -0.251 OA 
HETATM   11  H   UNL     1      -7.978   6.605  63.996  1.00  0.00     0.000 HD 
HETATM   12  C   UNL     1      -7.583   7.143  67.198  1.00  0.00    -0.103 C  
HETATM   13  C   UNL     1      -8.702   8.362  67.600  1.00  0.00    -0.137 C  
HETATM   14  C   UNL     1      -9.009   9.637  66.472  1.00  0.00    -0.171 C  
HETATM   15  C   UNL     1      -9.797  10.785  67.115  1.00  0.00    -0.216 C  
HETATM   16  C   UNL     1     -11.037  10.279  67.838  1.00  0.00    -0.341 C  
HETATM   17  C   UNL     1     -10.640   9.241  68.858  1.00  0.00    -0.222 C  
HETATM   18  C   UNL     1     -10.650   9.593  70.161  1.00  0.00    -0.320 C  
HETATM   19  C   UNL     1     -10.288   8.634  71.121  1.00  0.00    -0.230 A  
HETATM   20  C   UNL     1      -9.977   7.325  70.842  1.00  0.00    -0.186 A  
HETATM   21  C   UNL     1      -9.773   6.816  69.461  1.00  0.00    -0.154 C  
HETATM   22  C   UNL     1     -10.000   6.688  72.094  1.00  0.00    -0.160 A  
HETATM   23  C   UNL     1     -10.049   7.892  68.315  1.00  0.00    -0.225 C  
HETATM   24  N   UNL     1     -10.090   7.570  73.093  1.00  0.00    -0.277 NA 
ENDROOT
BRANCH   4  25
HETATM   25  C   UNL     1      -8.224   9.009  63.731  1.00  0.00    -0.173 C  
HETATM   26  C   UNL     1      -8.715   9.376  62.698  1.00  0.00    -0.234 C  
ENDBRANCH   4  25
TORSDOF 1
ENDMDL
MODEL       69
REMARK 921   NORMALIZED FREE ENERGY PREDICTED BY IDOCK:   -4.17 KCAL/MOL
REMARK 922        TOTAL FREE ENERGY PREDICTED BY IDOCK:   -4.44 KCAL/MOL
REMARK 923 INTER-LIGAND FREE ENERGY PREDICTED BY IDOCK:   -4.46 KCAL/MOL
REMARK 924 INTRA-LIGAND FREE ENERGY PREDICTED BY IDOCK:    0.03 KCAL/MOL
REMARK 927      BINDING AFFINITY PREDICTED BY RF-SCORE:    0.00 PKD
ROOT
HETATM    1  C   UNL     1      -7.505  10.403  66.933  1.00  0.00    -0.107 C  
HETATM    2  C   UNL     1      -6.781  11.607  67.119  1.00  0.00    -0.142 C  
HETATM    3  C   UNL     1      -7.234  10.966  68.377  1.00  0.00    -0.087 C  
HETATM    4  C   UNL     1      -8.057   9.096  68.177  1.00  0.00    -0.104 C  
HETATM    5  C   UNL     1      -6.738   9.400  68.405  1.00  0.00    -0.058 C  
HETATM    6  C   UNL     1     -12.141  10.218  68.708  1.00  0.00     0.470 C  
HETATM    7  O   UNL     1      -8.362   8.095  69.163  1.00  0.00    -0.127 OA 
HETATM    8  C   UNL     1      -7.323   9.771  70.164  1.00  0.00    -0.159 C  
HETATM    9  C   UNL     1      -5.483   8.605  68.216  1.00  0.00    -0.034 C  
HETATM   10  O   UNL     1     -12.253  15.528  69.929  1.00  0.00    -0.355 OA 
HETATM   11  H   UNL     1      -8.743   7.229  69.070  1.00  0.00     0.000 HD 
HETATM   12  C   UNL     1      -9.033  10.301  70.157  1.00  0.00     0.251 C  
HETATM   13  C   UNL     1      -9.737  11.176  68.876  1.00  0.00    -0.163 C  
HETATM   14  C   UNL     1      -9.289  10.802  67.248  1.00  0.00    -0.165 C  
HETATM   15  C   UNL     1      -9.780  11.873  66.266  1.00  0.00    -0.247 C  
HETATM   16  C   UNL     1     -11.261  12.173  66.454  1.00  0.00    -0.380 C  
HETATM   17  C   UNL     1     -11.518  12.575  67.885  1.00  0.00    -0.369 C  
HETATM   18  C   UNL     1     -11.745  13.879  68.149  1.00  0.00    -0.388 C  
HETATM   19  C   UNL     1     -11.991  14.266  69.477  1.00  0.00    -0.336 A  
HETATM   20  C   UNL     1     -12.080  13.400  70.541  1.00  0.00    -0.399 A  
HETATM   21  C   UNL     1     -11.711  11.965  70.452  1.00  0.00    -0.213 C  
HETATM   22  C   UNL     1     -12.641  14.174  71.570  1.00  0.00    -0.354 A  
HETATM   23  C   UNL     1     -11.299  11.479  68.988  1.00  0.00    -0.339 C  
HETATM   24  N   UNL     1     -12.683  15.469  71.246  1.00  0.00    -0.432 NA 
ENDROOT
BRANCH   4  25
HETATM   25  C   UNL     1      -8.082   8.164  66.925  1.00  0.00    -0.104 C  
HETATM   26  C   UNL     1      -8.051   7.437  65.970  1.00  0.00    -0.124 C  
ENDBRANCH   4  25
TORSDOF 1
ENDMDL
MODEL       70
REMARK 921   NORMALIZED FREE ENERGY PREDICTED BY IDOCK:   -4.15 KCAL/MOL
REMARK 922        TOTAL FREE ENERGY PREDICTED BY IDOCK:   -4.42 KCAL/MOL
REMARK 923 INTER-LIGAND FREE ENERGY PREDICTED BY IDOCK:   -4.40 KCAL/MOL
REMARK 924 INTRA-LIGAND FREE ENERGY PREDICTED BY IDOCK:   -0.02 KCAL/MOL
REMARK 927      BINDING AFFINITY PREDICTED BY RF-SCORE:    0.00 PKD
ROOT
HETATM    1  C   UNL     1      -6.448   7.603  69.586  1.00  0.00    -0.031 C  
HETATM    2  C   UNL     1      -5.744   8.817  69.790  1.00  0.00    -0.029 C  
HETATM    3  C   UNL     1      -7.121   8.810  70.341  1.00  0.00    -0.048 C  
HETATM    4  C   UNL     1      -8.086   6.999  70.302  1.00  0.00    -0.119 C  
HETATM    5  C   UNL     1      -7.315   7.504  71.319  1.00  0.00    -0.078 C  
HETATM    6  C   UNL     1     -10.703   7.825  67.033  1.00  0.00    -0.316 C  
HETATM    7  O   UNL     1      -9.289   6.562  70.957  1.00  0.00    -0.160 OA 
HETATM    8  C   UNL     1      -8.813   8.606  71.653  1.00  0.00    -0.292 C  
HETATM    9  C   UNL     1      -6.632   6.844  72.477  1.00  0.00    -0.058 C  
HETATM   10  O   UNL     1      -9.978  13.035  65.609  1.00  0.00    -0.275 OA 
HETATM   11  H   UNL     1      -9.736   5.724  70.940  1.00  0.00     0.000 HD 
HETATM   12  C   UNL     1      -9.728   8.897  70.142  1.00  0.00    -0.199 C  
HETATM   13  C   UNL     1      -8.997   8.981  68.607  1.00  0.00    -0.137 C  
HETATM   14  C   UNL     1      -7.679   7.924  68.236  1.00  0.00    -0.121 C  
HETATM   15  C   UNL     1      -6.962   8.344  66.947  1.00  0.00    -0.074 C  
HETATM   16  C   UNL     1      -7.941   8.548  65.799  1.00  0.00    -0.107 C  
HETATM   17  C   UNL     1      -8.990   9.555  66.202  1.00  0.00    -0.191 C  
HETATM   18  C   UNL     1      -8.913  10.798  65.680  1.00  0.00    -0.205 C  
HETATM   19  C   UNL     1      -9.887  11.743  66.043  1.00  0.00    -0.232 A  
HETATM   20  C   UNL     1     -10.966  11.484  66.854  1.00  0.00    -0.350 A  
HETATM   21  C   UNL     1     -11.117  10.224  67.625  1.00  0.00    -0.319 C  
HETATM   22  C   UNL     1     -11.808  12.594  66.675  1.00  0.00    -0.380 A  
HETATM   23  C   UNL     1      -9.973   9.144  67.356  1.00  0.00    -0.262 C  
HETATM   24  N   UNL     1     -11.201  13.568  65.991  1.00  0.00    -0.294 NA 
ENDROOT
BRANCH   4  25
HETATM   25  C   UNL     1      -7.509   5.585  69.974  1.00  0.00    -0.070 C  
HETATM   26  C   UNL     1      -7.112   4.485  69.702  1.00  0.00    -0.050 C  
ENDBRANCH   4  25
TORSDOF 1
ENDMDL
MODEL       71
REMARK 921   NORMALIZED FREE ENERGY PREDICTED BY IDOCK:   -4.04 KCAL/MOL
REMARK 922        TOTAL FREE ENERGY PREDICTED BY IDOCK:   -4.30 KCAL/MOL
REMARK 923 INTER-LIGAND FREE ENERGY PREDICTED BY IDOCK:   -4.28 KCAL/MOL
REMARK 924 INTRA-LIGAND FREE ENERGY PREDICTED BY IDOCK:   -0.02 KCAL/MOL
REMARK 927      BINDING AFFINITY PREDICTED BY RF-SCORE:    0.00 PKD
ROOT
HETATM    1  C   UNL     1      -9.632   6.907  67.315  1.00  0.00    -0.173 C  
HETATM    2  C   UNL     1     -10.912   6.360  67.044  1.00  0.00    -0.463 C  
HETATM    3  C   UNL     1     -10.820   7.088  68.332  1.00  0.00    -0.191 C  
HETATM    4  C   UNL     1      -9.071   8.116  68.650  1.00  0.00    -0.143 C  
HETATM    5  C   UNL     1     -10.219   8.595  68.070  1.00  0.00    -0.261 C  
HETATM    6  C   UNL     1      -7.326   5.408  71.450  1.00  0.00    -0.080 C  
HETATM    7  O   UNL     1      -8.732   9.111  69.632  1.00  0.00    -0.130 OA 
HETATM    8  C   UNL     1     -10.878   8.621  69.841  1.00  0.00    -0.210 C  
HETATM    9  C   UNL     1     -10.473   9.779  67.189  1.00  0.00    -0.316 C  
HETATM   10  O   UNL     1     -10.999   1.521  72.501  1.00  0.00    -0.153 OA 
HETATM   11  H   UNL     1      -7.923   9.586  69.779  1.00  0.00     0.000 HD 
HETATM   12  C   UNL     1     -10.078   7.359  70.827  1.00  0.00    -0.190 C  
HETATM   13  C   UNL     1      -9.546   5.872  70.191  1.00  0.00    -0.198 C  
HETATM   14  C   UNL     1      -8.855   5.826  68.606  1.00  0.00    -0.110 C  
HETATM   15  C   UNL     1      -8.719   4.388  68.089  1.00  0.00    -0.115 C  
HETATM   16  C   UNL     1      -8.020   3.490  69.101  1.00  0.00    -0.060 C  
HETATM   17  C   UNL     1      -8.760   3.538  70.415  1.00  0.00    -0.127 C  
HETATM   18  C   UNL     1      -9.515   2.474  70.759  1.00  0.00    -0.210 C  
HETATM   19  C   UNL     1     -10.204   2.503  71.983  1.00  0.00    -0.055 A  
HETATM   20  C   UNL     1     -10.124   3.521  72.903  1.00  0.00    -0.224 A  
HETATM   21  C   UNL     1      -9.464   4.821  72.619  1.00  0.00    -0.159 C  
HETATM   22  C   UNL     1     -10.700   2.984  74.066  1.00  0.00    -0.198 A  
HETATM   23  C   UNL     1      -8.761   4.905  71.188  1.00  0.00    -0.143 C  
HETATM   24  N   UNL     1     -11.297   1.814  73.824  1.00  0.00    -0.183 NA 
ENDROOT
BRANCH   4  25
HETATM   25  C   UNL     1      -7.913   8.417  67.647  1.00  0.00    -0.110 C  
HETATM   26  C   UNL     1      -6.990   8.653  66.916  1.00  0.00    -0.077 C  
ENDBRANCH   4  25
TORSDOF 1
ENDMDL
MODEL       72
REMARK 921   NORMALIZED FREE ENERGY PREDICTED BY IDOCK:   -4.01 KCAL/MOL
REMARK 922        TOTAL FREE ENERGY PREDICTED BY IDOCK:   -4.27 KCAL/MOL
REMARK 923 INTER-LIGAND FREE ENERGY PREDICTED BY IDOCK:   -4.31 KCAL/MOL
REMARK 924 INTRA-LIGAND FREE ENERGY PREDICTED BY IDOCK:    0.04 KCAL/MOL
REMARK 927      BINDING AFFINITY PREDICTED BY RF-SCORE:    0.00 PKD
ROOT
HETATM    1  C   UNL     1      -6.406   5.043  69.642  1.00  0.00    -0.030 C  
HETATM    2  C   UNL     1      -6.052   5.534  70.924  1.00  0.00    -0.029 C  
HETATM    3  C   UNL     1      -7.262   4.677  70.912  1.00  0.00    -0.048 C  
HETATM    4  C   UNL     1      -7.665   3.734  69.133  1.00  0.00    -0.052 C  
HETATM    5  C   UNL     1      -6.916   3.249  70.176  1.00  0.00    -0.034 C  
HETATM    6  C   UNL     1     -10.903   6.225  67.896  1.00  0.00    -0.417 C  
HETATM    7  O   UNL     1      -8.572   2.661  68.825  1.00  0.00    -0.064 OA 
HETATM    8  C   UNL     1      -8.591   2.988  71.011  1.00  0.00    -0.110 C  
HETATM    9  C   UNL     1      -5.896   2.155  70.249  1.00  0.00    -0.018 C  
HETATM   10  O   UNL     1     -11.929   9.734  71.937  1.00  0.00    -0.365 OA 
HETATM   11  H   UNL     1      -8.759   2.225  68.002  1.00  0.00     0.000 HD 
HETATM   12  C   UNL     1      -9.783   4.183  70.414  1.00  0.00    -0.271 C  
HETATM   13  C   UNL     1      -9.364   5.762  69.932  1.00  0.00    -0.177 C  
HETATM   14  C   UNL     1      -7.878   6.024  69.086  1.00  0.00    -0.099 C  
HETATM   15  C   UNL     1      -7.529   7.515  69.004  1.00  0.00    -0.096 C  
HETATM   16  C   UNL     1      -8.698   8.339  68.484  1.00  0.00    -0.133 C  
HETATM   17  C   UNL     1      -9.910   8.102  69.350  1.00  0.00    -0.182 C  
HETATM   18  C   UNL     1     -10.275   9.072  70.214  1.00  0.00    -0.235 C  
HETATM   19  C   UNL     1     -11.406   8.866  71.022  1.00  0.00    -0.291 A  
HETATM   20  C   UNL     1     -12.220   7.760  70.961  1.00  0.00    -0.236 A  
HETATM   21  C   UNL     1     -11.880   6.544  70.180  1.00  0.00    -0.331 C  
HETATM   22  C   UNL     1     -13.360   8.130  71.694  1.00  0.00    -0.331 A  
HETATM   23  C   UNL     1     -10.536   6.661  69.328  1.00  0.00    -0.247 C  
HETATM   24  N   UNL     1     -13.174   9.280  72.348  1.00  0.00    -0.442 NA 
ENDROOT
BRANCH   4  25
HETATM   25  C   UNL     1      -6.771   3.617  67.859  1.00  0.00    -0.046 C  
HETATM   26  C   UNL     1      -6.056   3.570  66.895  1.00  0.00    -0.025 C  
ENDBRANCH   4  25
TORSDOF 1
ENDMDL
MODEL       73
REMARK 921   NORMALIZED FREE ENERGY PREDICTED BY IDOCK:   -4.00 KCAL/MOL
REMARK 922        TOTAL FREE ENERGY PREDICTED BY IDOCK:   -4.26 KCAL/MOL
REMARK 923 INTER-LIGAND FREE ENERGY PREDICTED BY IDOCK:   -4.24 KCAL/MOL
REMARK 924 INTRA-LIGAND FREE ENERGY PREDICTED BY IDOCK:   -0.02 KCAL/MOL
REMARK 927      BINDING AFFINITY PREDICTED BY RF-SCORE:    0.00 PKD
ROOT
HETATM    1  C   UNL     1      -6.503   4.803  66.879  1.00  0.00    -0.045 C  
HETATM    2  C   UNL     1      -5.708   4.894  68.050  1.00  0.00    -0.017 C  
HETATM    3  C   UNL     1      -6.959   4.116  68.220  1.00  0.00    -0.051 C  
HETATM    4  C   UNL     1      -8.012   3.736  66.499  1.00  0.00    -0.089 C  
HETATM    5  C   UNL     1      -7.042   2.949  67.067  1.00  0.00    -0.053 C  
HETATM    6  C   UNL     1     -11.134   6.582  67.107  1.00  0.00    -0.434 C  
HETATM    7  O   UNL     1      -9.096   2.828  66.243  1.00  0.00    -0.146 OA 
HETATM    8  C   UNL     1      -8.392   2.514  68.315  1.00  0.00    -0.085 C  
HETATM    9  C   UNL     1      -6.195   1.847  66.507  1.00  0.00    -0.023 C  
HETATM   10  O   UNL     1     -10.402   8.816  72.024  1.00  0.00    -0.324 OA 
HETATM   11  H   UNL     1      -9.583   2.652  65.447  1.00  0.00     0.000 HD 
HETATM   12  C   UNL     1      -9.551   3.868  68.483  1.00  0.00    -0.179 C  
HETATM   13  C   UNL     1      -9.109   5.504  68.317  1.00  0.00    -0.113 C  
HETATM   14  C   UNL     1      -7.940   5.950  67.122  1.00  0.00    -0.102 C  
HETATM   15  C   UNL     1      -7.449   7.389  67.319  1.00  0.00    -0.103 C  
HETATM   16  C   UNL     1      -8.610   8.366  67.453  1.00  0.00    -0.124 C  
HETATM   17  C   UNL     1      -9.511   7.930  68.581  1.00  0.00    -0.149 C  
HETATM   18  C   UNL     1      -9.464   8.623  69.738  1.00  0.00    -0.166 C  
HETATM   19  C   UNL     1     -10.303   8.230  70.794  1.00  0.00    -0.193 A  
HETATM   20  C   UNL     1     -11.228   7.216  70.724  1.00  0.00    -0.309 A  
HETATM   21  C   UNL     1     -11.303   6.264  69.587  1.00  0.00    -0.492 C  
HETATM   22  C   UNL     1     -12.027   7.396  71.865  1.00  0.00    -0.302 A  
HETATM   23  C   UNL     1     -10.288   6.577  68.396  1.00  0.00    -0.220 C  
HETATM   24  N   UNL     1     -11.504   8.304  72.694  1.00  0.00    -0.389 NA 
ENDROOT
BRANCH   4  25
HETATM   25  C   UNL     1      -7.581   3.961  65.015  1.00  0.00    -0.077 C  
HETATM   26  C   UNL     1      -7.295   4.111  63.858  1.00  0.00    -0.051 C  
ENDBRANCH   4  25
TORSDOF 1
ENDMDL
MODEL       74
REMARK 921   NORMALIZED FREE ENERGY PREDICTED BY IDOCK:   -4.00 KCAL/MOL
REMARK 922        TOTAL FREE ENERGY PREDICTED BY IDOCK:   -4.26 KCAL/MOL
REMARK 923 INTER-LIGAND FREE ENERGY PREDICTED BY IDOCK:   -4.25 KCAL/MOL
REMARK 924 INTRA-LIGAND FREE ENERGY PREDICTED BY IDOCK:   -0.01 KCAL/MOL
REMARK 927      BINDING AFFINITY PREDICTED BY RF-SCORE:    0.00 PKD
ROOT
HETATM    1  C   UNL     1      -8.790  10.873  65.766  1.00  0.00    -0.202 C  
HETATM    2  C   UNL     1      -9.591  10.345  64.722  1.00  0.00    -0.352 C  
HETATM    3  C   UNL     1     -10.139  10.126  66.083  1.00  0.00    -0.314 C  
HETATM    4  C   UNL     1      -9.155  11.092  67.604  1.00  0.00    -0.147 C  
HETATM    5  C   UNL     1     -10.222  11.561  66.879  1.00  0.00    -0.249 C  
HETATM    6  C   UNL     1      -7.115   7.700  69.201  1.00  0.00    -0.077 C  
HETATM    7  O   UNL     1      -9.535  11.318  68.972  1.00  0.00    -0.366 OA 
HETATM    8  C   UNL     1     -11.225  10.349  67.927  1.00  0.00    -0.332 C  
HETATM    9  C   UNL     1     -10.756  12.944  66.668  1.00  0.00    -0.280 C  
HETATM   10  O   UNL     1      -8.825   3.304  66.471  1.00  0.00    -0.126 OA 
HETATM   11  H   UNL     1      -9.080  11.765  69.676  1.00  0.00     0.000 HD 
HETATM   12  C   UNL     1     -10.209   8.962  68.425  1.00  0.00    -0.231 C  
HETATM   13  C   UNL     1      -8.941   8.340  67.474  1.00  0.00    -0.141 C  
HETATM   14  C   UNL     1      -7.947   9.430  66.570  1.00  0.00    -0.108 C  
HETATM   15  C   UNL     1      -7.071   8.687  65.554  1.00  0.00    -0.083 C  
HETATM   16  C   UNL     1      -6.310   7.537  66.201  1.00  0.00    -0.042 C  
HETATM   17  C   UNL     1      -7.283   6.605  66.879  1.00  0.00    -0.077 C  
HETATM   18  C   UNL     1      -7.548   5.421  66.287  1.00  0.00    -0.087 C  
HETATM   19  C   UNL     1      -8.448   4.542  66.911  1.00  0.00    -0.105 A  
HETATM   20  C   UNL     1      -9.047   4.766  68.128  1.00  0.00    -0.141 A  
HETATM   21  C   UNL     1      -8.983   6.071  68.834  1.00  0.00    -0.123 C  
HETATM   22  C   UNL     1      -9.585   3.519  68.485  1.00  0.00    -0.081 A  
HETATM   23  C   UNL     1      -8.072   7.167  68.116  1.00  0.00    -0.124 C  
HETATM   24  N   UNL     1      -9.527   2.649  67.473  1.00  0.00    -0.145 NA 
ENDROOT
BRANCH   4  25
HETATM   25  C   UNL     1      -8.049  12.190  67.516  1.00  0.00    -0.163 C  
HETATM   26  C   UNL     1      -7.222  13.060  67.487  1.00  0.00    -0.154 C  
ENDBRANCH   4  25
TORSDOF 1
ENDMDL
MODEL       75
REMARK 921   NORMALIZED FREE ENERGY PREDICTED BY IDOCK:   -3.98 KCAL/MOL
REMARK 922        TOTAL FREE ENERGY PREDICTED BY IDOCK:   -4.23 KCAL/MOL
REMARK 923 INTER-LIGAND FREE ENERGY PREDICTED BY IDOCK:   -4.24 KCAL/MOL
REMARK 924 INTRA-LIGAND FREE ENERGY PREDICTED BY IDOCK:    0.01 KCAL/MOL
REMARK 927      BINDING AFFINITY PREDICTED BY RF-SCORE:    0.00 PKD
ROOT
HETATM    1  C   UNL     1      -9.928   6.970  66.587  1.00  0.00    -0.224 C  
HETATM    2  C   UNL     1      -9.992   8.381  66.712  1.00  0.00    -0.354 C  
HETATM    3  C   UNL     1      -8.654   7.804  66.988  1.00  0.00    -0.129 C  
HETATM    4  C   UNL     1      -8.444   5.805  66.569  1.00  0.00    -0.116 C  
HETATM    5  C   UNL     1      -8.194   6.858  65.726  1.00  0.00    -0.132 C  
HETATM    6  C   UNL     1      -8.547   4.373  70.589  1.00  0.00    -0.110 C  
HETATM    7  O   UNL     1      -7.267   4.986  66.469  1.00  0.00    -0.074 OA 
HETATM    8  C   UNL     1      -6.638   7.083  66.776  1.00  0.00    -0.055 C  
HETATM    9  C   UNL     1      -8.074   6.937  64.235  1.00  0.00    -0.040 C  
HETATM   10  O   UNL     1      -8.714   8.709  73.886  1.00  0.00    -0.199 OA 
HETATM   11  H   UNL     1      -7.170   4.061  66.275  1.00  0.00     0.000 HD 
HETATM   12  C   UNL     1      -6.917   6.496  68.444  1.00  0.00    -0.080 C  
HETATM   13  C   UNL     1      -8.429   6.574  69.223  1.00  0.00    -0.127 C  
HETATM   14  C   UNL     1      -9.870   6.286  68.310  1.00  0.00    -0.134 C  
HETATM   15  C   UNL     1     -11.126   6.692  69.090  1.00  0.00    -0.332 C  
HETATM   16  C   UNL     1     -11.141   6.088  70.488  1.00  0.00    -0.385 C  
HETATM   17  C   UNL     1      -9.882   6.480  71.222  1.00  0.00    -0.197 C  
HETATM   18  C   UNL     1      -9.974   7.422  72.184  1.00  0.00    -0.203 C  
HETATM   19  C   UNL     1      -8.811   7.791  72.879  1.00  0.00    -0.178 A  
HETATM   20  C   UNL     1      -7.575   7.220  72.697  1.00  0.00    -0.090 A  
HETATM   21  C   UNL     1      -7.269   6.284  71.584  1.00  0.00    -0.087 C  
HETATM   22  C   UNL     1      -6.821   7.664  73.796  1.00  0.00    -0.087 A  
HETATM   23  C   UNL     1      -8.525   5.913  70.672  1.00  0.00    -0.129 C  
HETATM   24  N   UNL     1      -7.463   8.616  74.480  1.00  0.00    -0.395 NA 
ENDROOT
BRANCH   4  25
HETATM   25  C   UNL     1      -9.419   4.854  65.806  1.00  0.00    -0.172 C  
HETATM   26  C   UNL     1     -10.142   4.132  65.175  1.00  0.00    -0.219 C  
ENDBRANCH   4  25
TORSDOF 1
ENDMDL
MODEL       76
REMARK 921   NORMALIZED FREE ENERGY PREDICTED BY IDOCK:   -3.96 KCAL/MOL
REMARK 922        TOTAL FREE ENERGY PREDICTED BY IDOCK:   -4.21 KCAL/MOL
REMARK 923 INTER-LIGAND FREE ENERGY PREDICTED BY IDOCK:   -4.21 KCAL/MOL
REMARK 924 INTRA-LIGAND FREE ENERGY PREDICTED BY IDOCK:   -0.01 KCAL/MOL
REMARK 927      BINDING AFFINITY PREDICTED BY RF-SCORE:    0.00 PKD
ROOT
HETATM    1  C   UNL     1     -10.677   6.935  71.199  1.00  0.00    -0.252 C  
HETATM    2  C   UNL     1     -11.847   6.598  70.472  1.00  0.00    -0.430 C  
HETATM    3  C   UNL     1     -10.848   5.505  70.562  1.00  0.00    -0.266 C  
HETATM    4  C   UNL     1      -9.261   5.852  71.817  1.00  0.00    -0.148 C  
HETATM    5  C   UNL     1     -10.453   5.251  72.136  1.00  0.00    -0.278 C  
HETATM    6  C   UNL     1      -6.330   6.638  68.815  1.00  0.00    -0.035 C  
HETATM    7  O   UNL     1      -8.265   4.956  72.340  1.00  0.00    -0.115 OA 
HETATM    8  C   UNL     1      -9.742   3.773  71.197  1.00  0.00    -0.245 C  
HETATM    9  C   UNL     1     -11.130   5.012  73.450  1.00  0.00    -0.404 C  
HETATM   10  O   UNL     1      -8.658   5.774  63.964  1.00  0.00    -0.034 OA 
HETATM   11  H   UNL     1      -7.530   5.116  72.920  1.00  0.00     0.000 HD 
HETATM   12  C   UNL     1      -8.601   4.322  69.933  1.00  0.00    -0.101 C  
HETATM   13  C   UNL     1      -8.767   5.798  69.099  1.00  0.00    -0.113 C  
HETATM   14  C   UNL     1      -9.331   7.194  69.950  1.00  0.00    -0.150 C  
HETATM   15  C   UNL     1      -9.704   8.330  68.990  1.00  0.00    -0.167 C  
HETATM   16  C   UNL     1      -8.587   8.614  67.994  1.00  0.00    -0.137 C  
HETATM   17  C   UNL     1      -8.242   7.350  67.247  1.00  0.00    -0.115 C  
HETATM   18  C   UNL     1      -8.657   7.232  65.968  1.00  0.00    -0.160 C  
HETATM   19  C   UNL     1      -8.337   6.062  65.260  1.00  0.00    -0.148 A  
HETATM   20  C   UNL     1      -7.571   5.033  65.753  1.00  0.00    -0.086 A  
HETATM   21  C   UNL     1      -7.164   4.935  67.178  1.00  0.00    -0.077 C  
HETATM   22  C   UNL     1      -7.258   4.261  64.622  1.00  0.00    -0.070 A  
HETATM   23  C   UNL     1      -7.603   6.179  68.076  1.00  0.00    -0.101 C  
HETATM   24  N   UNL     1      -7.961   4.647  63.552  1.00  0.00    -0.083 NA 
ENDROOT
BRANCH   4  25
HETATM   25  C   UNL     1      -9.060   7.005  72.850  1.00  0.00    -0.157 C  
HETATM   26  C   UNL     1      -8.891   7.855  73.681  1.00  0.00    -0.336 C  
ENDBRANCH   4  25
TORSDOF 1
ENDMDL
MODEL       77
REMARK 921   NORMALIZED FREE ENERGY PREDICTED BY IDOCK:   -3.95 KCAL/MOL
REMARK 922        TOTAL FREE ENERGY PREDICTED BY IDOCK:   -4.20 KCAL/MOL
REMARK 923 INTER-LIGAND FREE ENERGY PREDICTED BY IDOCK:   -4.18 KCAL/MOL
REMARK 924 INTRA-LIGAND FREE ENERGY PREDICTED BY IDOCK:   -0.02 KCAL/MOL
REMARK 927      BINDING AFFINITY PREDICTED BY RF-SCORE:    0.00 PKD
ROOT
HETATM    1  C   UNL     1      -8.257  10.269  67.350  1.00  0.00    -0.114 C  
HETATM    2  C   UNL     1      -7.388   9.400  66.641  1.00  0.00    -0.090 C  
HETATM    3  C   UNL     1      -8.722   8.823  66.936  1.00  0.00    -0.136 C  
HETATM    4  C   UNL     1     -10.100  10.124  67.726  1.00  0.00    -0.180 C  
HETATM    5  C   UNL     1      -9.893   9.843  66.399  1.00  0.00    -0.288 C  
HETATM    6  C   UNL     1      -9.951   8.724  71.756  1.00  0.00    -0.396 C  
HETATM    7  O   UNL     1     -11.522   9.996  67.895  1.00  0.00    -0.595 OA 
HETATM    8  C   UNL     1     -10.784   8.224  66.798  1.00  0.00    -0.072 C  
HETATM    9  C   UNL     1     -10.266  10.583  65.151  1.00  0.00    -0.358 C  
HETATM   10  O   UNL     1      -6.678   4.368  71.874  1.00  0.00    -0.025 OA 
HETATM   11  H   UNL     1     -12.160  10.598  68.260  1.00  0.00     0.000 HD 
HETATM   12  C   UNL     1     -10.529   7.773  68.511  1.00  0.00    -0.202 C  
HETATM   13  C   UNL     1      -9.108   8.140  69.374  1.00  0.00    -0.148 C  
HETATM   14  C   UNL     1      -8.314   9.652  69.098  1.00  0.00    -0.130 C  
HETATM   15  C   UNL     1      -6.913   9.679  69.722  1.00  0.00    -0.078 C  
HETATM   16  C   UNL     1      -6.939   9.243  71.181  1.00  0.00    -0.064 C  
HETATM   17  C   UNL     1      -7.567   7.876  71.290  1.00  0.00    -0.081 C  
HETATM   18  C   UNL     1      -6.758   6.820  71.521  1.00  0.00    -0.061 C  
HETATM   19  C   UNL     1      -7.332   5.543  71.631  1.00  0.00    -0.091 A  
HETATM   20  C   UNL     1      -8.680   5.282  71.579  1.00  0.00    -0.140 A  
HETATM   21  C   UNL     1      -9.688   6.299  71.184  1.00  0.00    -0.194 C  
HETATM   22  C   UNL     1      -8.796   3.962  72.044  1.00  0.00    -0.101 A  
HETATM   23  C   UNL     1      -9.089   7.755  70.922  1.00  0.00    -0.150 C  
HETATM   24  N   UNL     1      -7.602   3.372  72.156  1.00  0.00    -0.056 NA 
ENDROOT
BRANCH   4  25
HETATM   25  C   UNL     1     -10.017  11.677  67.864  1.00  0.00    -0.190 C  
HETATM   26  C   UNL     1      -9.992  12.869  68.006  1.00  0.00    -0.236 C  
ENDBRANCH   4  25
TORSDOF 1
ENDMDL
MODEL       78
REMARK 921   NORMALIZED FREE ENERGY PREDICTED BY IDOCK:   -3.92 KCAL/MOL
REMARK 922        TOTAL FREE ENERGY PREDICTED BY IDOCK:   -4.17 KCAL/MOL
REMARK 923 INTER-LIGAND FREE ENERGY PREDICTED BY IDOCK:   -4.22 KCAL/MOL
REMARK 924 INTRA-LIGAND FREE ENERGY PREDICTED BY IDOCK:    0.04 KCAL/MOL
REMARK 927      BINDING AFFINITY PREDICTED BY RF-SCORE:    0.00 PKD
ROOT
HETATM    1  C   UNL     1     -11.103  13.671  67.564  1.00  0.00    -0.296 C  
HETATM    2  C   UNL     1     -11.275  13.336  68.932  1.00  0.00    -0.322 C  
HETATM    3  C   UNL     1      -9.883  13.688  68.560  1.00  0.00    -0.196 C  
HETATM    4  C   UNL     1      -9.629  14.428  66.662  1.00  0.00    -0.281 C  
HETATM    5  C   UNL     1      -9.868  15.148  67.806  1.00  0.00    -0.223 C  
HETATM    6  C   UNL     1      -7.921  10.928  64.915  1.00  0.00     0.222 C  
HETATM    7  O   UNL     1      -8.507  15.093  66.056  1.00  0.00    -0.313 OA 
HETATM    8  C   UNL     1      -8.058  14.767  68.196  1.00  0.00    -0.134 C  
HETATM    9  C   UNL     1     -10.375  16.540  68.022  1.00  0.00    -0.294 C  
HETATM   10  O   UNL     1      -7.238   7.261  68.888  1.00  0.00    -0.084 OA 
HETATM   11  H   UNL     1      -8.390  15.436  65.178  1.00  0.00     0.000 HD 
HETATM   12  C   UNL     1      -7.564  13.222  67.441  1.00  0.00    -0.137 C  
HETATM   13  C   UNL     1      -8.627  11.912  67.209  1.00  0.00    -0.170 C  
HETATM   14  C   UNL     1     -10.269  12.221  66.763  1.00  0.00    -0.229 C  
HETATM   15  C   UNL     1     -11.138  10.964  66.896  1.00  0.00    -0.236 C  
HETATM   16  C   UNL     1     -10.512   9.770  66.187  1.00  0.00    -0.128 C  
HETATM   17  C   UNL     1      -9.120   9.539  66.719  1.00  0.00    -0.173 C  
HETATM   18  C   UNL     1      -8.922   8.496  67.553  1.00  0.00    -0.142 C  
HETATM   19  C   UNL     1      -7.628   8.267  68.050  1.00  0.00    -0.102 A  
HETATM   20  C   UNL     1      -6.515   8.995  67.704  1.00  0.00    -0.060 A  
HETATM   21  C   UNL     1      -6.582  10.256  66.923  1.00  0.00    -0.076 C  
HETATM   22  C   UNL     1      -5.438   8.227  68.176  1.00  0.00    -0.034 A  
HETATM   23  C   UNL     1      -8.047  10.648  66.426  1.00  0.00    -0.148 C  
HETATM   24  N   UNL     1      -5.853   7.222  68.953  1.00  0.00    -0.019 NA 
ENDROOT
BRANCH   4  25
HETATM   25  C   UNL     1     -10.711  14.874  65.629  1.00  0.00    -0.352 C  
HETATM   26  C   UNL     1     -11.577  15.226  64.875  1.00  0.00    -0.289 C  
ENDBRANCH   4  25
TORSDOF 1
ENDMDL
MODEL       79
REMARK 921   NORMALIZED FREE ENERGY PREDICTED BY IDOCK:   -3.88 KCAL/MOL
REMARK 922        TOTAL FREE ENERGY PREDICTED BY IDOCK:   -4.13 KCAL/MOL
REMARK 923 INTER-LIGAND FREE ENERGY PREDICTED BY IDOCK:   -4.13 KCAL/MOL
REMARK 924 INTRA-LIGAND FREE ENERGY PREDICTED BY IDOCK:    0.00 KCAL/MOL
REMARK 927      BINDING AFFINITY PREDICTED BY RF-SCORE:    0.00 PKD
ROOT
HETATM    1  C   UNL     1      -8.907   7.620  71.471  1.00  0.00    -0.138 C  
HETATM    2  C   UNL     1      -9.059   8.305  72.704  1.00  0.00    -0.327 C  
HETATM    3  C   UNL     1      -9.834   8.889  71.582  1.00  0.00    -0.387 C  
HETATM    4  C   UNL     1      -9.854   7.790  69.848  1.00  0.00    -0.177 C  
HETATM    5  C   UNL     1     -10.753   7.720  70.883  1.00  0.00    -0.229 C  
HETATM    6  C   UNL     1      -7.130  10.204  67.619  1.00  0.00    -0.086 C  
HETATM    7  O   UNL     1     -10.678   7.904  68.674  1.00  0.00    -0.364 OA 
HETATM    8  C   UNL     1     -11.400   9.352  70.181  1.00  0.00    -0.220 C  
HETATM    9  C   UNL     1     -11.739   6.665  71.279  1.00  0.00    -0.386 C  
HETATM   10  O   UNL     1      -5.907  14.557  70.661  1.00  0.00    -0.155 OA 
HETATM   11  H   UNL     1     -10.687   7.395  67.872  1.00  0.00     0.000 HD 
HETATM   12  C   UNL     1     -10.085  10.246  69.359  1.00  0.00    -0.255 C  
HETATM   13  C   UNL     1      -8.456  10.173  69.848  1.00  0.00    -0.106 C  
HETATM   14  C   UNL     1      -7.806   8.672  70.412  1.00  0.00    -0.091 C  
HETATM   15  C   UNL     1      -6.441   8.863  71.084  1.00  0.00    -0.066 C  
HETATM   16  C   UNL     1      -5.489   9.666  70.206  1.00  0.00    -0.041 C  
HETATM   17  C   UNL     1      -6.122  10.989  69.853  1.00  0.00    -0.115 C  
HETATM   18  C   UNL     1      -5.667  12.097  70.474  1.00  0.00    -0.160 C  
HETATM   19  C   UNL     1      -6.244  13.336  70.149  1.00  0.00    -0.050 A  
HETATM   20  C   UNL     1      -7.210  13.523  69.189  1.00  0.00     0.020 A  
HETATM   21  C   UNL     1      -7.921  12.402  68.525  1.00  0.00    -0.110 C  
HETATM   22  C   UNL     1      -7.241  14.914  68.995  1.00  0.00    -0.138 A  
HETATM   23  C   UNL     1      -7.400  10.952  68.940  1.00  0.00    -0.111 C  
HETATM   24  N   UNL     1      -6.521  15.557  69.919  1.00  0.00    -0.165 NA 
ENDROOT
BRANCH   4  25
HETATM   25  C   UNL     1      -9.352   6.332  69.603  1.00  0.00    -0.150 C  
HETATM   26  C   UNL     1      -8.921   5.230  69.397  1.00  0.00    -0.124 C  
ENDBRANCH   4  25
TORSDOF 1
ENDMDL
MODEL       80
REMARK 921   NORMALIZED FREE ENERGY PREDICTED BY IDOCK:   -3.87 KCAL/MOL
REMARK 922        TOTAL FREE ENERGY PREDICTED BY IDOCK:   -4.12 KCAL/MOL
REMARK 923 INTER-LIGAND FREE ENERGY PREDICTED BY IDOCK:   -4.14 KCAL/MOL
REMARK 924 INTRA-LIGAND FREE ENERGY PREDICTED BY IDOCK:    0.02 KCAL/MOL
REMARK 927      BINDING AFFINITY PREDICTED BY RF-SCORE:    0.00 PKD
ROOT
HETATM    1  C   UNL     1      -9.133   4.872  67.132  1.00  0.00    -0.122 C  
HETATM    2  C   UNL     1     -10.476   4.742  66.696  1.00  0.00    -0.216 C  
HETATM    3  C   UNL     1      -9.506   5.020  65.609  1.00  0.00    -0.153 C  
HETATM    4  C   UNL     1      -7.526   4.959  66.147  1.00  0.00    -0.086 C  
HETATM    5  C   UNL     1      -8.286   3.921  65.668  1.00  0.00    -0.105 C  
HETATM    6  C   UNL     1      -6.825   9.169  66.195  1.00  0.00    -0.085 C  
HETATM    7  O   UNL     1      -6.335   4.923  65.342  1.00  0.00    -0.033 OA 
HETATM    8  C   UNL     1      -8.091   4.796  64.004  1.00  0.00    -0.108 C  
HETATM    9  C   UNL     1      -8.099   2.436  65.728  1.00  0.00    -0.085 C  
HETATM   10  O   UNL     1     -11.365  11.622  64.441  1.00  0.00    -0.319 OA 
HETATM   11  H   UNL     1      -5.419   4.895  65.591  1.00  0.00     0.000 HD 
HETATM   12  C   UNL     1      -7.892   6.559  64.241  1.00  0.00    -0.113 C  
HETATM   13  C   UNL     1      -8.616   7.419  65.520  1.00  0.00    -0.093 C  
HETATM   14  C   UNL     1      -8.731   6.682  67.080  1.00  0.00    -0.111 C  
HETATM   15  C   UNL     1      -9.668   7.465  68.009  1.00  0.00    -0.161 C  
HETATM   16  C   UNL     1      -9.318   8.946  68.042  1.00  0.00    -0.153 C  
HETATM   17  C   UNL     1      -9.338   9.502  66.640  1.00  0.00    -0.207 C  
HETATM   18  C   UNL     1     -10.379  10.281  66.278  1.00  0.00    -0.256 C  
HETATM   19  C   UNL     1     -10.406  10.809  64.977  1.00  0.00    -0.287 A  
HETATM   20  C   UNL     1      -9.411  10.644  64.044  1.00  0.00    -0.329 A  
HETATM   21  C   UNL     1      -8.278   9.702  64.224  1.00  0.00    -0.156 C  
HETATM   22  C   UNL     1      -9.712  11.586  63.045  1.00  0.00    -0.359 A  
HETATM   23  C   UNL     1      -8.250   8.967  65.641  1.00  0.00    -0.120 C  
HETATM   24  N   UNL     1     -10.919  12.129  63.229  1.00  0.00    -0.391 NA 
ENDROOT
BRANCH   4  25
HETATM   25  C   UNL     1      -6.885   4.456  67.479  1.00  0.00    -0.052 C  
HETATM   26  C   UNL     1      -6.389   4.021  68.483  1.00  0.00    -0.036 C  
ENDBRANCH   4  25
TORSDOF 1
ENDMDL
MODEL       81
REMARK 921   NORMALIZED FREE ENERGY PREDICTED BY IDOCK:   -3.87 KCAL/MOL
REMARK 922        TOTAL FREE ENERGY PREDICTED BY IDOCK:   -4.12 KCAL/MOL
REMARK 923 INTER-LIGAND FREE ENERGY PREDICTED BY IDOCK:   -4.10 KCAL/MOL
REMARK 924 INTRA-LIGAND FREE ENERGY PREDICTED BY IDOCK:   -0.02 KCAL/MOL
REMARK 927      BINDING AFFINITY PREDICTED BY RF-SCORE:    0.00 PKD
ROOT
HETATM    1  C   UNL     1      -9.613   9.542  64.989  1.00  0.00    -0.218 C  
HETATM    2  C   UNL     1      -9.872  10.509  63.984  1.00  0.00    -0.387 C  
HETATM    3  C   UNL     1      -8.471  10.494  64.471  1.00  0.00    -0.133 C  
HETATM    4  C   UNL     1      -7.983   8.949  65.731  1.00  0.00    -0.101 C  
HETATM    5  C   UNL     1      -7.869   8.969  64.364  1.00  0.00    -0.125 C  
HETATM    6  C   UNL     1      -7.940  11.181  69.370  1.00  0.00     0.103 C  
HETATM    7  O   UNL     1      -6.703   8.475  66.184  1.00  0.00    -0.066 OA 
HETATM    8  C   UNL     1      -6.373  10.076  64.695  1.00  0.00    -0.125 C  
HETATM    9  C   UNL     1      -7.742   7.869  63.356  1.00  0.00    -0.140 C  
HETATM   10  O   UNL     1      -8.743  16.421  68.105  1.00  0.00    -0.184 OA 
HETATM   11  H   UNL     1      -6.477   7.760  66.767  1.00  0.00     0.000 HD 
HETATM   12  C   UNL     1      -6.590  10.984  66.222  1.00  0.00    -0.105 C  
HETATM   13  C   UNL     1      -8.109  11.494  66.801  1.00  0.00    -0.158 C  
HETATM   14  C   UNL     1      -9.484  10.465  66.593  1.00  0.00    -0.199 C  
HETATM   15  C   UNL     1     -10.794  11.204  66.893  1.00  0.00    -0.333 C  
HETATM   16  C   UNL     1     -10.743  11.916  68.238  1.00  0.00    -0.253 C  
HETATM   17  C   UNL     1      -9.560  12.851  68.271  1.00  0.00    -0.212 C  
HETATM   18  C   UNL     1      -9.793  14.176  68.157  1.00  0.00    -0.229 C  
HETATM   19  C   UNL     1      -8.701  15.058  68.192  1.00  0.00    -0.165 A  
HETATM   20  C   UNL     1      -7.395  14.680  68.397  1.00  0.00    -0.115 A  
HETATM   21  C   UNL     1      -6.950  13.264  68.391  1.00  0.00    -0.105 C  
HETATM   22  C   UNL     1      -6.725  15.884  68.669  1.00  0.00    -0.119 A  
HETATM   23  C   UNL     1      -8.131  12.202  68.230  1.00  0.00    -0.166 C  
HETATM   24  N   UNL     1      -7.500  16.945  68.426  1.00  0.00    -0.196 NA 
ENDROOT
BRANCH   4  25
HETATM   25  C   UNL     1      -8.809   7.671  66.084  1.00  0.00    -0.192 C  
HETATM   26  C   UNL     1      -9.402   6.669  66.380  1.00  0.00    -0.175 C  
ENDBRANCH   4  25
TORSDOF 1
ENDMDL
MODEL       82
REMARK 921   NORMALIZED FREE ENERGY PREDICTED BY IDOCK:   -3.86 KCAL/MOL
REMARK 922        TOTAL FREE ENERGY PREDICTED BY IDOCK:   -4.11 KCAL/MOL
REMARK 923 INTER-LIGAND FREE ENERGY PREDICTED BY IDOCK:   -4.10 KCAL/MOL
REMARK 924 INTRA-LIGAND FREE ENERGY PREDICTED BY IDOCK:   -0.01 KCAL/MOL
REMARK 927      BINDING AFFINITY PREDICTED BY RF-SCORE:    0.00 PKD
ROOT
HETATM    1  C   UNL     1     -11.403   7.510  69.985  1.00  0.00    -0.115 C  
HETATM    2  C   UNL     1     -12.132   6.602  70.794  1.00  0.00    -0.364 C  
HETATM    3  C   UNL     1     -10.973   7.229  71.473  1.00  0.00    -0.259 C  
HETATM    4  C   UNL     1     -10.044   8.739  70.437  1.00  0.00    -0.192 C  
HETATM    5  C   UNL     1     -11.074   8.864  71.335  1.00  0.00    -0.376 C  
HETATM    6  C   UNL     1      -6.592   6.545  69.218  1.00  0.00    -0.044 C  
HETATM    7  O   UNL     1      -9.084   9.719  70.866  1.00  0.00    -0.343 OA 
HETATM    8  C   UNL     1      -9.732   8.553  72.629  1.00  0.00    -0.285 C  
HETATM    9  C   UNL     1     -12.065   9.962  71.573  1.00  0.00    -0.496 C  
HETATM   10  O   UNL     1      -6.855   1.622  71.541  1.00  0.00    -0.022 OA 
HETATM   11  H   UNL     1      -8.654  10.417  70.386  1.00  0.00     0.000 HD 
HETATM   12  C   UNL     1      -8.419   7.549  71.943  1.00  0.00    -0.120 C  
HETATM   13  C   UNL     1      -8.675   6.359  70.752  1.00  0.00    -0.140 C  
HETATM   14  C   UNL     1      -9.834   6.648  69.500  1.00  0.00    -0.162 C  
HETATM   15  C   UNL     1     -10.147   5.370  68.712  1.00  0.00    -0.255 C  
HETATM   16  C   UNL     1      -8.877   4.676  68.240  1.00  0.00    -0.122 C  
HETATM   17  C   UNL     1      -7.986   4.392  69.423  1.00  0.00    -0.061 C  
HETATM   18  C   UNL     1      -7.904   3.120  69.868  1.00  0.00    -0.048 C  
HETATM   19  C   UNL     1      -7.072   2.842  70.965  1.00  0.00    -0.033 A  
HETATM   20  C   UNL     1      -6.275   3.765  71.598  1.00  0.00    -0.014 A  
HETATM   21  C   UNL     1      -6.357   5.224  71.334  1.00  0.00    -0.034 C  
HETATM   22  C   UNL     1      -5.413   2.991  72.393  1.00  0.00     0.000 A  
HETATM   23  C   UNL     1      -7.379   5.629  70.177  1.00  0.00    -0.069 C  
HETATM   24  N   UNL     1      -5.793   1.711  72.429  1.00  0.00    -0.008 NA 
ENDROOT
BRANCH   4  25
HETATM   25  C   UNL     1     -10.508   9.465  69.135  1.00  0.00    -0.230 C  
HETATM   26  C   UNL     1     -10.845  10.069  68.153  1.00  0.00    -0.303 C  
ENDBRANCH   4  25
TORSDOF 1
ENDMDL
MODEL       83
REMARK 921   NORMALIZED FREE ENERGY PREDICTED BY IDOCK:   -3.84 KCAL/MOL
REMARK 922        TOTAL FREE ENERGY PREDICTED BY IDOCK:   -4.08 KCAL/MOL
REMARK 923 INTER-LIGAND FREE ENERGY PREDICTED BY IDOCK:   -4.13 KCAL/MOL
REMARK 924 INTRA-LIGAND FREE ENERGY PREDICTED BY IDOCK:    0.05 KCAL/MOL
REMARK 927      BINDING AFFINITY PREDICTED BY RF-SCORE:    0.00 PKD
ROOT
HETATM    1  C   UNL     1      -8.965   6.857  67.486  1.00  0.00    -0.116 C  
HETATM    2  C   UNL     1     -10.089   6.885  66.622  1.00  0.00    -0.211 C  
HETATM    3  C   UNL     1      -8.922   7.657  66.131  1.00  0.00    -0.197 C  
HETATM    4  C   UNL     1      -7.191   7.437  67.213  1.00  0.00    -0.093 C  
HETATM    5  C   UNL     1      -7.589   6.696  66.129  1.00  0.00    -0.086 C  
HETATM    6  C   UNL     1      -7.298  11.202  69.222  1.00  0.00    -0.097 C  
HETATM    7  O   UNL     1      -5.837   7.812  66.905  1.00  0.00    -0.040 OA 
HETATM    8  C   UNL     1      -7.101   8.231  65.140  1.00  0.00    -0.075 C  
HETATM    9  C   UNL     1      -7.163   5.350  65.628  1.00  0.00    -0.068 C  
HETATM   10  O   UNL     1     -11.537  14.006  67.254  1.00  0.00    -0.328 OA 
HETATM   11  H   UNL     1      -5.036   7.710  67.406  1.00  0.00     0.000 HD 
HETATM   12  C   UNL     1      -7.294   9.706  66.135  1.00  0.00    -0.098 C  
HETATM   13  C   UNL     1      -8.488   9.874  67.338  1.00  0.00    -0.118 C  
HETATM   14  C   UNL     1      -8.897   8.511  68.322  1.00  0.00    -0.142 C  
HETATM   15  C   UNL     1     -10.179   8.758  69.126  1.00  0.00    -0.215 C  
HETATM   16  C   UNL     1     -10.124  10.080  69.881  1.00  0.00    -0.289 C  
HETATM   17  C   UNL     1      -9.853  11.204  68.913  1.00  0.00    -0.176 C  
HETATM   18  C   UNL     1     -10.876  12.022  68.585  1.00  0.00    -0.273 C  
HETATM   19  C   UNL     1     -10.635  13.076  67.689  1.00  0.00    -0.224 A  
HETATM   20  C   UNL     1      -9.407  13.385  67.154  1.00  0.00    -0.240 A  
HETATM   21  C   UNL     1      -8.218  12.506  67.291  1.00  0.00    -0.184 C  
HETATM   22  C   UNL     1      -9.584  14.662  66.596  1.00  0.00    -0.278 A  
HETATM   23  C   UNL     1      -8.453  11.216  68.200  1.00  0.00    -0.138 C  
HETATM   24  N   UNL     1     -10.871  15.020  66.581  1.00  0.00    -0.314 NA 
ENDROOT
BRANCH   4  25
HETATM   25  C   UNL     1      -6.865   6.415  68.347  1.00  0.00    -0.071 C  
HETATM   26  C   UNL     1      -6.661   5.604  69.210  1.00  0.00    -0.060 C  
ENDBRANCH   4  25
TORSDOF 1
ENDMDL
MODEL       84
REMARK 921   NORMALIZED FREE ENERGY PREDICTED BY IDOCK:   -3.74 KCAL/MOL
REMARK 922        TOTAL FREE ENERGY PREDICTED BY IDOCK:   -3.98 KCAL/MOL
REMARK 923 INTER-LIGAND FREE ENERGY PREDICTED BY IDOCK:   -3.96 KCAL/MOL
REMARK 924 INTRA-LIGAND FREE ENERGY PREDICTED BY IDOCK:   -0.02 KCAL/MOL
REMARK 927      BINDING AFFINITY PREDICTED BY RF-SCORE:    0.00 PKD
ROOT
HETATM    1  C   UNL     1      -6.698   7.408  66.778  1.00  0.00    -0.064 C  
HETATM    2  C   UNL     1      -5.751   6.687  67.549  1.00  0.00    -0.013 C  
HETATM    3  C   UNL     1      -7.079   6.035  67.449  1.00  0.00    -0.074 C  
HETATM    4  C   UNL     1      -8.399   6.903  66.137  1.00  0.00    -0.130 C  
HETATM    5  C   UNL     1      -7.505   5.897  65.868  1.00  0.00    -0.085 C  
HETATM    6  C   UNL     1     -10.902   8.800  69.028  1.00  0.00    -0.052 C  
HETATM    7  O   UNL     1      -9.643   6.420  65.600  1.00  0.00    -0.373 OA 
HETATM    8  C   UNL     1      -8.731   4.812  66.812  1.00  0.00    -0.107 C  
HETATM    9  C   UNL     1      -6.934   5.387  64.580  1.00  0.00    -0.049 C  
HETATM   10  O   UNL     1      -9.165   7.286  73.967  1.00  0.00    -0.221 OA 
HETATM   11  H   UNL     1     -10.254   6.822  64.994  1.00  0.00     0.000 HD 
HETATM   12  C   UNL     1      -9.618   5.780  68.029  1.00  0.00    -0.131 C  
HETATM   13  C   UNL     1      -8.939   7.115  68.839  1.00  0.00    -0.129 C  
HETATM   14  C   UNL     1      -7.882   8.181  67.979  1.00  0.00    -0.122 C  
HETATM   15  C   UNL     1      -7.139   9.129  68.928  1.00  0.00    -0.068 C  
HETATM   16  C   UNL     1      -8.095   9.832  69.882  1.00  0.00    -0.192 C  
HETATM   17  C   UNL     1      -8.898   8.806  70.642  1.00  0.00    -0.212 C  
HETATM   18  C   UNL     1      -8.584   8.582  71.936  1.00  0.00    -0.254 C  
HETATM   19  C   UNL     1      -9.328   7.633  72.656  1.00  0.00    -0.172 A  
HETATM   20  C   UNL     1     -10.408   6.944  72.159  1.00  0.00    -0.221 A  
HETATM   21  C   UNL     1     -10.790   6.959  70.724  1.00  0.00    -0.279 C  
HETATM   22  C   UNL     1     -11.008   6.374  73.294  1.00  0.00    -0.190 A  
HETATM   23  C   UNL     1      -9.904   7.927  69.816  1.00  0.00    -0.179 C  
HETATM   24  N   UNL     1     -10.237   6.507  74.378  1.00  0.00    -0.354 NA 
ENDROOT
BRANCH   4  25
HETATM   25  C   UNL     1      -8.139   8.018  65.076  1.00  0.00    -0.145 C  
HETATM   26  C   UNL     1      -7.990   8.875  64.248  1.00  0.00    -0.146 C  
ENDBRANCH   4  25
TORSDOF 1
ENDMDL
MODEL       85
REMARK 921   NORMALIZED FREE ENERGY PREDICTED BY IDOCK:   -3.71 KCAL/MOL
REMARK 922        TOTAL FREE ENERGY PREDICTED BY IDOCK:   -3.95 KCAL/MOL
REMARK 923 INTER-LIGAND FREE ENERGY PREDICTED BY IDOCK:   -3.98 KCAL/MOL
REMARK 924 INTRA-LIGAND FREE ENERGY PREDICTED BY IDOCK:    0.03 KCAL/MOL
REMARK 927      BINDING AFFINITY PREDICTED BY RF-SCORE:    0.00 PKD
ROOT
HETATM    1  C   UNL     1      -9.482   8.728  68.612  1.00  0.00    -0.143 C  
HETATM    2  C   UNL     1     -10.484   9.099  67.681  1.00  0.00    -0.323 C  
HETATM    3  C   UNL     1     -10.721   7.795  68.345  1.00  0.00    -0.088 C  
HETATM    4  C   UNL     1      -9.443   7.334  69.884  1.00  0.00    -0.157 C  
HETATM    5  C   UNL     1     -10.647   7.987  69.975  1.00  0.00    -0.242 C  
HETATM    6  C   UNL     1      -7.067   4.464  67.802  1.00  0.00    -0.064 C  
HETATM    7  O   UNL     1      -9.519   6.313  70.894  1.00  0.00    -0.170 OA 
HETATM    8  C   UNL     1     -11.384   6.267  69.707  1.00  0.00    -0.506 C  
HETATM    9  C   UNL     1     -11.229   8.863  71.041  1.00  0.00    -0.342 C  
HETATM   10  O   UNL     1      -9.277   3.749  62.872  1.00  0.00    -0.098 OA 
HETATM   11  H   UNL     1      -8.928   6.100  71.606  1.00  0.00     0.000 HD 
HETATM   12  C   UNL     1     -10.270   5.249  68.746  1.00  0.00    -0.231 C  
HETATM   13  C   UNL     1      -9.230   5.871  67.549  1.00  0.00    -0.108 C  
HETATM   14  C   UNL     1      -8.468   7.403  67.801  1.00  0.00    -0.118 C  
HETATM   15  C   UNL     1      -7.825   7.934  66.514  1.00  0.00    -0.098 C  
HETATM   16  C   UNL     1      -6.929   6.890  65.861  1.00  0.00    -0.064 C  
HETATM   17  C   UNL     1      -7.722   5.632  65.605  1.00  0.00    -0.089 C  
HETATM   18  C   UNL     1      -8.095   5.362  64.336  1.00  0.00    -0.123 C  
HETATM   19  C   UNL     1      -8.828   4.191  64.084  1.00  0.00    -0.133 A  
HETATM   20  C   UNL     1      -9.152   3.250  65.032  1.00  0.00    -0.143 A  
HETATM   21  C   UNL     1      -8.950   3.463  66.488  1.00  0.00    -0.158 C  
HETATM   22  C   UNL     1      -9.585   2.141  64.287  1.00  0.00    -0.122 A  
HETATM   23  C   UNL     1      -8.229   4.837  66.861  1.00  0.00    -0.107 C  
HETATM   24  N   UNL     1      -9.738   2.446  62.995  1.00  0.00    -0.090 NA 
ENDROOT
BRANCH   4  25
HETATM   25  C   UNL     1      -8.394   8.246  70.595  1.00  0.00    -0.121 C  
HETATM   26  C   UNL     1      -7.567   8.959  71.095  1.00  0.00    -0.143 C  
ENDBRANCH   4  25
TORSDOF 1
ENDMDL
MODEL       86
REMARK 921   NORMALIZED FREE ENERGY PREDICTED BY IDOCK:   -3.68 KCAL/MOL
REMARK 922        TOTAL FREE ENERGY PREDICTED BY IDOCK:   -3.91 KCAL/MOL
REMARK 923 INTER-LIGAND FREE ENERGY PREDICTED BY IDOCK:   -3.90 KCAL/MOL
REMARK 924 INTRA-LIGAND FREE ENERGY PREDICTED BY IDOCK:   -0.02 KCAL/MOL
REMARK 927      BINDING AFFINITY PREDICTED BY RF-SCORE:    0.00 PKD
ROOT
HETATM    1  C   UNL     1      -9.490  10.045  67.287  1.00  0.00    -0.179 C  
HETATM    2  C   UNL     1     -10.600   9.596  66.527  1.00  0.00    -0.142 C  
HETATM    3  C   UNL     1     -10.634   9.195  67.955  1.00  0.00    -0.272 C  
HETATM    4  C   UNL     1      -9.191  10.035  69.150  1.00  0.00    -0.190 C  
HETATM    5  C   UNL     1     -10.449  10.524  68.903  1.00  0.00    -0.226 C  
HETATM    6  C   UNL     1      -6.685   6.598  69.505  1.00  0.00    -0.050 C  
HETATM    7  O   UNL     1      -9.070  10.084  70.581  1.00  0.00    -0.317 OA 
HETATM    8  C   UNL     1     -11.008   9.150  70.073  1.00  0.00    -0.240 C  
HETATM    9  C   UNL     1     -11.038  11.892  69.064  1.00  0.00    -0.300 C  
HETATM   10  O   UNL     1      -9.195   2.454  67.010  1.00  0.00    -0.142 OA 
HETATM   11  H   UNL     1      -8.402  10.472  71.134  1.00  0.00     0.000 HD 
HETATM   12  C   UNL     1      -9.868   7.771  70.012  1.00  0.00    -0.181 C  
HETATM   13  C   UNL     1      -9.006   7.331  68.611  1.00  0.00    -0.128 C  
HETATM   14  C   UNL     1      -8.403   8.567  67.563  1.00  0.00    -0.128 C  
HETATM   15  C   UNL     1      -7.930   7.992  66.222  1.00  0.00    -0.105 C  
HETATM   16  C   UNL     1      -6.979   6.819  66.416  1.00  0.00    -0.062 C  
HETATM   17  C   UNL     1      -7.644   5.765  67.267  1.00  0.00    -0.096 C  
HETATM   18  C   UNL     1      -8.086   4.643  66.661  1.00  0.00    -0.103 C  
HETATM   19  C   UNL     1      -8.701   3.652  67.443  1.00  0.00    -0.115 A  
HETATM   20  C   UNL     1      -8.839   3.705  68.809  1.00  0.00    -0.160 A  
HETATM   21  C   UNL     1      -8.545   4.923  69.607  1.00  0.00    -0.098 C  
HETATM   22  C   UNL     1      -9.204   2.398  69.172  1.00  0.00    -0.132 A  
HETATM   23  C   UNL     1      -7.955   6.140  68.760  1.00  0.00    -0.101 C  
HETATM   24  N   UNL     1      -9.494   1.653  68.102  1.00  0.00    -0.188 NA 
ENDROOT
BRANCH   4  25
HETATM   25  C   UNL     1      -8.197  11.193  68.822  1.00  0.00    -0.135 C  
HETATM   26  C   UNL     1      -7.427  12.093  68.621  1.00  0.00    -0.105 C  
ENDBRANCH   4  25
TORSDOF 1
ENDMDL
MODEL       87
REMARK 921   NORMALIZED FREE ENERGY PREDICTED BY IDOCK:   -3.66 KCAL/MOL
REMARK 922        TOTAL FREE ENERGY PREDICTED BY IDOCK:   -3.90 KCAL/MOL
REMARK 923 INTER-LIGAND FREE ENERGY PREDICTED BY IDOCK:   -3.94 KCAL/MOL
REMARK 924 INTRA-LIGAND FREE ENERGY PREDICTED BY IDOCK:    0.04 KCAL/MOL
REMARK 927      BINDING AFFINITY PREDICTED BY RF-SCORE:    0.00 PKD
ROOT
HETATM    1  C   UNL     1     -11.114   7.176  70.554  1.00  0.00    -0.299 C  
HETATM    2  C   UNL     1     -11.283   5.775  70.404  1.00  0.00    -0.211 C  
HETATM    3  C   UNL     1      -9.904   6.190  70.762  1.00  0.00    -0.220 C  
HETATM    4  C   UNL     1      -9.667   8.171  71.244  1.00  0.00    -0.164 C  
HETATM    5  C   UNL     1      -9.946   7.138  72.103  1.00  0.00    -0.183 C  
HETATM    6  C   UNL     1      -7.793   9.413  67.615  1.00  0.00    -0.095 C  
HETATM    7  O   UNL     1      -8.571   8.861  71.868  1.00  0.00    -0.347 OA 
HETATM    8  C   UNL     1      -8.125   6.695  71.861  1.00  0.00    -0.103 C  
HETATM    9  C   UNL     1     -10.516   7.118  73.488  1.00  0.00    -0.422 C  
HETATM   10  O   UNL     1      -6.985   4.969  64.566  1.00  0.00    -0.048 OA 
HETATM   11  H   UNL     1      -8.461   9.778  72.091  1.00  0.00     0.000 HD 
HETATM   12  C   UNL     1      -7.558   7.229  70.250  1.00  0.00    -0.089 C  
HETATM   13  C   UNL     1      -8.561   7.279  68.874  1.00  0.00    -0.129 C  
HETATM   14  C   UNL     1     -10.211   7.766  69.045  1.00  0.00    -0.213 C  
HETATM   15  C   UNL     1     -11.026   7.463  67.782  1.00  0.00    -0.099 C  
HETATM   16  C   UNL     1     -10.343   7.998  66.530  1.00  0.00    -0.144 C  
HETATM   17  C   UNL     1      -8.946   7.436  66.437  1.00  0.00    -0.190 C  
HETATM   18  C   UNL     1      -8.709   6.466  65.529  1.00  0.00    -0.076 C  
HETATM   19  C   UNL     1      -7.411   5.939  65.428  1.00  0.00    -0.082 A  
HETATM   20  C   UNL     1      -6.328   6.380  66.150  1.00  0.00    -0.042 A  
HETATM   21  C   UNL     1      -6.443   7.328  67.287  1.00  0.00    -0.059 C  
HETATM   22  C   UNL     1      -5.223   5.804  65.503  1.00  0.00    -0.009 A  
HETATM   23  C   UNL     1      -7.920   7.878  67.541  1.00  0.00    -0.123 C  
HETATM   24  N   UNL     1      -5.599   4.896  64.598  1.00  0.00    -0.013 NA 
ENDROOT
BRANCH   4  25
HETATM   25  C   UNL     1     -10.760   9.258  71.494  1.00  0.00    -0.425 C  
HETATM   26  C   UNL     1     -11.633  10.066  71.658  1.00  0.00    -0.154 C  
ENDBRANCH   4  25
TORSDOF 1
ENDMDL
MODEL       88
REMARK 921   NORMALIZED FREE ENERGY PREDICTED BY IDOCK:   -3.61 KCAL/MOL
REMARK 922        TOTAL FREE ENERGY PREDICTED BY IDOCK:   -3.84 KCAL/MOL
REMARK 923 INTER-LIGAND FREE ENERGY PREDICTED BY IDOCK:   -3.86 KCAL/MOL
REMARK 924 INTRA-LIGAND FREE ENERGY PREDICTED BY IDOCK:    0.02 KCAL/MOL
REMARK 927      BINDING AFFINITY PREDICTED BY RF-SCORE:    0.00 PKD
ROOT
HETATM    1  C   UNL     1      -7.114   4.509  69.192  1.00  0.00    -0.052 C  
HETATM    2  C   UNL     1      -5.970   5.345  69.247  1.00  0.00    -0.024 C  
HETATM    3  C   UNL     1      -7.148   5.872  69.978  1.00  0.00    -0.071 C  
HETATM    4  C   UNL     1      -8.739   4.586  70.148  1.00  0.00    -0.077 C  
HETATM    5  C   UNL     1      -7.696   4.734  71.029  1.00  0.00    -0.081 C  
HETATM    6  C   UNL     1     -11.258   6.418  67.230  1.00  0.00    -0.295 C  
HETATM    7  O   UNL     1      -9.911   4.647  70.978  1.00  0.00    -0.192 OA 
HETATM    8  C   UNL     1      -8.582   6.331  71.515  1.00  0.00    -0.131 C  
HETATM    9  C   UNL     1      -7.170   3.843  72.111  1.00  0.00    -0.052 C  
HETATM   10  O   UNL     1      -8.765  10.944  65.499  1.00  0.00    -0.187 OA 
HETATM   11  H   UNL     1     -10.647   4.052  71.056  1.00  0.00     0.000 HD 
HETATM   12  C   UNL     1      -9.514   6.978  70.130  1.00  0.00    -0.162 C  
HETATM   13  C   UNL     1      -9.032   6.790  68.508  1.00  0.00    -0.121 C  
HETATM   14  C   UNL     1      -8.298   5.306  68.008  1.00  0.00    -0.098 C  
HETATM   15  C   UNL     1      -7.663   5.428  66.617  1.00  0.00    -0.100 C  
HETATM   16  C   UNL     1      -8.637   6.016  65.604  1.00  0.00    -0.154 C  
HETATM   17  C   UNL     1      -9.141   7.348  66.102  1.00  0.00    -0.167 C  
HETATM   18  C   UNL     1      -8.659   8.468  65.522  1.00  0.00    -0.204 C  
HETATM   19  C   UNL     1      -9.126   9.714  65.972  1.00  0.00    -0.171 A  
HETATM   20  C   UNL     1     -10.094   9.889  66.931  1.00  0.00    -0.285 A  
HETATM   21  C   UNL     1     -10.615   8.778  67.769  1.00  0.00    -0.256 C  
HETATM   22  C   UNL     1     -10.452  11.242  66.821  1.00  0.00    -0.248 A  
HETATM   23  C   UNL     1     -10.033   7.340  67.394  1.00  0.00    -0.228 C  
HETATM   24  N   UNL     1      -9.616  11.909  66.020  1.00  0.00    -0.233 NA 
ENDROOT
BRANCH   4  25
HETATM   25  C   UNL     1      -8.811   3.064  69.806  1.00  0.00    -0.146 C  
HETATM   26  C   UNL     1      -8.844   1.883  69.589  1.00  0.00    -0.128 C  
ENDBRANCH   4  25
TORSDOF 1
ENDMDL
MODEL       89
REMARK 921   NORMALIZED FREE ENERGY PREDICTED BY IDOCK:   -3.59 KCAL/MOL
REMARK 922        TOTAL FREE ENERGY PREDICTED BY IDOCK:   -3.82 KCAL/MOL
REMARK 923 INTER-LIGAND FREE ENERGY PREDICTED BY IDOCK:   -3.80 KCAL/MOL
REMARK 924 INTRA-LIGAND FREE ENERGY PREDICTED BY IDOCK:   -0.02 KCAL/MOL
REMARK 927      BINDING AFFINITY PREDICTED BY RF-SCORE:    0.00 PKD
ROOT
HETATM    1  C   UNL     1      -7.705  11.086  69.352  1.00  0.00    -0.026 C  
HETATM    2  C   UNL     1      -7.242  10.059  70.214  1.00  0.00    -0.155 C  
HETATM    3  C   UNL     1      -6.535  10.129  68.912  1.00  0.00    -0.048 C  
HETATM    4  C   UNL     1      -6.987  11.752  67.739  1.00  0.00    -0.094 C  
HETATM    5  C   UNL     1      -5.981  11.656  68.668  1.00  0.00    -0.050 C  
HETATM    6  C   UNL     1      -9.460   9.731  64.907  1.00  0.00    -0.331 C  
HETATM    7  O   UNL     1      -6.335  12.275  66.569  1.00  0.00    -0.458 OA 
HETATM    8  C   UNL     1      -5.126  10.599  67.355  1.00  0.00    -0.037 C  
HETATM    9  C   UNL     1      -5.182  12.700  69.386  1.00  0.00    -0.074 C  
HETATM   10  O   UNL     1      -9.326   4.414  66.092  1.00  0.00    -0.138 OA 
HETATM   11  H   UNL     1      -6.544  13.027  66.026  1.00  0.00     0.000 HD 
HETATM   12  C   UNL     1      -6.337   9.776  66.327  1.00  0.00    -0.070 C  
HETATM   13  C   UNL     1      -7.861   9.270  66.896  1.00  0.00    -0.098 C  
HETATM   14  C   UNL     1      -8.712  10.258  68.032  1.00  0.00    -0.122 C  
HETATM   15  C   UNL     1      -9.899   9.512  68.654  1.00  0.00    -0.173 C  
HETATM   16  C   UNL     1     -10.785   8.879  67.590  1.00  0.00    -0.221 C  
HETATM   17  C   UNL     1      -9.956   7.970  66.717  1.00  0.00    -0.344 C  
HETATM   18  C   UNL     1     -10.082   6.637  66.885  1.00  0.00    -0.258 C  
HETATM   19  C   UNL     1      -9.321   5.780  66.074  1.00  0.00    -0.117 A  
HETATM   20  C   UNL     1      -8.485   6.193  65.064  1.00  0.00    -0.071 A  
HETATM   21  C   UNL     1      -8.119   7.616  64.847  1.00  0.00    -0.128 C  
HETATM   22  C   UNL     1      -8.202   5.020  64.346  1.00  0.00    -0.128 A  
HETATM   23  C   UNL     1      -8.857   8.644  65.819  1.00  0.00    -0.231 C  
HETATM   24  N   UNL     1      -8.636   3.932  64.989  1.00  0.00    -0.112 NA 
ENDROOT
BRANCH   4  25
HETATM   25  C   UNL     1      -7.803  13.032  68.106  1.00  0.00    -0.145 C  
HETATM   26  C   UNL     1      -8.433  14.028  68.338  1.00  0.00    -0.166 C  
ENDBRANCH   4  25
TORSDOF 1
ENDMDL
MODEL       90
REMARK 921   NORMALIZED FREE ENERGY PREDICTED BY IDOCK:   -3.50 KCAL/MOL
REMARK 922        TOTAL FREE ENERGY PREDICTED BY IDOCK:   -3.73 KCAL/MOL
REMARK 923 INTER-LIGAND FREE ENERGY PREDICTED BY IDOCK:   -3.75 KCAL/MOL
REMARK 924 INTRA-LIGAND FREE ENERGY PREDICTED BY IDOCK:    0.02 KCAL/MOL
REMARK 927      BINDING AFFINITY PREDICTED BY RF-SCORE:    0.00 PKD
ROOT
HETATM    1  C   UNL     1      -8.893  11.132  65.500  1.00  0.00    -0.145 C  
HETATM    2  C   UNL     1      -9.857  10.904  64.485  1.00  0.00    -0.356 C  
HETATM    3  C   UNL     1     -10.125  10.184  65.754  1.00  0.00    -0.324 C  
HETATM    4  C   UNL     1      -8.910  10.682  67.333  1.00  0.00    -0.132 C  
HETATM    5  C   UNL     1     -10.114  11.252  67.003  1.00  0.00    -0.238 C  
HETATM    6  C   UNL     1      -6.463   7.185  67.284  1.00  0.00    -0.057 C  
HETATM    7  O   UNL     1      -9.030  10.394  68.736  1.00  0.00    -0.141 OA 
HETATM    8  C   UNL     1     -10.846   9.660  67.712  1.00  0.00    -0.278 C  
HETATM    9  C   UNL     1     -10.735  12.562  67.380  1.00  0.00    -0.254 C  
HETATM   10  O   UNL     1      -8.478   3.807  63.513  1.00  0.00    -0.089 OA 
HETATM   11  H   UNL     1      -8.468  10.625  69.467  1.00  0.00     0.000 HD 
HETATM   12  C   UNL     1      -9.698   8.301  67.520  1.00  0.00    -0.212 C  
HETATM   13  C   UNL     1      -8.610   8.172  66.216  1.00  0.00    -0.157 C  
HETATM   14  C   UNL     1      -7.853   9.600  65.599  1.00  0.00    -0.107 C  
HETATM   15  C   UNL     1      -7.157   9.338  64.258  1.00  0.00    -0.098 C  
HETATM   16  C   UNL     1      -6.240   8.124  64.327  1.00  0.00    -0.065 C  
HETATM   17  C   UNL     1      -7.026   6.922  64.787  1.00  0.00    -0.051 C  
HETATM   18  C   UNL     1      -7.350   5.984  63.872  1.00  0.00    -0.066 C  
HETATM   19  C   UNL     1      -8.076   4.857  64.289  1.00  0.00    -0.115 A  
HETATM   20  C   UNL     1      -8.440   4.596  65.588  1.00  0.00    -0.118 A  
HETATM   21  C   UNL     1      -8.296   5.587  66.685  1.00  0.00    -0.109 C  
HETATM   22  C   UNL     1      -8.848   3.252  65.571  1.00  0.00    -0.136 A  
HETATM   23  C   UNL     1      -7.586   6.950  66.255  1.00  0.00    -0.088 C  
HETATM   24  N   UNL     1      -8.948   2.784  64.324  1.00  0.00    -0.105 NA 
ENDROOT
BRANCH   4  25
HETATM   25  C   UNL     1      -7.887  11.856  67.452  1.00  0.00    -0.158 C  
HETATM   26  C   UNL     1      -7.068  12.732  67.512  1.00  0.00    -0.148 C  
ENDBRANCH   4  25
TORSDOF 1
ENDMDL
MODEL       91
REMARK 921   NORMALIZED FREE ENERGY PREDICTED BY IDOCK:   -3.47 KCAL/MOL
REMARK 922        TOTAL FREE ENERGY PREDICTED BY IDOCK:   -3.69 KCAL/MOL
REMARK 923 INTER-LIGAND FREE ENERGY PREDICTED BY IDOCK:   -3.67 KCAL/MOL
REMARK 924 INTRA-LIGAND FREE ENERGY PREDICTED BY IDOCK:   -0.02 KCAL/MOL
REMARK 927      BINDING AFFINITY PREDICTED BY RF-SCORE:    0.00 PKD
ROOT
HETATM    1  C   UNL     1      -9.457   8.709  66.362  1.00  0.00    -0.295 C  
HETATM    2  C   UNL     1     -10.736   8.271  66.791  1.00  0.00    -0.072 C  
HETATM    3  C   UNL     1     -10.205   9.434  67.543  1.00  0.00    -0.288 C  
HETATM    4  C   UNL     1      -8.483  10.266  66.796  1.00  0.00    -0.123 C  
HETATM    5  C   UNL     1      -9.774  10.619  66.490  1.00  0.00    -0.236 C  
HETATM    6  C   UNL     1      -5.788   8.697  69.710  1.00  0.00    -0.029 C  
HETATM    7  O   UNL     1      -7.839  11.516  67.094  1.00  0.00    -0.144 OA 
HETATM    8  C   UNL     1      -9.755  11.434  68.195  1.00  0.00    -0.194 C  
HETATM    9  C   UNL     1     -10.355  11.375  65.335  1.00  0.00    -0.331 C  
HETATM   10  O   UNL     1      -8.747   6.066  73.454  1.00  0.00    -0.127 OA 
HETATM   11  H   UNL     1      -7.042  11.901  66.748  1.00  0.00     0.000 HD 
HETATM   12  C   UNL     1      -8.625  10.578  69.287  1.00  0.00    -0.136 C  
HETATM   13  C   UNL     1      -8.321   8.905  69.195  1.00  0.00    -0.124 C  
HETATM   14  C   UNL     1      -8.244   8.142  67.645  1.00  0.00    -0.127 C  
HETATM   15  C   UNL     1      -8.268   6.613  67.765  1.00  0.00    -0.119 C  
HETATM   16  C   UNL     1      -7.232   6.110  68.762  1.00  0.00    -0.084 C  
HETATM   17  C   UNL     1      -7.453   6.774  70.099  1.00  0.00    -0.094 C  
HETATM   18  C   UNL     1      -8.009   6.043  71.088  1.00  0.00    -0.116 C  
HETATM   19  C   UNL     1      -8.214   6.648  72.339  1.00  0.00    -0.103 A  
HETATM   20  C   UNL     1      -7.833   7.928  72.662  1.00  0.00    -0.155 A  
HETATM   21  C   UNL     1      -7.350   8.909  71.657  1.00  0.00    -0.053 C  
HETATM   22  C   UNL     1      -7.942   7.980  74.062  1.00  0.00    -0.232 A  
HETATM   23  C   UNL     1      -7.208   8.324  70.179  1.00  0.00    -0.055 C  
HETATM   24  N   UNL     1      -8.558   6.898  74.548  1.00  0.00    -0.168 NA 
ENDROOT
BRANCH   4  25
HETATM   25  C   UNL     1      -7.769   9.989  65.435  1.00  0.00    -0.137 C  
HETATM   26  C   UNL     1      -7.177   9.800  64.407  1.00  0.00    -0.129 C  
ENDBRANCH   4  25
TORSDOF 1
ENDMDL
MODEL       92
REMARK 921   NORMALIZED FREE ENERGY PREDICTED BY IDOCK:   -3.45 KCAL/MOL
REMARK 922        TOTAL FREE ENERGY PREDICTED BY IDOCK:   -3.68 KCAL/MOL
REMARK 923 INTER-LIGAND FREE ENERGY PREDICTED BY IDOCK:   -3.66 KCAL/MOL
REMARK 924 INTRA-LIGAND FREE ENERGY PREDICTED BY IDOCK:   -0.01 KCAL/MOL
REMARK 927      BINDING AFFINITY PREDICTED BY RF-SCORE:    0.00 PKD
ROOT
HETATM    1  C   UNL     1      -7.700   4.092  67.560  1.00  0.00    -0.080 C  
HETATM    2  C   UNL     1      -8.499   3.564  68.605  1.00  0.00    -0.102 C  
HETATM    3  C   UNL     1      -9.266   4.255  67.541  1.00  0.00    -0.174 C  
HETATM    4  C   UNL     1      -8.187   4.807  65.883  1.00  0.00    -0.112 C  
HETATM    5  C   UNL     1      -8.861   3.627  66.077  1.00  0.00    -0.126 C  
HETATM    6  C   UNL     1      -7.948   8.984  66.733  1.00  0.00    -0.107 C  
HETATM    7  O   UNL     1      -8.621   5.251  64.586  1.00  0.00    -0.148 OA 
HETATM    8  C   UNL     1     -10.402   4.675  65.763  1.00  0.00    -0.295 C  
HETATM    9  C   UNL     1      -8.748   2.292  65.408  1.00  0.00    -0.119 C  
HETATM   10  O   UNL     1     -10.923   9.936  71.199  1.00  0.00    -0.333 OA 
HETATM   11  H   UNL     1      -8.122   5.506  63.819  1.00  0.00     0.000 HD 
HETATM   12  C   UNL     1     -10.121   6.371  66.261  1.00  0.00     0.020 C  
HETATM   13  C   UNL     1      -9.102   6.810  67.553  1.00  0.00    -0.117 C  
HETATM   14  C   UNL     1      -7.637   5.928  67.816  1.00  0.00    -0.089 C  
HETATM   15  C   UNL     1      -7.014   6.258  69.178  1.00  0.00    -0.068 C  
HETATM   16  C   UNL     1      -6.885   7.761  69.388  1.00  0.00    -0.044 C  
HETATM   17  C   UNL     1      -8.236   8.412  69.225  1.00  0.00    -0.116 C  
HETATM   18  C   UNL     1      -8.880   8.829  70.336  1.00  0.00    -0.185 C  
HETATM   19  C   UNL     1     -10.136   9.443  70.197  1.00  0.00    -0.233 A  
HETATM   20  C   UNL     1     -10.748   9.712  68.996  1.00  0.00    -0.232 A  
HETATM   21  C   UNL     1     -10.251   9.190  67.698  1.00  0.00    -0.293 C  
HETATM   22  C   UNL     1     -11.791  10.591  69.328  1.00  0.00    -0.170 A  
HETATM   23  C   UNL     1      -8.884   8.372  67.795  1.00  0.00    -0.137 C  
HETATM   24  N   UNL     1     -11.959  10.680  70.651  1.00  0.00    -0.337 NA 
ENDROOT
BRANCH   4  25
HETATM   25  C   UNL     1      -6.728   4.420  65.488  1.00  0.00    -0.052 C  
HETATM   26  C   UNL     1      -5.595   4.172  65.175  1.00  0.00    -0.014 C  
ENDBRANCH   4  25
TORSDOF 1
ENDMDL
MODEL       93
REMARK 921   NORMALIZED FREE ENERGY PREDICTED BY IDOCK:   -3.45 KCAL/MOL
REMARK 922        TOTAL FREE ENERGY PREDICTED BY IDOCK:   -3.67 KCAL/MOL
REMARK 923 INTER-LIGAND FREE ENERGY PREDICTED BY IDOCK:   -3.65 KCAL/MOL
REMARK 924 INTRA-LIGAND FREE ENERGY PREDICTED BY IDOCK:   -0.02 KCAL/MOL
REMARK 927      BINDING AFFINITY PREDICTED BY RF-SCORE:    0.00 PKD
ROOT
HETATM    1  C   UNL     1     -11.271   7.457  69.562  1.00  0.00    -0.015 C  
HETATM    2  C   UNL     1     -11.772   6.251  70.115  1.00  0.00    -0.274 C  
HETATM    3  C   UNL     1     -10.384   6.579  70.522  1.00  0.00    -0.240 C  
HETATM    4  C   UNL     1      -9.707   8.435  69.962  1.00  0.00    -0.176 C  
HETATM    5  C   UNL     1     -10.337   8.103  71.135  1.00  0.00    -0.237 C  
HETATM    6  C   UNL     1      -7.176   7.171  66.766  1.00  0.00    -0.083 C  
HETATM    7  O   UNL     1      -8.550   9.178  70.382  1.00  0.00    -0.167 OA 
HETATM    8  C   UNL     1      -8.673   7.329  71.589  1.00  0.00    -0.122 C  
HETATM    9  C   UNL     1     -11.047   8.935  72.157  1.00  0.00    -0.355 C  
HETATM   10  O   UNL     1      -7.180   1.721  66.708  1.00  0.00    -0.052 OA 
HETATM   11  H   UNL     1      -8.237  10.037  70.123  1.00  0.00     0.000 HD 
HETATM   12  C   UNL     1      -7.808   6.794  70.117  1.00  0.00    -0.107 C  
HETATM   13  C   UNL     1      -8.600   6.229  68.719  1.00  0.00    -0.122 C  
HETATM   14  C   UNL     1     -10.081   6.974  68.224  1.00  0.00    -0.185 C  
HETATM   15  C   UNL     1     -10.795   6.152  67.144  1.00  0.00    -0.442 C  
HETATM   16  C   UNL     1      -9.859   5.799  65.996  1.00  0.00    -0.019 C  
HETATM   17  C   UNL     1      -8.650   5.074  66.533  1.00  0.00    -0.110 C  
HETATM   18  C   UNL     1      -8.566   3.742  66.335  1.00  0.00    -0.113 C  
HETATM   19  C   UNL     1      -7.442   3.057  66.825  1.00  0.00    -0.075 A  
HETATM   20  C   UNL     1      -6.372   3.652  67.450  1.00  0.00    -0.037 A  
HETATM   21  C   UNL     1      -6.372   5.074  67.878  1.00  0.00    -0.040 C  
HETATM   22  C   UNL     1      -5.383   2.656  67.468  1.00  0.00    -0.017 A  
HETATM   23  C   UNL     1      -7.679   5.889  67.461  1.00  0.00    -0.097 C  
HETATM   24  N   UNL     1      -5.872   1.469  67.096  1.00  0.00    -0.018 NA 
ENDROOT
BRANCH   4  25
HETATM   25  C   UNL     1     -10.508   9.630  69.357  1.00  0.00    -0.236 C  
HETATM   26  C   UNL     1     -11.080  10.578  68.891  1.00  0.00    -0.312 C  
ENDBRANCH   4  25
TORSDOF 1
ENDMDL
MODEL       94
REMARK 921   NORMALIZED FREE ENERGY PREDICTED BY IDOCK:   -3.33 KCAL/MOL
REMARK 922        TOTAL FREE ENERGY PREDICTED BY IDOCK:   -3.55 KCAL/MOL
REMARK 923 INTER-LIGAND FREE ENERGY PREDICTED BY IDOCK:   -3.53 KCAL/MOL
REMARK 924 INTRA-LIGAND FREE ENERGY PREDICTED BY IDOCK:   -0.02 KCAL/MOL
REMARK 927      BINDING AFFINITY PREDICTED BY RF-SCORE:    0.00 PKD
ROOT
HETATM    1  C   UNL     1      -8.492   9.269  65.952  1.00  0.00    -0.141 C  
HETATM    2  C   UNL     1      -8.389   9.924  67.205  1.00  0.00    -0.121 C  
HETATM    3  C   UNL     1      -7.341   8.904  66.962  1.00  0.00    -0.083 C  
HETATM    4  C   UNL     1      -7.289   8.115  65.067  1.00  0.00    -0.082 C  
HETATM    5  C   UNL     1      -6.600   9.209  65.527  1.00  0.00    -0.068 C  
HETATM    6  C   UNL     1      -9.042   4.332  65.984  1.00  0.00    -0.133 C  
HETATM    7  O   UNL     1      -6.288   7.320  64.408  1.00  0.00    -0.040 OA 
HETATM    8  C   UNL     1      -5.513   7.925  66.388  1.00  0.00    -0.025 C  
HETATM    9  C   UNL     1      -5.941  10.347  64.811  1.00  0.00    -0.118 C  
HETATM   10  O   UNL     1      -9.747   4.102  71.383  1.00  0.00    -0.161 OA 
HETATM   11  H   UNL     1      -6.265   6.955  63.532  1.00  0.00     0.000 HD 
HETATM   12  C   UNL     1      -6.456   6.450  66.758  1.00  0.00    -0.046 C  
HETATM   13  C   UNL     1      -8.119   6.470  67.127  1.00  0.00    -0.113 C  
HETATM   14  C   UNL     1      -9.159   7.572  66.293  1.00  0.00    -0.198 C  
HETATM   15  C   UNL     1     -10.538   7.663  66.958  1.00  0.00    -0.406 C  
HETATM   16  C   UNL     1     -11.143   6.285  67.189  1.00  0.00    -0.389 C  
HETATM   17  C   UNL     1     -10.191   5.443  68.001  1.00  0.00    -0.221 C  
HETATM   18  C   UNL     1     -10.484   5.225  69.301  1.00  0.00    -0.255 C  
HETATM   19  C   UNL     1      -9.609   4.438  70.067  1.00  0.00    -0.203 A  
HETATM   20  C   UNL     1      -8.488   3.811  69.578  1.00  0.00    -0.095 A  
HETATM   21  C   UNL     1      -7.943   4.066  68.220  1.00  0.00    -0.076 C  
HETATM   22  C   UNL     1      -8.125   2.909  70.592  1.00  0.00    -0.045 A  
HETATM   23  C   UNL     1      -8.826   5.054  67.330  1.00  0.00    -0.102 C  
HETATM   24  N   UNL     1      -8.823   3.120  71.712  1.00  0.00    -0.083 NA 
ENDROOT
BRANCH   4  25
HETATM   25  C   UNL     1      -8.052   8.582  63.788  1.00  0.00    -0.154 C  
HETATM   26  C   UNL     1      -8.622   8.899  62.779  1.00  0.00    -0.167 C  
ENDBRANCH   4  25
TORSDOF 1
ENDMDL
MODEL       95
REMARK 921   NORMALIZED FREE ENERGY PREDICTED BY IDOCK:   -3.27 KCAL/MOL
REMARK 922        TOTAL FREE ENERGY PREDICTED BY IDOCK:   -3.48 KCAL/MOL
REMARK 923 INTER-LIGAND FREE ENERGY PREDICTED BY IDOCK:   -3.51 KCAL/MOL
REMARK 924 INTRA-LIGAND FREE ENERGY PREDICTED BY IDOCK:    0.03 KCAL/MOL
REMARK 927      BINDING AFFINITY PREDICTED BY RF-SCORE:    0.00 PKD
ROOT
HETATM    1  C   UNL     1      -8.549  17.769  68.842  1.00  0.00    -0.127 C  
HETATM    2  C   UNL     1      -7.774  16.780  69.499  1.00  0.00     0.232 C  
HETATM    3  C   UNL     1      -7.480  16.925  68.053  1.00  0.00    -0.177 C  
HETATM    4  C   UNL     1      -8.383  18.513  67.116  1.00  0.00    -0.249 C  
HETATM    5  C   UNL     1      -7.148  18.498  67.715  1.00  0.00    -0.222 C  
HETATM    6  C   UNL     1     -11.390  16.306  65.040  1.00  0.00    -0.076 C  
HETATM    7  O   UNL     1      -8.142  19.103  65.828  1.00  0.00    -0.452 OA 
HETATM    8  C   UNL     1      -6.623  17.535  66.176  1.00  0.00    -0.282 C  
HETATM    9  C   UNL     1      -6.266  19.602  68.211  1.00  0.00    -0.267 C  
HETATM   10  O   UNL     1     -10.479  11.010  65.950  1.00  0.00    -0.254 OA 
HETATM   11  H   UNL     1      -8.560  19.838  65.394  1.00  0.00     0.000 HD 
HETATM   12  C   UNL     1      -8.006  16.616  65.508  1.00  0.00     1.475 C  
HETATM   13  C   UNL     1      -9.253  15.970  66.471  1.00  0.00    -0.307 C  
HETATM   14  C   UNL     1      -9.820  16.867  67.837  1.00  0.00    -0.263 C  
HETATM   15  C   UNL     1     -10.712  16.012  68.746  1.00  0.00    -0.282 C  
HETATM   16  C   UNL     1     -11.811  15.312  67.958  1.00  0.00    -0.176 C  
HETATM   17  C   UNL     1     -11.196  14.489  66.853  1.00  0.00    -0.340 C  
HETATM   18  C   UNL     1     -11.157  13.149  67.003  1.00  0.00    -0.305 C  
HETATM   19  C   UNL     1     -10.593  12.371  65.979  1.00  0.00    -0.256 A  
HETATM   20  C   UNL     1     -10.121  12.868  64.788  1.00  0.00    -0.242 A  
HETATM   21  C   UNL     1      -9.952  14.320  64.524  1.00  0.00     0.488 C  
HETATM   22  C   UNL     1      -9.960  11.732  63.978  1.00  0.00    -0.293 A  
HETATM   23  C   UNL     1     -10.462  15.268  65.703  1.00  0.00    -0.377 C  
HETATM   24  N   UNL     1     -10.099  10.603  64.679  1.00  0.00    -0.334 NA 
ENDROOT
BRANCH   4  25
HETATM   25  C   UNL     1      -9.162  19.710  67.746  1.00  0.00    -0.413 C  
HETATM   26  C   UNL     1      -9.796  20.596  68.251  1.00  0.00    -0.008 C  
ENDBRANCH   4  25
TORSDOF 1
ENDMDL
MODEL       96
REMARK 921   NORMALIZED FREE ENERGY PREDICTED BY IDOCK:   -3.26 KCAL/MOL
REMARK 922        TOTAL FREE ENERGY PREDICTED BY IDOCK:   -3.47 KCAL/MOL
REMARK 923 INTER-LIGAND FREE ENERGY PREDICTED BY IDOCK:   -3.48 KCAL/MOL
REMARK 924 INTRA-LIGAND FREE ENERGY PREDICTED BY IDOCK:    0.01 KCAL/MOL
REMARK 927      BINDING AFFINITY PREDICTED BY RF-SCORE:    0.00 PKD
ROOT
HETATM    1  C   UNL     1      -9.215   9.836  68.221  1.00  0.00    -0.130 C  
HETATM    2  C   UNL     1      -8.055  10.358  68.849  1.00  0.00    -0.129 C  
HETATM    3  C   UNL     1      -9.333  10.840  69.428  1.00  0.00    -0.021 C  
HETATM    4  C   UNL     1     -11.030   9.919  68.731  1.00  0.00    -0.179 C  
HETATM    5  C   UNL     1     -10.278   9.555  69.819  1.00  0.00    -0.249 C  
HETATM    6  C   UNL     1     -12.389  13.081  66.205  1.00  0.00    -0.335 C  
HETATM    7  O   UNL     1     -12.379   9.939  69.226  1.00  0.00    -0.187 OA 
HETATM    8  C   UNL     1     -11.095  11.046  70.645  1.00  0.00     0.390 C  
HETATM    9  C   UNL     1     -10.185   8.270  70.583  1.00  0.00    -0.214 C  
HETATM   10  O   UNL     1      -9.042  17.322  66.916  1.00  0.00    -0.223 OA 
HETATM   11  H   UNL     1     -13.165   9.513  68.903  1.00  0.00     0.000 HD 
HETATM   12  C   UNL     1     -11.512  12.288  69.425  1.00  0.00    -0.341 C  
HETATM   13  C   UNL     1     -10.603  12.553  68.010  1.00  0.00    -0.237 C  
HETATM   14  C   UNL     1      -9.915  11.201  67.179  1.00  0.00    -0.215 C  
HETATM   15  C   UNL     1      -8.895  11.644  66.123  1.00  0.00    -0.139 C  
HETATM   16  C   UNL     1      -9.466  12.717  65.205  1.00  0.00     0.217 C  
HETATM   17  C   UNL     1      -9.950  13.883  66.031  1.00  0.00    -0.325 C  
HETATM   18  C   UNL     1      -9.207  15.010  66.039  1.00  0.00    -0.245 C  
HETATM   19  C   UNL     1      -9.651  16.105  66.799  1.00  0.00    -0.240 A  
HETATM   20  C   UNL     1     -10.831  16.144  67.501  1.00  0.00    -0.284 A  
HETATM   21  C   UNL     1     -11.686  14.949  67.718  1.00  0.00    -0.340 C  
HETATM   22  C   UNL     1     -10.998  17.501  67.822  1.00  0.00    -0.122 A  
HETATM   23  C   UNL     1     -11.175  13.629  66.981  1.00  0.00    -0.328 C  
HETATM   24  N   UNL     1      -9.901  18.212  67.545  1.00  0.00    -0.303 NA 
ENDROOT
BRANCH   4  25
HETATM   25  C   UNL     1     -11.159   8.644  67.840  1.00  0.00     0.286 C  
HETATM   26  C   UNL     1     -11.263   7.694  67.112  1.00  0.00     0.416 C  
ENDBRANCH   4  25
TORSDOF 1
ENDMDL
MODEL       97
REMARK 921   NORMALIZED FREE ENERGY PREDICTED BY IDOCK:   -3.25 KCAL/MOL
REMARK 922        TOTAL FREE ENERGY PREDICTED BY IDOCK:   -3.46 KCAL/MOL
REMARK 923 INTER-LIGAND FREE ENERGY PREDICTED BY IDOCK:   -3.48 KCAL/MOL
REMARK 924 INTRA-LIGAND FREE ENERGY PREDICTED BY IDOCK:    0.03 KCAL/MOL
REMARK 927      BINDING AFFINITY PREDICTED BY RF-SCORE:    0.00 PKD
ROOT
HETATM    1  C   UNL     1      -7.275  11.301  68.978  1.00  0.00    -0.119 C  
HETATM    2  C   UNL     1      -6.377  10.830  69.970  1.00  0.00    -0.137 C  
HETATM    3  C   UNL     1      -6.204  10.197  68.640  1.00  0.00    -0.044 C  
HETATM    4  C   UNL     1      -7.297  11.024  67.111  1.00  0.00    -0.116 C  
HETATM    5  C   UNL     1      -6.024  11.363  67.496  1.00  0.00    -0.064 C  
HETATM    6  C   UNL     1     -10.267   7.972  66.825  1.00  0.00    -0.367 C  
HETATM    7  O   UNL     1      -7.200  10.852  65.687  1.00  0.00    -0.329 OA 
HETATM    8  C   UNL     1      -5.540   9.747  66.643  1.00  0.00    -0.046 C  
HETATM    9  C   UNL     1      -5.197  12.586  67.245  1.00  0.00    -0.025 C  
HETATM   10  O   UNL     1      -8.877   3.983  70.269  1.00  0.00    -0.078 OA 
HETATM   11  H   UNL     1      -7.705  11.235  64.980  1.00  0.00     0.000 HD 
HETATM   12  C   UNL     1      -6.892   8.576  66.704  1.00  0.00    -0.072 C  
HETATM   13  C   UNL     1      -8.009   8.502  67.987  1.00  0.00    -0.111 C  
HETATM   14  C   UNL     1      -8.542   9.969  68.733  1.00  0.00    -0.131 C  
HETATM   15  C   UNL     1      -9.294   9.699  70.042  1.00  0.00    -0.276 C  
HETATM   16  C   UNL     1     -10.390   8.658  69.856  1.00  0.00    -0.213 C  
HETATM   17  C   UNL     1      -9.796   7.393  69.288  1.00  0.00    -0.168 C  
HETATM   18  C   UNL     1      -9.641   6.336  70.113  1.00  0.00    -0.181 C  
HETATM   19  C   UNL     1      -9.094   5.151  69.594  1.00  0.00    -0.115 A  
HETATM   20  C   UNL     1      -8.753   4.956  68.277  1.00  0.00    -0.109 A  
HETATM   21  C   UNL     1      -8.719   6.054  67.277  1.00  0.00    -0.105 C  
HETATM   22  C   UNL     1      -8.564   3.569  68.169  1.00  0.00    -0.098 A  
HETATM   23  C   UNL     1      -9.213   7.467  67.831  1.00  0.00    -0.132 C  
HETATM   24  N   UNL     1      -8.561   2.977  69.367  1.00  0.00    -0.063 NA 
ENDROOT
BRANCH   4  25
HETATM   25  C   UNL     1      -8.119  12.352  67.099  1.00  0.00    -0.167 C  
HETATM   26  C   UNL     1      -8.707  13.399  67.089  1.00  0.00    -0.220 C  
ENDBRANCH   4  25
TORSDOF 1
ENDMDL
MODEL       98
REMARK 921   NORMALIZED FREE ENERGY PREDICTED BY IDOCK:   -3.23 KCAL/MOL
REMARK 922        TOTAL FREE ENERGY PREDICTED BY IDOCK:   -3.44 KCAL/MOL
REMARK 923 INTER-LIGAND FREE ENERGY PREDICTED BY IDOCK:   -3.42 KCAL/MOL
REMARK 924 INTRA-LIGAND FREE ENERGY PREDICTED BY IDOCK:   -0.02 KCAL/MOL
REMARK 927      BINDING AFFINITY PREDICTED BY RF-SCORE:    0.00 PKD
ROOT
HETATM    1  C   UNL     1      -8.437   9.475  65.638  1.00  0.00    -0.143 C  
HETATM    2  C   UNL     1      -7.534   9.836  64.607  1.00  0.00    -0.134 C  
HETATM    3  C   UNL     1      -6.997  10.013  65.978  1.00  0.00    -0.110 C  
HETATM    4  C   UNL     1      -8.163   9.264  67.493  1.00  0.00    -0.114 C  
HETATM    5  C   UNL     1      -7.162   8.610  66.818  1.00  0.00    -0.078 C  
HETATM    6  C   UNL     1      -9.691  12.984  68.922  1.00  0.00     0.177 C  
HETATM    7  O   UNL     1      -7.862   9.028  68.879  1.00  0.00    -0.092 OA 
HETATM    8  C   UNL     1      -6.012   9.686  67.863  1.00  0.00    -0.051 C  
HETATM    9  C   UNL     1      -6.846   7.154  66.665  1.00  0.00    -0.065 C  
HETATM   10  O   UNL     1      -7.237  16.965  66.124  1.00  0.00    -0.240 OA 
HETATM   11  H   UNL     1      -8.401   8.681  69.580  1.00  0.00     0.000 HD 
HETATM   12  C   UNL     1      -6.811  11.231  68.287  1.00  0.00    -0.064 C  
HETATM   13  C   UNL     1      -7.939  12.009  67.276  1.00  0.00    -0.174 C  
HETATM   14  C   UNL     1      -9.066  11.058  66.372  1.00  0.00    -0.191 C  
HETATM   15  C   UNL     1      -9.786  11.893  65.306  1.00  0.00    -0.214 C  
HETATM   16  C   UNL     1     -10.375  13.169  65.893  1.00  0.00    -0.295 C  
HETATM   17  C   UNL     1      -9.287  13.961  66.576  1.00  0.00    -0.264 C  
HETATM   18  C   UNL     1      -8.823  15.068  65.959  1.00  0.00     0.109 C  
HETATM   19  C   UNL     1      -7.815  15.817  66.587  1.00  0.00    -0.157 A  
HETATM   20  C   UNL     1      -7.293  15.543  67.829  1.00  0.00    -0.174 A  
HETATM   21  C   UNL     1      -7.581  14.289  68.571  1.00  0.00    -0.127 C  
HETATM   22  C   UNL     1      -6.577  16.703  68.168  1.00  0.00    -0.143 A  
HETATM   23  C   UNL     1      -8.632  13.325  67.854  1.00  0.00    -0.188 C  
HETATM   24  N   UNL     1      -6.470  17.537  67.129  1.00  0.00    -0.152 NA 
ENDROOT
BRANCH   4  25
HETATM   25  C   UNL     1      -9.425   8.349  67.400  1.00  0.00    -0.185 C  
HETATM   26  C   UNL     1     -10.409   7.662  67.377  1.00  0.00    -0.347 C  
ENDBRANCH   4  25
TORSDOF 1
ENDMDL
MODEL       99
REMARK 921   NORMALIZED FREE ENERGY PREDICTED BY IDOCK:   -3.20 KCAL/MOL
REMARK 922        TOTAL FREE ENERGY PREDICTED BY IDOCK:   -3.40 KCAL/MOL
REMARK 923 INTER-LIGAND FREE ENERGY PREDICTED BY IDOCK:   -3.45 KCAL/MOL
REMARK 924 INTRA-LIGAND FREE ENERGY PREDICTED BY IDOCK:    0.05 KCAL/MOL
REMARK 927      BINDING AFFINITY PREDICTED BY RF-SCORE:    0.00 PKD
ROOT
HETATM    1  C   UNL     1      -9.940   6.130  72.177  1.00  0.00    -0.188 C  
HETATM    2  C   UNL     1     -11.037   5.231  72.193  1.00  0.00    -0.187 C  
HETATM    3  C   UNL     1      -9.775   4.646  71.679  1.00  0.00    -0.235 C  
HETATM    4  C   UNL     1      -8.103   5.821  71.876  1.00  0.00    -0.112 C  
HETATM    5  C   UNL     1      -8.571   4.890  72.770  1.00  0.00    -0.115 C  
HETATM    6  C   UNL     1      -7.780   7.032  67.796  1.00  0.00    -0.112 C  
HETATM    7  O   UNL     1      -6.709   5.501  71.734  1.00  0.00    -0.057 OA 
HETATM    8  C   UNL     1      -7.881   3.636  71.536  1.00  0.00    -0.057 C  
HETATM    9  C   UNL     1      -8.306   4.686  74.230  1.00  0.00    -0.098 C  
HETATM   10  O   UNL     1     -11.607   4.370  64.972  1.00  0.00    -0.036 OA 
HETATM   11  H   UNL     1      -5.935   6.044  71.825  1.00  0.00     0.000 HD 
HETATM   12  C   UNL     1      -7.908   4.308  69.877  1.00  0.00    -0.052 C  
HETATM   13  C   UNL     1      -9.092   5.403  69.330  1.00  0.00    -0.133 C  
HETATM   14  C   UNL     1      -9.682   6.621  70.407  1.00  0.00    -0.186 C  
HETATM   15  C   UNL     1     -10.938   7.306  69.853  1.00  0.00    -0.262 C  
HETATM   16  C   UNL     1     -10.733   7.784  68.422  1.00  0.00    -0.088 C  
HETATM   17  C   UNL     1     -10.309   6.622  67.557  1.00  0.00    -0.262 C  
HETATM   18  C   UNL     1     -11.218   6.096  66.709  1.00  0.00    -0.080 C  
HETATM   19  C   UNL     1     -10.834   5.018  65.894  1.00  0.00    -0.063 A  
HETATM   20  C   UNL     1      -9.568   4.484  65.846  1.00  0.00    -0.191 A  
HETATM   21  C   UNL     1      -8.499   4.843  66.812  1.00  0.00    -0.106 C  
HETATM   22  C   UNL     1      -9.576   3.676  64.697  1.00  0.00    -0.172 A  
HETATM   23  C   UNL     1      -8.907   5.981  67.855  1.00  0.00    -0.110 C  
HETATM   24  N   UNL     1     -10.810   3.536  64.202  1.00  0.00    -0.218 NA 
ENDROOT
BRANCH   4  25
HETATM   25  C   UNL     1      -7.926   7.149  72.678  1.00  0.00    -0.108 C  
HETATM   26  C   UNL     1      -7.841   8.170  73.304  1.00  0.00    -0.220 C  
ENDBRANCH   4  25
TORSDOF 1
ENDMDL
MODEL      100
REMARK 921   NORMALIZED FREE ENERGY PREDICTED BY IDOCK:   -3.11 KCAL/MOL
REMARK 922        TOTAL FREE ENERGY PREDICTED BY IDOCK:   -3.32 KCAL/MOL
REMARK 923 INTER-LIGAND FREE ENERGY PREDICTED BY IDOCK:   -3.29 KCAL/MOL
REMARK 924 INTRA-LIGAND FREE ENERGY PREDICTED BY IDOCK:   -0.02 KCAL/MOL
REMARK 927      BINDING AFFINITY PREDICTED BY RF-SCORE:    0.00 PKD
ROOT
HETATM    1  C   UNL     1      -9.061   6.376  71.809  1.00  0.00    -0.143 C  
HETATM    2  C   UNL     1     -10.340   6.806  71.370  1.00  0.00    -0.223 C  
HETATM    3  C   UNL     1     -10.161   5.334  71.381  1.00  0.00    -0.279 C  
HETATM    4  C   UNL     1      -8.429   4.654  72.250  1.00  0.00    -0.118 C  
HETATM    5  C   UNL     1      -9.640   4.855  72.864  1.00  0.00    -0.159 C  
HETATM    6  C   UNL     1      -6.352   3.657  68.657  1.00  0.00    -0.033 C  
HETATM    7  O   UNL     1      -8.042   3.332  72.661  1.00  0.00    -0.069 OA 
HETATM    8  C   UNL     1     -10.143   3.266  71.974  1.00  0.00    -0.178 C  
HETATM    9  C   UNL     1     -10.012   5.023  74.305  1.00  0.00    -0.226 C  
HETATM   10  O   UNL     1      -9.777   4.443  64.492  1.00  0.00    -0.151 OA 
HETATM   11  H   UNL     1      -7.241   3.017  73.063  1.00  0.00     0.000 HD 
HETATM   12  C   UNL     1      -9.215   3.077  70.455  1.00  0.00    -0.210 C  
HETATM   13  C   UNL     1      -8.687   4.393  69.511  1.00  0.00    -0.117 C  
HETATM   14  C   UNL     1      -8.136   5.832  70.296  1.00  0.00    -0.105 C  
HETATM   15  C   UNL     1      -7.994   6.997  69.308  1.00  0.00    -0.119 C  
HETATM   16  C   UNL     1      -7.178   6.600  68.085  1.00  0.00    -0.088 C  
HETATM   17  C   UNL     1      -7.802   5.393  67.430  1.00  0.00    -0.101 C  
HETATM   18  C   UNL     1      -8.486   5.573  66.281  1.00  0.00    -0.122 C  
HETATM   19  C   UNL     1      -9.066   4.456  65.658  1.00  0.00    -0.137 A  
HETATM   20  C   UNL     1      -8.942   3.160  66.101  1.00  0.00    -0.149 A  
HETATM   21  C   UNL     1      -8.357   2.806  67.419  1.00  0.00    -0.093 C  
HETATM   22  C   UNL     1      -9.396   2.381  65.024  1.00  0.00    -0.086 A  
HETATM   23  C   UNL     1      -7.784   4.048  68.242  1.00  0.00    -0.066 C  
HETATM   24  N   UNL     1      -9.969   3.132  64.079  1.00  0.00    -0.160 NA 
ENDROOT
BRANCH   4  25
HETATM   25  C   UNL     1      -7.375   5.444  73.087  1.00  0.00    -0.092 C  
HETATM   26  C   UNL     1      -6.535   6.009  73.734  1.00  0.00    -0.070 C  
ENDBRANCH   4  25
TORSDOF 1
ENDMDL
MODEL      101
REMARK 921   NORMALIZED FREE ENERGY PREDICTED BY IDOCK:   -3.02 KCAL/MOL
REMARK 922        TOTAL FREE ENERGY PREDICTED BY IDOCK:   -3.21 KCAL/MOL
REMARK 923 INTER-LIGAND FREE ENERGY PREDICTED BY IDOCK:   -3.24 KCAL/MOL
REMARK 924 INTRA-LIGAND FREE ENERGY PREDICTED BY IDOCK:    0.03 KCAL/MOL
REMARK 927      BINDING AFFINITY PREDICTED BY RF-SCORE:    0.00 PKD
ROOT
HETATM    1  C   UNL     1      -8.765  18.180  68.270  1.00  0.00    -0.294 C  
HETATM    2  C   UNL     1      -8.610  17.777  69.621  1.00  0.00     0.999 C  
HETATM    3  C   UNL     1      -7.786  17.009  68.656  1.00  0.00    -0.257 C  
HETATM    4  C   UNL     1      -7.777  17.721  66.730  1.00  0.00    -0.227 C  
HETATM    5  C   UNL     1      -6.905  18.048  67.737  1.00  0.00    -0.201 C  
HETATM    6  C   UNL     1     -10.345  14.767  65.026  1.00  0.00    -0.420 C  
HETATM    7  O   UNL     1      -6.925  17.403  65.616  1.00  0.00    -0.239 OA 
HETATM    8  C   UNL     1      -6.172  16.339  67.401  1.00  0.00    -0.205 C  
HETATM    9  C   UNL     1      -5.975  19.209  67.915  1.00  0.00    -0.212 C  
HETATM   10  O   UNL     1     -11.437  11.092  68.899  1.00  0.00    -0.247 OA 
HETATM   11  H   UNL     1      -6.921  17.733  64.725  1.00  0.00     0.000 HD 
HETATM   12  C   UNL     1      -7.428  15.230  66.770  1.00  0.00     0.203 C  
HETATM   13  C   UNL     1      -9.069  15.326  67.214  1.00  0.00    -0.210 C  
HETATM   14  C   UNL     1      -9.796  16.879  67.443  1.00  0.00    -0.261 C  
HETATM   15  C   UNL     1     -11.166  16.768  68.124  1.00  0.00    -0.154 C  
HETATM   16  C   UNL     1     -12.062  15.755  67.424  1.00  0.00     0.798 C  
HETATM   17  C   UNL     1     -11.364  14.419  67.363  1.00  0.00    -0.353 C  
HETATM   18  C   UNL     1     -11.782  13.444  68.198  1.00  0.00    -0.397 C  
HETATM   19  C   UNL     1     -11.144  12.193  68.146  1.00  0.00    -0.248 A  
HETATM   20  C   UNL     1     -10.151  11.856  67.259  1.00  0.00    -0.213 A  
HETATM   21  C   UNL     1      -9.476  12.847  66.382  1.00  0.00    -0.228 C  
HETATM   22  C   UNL     1     -10.054  10.459  67.361  1.00  0.00    -0.196 A  
HETATM   23  C   UNL     1     -10.070  14.325  66.478  1.00  0.00    -0.283 C  
HETATM   24  N   UNL     1     -10.764   9.990  68.392  1.00  0.00    -0.223 NA 
ENDROOT
BRANCH   4  25
HETATM   25  C   UNL     1      -8.338  19.069  66.179  1.00  0.00    -0.230 C  
HETATM   26  C   UNL     1      -8.734  20.132  65.784  1.00  0.00     0.051 C  
ENDBRANCH   4  25
TORSDOF 1
ENDMDL
MODEL      102
REMARK 921   NORMALIZED FREE ENERGY PREDICTED BY IDOCK:   -2.97 KCAL/MOL
REMARK 922        TOTAL FREE ENERGY PREDICTED BY IDOCK:   -3.16 KCAL/MOL
REMARK 923 INTER-LIGAND FREE ENERGY PREDICTED BY IDOCK:   -3.14 KCAL/MOL
REMARK 924 INTRA-LIGAND FREE ENERGY PREDICTED BY IDOCK:   -0.02 KCAL/MOL
REMARK 927      BINDING AFFINITY PREDICTED BY RF-SCORE:    0.00 PKD
ROOT
HETATM    1  C   UNL     1      -6.402   6.935  65.938  1.00  0.00    -0.050 C  
HETATM    2  C   UNL     1      -6.023   7.036  67.301  1.00  0.00    -0.032 C  
HETATM    3  C   UNL     1      -7.464   6.758  67.087  1.00  0.00    -0.091 C  
HETATM    4  C   UNL     1      -8.013   6.347  65.152  1.00  0.00    -0.116 C  
HETATM    5  C   UNL     1      -7.631   5.445  66.113  1.00  0.00    -0.087 C  
HETATM    6  C   UNL     1      -9.855  10.097  64.280  1.00  0.00    -0.270 C  
HETATM    7  O   UNL     1      -9.230   5.797  64.618  1.00  0.00    -0.319 OA 
HETATM    8  C   UNL     1      -9.353   5.762  66.826  1.00  0.00    -0.140 C  
HETATM    9  C   UNL     1      -7.139   4.034  66.019  1.00  0.00    -0.067 C  
HETATM   10  O   UNL     1      -9.844  13.050  68.860  1.00  0.00    -0.034 OA 
HETATM   11  H   UNL     1      -9.485   5.607  63.723  1.00  0.00     0.000 HD 
HETATM   12  C   UNL     1      -9.907   7.414  66.417  1.00  0.00    -0.137 C  
HETATM   13  C   UNL     1      -8.852   8.740  66.249  1.00  0.00    -0.187 C  
HETATM   14  C   UNL     1      -7.301   8.503  65.520  1.00  0.00    -0.084 C  
HETATM   15  C   UNL     1      -6.386   9.716  65.728  1.00  0.00    -0.075 C  
HETATM   16  C   UNL     1      -7.073  11.014  65.326  1.00  0.00     0.366 C  
HETATM   17  C   UNL     1      -8.366  11.160  66.090  1.00  0.00    -0.144 C  
HETATM   18  C   UNL     1      -8.410  12.048  67.104  1.00  0.00    -0.181 C  
HETATM   19  C   UNL     1      -9.610  12.197  67.819  1.00  0.00    -0.195 A  
HETATM   20  C   UNL     1     -10.782  11.542  67.527  1.00  0.00    -0.267 A  
HETATM   21  C   UNL     1     -10.867  10.429  66.548  1.00  0.00    -0.098 C  
HETATM   22  C   UNL     1     -11.756  12.225  68.274  1.00  0.00    -0.336 A  
HETATM   23  C   UNL     1      -9.502  10.120  65.781  1.00  0.00    -0.262 C  
HETATM   24  N   UNL     1     -11.204  13.084  69.136  1.00  0.00    -0.258 NA 
ENDROOT
BRANCH   4  25
HETATM   25  C   UNL     1      -7.106   6.075  63.911  1.00  0.00    -0.053 C  
HETATM   26  C   UNL     1      -6.448   5.884  62.925  1.00  0.00    -0.028 C  
ENDBRANCH   4  25
TORSDOF 1
ENDMDL
MODEL      103
REMARK 921   NORMALIZED FREE ENERGY PREDICTED BY IDOCK:   -2.37 KCAL/MOL
REMARK 922        TOTAL FREE ENERGY PREDICTED BY IDOCK:   -2.53 KCAL/MOL
REMARK 923 INTER-LIGAND FREE ENERGY PREDICTED BY IDOCK:   -2.55 KCAL/MOL
REMARK 924 INTRA-LIGAND FREE ENERGY PREDICTED BY IDOCK:    0.02 KCAL/MOL
REMARK 927      BINDING AFFINITY PREDICTED BY RF-SCORE:    0.00 PKD
ROOT
HETATM    1  C   UNL     1     -11.169   7.525  69.231  1.00  0.00     0.136 C  
HETATM    2  C   UNL     1     -11.154   6.290  68.535  1.00  0.00    -0.397 C  
HETATM    3  C   UNL     1      -9.827   6.726  69.033  1.00  0.00    -0.152 C  
HETATM    4  C   UNL     1      -9.834   8.368  70.265  1.00  0.00    -0.181 C  
HETATM    5  C   UNL     1      -9.923   7.051  70.641  1.00  0.00    -0.194 C  
HETATM    6  C   UNL     1      -8.349  11.200  67.438  1.00  0.00    -0.135 C  
HETATM    7  O   UNL     1      -8.808   8.907  71.116  1.00  0.00    -0.201 OA 
HETATM    8  C   UNL     1      -8.075   7.010  70.248  1.00  0.00    -0.119 C  
HETATM    9  C   UNL     1     -10.407   6.402  71.901  1.00  0.00    -0.228 C  
HETATM   10  O   UNL     1      -7.116   8.491  62.873  1.00  0.00    -0.090 OA 
HETATM   11  H   UNL     1      -8.812   9.667  71.686  1.00  0.00     0.000 HD 
HETATM   12  C   UNL     1      -7.675   8.213  68.985  1.00  0.00    -0.099 C  
HETATM   13  C   UNL     1      -8.750   8.656  67.740  1.00  0.00    -0.137 C  
HETATM   14  C   UNL     1     -10.439   8.789  68.086  1.00  0.00    -0.243 C  
HETATM   15  C   UNL     1     -11.274   8.893  66.803  1.00  0.00     1.120 C  
HETATM   16  C   UNL     1     -10.740   9.973  65.871  1.00  0.00     0.140 C  
HETATM   17  C   UNL     1      -9.287   9.704  65.566  1.00  0.00    -0.309 C  
HETATM   18  C   UNL     1      -8.972   9.216  64.348  1.00  0.00    -0.104 C  
HETATM   19  C   UNL     1      -7.622   8.968  64.049  1.00  0.00    -0.118 A  
HETATM   20  C   UNL     1      -6.570   9.242  64.891  1.00  0.00    -0.075 A  
HETATM   21  C   UNL     1      -6.750   9.636  66.311  1.00  0.00    -0.076 C  
HETATM   22  C   UNL     1      -5.434   9.136  64.071  1.00  0.00    -0.061 A  
HETATM   23  C   UNL     1      -8.271   9.818  66.758  1.00  0.00    -0.120 C  
HETATM   24  N   UNL     1      -5.734   8.615  62.878  1.00  0.00    -0.074 NA 
ENDROOT
BRANCH   4  25
HETATM   25  C   UNL     1     -11.048   9.095  70.924  1.00  0.00    -0.356 C  
HETATM   26  C   UNL     1     -11.995   9.674  71.384  1.00  0.00    -0.480 C  
ENDBRANCH   4  25
TORSDOF 1
ENDMDL
MODEL      104
REMARK 921   NORMALIZED FREE ENERGY PREDICTED BY IDOCK:   -2.30 KCAL/MOL
REMARK 922        TOTAL FREE ENERGY PREDICTED BY IDOCK:   -2.45 KCAL/MOL
REMARK 923 INTER-LIGAND FREE ENERGY PREDICTED BY IDOCK:   -2.45 KCAL/MOL
REMARK 924 INTRA-LIGAND FREE ENERGY PREDICTED BY IDOCK:    0.00 KCAL/MOL
REMARK 927      BINDING AFFINITY PREDICTED BY RF-SCORE:    0.00 PKD
ROOT
HETATM    1  C   UNL     1     -10.566  14.380  70.589  1.00  0.00     0.818 C  
HETATM    2  C   UNL     1     -10.545  15.321  71.651  1.00  0.00     0.560 C  
HETATM    3  C   UNL     1     -11.259  15.786  70.437  1.00  0.00    -0.383 C  
HETATM    4  C   UNL     1     -11.543  14.374  68.975  1.00  0.00    -0.296 C  
HETATM    5  C   UNL     1     -12.393  14.678  70.008  1.00  0.00    -0.365 C  
HETATM    6  C   UNL     1      -8.551  15.759  66.264  1.00  0.00    -0.307 C  
HETATM    7  O   UNL     1     -12.387  14.384  67.811  1.00  0.00    -0.620 OA 
HETATM    8  C   UNL     1     -12.785  16.216  68.983  1.00  0.00     1.348 C  
HETATM    9  C   UNL     1     -13.525  13.917  70.627  1.00  0.00     0.203 C  
HETATM   10  O   UNL     1      -6.473  20.365  68.306  1.00  0.00    -0.284 OA 
HETATM   11  H   UNL     1     -12.518  13.731  67.134  1.00  0.00     0.000 HD 
HETATM   12  C   UNL     1     -11.376  16.677  67.980  1.00  0.00    -0.052 C  
HETATM   13  C   UNL     1      -9.762  16.422  68.459  1.00  0.00    -0.228 C  
HETATM   14  C   UNL     1      -9.351  14.981  69.323  1.00  0.00    -0.162 C  
HETATM   15  C   UNL     1      -7.945  15.065  69.928  1.00  0.00     0.149 C  
HETATM   16  C   UNL     1      -6.911  15.489  68.894  1.00  0.00    -0.130 C  
HETATM   17  C   UNL     1      -7.325  16.800  68.273  1.00  0.00    -0.183 C  
HETATM   18  C   UNL     1      -6.662  17.916  68.642  1.00  0.00    -0.239 C  
HETATM   19  C   UNL     1      -7.035  19.143  68.066  1.00  0.00    -0.233 A  
HETATM   20  C   UNL     1      -7.997  19.293  67.097  1.00  0.00    -0.287 A  
HETATM   21  C   UNL     1      -8.917  18.200  66.691  1.00  0.00    -0.292 C  
HETATM   22  C   UNL     1      -7.801  20.597  66.613  1.00  0.00    -0.075 A  
HETATM   23  C   UNL     1      -8.631  16.799  67.399  1.00  0.00    -0.206 C  
HETATM   24  N   UNL     1      -6.942  21.281  67.375  1.00  0.00    -0.544 NA 
ENDROOT
BRANCH   4  25
HETATM   25  C   UNL     1     -11.306  12.832  69.040  1.00  0.00    -0.346 C  
HETATM   26  C   UNL     1     -11.079  11.652  69.064  1.00  0.00    -0.297 C  
ENDBRANCH   4  25
TORSDOF 1
ENDMDL
MODEL      105
REMARK 921   NORMALIZED FREE ENERGY PREDICTED BY IDOCK:   -2.06 KCAL/MOL
REMARK 922        TOTAL FREE ENERGY PREDICTED BY IDOCK:   -2.20 KCAL/MOL
REMARK 923 INTER-LIGAND FREE ENERGY PREDICTED BY IDOCK:   -2.18 KCAL/MOL
REMARK 924 INTRA-LIGAND FREE ENERGY PREDICTED BY IDOCK:   -0.02 KCAL/MOL
REMARK 927      BINDING AFFINITY PREDICTED BY RF-SCORE:    0.00 PKD
ROOT
HETATM    1  C   UNL     1      -9.017   8.181  65.167  1.00  0.00     0.113 C  
HETATM    2  C   UNL     1      -9.476   9.261  65.964  1.00  0.00    -0.311 C  
HETATM    3  C   UNL     1      -8.022   8.990  66.081  1.00  0.00    -0.103 C  
HETATM    4  C   UNL     1      -7.265   7.614  64.758  1.00  0.00    -0.067 C  
HETATM    5  C   UNL     1      -7.345   8.973  64.584  1.00  0.00    -0.098 C  
HETATM    6  C   UNL     1      -6.854   4.366  67.498  1.00  0.00    -0.052 C  
HETATM    7  O   UNL     1      -5.906   7.294  64.412  1.00  0.00    -0.036 OA 
HETATM    8  C   UNL     1      -5.891   9.023  65.790  1.00  0.00    -0.051 C  
HETATM    9  C   UNL     1      -7.291   9.826  63.354  1.00  0.00    -0.125 C  
HETATM   10  O   UNL     1      -8.157   6.211  72.458  1.00  0.00    -0.104 OA 
HETATM   11  H   UNL     1      -5.556   6.658  63.800  1.00  0.00     0.000 HD 
HETATM   12  C   UNL     1      -5.949   7.621  66.901  1.00  0.00    -0.047 C  
HETATM   13  C   UNL     1      -7.400   6.901  67.425  1.00  0.00    -0.092 C  
HETATM   14  C   UNL     1      -8.723   6.758  66.319  1.00  0.00    -0.152 C  
HETATM   15  C   UNL     1     -10.022   6.373  67.037  1.00  0.00    -0.209 C  
HETATM   16  C   UNL     1      -9.828   5.162  67.939  1.00  0.00    -0.199 C  
HETATM   17  C   UNL     1      -8.715   5.434  68.919  1.00  0.00    -0.099 C  
HETATM   18  C   UNL     1      -9.045   5.695  70.202  1.00  0.00    -0.159 C  
HETATM   19  C   UNL     1      -8.016   5.944  71.125  1.00  0.00    -0.113 A  
HETATM   20  C   UNL     1      -6.674   5.884  70.838  1.00  0.00    -0.057 A  
HETATM   21  C   UNL     1      -6.145   5.760  69.456  1.00  0.00    -0.028 C  
HETATM   22  C   UNL     1      -6.050   5.884  72.096  1.00  0.00    -0.040 A  
HETATM   23  C   UNL     1      -7.267   5.596  68.332  1.00  0.00    -0.075 C  
HETATM   24  N   UNL     1      -6.917   6.154  73.076  1.00  0.00    -0.079 NA 
ENDROOT
BRANCH   4  25
HETATM   25  C   UNL     1      -7.950   6.970  63.512  1.00  0.00    -0.070 C  
HETATM   26  C   UNL     1      -8.429   6.458  62.537  1.00  0.00     0.073 C  
ENDBRANCH   4  25
TORSDOF 1
ENDMDL
MODEL      106
REMARK 921   NORMALIZED FREE ENERGY PREDICTED BY IDOCK:   -1.90 KCAL/MOL
REMARK 922        TOTAL FREE ENERGY PREDICTED BY IDOCK:   -2.03 KCAL/MOL
REMARK 923 INTER-LIGAND FREE ENERGY PREDICTED BY IDOCK:   -2.08 KCAL/MOL
REMARK 924 INTRA-LIGAND FREE ENERGY PREDICTED BY IDOCK:    0.04 KCAL/MOL
REMARK 927      BINDING AFFINITY PREDICTED BY RF-SCORE:    0.00 PKD
ROOT
HETATM    1  C   UNL     1      -8.581  10.835  67.900  1.00  0.00    -0.125 C  
HETATM    2  C   UNL     1      -7.237  11.112  68.256  1.00  0.00    -0.083 C  
HETATM    3  C   UNL     1      -7.386  10.146  67.141  1.00  0.00    -0.091 C  
HETATM    4  C   UNL     1      -9.292   9.909  66.417  1.00  0.00    -0.167 C  
HETATM    5  C   UNL     1      -8.343  10.797  65.975  1.00  0.00    -0.163 C  
HETATM    6  C   UNL     1     -10.104   6.116  68.199  1.00  0.00    -0.181 C  
HETATM    7  O   UNL     1      -9.768   9.277  65.217  1.00  0.00    -0.450 OA 
HETATM    8  C   UNL     1      -7.558   9.271  65.183  1.00  0.00    -0.106 C  
HETATM    9  C   UNL     1      -8.451  12.053  65.167  1.00  0.00     1.139 C  
HETATM   10  O   UNL     1      -5.546   4.441  70.672  1.00  0.00    -0.011 OA 
HETATM   11  H   UNL     1     -10.650   9.167  64.882  1.00  0.00     0.000 HD 
HETATM   12  C   UNL     1      -7.951   7.802  66.127  1.00  0.00    -0.105 C  
HETATM   13  C   UNL     1      -8.173   7.805  67.815  1.00  0.00    -0.126 C  
HETATM   14  C   UNL     1      -8.968   9.146  68.563  1.00  0.00    -0.133 C  
HETATM   15  C   UNL     1      -8.808   9.121  70.088  1.00  0.00    -0.215 C  
HETATM   16  C   UNL     1      -9.186   7.766  70.671  1.00  0.00    -0.161 C  
HETATM   17  C   UNL     1      -8.367   6.685  70.011  1.00  0.00    -0.135 C  
HETATM   18  C   UNL     1      -7.357   6.132  70.715  1.00  0.00    -0.082 C  
HETATM   19  C   UNL     1      -6.591   5.120  70.113  1.00  0.00    -0.039 A  
HETATM   20  C   UNL     1      -6.827   4.596  68.865  1.00  0.00    -0.051 A  
HETATM   21  C   UNL     1      -7.796   5.187  67.907  1.00  0.00    -0.091 C  
HETATM   22  C   UNL     1      -6.043   3.431  68.824  1.00  0.00    -0.028 A  
HETATM   23  C   UNL     1      -8.620   6.426  68.482  1.00  0.00    -0.122 C  
HETATM   24  N   UNL     1      -5.211   3.361  69.867  1.00  0.00    -0.007 NA 
ENDROOT
BRANCH   4  25
HETATM   25  C   UNL     1     -10.571  10.751  66.725  1.00  0.00    -0.307 C  
HETATM   26  C   UNL     1     -11.529  11.419  67.003  1.00  0.00    -0.234 C  
ENDBRANCH   4  25
TORSDOF 1
ENDMDL
MODEL      107
REMARK 921   NORMALIZED FREE ENERGY PREDICTED BY IDOCK:   -1.82 KCAL/MOL
REMARK 922        TOTAL FREE ENERGY PREDICTED BY IDOCK:   -1.95 KCAL/MOL
REMARK 923 INTER-LIGAND FREE ENERGY PREDICTED BY IDOCK:   -1.98 KCAL/MOL
REMARK 924 INTRA-LIGAND FREE ENERGY PREDICTED BY IDOCK:    0.04 KCAL/MOL
REMARK 927      BINDING AFFINITY PREDICTED BY RF-SCORE:    0.00 PKD
ROOT
HETATM    1  C   UNL     1      -8.970  11.846  68.311  1.00  0.00    -0.178 C  
HETATM    2  C   UNL     1      -9.120  11.073  69.491  1.00  0.00     0.348 C  
HETATM    3  C   UNL     1      -7.729  11.149  68.983  1.00  0.00    -0.114 C  
HETATM    4  C   UNL     1      -7.416  12.461  67.435  1.00  0.00    -0.157 C  
HETATM    5  C   UNL     1      -7.303  12.722  68.778  1.00  0.00    -0.067 C  
HETATM    6  C   UNL     1      -7.111   9.577  64.303  1.00  0.00    -0.108 C  
HETATM    7  O   UNL     1      -6.197  12.976  66.873  1.00  0.00    -0.449 OA 
HETATM    8  C   UNL     1      -5.691  11.746  68.639  1.00  0.00    -0.045 C  
HETATM    9  C   UNL     1      -7.305  14.007  69.549  1.00  0.00     0.154 C  
HETATM   10  O   UNL     1      -7.317   4.631  66.583  1.00  0.00    -0.079 OA 
HETATM   11  H   UNL     1      -6.052  13.584  66.157  1.00  0.00     0.000 HD 
HETATM   12  C   UNL     1      -5.799  10.538  67.324  1.00  0.00    -0.049 C  
HETATM   13  C   UNL     1      -7.249   9.758  66.887  1.00  0.00    -0.090 C  
HETATM   14  C   UNL     1      -8.733  10.647  66.917  1.00  0.00    -0.133 C  
HETATM   15  C   UNL     1      -9.950   9.722  66.793  1.00  0.00    -0.278 C  
HETATM   16  C   UNL     1      -9.815   8.770  65.612  1.00  0.00     0.107 C  
HETATM   17  C   UNL     1      -8.534   7.984  65.739  1.00  0.00    -0.159 C  
HETATM   18  C   UNL     1      -8.615   6.690  66.115  1.00  0.00    -0.148 C  
HETATM   19  C   UNL     1      -7.429   5.946  66.231  1.00  0.00    -0.086 A  
HETATM   20  C   UNL     1      -6.174   6.420  65.930  1.00  0.00    -0.038 A  
HETATM   21  C   UNL     1      -5.893   7.851  65.650  1.00  0.00    -0.038 C  
HETATM   22  C   UNL     1      -5.371   5.269  65.886  1.00  0.00    -0.013 A  
HETATM   23  C   UNL     1      -7.187   8.785  65.624  1.00  0.00    -0.084 C  
HETATM   24  N   UNL     1      -6.021   4.196  66.346  1.00  0.00    -0.026 NA 
ENDROOT
BRANCH   4  25
HETATM   25  C   UNL     1      -8.380  13.544  66.857  1.00  0.00    -0.012 C  
HETATM   26  C   UNL     1      -9.163  14.347  66.426  1.00  0.00    -0.242 C  
ENDBRANCH   4  25
TORSDOF 1
ENDMDL
MODEL      108
REMARK 921   NORMALIZED FREE ENERGY PREDICTED BY IDOCK:   -1.59 KCAL/MOL
REMARK 922        TOTAL FREE ENERGY PREDICTED BY IDOCK:   -1.71 KCAL/MOL
REMARK 923 INTER-LIGAND FREE ENERGY PREDICTED BY IDOCK:   -1.73 KCAL/MOL
REMARK 924 INTRA-LIGAND FREE ENERGY PREDICTED BY IDOCK:    0.03 KCAL/MOL
REMARK 927      BINDING AFFINITY PREDICTED BY RF-SCORE:    0.00 PKD
ROOT
HETATM    1  C   UNL     1      -9.885  13.359  64.607  1.00  0.00     0.021 C  
HETATM    2  C   UNL     1      -9.483  12.144  63.995  1.00  0.00     0.140 C  
HETATM    3  C   UNL     1     -10.780  12.067  64.711  1.00  0.00    -0.352 C  
HETATM    4  C   UNL     1     -11.529  13.854  65.389  1.00  0.00    -0.312 C  
HETATM    5  C   UNL     1     -11.774  13.261  64.175  1.00  0.00    -0.470 C  
HETATM    6  C   UNL     1     -10.604  13.321  69.522  1.00  0.00     0.320 C  
HETATM    7  O   UNL     1     -12.836  14.198  65.882  1.00  0.00    -0.471 OA 
HETATM    8  C   UNL     1     -12.879  12.102  65.178  1.00  0.00     0.614 C  
HETATM    9  C   UNL     1     -12.291  13.811  62.882  1.00  0.00     0.850 C  
HETATM   10  O   UNL     1      -8.571   8.301  70.127  1.00  0.00    -0.124 OA 
HETATM   11  H   UNL     1     -13.183  15.024  66.196  1.00  0.00     0.000 HD 
HETATM   12  C   UNL     1     -12.274  11.952  66.856  1.00  0.00     0.587 C  
HETATM   13  C   UNL     1     -10.623  12.041  67.266  1.00  0.00    -0.252 C  
HETATM   14  C   UNL     1      -9.600  13.155  66.429  1.00  0.00    -0.259 C  
HETATM   15  C   UNL     1      -8.117  12.885  66.711  1.00  0.00     0.140 C  
HETATM   16  C   UNL     1      -7.838  12.782  68.205  1.00  0.00    -0.146 C  
HETATM   17  C   UNL     1      -8.720  11.719  68.812  1.00  0.00     0.019 C  
HETATM   18  C   UNL     1      -8.156  10.539  69.145  1.00  0.00    -0.152 C  
HETATM   19  C   UNL     1      -8.966   9.543  69.717  1.00  0.00    -0.200 A  
HETATM   20  C   UNL     1     -10.296   9.696  70.024  1.00  0.00    -0.298 A  
HETATM   21  C   UNL     1     -11.100  10.866  69.589  1.00  0.00    -0.328 C  
HETATM   22  C   UNL     1     -10.591   8.594  70.845  1.00  0.00    -0.214 A  
HETATM   23  C   UNL     1     -10.267  11.990  68.821  1.00  0.00    -0.145 C  
HETATM   24  N   UNL     1      -9.591   7.708  70.858  1.00  0.00    -0.165 NA 
ENDROOT
BRANCH   4  25
HETATM   25  C   UNL     1     -11.042  15.305  65.078  1.00  0.00    -0.436 C  
HETATM   26  C   UNL     1     -10.689  16.417  64.792  1.00  0.00    -0.100 C  
ENDBRANCH   4  25
TORSDOF 1
ENDMDL
MODEL      109
REMARK 921   NORMALIZED FREE ENERGY PREDICTED BY IDOCK:   -0.89 KCAL/MOL
REMARK 922        TOTAL FREE ENERGY PREDICTED BY IDOCK:   -0.96 KCAL/MOL
REMARK 923 INTER-LIGAND FREE ENERGY PREDICTED BY IDOCK:   -0.94 KCAL/MOL
REMARK 924 INTRA-LIGAND FREE ENERGY PREDICTED BY IDOCK:   -0.02 KCAL/MOL
REMARK 927      BINDING AFFINITY PREDICTED BY RF-SCORE:    0.00 PKD
ROOT
HETATM    1  C   UNL     1     -10.008   4.565  70.380  1.00  0.00    -0.284 C  
HETATM    2  C   UNL     1     -10.977   5.495  70.836  1.00  0.00    -0.194 C  
HETATM    3  C   UNL     1      -9.996   6.057  69.876  1.00  0.00    -0.225 C  
HETATM    4  C   UNL     1      -8.738   4.697  68.991  1.00  0.00    -0.085 C  
HETATM    5  C   UNL     1      -9.955   5.124  68.523  1.00  0.00    -0.221 C  
HETATM    6  C   UNL     1      -5.232   5.625  71.242  1.00  0.00    -0.009 C  
HETATM    7  O   UNL     1      -7.861   4.828  67.859  1.00  0.00    -0.082 OA 
HETATM    8  C   UNL     1      -9.016   6.701  68.072  1.00  0.00    -0.117 C  
HETATM    9  C   UNL     1     -10.902   4.538  67.522  1.00  0.00     1.160 C  
HETATM   10  O   UNL     1      -6.397   9.884  74.437  1.00  0.00    -0.102 OA 
HETATM   11  H   UNL     1      -7.279   4.199  67.449  1.00  0.00     0.000 HD 
HETATM   12  C   UNL     1      -7.636   6.949  69.184  1.00  0.00    -0.097 C  
HETATM   13  C   UNL     1      -7.649   6.463  70.816  1.00  0.00    -0.096 C  
HETATM   14  C   UNL     1      -8.424   4.979  71.252  1.00  0.00    -0.124 C  
HETATM   15  C   UNL     1      -8.602   4.859  72.771  1.00  0.00    -0.115 C  
HETATM   16  C   UNL     1      -7.299   5.125  73.513  1.00  0.00    -0.091 C  
HETATM   17  C   UNL     1      -6.764   6.481  73.124  1.00  0.00    -0.073 C  
HETATM   18  C   UNL     1      -6.880   7.490  74.013  1.00  0.00    -0.097 C  
HETATM   19  C   UNL     1      -6.380   8.756  73.666  1.00  0.00    -0.013 A  
HETATM   20  C   UNL     1      -5.717   9.043  72.497  1.00  0.00    -0.068 A  
HETATM   21  C   UNL     1      -5.637   8.095  71.357  1.00  0.00    -0.034 C  
HETATM   22  C   UNL     1      -5.141  10.303  72.725  1.00  0.00     0.100 A  
HETATM   23  C   UNL     1      -6.297   6.669  71.636  1.00  0.00    -0.042 C  
HETATM   24  N   UNL     1      -5.597  10.856  73.853  1.00  0.00     0.261 NA 
ENDROOT
BRANCH   4  25
HETATM   25  C   UNL     1      -8.801   3.137  69.019  1.00  0.00    -0.161 C  
HETATM   26  C   UNL     1      -8.807   1.936  69.012  1.00  0.00    -0.135 C  
ENDBRANCH   4  25
TORSDOF 1
ENDMDL
MODEL      110
REMARK 921   NORMALIZED FREE ENERGY PREDICTED BY IDOCK:    0.66 KCAL/MOL
REMARK 922        TOTAL FREE ENERGY PREDICTED BY IDOCK:    0.68 KCAL/MOL
REMARK 923 INTER-LIGAND FREE ENERGY PREDICTED BY IDOCK:    0.67 KCAL/MOL
REMARK 924 INTRA-LIGAND FREE ENERGY PREDICTED BY IDOCK:    0.01 KCAL/MOL
REMARK 927      BINDING AFFINITY PREDICTED BY RF-SCORE:    0.00 PKD
ROOT
HETATM    1  C   UNL     1     -10.520  13.859  64.727  1.00  0.00    -0.451 C  
HETATM    2  C   UNL     1      -9.481  12.927  64.477  1.00  0.00     0.509 C  
HETATM    3  C   UNL     1     -10.201  12.711  65.756  1.00  0.00    -0.288 C  
HETATM    4  C   UNL     1     -11.874  13.866  66.041  1.00  0.00    -0.393 C  
HETATM    5  C   UNL     1     -11.816  12.620  65.468  1.00  0.00    -0.479 C  
HETATM    6  C   UNL     1     -10.197  16.601  68.857  1.00  0.00    -0.284 C  
HETATM    7  O   UNL     1     -12.935  13.759  67.006  1.00  0.00    -0.079 OA 
HETATM    8  C   UNL     1     -11.591  12.020  67.245  1.00  0.00    -0.383 C  
HETATM    9  C   UNL     1     -12.769  11.887  64.574  1.00  0.00     0.051 C  
HETATM   10  O   UNL     1      -5.142  14.911  69.996  1.00  0.00    -0.093 OA 
HETATM   11  H   UNL     1     -13.709  14.293  67.139  1.00  0.00     0.000 HD 
HETATM   12  C   UNL     1     -10.799  13.281  68.238  1.00  0.00    -0.276 C  
HETATM   13  C   UNL     1      -9.664  14.387  67.616  1.00  0.00    -0.219 C  
HETATM   14  C   UNL     1      -9.887  15.025  66.024  1.00  0.00    -0.347 C  
HETATM   15  C   UNL     1      -8.633  15.752  65.523  1.00  0.00     1.230 C  
HETATM   16  C   UNL     1      -8.128  16.768  66.539  1.00  0.00    -0.329 C  
HETATM   17  C   UNL     1      -7.881  16.083  67.860  1.00  0.00    -0.148 C  
HETATM   18  C   UNL     1      -6.604  15.848  68.226  1.00  0.00    -0.123 C  
HETATM   19  C   UNL     1      -6.360  15.216  69.457  1.00  0.00    -0.139 A  
HETATM   20  C   UNL     1      -7.332  14.864  70.363  1.00  0.00     0.492 A  
HETATM   21  C   UNL     1      -8.784  14.914  70.055  1.00  0.00     0.529 C  
HETATM   22  C   UNL     1      -6.621  14.573  71.539  1.00  0.00     0.911 A  
HETATM   23  C   UNL     1      -9.133  15.510  68.616  1.00  0.00    -0.202 C  
HETATM   24  N   UNL     1      -5.304  14.523  71.318  1.00  0.00    -0.145 NA 
ENDROOT
BRANCH   4  25
HETATM   25  C   UNL     1     -12.619  14.784  65.022  1.00  0.00    -0.074 C  
HETATM   26  C   UNL     1     -13.161  15.531  64.253  1.00  0.00     1.403 C  
ENDBRANCH   4  25
TORSDOF 1
ENDMDL
MODEL      111
REMARK 921   NORMALIZED FREE ENERGY PREDICTED BY IDOCK:    1.40 KCAL/MOL
REMARK 922        TOTAL FREE ENERGY PREDICTED BY IDOCK:    1.46 KCAL/MOL
REMARK 923 INTER-LIGAND FREE ENERGY PREDICTED BY IDOCK:    1.44 KCAL/MOL
REMARK 924 INTRA-LIGAND FREE ENERGY PREDICTED BY IDOCK:    0.02 KCAL/MOL
REMARK 927      BINDING AFFINITY PREDICTED BY RF-SCORE:    0.00 PKD
ROOT
HETATM    1  C   UNL     1      -9.288  18.884  67.162  1.00  0.00    -0.328 C  
HETATM    2  C   UNL     1     -10.507  18.871  66.437  1.00  0.00    -0.505 C  
HETATM    3  C   UNL     1     -10.654  18.575  67.883  1.00  0.00    -0.385 C  
HETATM    4  C   UNL     1      -8.964  18.836  69.020  1.00  0.00    -0.112 C  
HETATM    5  C   UNL     1      -9.940  19.766  68.761  1.00  0.00    -0.510 C  
HETATM    6  C   UNL     1      -7.981  14.713  69.522  1.00  0.00     0.063 C  
HETATM    7  O   UNL     1      -8.793  18.894  70.447  1.00  0.00     1.841 OA 
HETATM    8  C   UNL     1     -10.956  18.768  70.004  1.00  0.00     2.604 C  
HETATM    9  C   UNL     1      -9.946  21.261  68.860  1.00  0.00     1.356 C  
HETATM   10  O   UNL     1     -11.973  11.773  67.261  1.00  0.00    -0.618 OA 
HETATM   11  H   UNL     1      -8.011  19.015  70.973  1.00  0.00     0.000 HD 
HETATM   12  C   UNL     1     -10.443  17.054  70.001  1.00  0.00     0.209 C  
HETATM   13  C   UNL     1      -9.860  16.254  68.615  1.00  0.00    -0.230 C  
HETATM   14  C   UNL     1      -8.853  17.112  67.501  1.00  0.00    -0.218 C  
HETATM   15  C   UNL     1      -8.679  16.343  66.185  1.00  0.00    -0.347 C  
HETATM   16  C   UNL     1      -8.254  14.901  66.429  1.00  0.00     0.374 C  
HETATM   17  C   UNL     1      -9.251  14.226  67.338  1.00  0.00    -0.200 C  
HETATM   18  C   UNL     1     -10.111  13.341  66.792  1.00  0.00    -0.258 C  
HETATM   19  C   UNL     1     -11.040  12.701  67.629  1.00  0.00    -0.263 A  
HETATM   20  C   UNL     1     -11.108  12.861  68.992  1.00  0.00    -0.284 A  
HETATM   21  C   UNL     1     -10.342  13.901  69.726  1.00  0.00     0.561 C  
HETATM   22  C   UNL     1     -11.941  11.816  69.424  1.00  0.00    -0.298 A  
HETATM   23  C   UNL     1      -9.350  14.755  68.814  1.00  0.00    -0.198 C  
HETATM   24  N   UNL     1     -12.529  11.198  68.395  1.00  0.00    -0.089 NA 
ENDROOT
BRANCH   4  25
HETATM   25  C   UNL     1      -7.608  19.501  68.625  1.00  0.00    -0.389 C  
HETATM   26  C   UNL     1      -6.584  20.059  68.339  1.00  0.00    -0.331 C  
ENDBRANCH   4  25
TORSDOF 1
ENDMDL
MODEL      112
REMARK 921   NORMALIZED FREE ENERGY PREDICTED BY IDOCK:    1.42 KCAL/MOL
REMARK 922        TOTAL FREE ENERGY PREDICTED BY IDOCK:    1.48 KCAL/MOL
REMARK 923 INTER-LIGAND FREE ENERGY PREDICTED BY IDOCK:    1.44 KCAL/MOL
REMARK 924 INTRA-LIGAND FREE ENERGY PREDICTED BY IDOCK:    0.04 KCAL/MOL
REMARK 927      BINDING AFFINITY PREDICTED BY RF-SCORE:    0.00 PKD
ROOT
HETATM    1  C   UNL     1     -11.278  14.951  64.847  1.00  0.00    -0.415 C  
HETATM    2  C   UNL     1     -10.235  15.353  63.974  1.00  0.00     2.844 C  
HETATM    3  C   UNL     1      -9.838  14.324  64.966  1.00  0.00    -0.058 C  
HETATM    4  C   UNL     1     -11.367  13.523  66.078  1.00  0.00    -0.312 C  
HETATM    5  C   UNL     1     -10.876  13.053  64.885  1.00  0.00    -0.343 C  
HETATM    6  C   UNL     1     -10.564  15.598  69.720  1.00  0.00    -0.308 C  
HETATM    7  O   UNL     1     -11.403  12.361  66.925  1.00  0.00    -0.293 OA 
HETATM    8  C   UNL     1      -9.427  12.449  65.937  1.00  0.00    -0.134 C  
HETATM    9  C   UNL     1     -11.458  12.129  63.860  1.00  0.00    -0.519 C  
HETATM   10  O   UNL     1      -5.979  18.458  69.018  1.00  0.00    -0.206 OA 
HETATM   11  H   UNL     1     -12.111  11.990  67.439  1.00  0.00     0.000 HD 
HETATM   12  C   UNL     1      -9.209  13.500  67.369  1.00  0.00    -0.223 C  
HETATM   13  C   UNL     1      -9.560  15.167  67.368  1.00  0.00    -0.208 C  
HETATM   14  C   UNL     1     -10.932  15.744  66.488  1.00  0.00    -0.165 C  
HETATM   15  C   UNL     1     -10.915  17.272  66.351  1.00  0.00     0.222 C  
HETATM   16  C   UNL     1     -10.702  17.955  67.695  1.00  0.00    -0.343 C  
HETATM   17  C   UNL     1      -9.432  17.442  68.327  1.00  0.00    -0.290 C  
HETATM   18  C   UNL     1      -8.349  18.247  68.324  1.00  0.00    -0.316 C  
HETATM   19  C   UNL     1      -7.162  17.784  68.916  1.00  0.00    -0.256 A  
HETATM   20  C   UNL     1      -7.028  16.578  69.562  1.00  0.00    -0.136 A  
HETATM   21  C   UNL     1      -8.068  15.518  69.526  1.00  0.00    -0.202 C  
HETATM   22  C   UNL     1      -5.807  16.686  70.248  1.00  0.00    -0.118 A  
HETATM   23  C   UNL     1      -9.405  15.932  68.759  1.00  0.00    -0.220 C  
HETATM   24  N   UNL     1      -5.128  17.776  69.876  1.00  0.00    -0.184 NA 
ENDROOT
BRANCH   4  25
HETATM   25  C   UNL     1     -12.908  13.682  65.886  1.00  0.00    -0.328 C  
HETATM   26  C   UNL     1     -14.086  13.808  65.686  1.00  0.00     3.945 C  
ENDBRANCH   4  25
TORSDOF 1
ENDMDL
MODEL      113
REMARK 921   NORMALIZED FREE ENERGY PREDICTED BY IDOCK:    2.56 KCAL/MOL
REMARK 922        TOTAL FREE ENERGY PREDICTED BY IDOCK:    2.69 KCAL/MOL
REMARK 923 INTER-LIGAND FREE ENERGY PREDICTED BY IDOCK:    2.65 KCAL/MOL
REMARK 924 INTRA-LIGAND FREE ENERGY PREDICTED BY IDOCK:    0.04 KCAL/MOL
REMARK 927      BINDING AFFINITY PREDICTED BY RF-SCORE:    0.00 PKD
ROOT
HETATM    1  C   UNL     1      -7.208  15.591  69.165  1.00  0.00    -0.174 C  
HETATM    2  C   UNL     1      -5.875  15.218  68.855  1.00  0.00    -0.097 C  
HETATM    3  C   UNL     1      -6.713  15.534  67.672  1.00  0.00    -0.205 C  
HETATM    4  C   UNL     1      -8.563  16.326  68.078  1.00  0.00    -0.176 C  
HETATM    5  C   UNL     1      -7.396  17.016  67.863  1.00  0.00    -0.177 C  
HETATM    6  C   UNL     1     -10.866  12.827  67.254  1.00  0.00    -0.277 C  
HETATM    7  O   UNL     1      -9.516  16.971  67.217  1.00  0.00    -0.234 OA 
HETATM    8  C   UNL     1      -7.683  16.562  66.051  1.00  0.00     0.158 C  
HETATM    9  C   UNL     1      -6.988  18.417  68.200  1.00  0.00    -0.241 C  
HETATM   10  O   UNL     1      -7.463   9.014  65.363  1.00  0.00    -0.087 OA 
HETATM   11  H   UNL     1     -10.372  17.338  67.404  1.00  0.00     0.000 HD 
HETATM   12  C   UNL     1      -8.593  15.026  65.925  1.00  0.00     0.759 C  
HETATM   13  C   UNL     1      -8.454  13.760  67.056  1.00  0.00    -0.150 C  
HETATM   14  C   UNL     1      -8.279  14.139  68.734  1.00  0.00    -0.074 C  
HETATM   15  C   UNL     1      -7.868  12.909  69.553  1.00  0.00     0.960 C  
HETATM   16  C   UNL     1      -8.774  11.718  69.272  1.00  0.00     0.587 C  
HETATM   17  C   UNL     1      -8.778  11.423  67.792  1.00  0.00    -0.136 C  
HETATM   18  C   UNL     1      -8.088  10.348  67.356  1.00  0.00    -0.107 C  
HETATM   19  C   UNL     1      -8.089  10.059  65.982  1.00  0.00    -0.124 A  
HETATM   20  C   UNL     1      -8.796  10.759  65.034  1.00  0.00    -0.190 A  
HETATM   21  C   UNL     1      -9.479  12.047  65.319  1.00  0.00    -0.042 C  
HETATM   22  C   UNL     1      -8.753   9.940  63.894  1.00  0.00    -0.214 A  
HETATM   23  C   UNL     1      -9.414  12.504  66.847  1.00  0.00    -0.219 C  
HETATM   24  N   UNL     1      -7.897   8.926  64.048  1.00  0.00    -0.129 NA 
ENDROOT
BRANCH   4  25
HETATM   25  C   UNL     1      -9.134  16.841  69.436  1.00  0.00     0.113 C  
HETATM   26  C   UNL     1      -9.527  17.260  70.491  1.00  0.00     3.124 C  
ENDBRANCH   4  25
TORSDOF 1
ENDMDL
MODEL      114
REMARK 921   NORMALIZED FREE ENERGY PREDICTED BY IDOCK:    2.82 KCAL/MOL
REMARK 922        TOTAL FREE ENERGY PREDICTED BY IDOCK:    2.97 KCAL/MOL
REMARK 923 INTER-LIGAND FREE ENERGY PREDICTED BY IDOCK:    2.93 KCAL/MOL
REMARK 924 INTRA-LIGAND FREE ENERGY PREDICTED BY IDOCK:    0.04 KCAL/MOL
REMARK 927      BINDING AFFINITY PREDICTED BY RF-SCORE:    0.00 PKD
ROOT
HETATM    1  C   UNL     1      -8.879  11.331  65.884  1.00  0.00    -0.174 C  
HETATM    2  C   UNL     1      -9.167  12.308  64.897  1.00  0.00     0.457 C  
HETATM    3  C   UNL     1      -7.732  12.212  65.262  1.00  0.00     2.510 C  
HETATM    4  C   UNL     1      -7.229  10.644  66.488  1.00  0.00    -0.134 C  
HETATM    5  C   UNL     1      -7.232  10.653  65.116  1.00  0.00     0.063 C  
HETATM    6  C   UNL     1      -6.742  12.880  70.091  1.00  0.00     0.479 C  
HETATM    7  O   UNL     1      -5.945  10.097  66.833  1.00  0.00    -0.053 OA 
HETATM    8  C   UNL     1      -5.651  11.671  65.309  1.00  0.00     1.522 C  
HETATM    9  C   UNL     1      -7.258   9.545  64.110  1.00  0.00    -0.115 C  
HETATM   10  O   UNL     1      -7.341  18.155  68.859  1.00  0.00    -0.275 OA 
HETATM   11  H   UNL     1      -5.712   9.371  67.401  1.00  0.00     0.000 HD 
HETATM   12  C   UNL     1      -5.681  12.594  66.842  1.00  0.00     0.432 C  
HETATM   13  C   UNL     1      -7.112  13.195  67.544  1.00  0.00    -0.156 C  
HETATM   14  C   UNL     1      -8.558  12.249  67.463  1.00  0.00    -0.174 C  
HETATM   15  C   UNL     1      -9.792  13.065  67.869  1.00  0.00    -0.224 C  
HETATM   16  C   UNL     1      -9.583  13.776  69.199  1.00  0.00     0.302 C  
HETATM   17  C   UNL     1      -8.349  14.641  69.123  1.00  0.00    -0.055 C  
HETATM   18  C   UNL     1      -8.513  15.976  69.018  1.00  0.00    -0.244 C  
HETATM   19  C   UNL     1      -7.371  16.792  68.952  1.00  0.00    -0.235 A  
HETATM   20  C   UNL     1      -6.077  16.338  69.047  1.00  0.00    -0.142 A  
HETATM   21  C   UNL     1      -5.719  14.898  69.015  1.00  0.00    -0.096 C  
HETATM   22  C   UNL     1      -5.316  17.501  69.251  1.00  0.00    -0.180 A  
HETATM   23  C   UNL     1      -6.969  13.907  68.964  1.00  0.00    -0.109 C  
HETATM   24  N   UNL     1      -6.045  18.606  69.067  1.00  0.00    -0.228 NA 
ENDROOT
BRANCH   4  25
HETATM   25  C   UNL     1      -8.095   9.418  66.920  1.00  0.00    -0.109 C  
HETATM   26  C   UNL     1      -8.804   8.506  67.248  1.00  0.00    -0.137 C  
ENDBRANCH   4  25
TORSDOF 1
ENDMDL
MODEL      115
REMARK 921   NORMALIZED FREE ENERGY PREDICTED BY IDOCK:    4.85 KCAL/MOL
REMARK 922        TOTAL FREE ENERGY PREDICTED BY IDOCK:    5.11 KCAL/MOL
REMARK 923 INTER-LIGAND FREE ENERGY PREDICTED BY IDOCK:    5.13 KCAL/MOL
REMARK 924 INTRA-LIGAND FREE ENERGY PREDICTED BY IDOCK:   -0.02 KCAL/MOL
REMARK 927      BINDING AFFINITY PREDICTED BY RF-SCORE:    0.00 PKD
ROOT
HETATM    1  C   UNL     1      -8.039  14.877  68.760  1.00  0.00    -0.162 C  
HETATM    2  C   UNL     1      -7.409  13.683  68.326  1.00  0.00    -0.119 C  
HETATM    3  C   UNL     1      -7.641  14.677  67.250  1.00  0.00    -0.173 C  
HETATM    4  C   UNL     1      -8.310  16.517  67.867  1.00  0.00    -0.173 C  
HETATM    5  C   UNL     1      -7.006  16.126  67.694  1.00  0.00    -0.175 C  
HETATM    6  C   UNL     1     -12.380  16.070  66.661  1.00  0.00     2.042 C  
HETATM    7  O   UNL     1      -8.397  17.768  67.163  1.00  0.00    -0.215 OA 
HETATM    8  C   UNL     1      -7.397  16.294  65.853  1.00  0.00     1.278 C  
HETATM    9  C   UNL     1      -5.718  16.688  68.212  1.00  0.00    -0.118 C  
HETATM   10  O   UNL     1     -12.817  11.308  64.047  1.00  0.00     0.345 OA 
HETATM   11  H   UNL     1      -8.707  18.620  67.449  1.00  0.00     0.000 HD 
HETATM   12  C   UNL     1      -9.135  15.990  65.550  1.00  0.00     0.260 C  
HETATM   13  C   UNL     1     -10.070  14.906  66.473  1.00  0.00    -0.279 C  
HETATM   14  C   UNL     1      -9.798  14.791  68.178  1.00  0.00    -0.221 C  
HETATM   15  C   UNL     1     -10.503  13.569  68.782  1.00  0.00    -0.212 C  
HETATM   16  C   UNL     1     -11.969  13.509  68.377  1.00  0.00    -0.378 C  
HETATM   17  C   UNL     1     -12.080  13.523  66.873  1.00  0.00    -0.417 C  
HETATM   18  C   UNL     1     -12.389  12.369  66.246  1.00  0.00     0.183 C  
HETATM   19  C   UNL     1     -12.502  12.370  64.846  1.00  0.00    -0.361 A  
HETATM   20  C   UNL     1     -12.378  13.485  64.052  1.00  0.00    -0.391 A  
HETATM   21  C   UNL     1     -11.895  14.794  64.560  1.00  0.00    -0.428 C  
HETATM   22  C   UNL     1     -12.873  13.077  62.802  1.00  0.00     1.266 A  
HETATM   23  C   UNL     1     -11.627  14.833  66.133  1.00  0.00    -0.292 C  
HETATM   24  N   UNL     1     -13.072  11.756  62.759  1.00  0.00     0.066 NA 
ENDROOT
BRANCH   4  25
HETATM   25  C   UNL     1      -8.407  17.091  69.315  1.00  0.00     0.107 C  
HETATM   26  C   UNL     1      -8.526  17.558  70.416  1.00  0.00     3.701 C  
ENDBRANCH   4  25
TORSDOF 1
ENDMDL
MODEL      116
REMARK 921   NORMALIZED FREE ENERGY PREDICTED BY IDOCK:   10.04 KCAL/MOL
REMARK 922        TOTAL FREE ENERGY PREDICTED BY IDOCK:   10.60 KCAL/MOL
REMARK 923 INTER-LIGAND FREE ENERGY PREDICTED BY IDOCK:   10.56 KCAL/MOL
REMARK 924 INTRA-LIGAND FREE ENERGY PREDICTED BY IDOCK:    0.04 KCAL/MOL
REMARK 927      BINDING AFFINITY PREDICTED BY RF-SCORE:    0.00 PKD
ROOT
HETATM    1  C   UNL     1      -8.235   8.698  67.351  1.00  0.00    -0.105 C  
HETATM    2  C   UNL     1      -6.967   9.006  66.795  1.00  0.00    -0.081 C  
HETATM    3  C   UNL     1      -7.011   9.048  68.277  1.00  0.00    -0.076 C  
HETATM    4  C   UNL     1      -8.744   8.360  69.136  1.00  0.00    -0.142 C  
HETATM    5  C   UNL     1      -7.617   7.632  68.849  1.00  0.00    -0.101 C  
HETATM    6  C   UNL     1     -10.392  12.153  70.194  1.00  0.00     2.049 C  
HETATM    7  O   UNL     1      -9.045   8.019  70.500  1.00  0.00    -0.150 OA 
HETATM    8  C   UNL     1      -6.894   8.511  70.357  1.00  0.00    -0.037 C  
HETATM    9  C   UNL     1      -7.392   6.159  68.696  1.00  0.00    -0.086 C  
HETATM   10  O   UNL     1      -6.693  15.963  68.971  1.00  0.00    -0.133 OA 
HETATM   11  H   UNL     1      -9.847   7.701  70.897  1.00  0.00     0.000 HD 
HETATM   12  C   UNL     1      -7.661  10.113  70.577  1.00  0.00     0.229 C  
HETATM   13  C   UNL     1      -8.219  11.069  69.283  1.00  0.00     0.010 C  
HETATM   14  C   UNL     1      -8.967  10.303  67.924  1.00  0.00    -0.131 C  
HETATM   15  C   UNL     1      -9.126  11.271  66.745  1.00  0.00    -0.181 C  
HETATM   16  C   UNL     1      -9.789  12.573  67.171  1.00  0.00    -0.210 C  
HETATM   17  C   UNL     1      -9.002  13.197  68.297  1.00  0.00    -0.175 C  
HETATM   18  C   UNL     1      -8.237  14.274  68.019  1.00  0.00    -0.153 C  
HETATM   19  C   UNL     1      -7.504  14.868  69.060  1.00  0.00    -0.144 A  
HETATM   20  C   UNL     1      -7.549  14.470  70.374  1.00  0.00     0.899 A  
HETATM   21  C   UNL     1      -8.215  13.221  70.823  1.00  0.00     6.171 C  
HETATM   22  C   UNL     1      -6.931  15.520  71.075  1.00  0.00     1.516 A  
HETATM   23  C   UNL     1      -8.970  12.424  69.664  1.00  0.00     1.971 C  
HETATM   24  N   UNL     1      -6.346  16.389  70.245  1.00  0.00     0.060 NA 
ENDROOT
BRANCH   4  25
HETATM   25  C   UNL     1      -9.937   7.604  68.469  1.00  0.00    -0.190 C  
HETATM   26  C   UNL     1     -10.820   7.000  67.924  1.00  0.00    -0.252 C  
ENDBRANCH   4  25
TORSDOF 1
ENDMDL
MODEL      117
REMARK 921   NORMALIZED FREE ENERGY PREDICTED BY IDOCK:   10.08 KCAL/MOL
REMARK 922        TOTAL FREE ENERGY PREDICTED BY IDOCK:   10.65 KCAL/MOL
REMARK 923 INTER-LIGAND FREE ENERGY PREDICTED BY IDOCK:   10.66 KCAL/MOL
REMARK 924 INTRA-LIGAND FREE ENERGY PREDICTED BY IDOCK:   -0.01 KCAL/MOL
REMARK 927      BINDING AFFINITY PREDICTED BY RF-SCORE:    0.00 PKD
ROOT
HETATM    1  C   UNL     1      -8.592  11.757  64.025  1.00  0.00     1.024 C  
HETATM    2  C   UNL     1      -7.783  12.922  64.049  1.00  0.00     9.157 C  
HETATM    3  C   UNL     1      -7.698  12.094  65.277  1.00  0.00     2.510 C  
HETATM    4  C   UNL     1      -8.642  10.273  65.189  1.00  0.00    -0.171 C  
HETATM    5  C   UNL     1      -7.335  10.544  64.869  1.00  0.00     0.019 C  
HETATM    6  C   UNL     1     -12.036  11.283  67.573  1.00  0.00     0.172 C  
HETATM    7  O   UNL     1      -8.561   9.131  66.059  1.00  0.00    -0.134 OA 
HETATM    8  C   UNL     1      -7.094  10.638  66.741  1.00  0.00    -0.118 C  
HETATM    9  C   UNL     1      -6.331   9.793  64.050  1.00  0.00    -0.118 C  
HETATM   10  O   UNL     1     -11.289  16.342  69.454  1.00  0.00    -0.296 OA 
HETATM   11  H   UNL     1      -8.998   8.288  66.018  1.00  0.00     0.000 HD 
HETATM   12  C   UNL     1      -8.608  11.156  67.543  1.00  0.00    -0.129 C  
HETATM   13  C   UNL     1      -9.733  12.214  66.826  1.00  0.00    -0.215 C  
HETATM   14  C   UNL     1     -10.044  12.096  65.128  1.00  0.00    -0.288 C  
HETATM   15  C   UNL     1     -10.838  13.303  64.613  1.00  0.00    -0.396 C  
HETATM   16  C   UNL     1     -12.077  13.564  65.458  1.00  0.00    -0.454 C  
HETATM   17  C   UNL     1     -11.676  13.741  66.902  1.00  0.00    -0.424 C  
HETATM   18  C   UNL     1     -11.688  14.988  67.417  1.00  0.00    -0.255 C  
HETATM   19  C   UNL     1     -11.323  15.165  68.762  1.00  0.00    -0.300 A  
HETATM   20  C   UNL     1     -11.005  14.147  69.628  1.00  0.00    -0.125 A  
HETATM   21  C   UNL     1     -10.799  12.743  69.189  1.00  0.00    -0.123 C  
HETATM   22  C   UNL     1     -11.027  14.751  70.896  1.00  0.00     0.082 A  
HETATM   23  C   UNL     1     -11.078  12.489  67.639  1.00  0.00    -0.301 C  
HETATM   24  N   UNL     1     -11.122  16.081  70.807  1.00  0.00    -0.334 NA 
ENDROOT
BRANCH   4  25
HETATM   25  C   UNL     1      -9.254   9.543  63.952  1.00  0.00    -0.094 C  
HETATM   26  C   UNL     1      -9.771   8.978  63.027  1.00  0.00     1.974 C  
ENDBRANCH   4  25
TORSDOF 1
ENDMDL
MODEL      118
REMARK 921   NORMALIZED FREE ENERGY PREDICTED BY IDOCK:   16.24 KCAL/MOL
REMARK 922        TOTAL FREE ENERGY PREDICTED BY IDOCK:   17.17 KCAL/MOL
REMARK 923 INTER-LIGAND FREE ENERGY PREDICTED BY IDOCK:   17.17 KCAL/MOL
REMARK 924 INTRA-LIGAND FREE ENERGY PREDICTED BY IDOCK:   -0.01 KCAL/MOL
REMARK 927      BINDING AFFINITY PREDICTED BY RF-SCORE:    0.00 PKD
ROOT
HETATM    1  C   UNL     1      -8.775  18.158  68.373  1.00  0.00    -0.302 C  
HETATM    2  C   UNL     1     -10.093  18.658  68.221  1.00  0.00    -0.431 C  
HETATM    3  C   UNL     1     -10.012  17.350  68.916  1.00  0.00    -0.308 C  
HETATM    4  C   UNL     1      -8.120  16.710  69.391  1.00  0.00     0.103 C  
HETATM    5  C   UNL     1      -8.960  17.462  70.174  1.00  0.00     2.408 C  
HETATM    6  C   UNL     1      -7.751  13.739  66.349  1.00  0.00     1.619 C  
HETATM    7  O   UNL     1      -7.677  15.656  70.262  1.00  0.00     0.344 OA 
HETATM    8  C   UNL     1      -9.875  15.827  70.430  1.00  0.00     0.445 C  
HETATM    9  C   UNL     1      -8.702  18.337  71.361  1.00  0.00     8.938 C  
HETATM   10  O   UNL     1     -12.526  13.443  63.737  1.00  0.00    -0.682 OA 
HETATM   11  H   UNL     1      -6.801  15.360  70.482  1.00  0.00     0.000 HD 
HETATM   12  C   UNL     1      -9.660  14.759  69.010  1.00  0.00    -0.178 C  
HETATM   13  C   UNL     1      -9.488  15.341  67.419  1.00  0.00    -0.200 C  
HETATM   14  C   UNL     1      -8.581  16.787  67.138  1.00  0.00    -0.217 C  
HETATM   15  C   UNL     1      -8.787  17.317  65.713  1.00  0.00     0.199 C  
HETATM   16  C   UNL     1      -8.566  16.229  64.671  1.00  0.00     5.939 C  
HETATM   17  C   UNL     1      -9.472  15.058  64.962  1.00  0.00     0.613 C  
HETATM   18  C   UNL     1     -10.553  14.879  64.175  1.00  0.00     0.938 C  
HETATM   19  C   UNL     1     -11.401  13.789  64.432  1.00  0.00    -0.360 A  
HETATM   20  C   UNL     1     -11.184  12.838  65.400  1.00  0.00    -0.327 A  
HETATM   21  C   UNL     1     -10.133  12.967  66.442  1.00  0.00    -0.279 C  
HETATM   22  C   UNL     1     -12.082  11.807  65.081  1.00  0.00     0.213 A  
HETATM   23  C   UNL     1      -9.203  14.255  66.285  1.00  0.00    -0.181 C  
HETATM   24  N   UNL     1     -12.946  12.181  64.133  1.00  0.00    -0.687 NA 
ENDROOT
BRANCH   4  25
HETATM   25  C   UNL     1      -6.772  17.494  69.317  1.00  0.00    -0.221 C  
HETATM   26  C   UNL     1      -5.724  18.081  69.309  1.00  0.00    -0.213 C  
ENDBRANCH   4  25
TORSDOF 1
ENDMDL
MODEL      119
REMARK 921   NORMALIZED FREE ENERGY PREDICTED BY IDOCK:   16.86 KCAL/MOL
REMARK 922        TOTAL FREE ENERGY PREDICTED BY IDOCK:   17.83 KCAL/MOL
REMARK 923 INTER-LIGAND FREE ENERGY PREDICTED BY IDOCK:   17.85 KCAL/MOL
REMARK 924 INTRA-LIGAND FREE ENERGY PREDICTED BY IDOCK:   -0.02 KCAL/MOL
REMARK 927      BINDING AFFINITY PREDICTED BY RF-SCORE:    0.00 PKD
ROOT
HETATM    1  C   UNL     1      -9.262  11.135  64.280  1.00  0.00    -0.123 C  
HETATM    2  C   UNL     1      -9.346  12.517  64.584  1.00  0.00     0.503 C  
HETATM    3  C   UNL     1      -8.457  11.747  65.488  1.00  0.00     0.481 C  
HETATM    4  C   UNL     1      -8.098   9.802  64.936  1.00  0.00    -0.140 C  
HETATM    5  C   UNL     1      -7.361  10.909  64.596  1.00  0.00     0.462 C  
HETATM    6  C   UNL     1     -10.630   7.923  67.813  1.00  0.00    -0.244 C  
HETATM    7  O   UNL     1      -7.120   8.859  65.405  1.00  0.00    -0.079 OA 
HETATM    8  C   UNL     1      -6.739  10.807  66.377  1.00  0.00    -0.131 C  
HETATM    9  C   UNL     1      -6.371  11.150  63.498  1.00  0.00     0.911 C  
HETATM   10  O   UNL     1     -12.607  11.818  71.071  1.00  0.00    -0.374 OA 
HETATM   11  H   UNL     1      -6.954   7.959  65.150  1.00  0.00     0.000 HD 
HETATM   12  C   UNL     1      -7.978  10.065  67.434  1.00  0.00    -0.106 C  
HETATM   13  C   UNL     1      -9.652  10.240  67.179  1.00  0.00    -0.199 C  
HETATM   14  C   UNL     1     -10.267  10.247  65.562  1.00  0.00    -0.308 C  
HETATM   15  C   UNL     1     -11.728  10.713  65.513  1.00  0.00     1.788 C  
HETATM   16  C   UNL     1     -12.594   9.952  66.508  1.00  0.00     9.511 C  
HETATM   17  C   UNL     1     -12.014  10.091  67.894  1.00  0.00     1.789 C  
HETATM   18  C   UNL     1     -12.636  10.914  68.764  1.00  0.00     0.844 C  
HETATM   19  C   UNL     1     -12.110  11.048  70.059  1.00  0.00    -0.364 A  
HETATM   20  C   UNL     1     -11.028  10.350  70.541  1.00  0.00    -0.270 A  
HETATM   21  C   UNL     1     -10.146   9.524  69.678  1.00  0.00    -0.228 C  
HETATM   22  C   UNL     1     -11.070  10.561  71.929  1.00  0.00     2.439 A  
HETATM   23  C   UNL     1     -10.615   9.426  68.156  1.00  0.00    -0.261 C  
HETATM   24  N   UNL     1     -11.965  11.497  72.258  1.00  0.00     2.111 NA 
ENDROOT
BRANCH   4  25
HETATM   25  C   UNL     1      -8.450   9.081  63.597  1.00  0.00    -0.173 C  
HETATM   26  C   UNL     1      -8.728   8.481  62.594  1.00  0.00     0.006 C  
ENDBRANCH   4  25
TORSDOF 1
ENDMDL
MODEL      120
REMARK 921   NORMALIZED FREE ENERGY PREDICTED BY IDOCK:   19.92 KCAL/MOL
REMARK 922        TOTAL FREE ENERGY PREDICTED BY IDOCK:   21.07 KCAL/MOL
REMARK 923 INTER-LIGAND FREE ENERGY PREDICTED BY IDOCK:   21.09 KCAL/MOL
REMARK 924 INTRA-LIGAND FREE ENERGY PREDICTED BY IDOCK:   -0.02 KCAL/MOL
REMARK 927      BINDING AFFINITY PREDICTED BY RF-SCORE:    0.00 PKD
ROOT
HETATM    1  C   UNL     1      -8.841  12.751  65.631  1.00  0.00     0.774 C  
HETATM    2  C   UNL     1      -8.881  13.717  64.593  1.00  0.00     3.582 C  
HETATM    3  C   UNL     1      -7.735  13.866  65.521  1.00  0.00     5.884 C  
HETATM    4  C   UNL     1      -7.486  12.347  66.880  1.00  0.00     0.057 C  
HETATM    5  C   UNL     1      -6.927  12.439  65.630  1.00  0.00     3.407 C  
HETATM    6  C   UNL     1      -8.964  14.413  70.311  1.00  0.00     1.750 C  
HETATM    7  O   UNL     1      -6.378  12.028  67.738  1.00  0.00    -0.062 OA 
HETATM    8  C   UNL     1      -5.794  13.718  66.438  1.00  0.00     3.918 C  
HETATM    9  C   UNL     1      -6.322  11.408  64.728  1.00  0.00     1.622 C  
HETATM   10  O   UNL     1     -10.013  19.550  68.824  1.00  0.00    -0.430 OA 
HETATM   11  H   UNL     1      -6.262  11.325  68.367  1.00  0.00     0.000 HD 
HETATM   12  C   UNL     1      -6.630  14.526  67.800  1.00  0.00    -0.189 C  
HETATM   13  C   UNL     1      -8.309  14.807  67.832  1.00  0.00    -0.151 C  
HETATM   14  C   UNL     1      -9.381  13.616  67.181  1.00  0.00    -0.240 C  
HETATM   15  C   UNL     1     -10.805  14.164  67.020  1.00  0.00    -0.295 C  
HETATM   16  C   UNL     1     -11.303  14.819  68.301  1.00  0.00    -0.319 C  
HETATM   17  C   UNL     1     -10.339  15.900  68.724  1.00  0.00    -0.228 C  
HETATM   18  C   UNL     1     -10.701  17.186  68.531  1.00  0.00    -0.326 C  
HETATM   19  C   UNL     1      -9.815  18.202  68.927  1.00  0.00    -0.309 A  
HETATM   20  C   UNL     1      -8.613  17.991  69.559  1.00  0.00     0.705 A  
HETATM   21  C   UNL     1      -8.001  16.646  69.710  1.00  0.00     0.759 C  
HETATM   22  C   UNL     1      -8.243  19.260  70.034  1.00  0.00     1.047 A  
HETATM   23  C   UNL     1      -8.903  15.446  69.168  1.00  0.00    -0.249 C  
HETATM   24  N   UNL     1      -9.032  20.220  69.540  1.00  0.00     0.651 NA 
ENDROOT
BRANCH   4  25
HETATM   25  C   UNL     1      -8.197  10.959  66.942  1.00  0.00    -0.135 C  
HETATM   26  C   UNL     1      -8.707   9.874  67.021  1.00  0.00    -0.137 C  
ENDBRANCH   4  25
TORSDOF 1
ENDMDL
MODEL      121
REMARK 921   NORMALIZED FREE ENERGY PREDICTED BY IDOCK:   20.51 KCAL/MOL
REMARK 922        TOTAL FREE ENERGY PREDICTED BY IDOCK:   21.68 KCAL/MOL
REMARK 923 INTER-LIGAND FREE ENERGY PREDICTED BY IDOCK:   21.68 KCAL/MOL
REMARK 924 INTRA-LIGAND FREE ENERGY PREDICTED BY IDOCK:    0.01 KCAL/MOL
REMARK 927      BINDING AFFINITY PREDICTED BY RF-SCORE:    0.00 PKD
ROOT
HETATM    1  C   UNL     1      -9.670   7.698  65.989  1.00  0.00     0.100 C  
HETATM    2  C   UNL     1      -8.515   8.504  65.821  1.00  0.00    -0.167 C  
HETATM    3  C   UNL     1      -8.955   8.352  67.230  1.00  0.00    -0.142 C  
HETATM    4  C   UNL     1     -10.458   6.990  67.550  1.00  0.00    -0.250 C  
HETATM    5  C   UNL     1      -9.106   6.755  67.588  1.00  0.00    -0.117 C  
HETATM    6  C   UNL     1     -13.631   9.783  68.139  1.00  0.00    11.870 C  
HETATM    7  O   UNL     1     -10.950   6.405  68.768  1.00  0.00    -0.291 OA 
HETATM    8  C   UNL     1      -9.188   7.651  69.250  1.00  0.00    -0.145 C  
HETATM    9  C   UNL     1      -8.309   5.491  67.488  1.00  0.00    -0.100 C  
HETATM   10  O   UNL     1     -11.469  14.785  68.066  1.00  0.00    -0.304 OA 
HETATM   11  H   UNL     1     -11.645   5.775  68.916  1.00  0.00     0.000 HD 
HETATM   12  C   UNL     1     -10.532   8.832  69.261  1.00  0.00    -0.228 C  
HETATM   13  C   UNL     1     -11.054   9.669  67.873  1.00  0.00    -0.102 C  
HETATM   14  C   UNL     1     -11.076   8.852  66.348  1.00  0.00     1.316 C  
HETATM   15  C   UNL     1     -11.277   9.830  65.184  1.00  0.00     3.149 C  
HETATM   16  C   UNL     1     -12.470  10.747  65.420  1.00  0.00     4.548 C  
HETATM   17  C   UNL     1     -12.299  11.474  66.730  1.00  0.00     1.713 C  
HETATM   18  C   UNL     1     -11.955  12.779  66.694  1.00  0.00    -0.411 C  
HETATM   19  C   UNL     1     -11.798  13.468  67.908  1.00  0.00    -0.362 A  
HETATM   20  C   UNL     1     -12.029  12.929  69.151  1.00  0.00    -0.308 A  
HETATM   21  C   UNL     1     -12.265  11.480  69.375  1.00  0.00    -0.273 C  
HETATM   22  C   UNL     1     -12.059  14.040  70.010  1.00  0.00    -0.348 A  
HETATM   23  C   UNL     1     -12.333  10.608  68.040  1.00  0.00     1.655 C  
HETATM   24  N   UNL     1     -11.653  15.153  69.392  1.00  0.00    -0.303 NA 
ENDROOT
BRANCH   4  25
HETATM   25  C   UNL     1     -11.058   5.941  66.563  1.00  0.00    -0.016 C  
HETATM   26  C   UNL     1     -11.559   5.168  65.791  1.00  0.00     1.191 C  
ENDBRANCH   4  25
TORSDOF 1
ENDMDL
MODEL      122
REMARK 921   NORMALIZED FREE ENERGY PREDICTED BY IDOCK:   26.85 KCAL/MOL
REMARK 922        TOTAL FREE ENERGY PREDICTED BY IDOCK:   28.40 KCAL/MOL
REMARK 923 INTER-LIGAND FREE ENERGY PREDICTED BY IDOCK:   28.35 KCAL/MOL
REMARK 924 INTRA-LIGAND FREE ENERGY PREDICTED BY IDOCK:    0.04 KCAL/MOL
REMARK 927      BINDING AFFINITY PREDICTED BY RF-SCORE:    0.00 PKD
ROOT
HETATM    1  C   UNL     1      -8.647  14.643  67.051  1.00  0.00    -0.249 C  
HETATM    2  C   UNL     1      -7.275  14.620  67.409  1.00  0.00    -0.182 C  
HETATM    3  C   UNL     1      -7.550  14.187  66.017  1.00  0.00     3.513 C  
HETATM    4  C   UNL     1      -9.481  14.449  65.370  1.00  0.00     0.229 C  
HETATM    5  C   UNL     1      -8.440  15.337  65.251  1.00  0.00     3.094 C  
HETATM    6  C   UNL     1     -10.708  10.367  65.590  1.00  0.00     0.005 C  
HETATM    7  O   UNL     1     -10.044  14.389  64.048  1.00  0.00    -0.163 OA 
HETATM    8  C   UNL     1      -7.850  14.169  63.887  1.00  0.00    16.219 C  
HETATM    9  C   UNL     1      -8.411  16.813  65.000  1.00  0.00     3.654 C  
HETATM   10  O   UNL     1      -6.344   7.400  66.954  1.00  0.00    -0.045 OA 
HETATM   11  H   UNL     1     -10.937  14.510  63.749  1.00  0.00     0.000 HD 
HETATM   12  C   UNL     1      -8.400  12.497  64.210  1.00  0.00     3.502 C  
HETATM   13  C   UNL     1      -8.597  11.863  65.778  1.00  0.00     0.301 C  
HETATM   14  C   UNL     1      -9.220  12.879  67.031  1.00  0.00    -0.226 C  
HETATM   15  C   UNL     1      -9.044  12.244  68.416  1.00  0.00    -0.146 C  
HETATM   16  C   UNL     1      -9.570  10.815  68.450  1.00  0.00    -0.177 C  
HETATM   17  C   UNL     1      -8.892  10.000  67.377  1.00  0.00    -0.132 C  
HETATM   18  C   UNL     1      -7.944   9.116  67.752  1.00  0.00    -0.101 C  
HETATM   19  C   UNL     1      -7.310   8.347  66.763  1.00  0.00    -0.083 A  
HETATM   20  C   UNL     1      -7.623   8.379  65.425  1.00  0.00    -0.092 A  
HETATM   21  C   UNL     1      -8.528   9.394  64.828  1.00  0.00    -0.180 C  
HETATM   22  C   UNL     1      -6.981   7.250  64.891  1.00  0.00    -0.051 A  
HETATM   23  C   UNL     1      -9.194  10.387  65.885  1.00  0.00    -0.205 C  
HETATM   24  N   UNL     1      -6.149   6.692  65.776  1.00  0.00    -0.033 NA 
ENDROOT
BRANCH   4  25
HETATM   25  C   UNL     1     -10.648  15.230  66.053  1.00  0.00    -0.327 C  
HETATM   26  C   UNL     1     -11.517  15.833  66.622  1.00  0.00     0.225 C  
ENDBRANCH   4  25
TORSDOF 1
ENDMDL
MODEL      123
REMARK 921   NORMALIZED FREE ENERGY PREDICTED BY IDOCK:   28.03 KCAL/MOL
REMARK 922        TOTAL FREE ENERGY PREDICTED BY IDOCK:   29.65 KCAL/MOL
REMARK 923 INTER-LIGAND FREE ENERGY PREDICTED BY IDOCK:   29.66 KCAL/MOL
REMARK 924 INTRA-LIGAND FREE ENERGY PREDICTED BY IDOCK:   -0.01 KCAL/MOL
REMARK 927      BINDING AFFINITY PREDICTED BY RF-SCORE:    0.00 PKD
ROOT
HETATM    1  C   UNL     1      -8.042  13.541  65.424  1.00  0.00     4.305 C  
HETATM    2  C   UNL     1      -6.646  13.752  65.293  1.00  0.00    12.163 C  
HETATM    3  C   UNL     1      -7.015  12.679  66.249  1.00  0.00     1.849 C  
HETATM    4  C   UNL     1      -9.000  12.159  66.280  1.00  0.00    -0.094 C  
HETATM    5  C   UNL     1      -8.011  11.603  65.509  1.00  0.00     0.730 C  
HETATM    6  C   UNL     1     -10.034  14.098  69.940  1.00  0.00     0.845 C  
HETATM    7  O   UNL     1      -9.665  11.028  66.868  1.00  0.00    -0.183 OA 
HETATM    8  C   UNL     1      -7.484  10.769  67.121  1.00  0.00    -0.102 C  
HETATM    9  C   UNL     1      -8.063  10.783  64.256  1.00  0.00     0.161 C  
HETATM   10  O   UNL     1      -5.455  16.130  72.086  1.00  0.00     0.326 OA 
HETATM   11  H   UNL     1     -10.584  10.787  66.883  1.00  0.00     0.000 HD 
HETATM   12  C   UNL     1      -7.936  11.780  68.527  1.00  0.00    -0.145 C  
HETATM   13  C   UNL     1      -7.980  13.482  68.481  1.00  0.00    -0.119 C  
HETATM   14  C   UNL     1      -8.541  14.277  67.051  1.00  0.00    -0.213 C  
HETATM   15  C   UNL     1      -8.227  15.778  67.078  1.00  0.00    -0.262 C  
HETATM   16  C   UNL     1      -8.689  16.427  68.376  1.00  0.00    -0.213 C  
HETATM   17  C   UNL     1      -8.067  15.710  69.549  1.00  0.00    -0.174 C  
HETATM   18  C   UNL     1      -7.056  16.320  70.203  1.00  0.00     0.714 C  
HETATM   19  C   UNL     1      -6.472  15.666  71.300  1.00  0.00     1.341 A  
HETATM   20  C   UNL     1      -6.892  14.460  71.808  1.00  0.00     1.858 A  
HETATM   21  C   UNL     1      -7.884  13.593  71.123  1.00  0.00     5.475 C  
HETATM   22  C   UNL     1      -6.248  14.365  73.053  1.00  0.00     0.855 A  
HETATM   23  C   UNL     1      -8.504  14.221  69.794  1.00  0.00     0.822 C  
HETATM   24  N   UNL     1      -5.326  15.320  73.205  1.00  0.00     0.346 NA 
ENDROOT
BRANCH   4  25
HETATM   25  C   UNL     1     -10.140  12.576  65.298  1.00  0.00    -0.275 C  
HETATM   26  C   UNL     1     -11.045  12.914  64.584  1.00  0.00    -0.352 C  
ENDBRANCH   4  25
TORSDOF 1
ENDMDL
MODEL      124
REMARK 921   NORMALIZED FREE ENERGY PREDICTED BY IDOCK:   28.08 KCAL/MOL
REMARK 922        TOTAL FREE ENERGY PREDICTED BY IDOCK:   29.70 KCAL/MOL
REMARK 923 INTER-LIGAND FREE ENERGY PREDICTED BY IDOCK:   29.72 KCAL/MOL
REMARK 924 INTRA-LIGAND FREE ENERGY PREDICTED BY IDOCK:   -0.01 KCAL/MOL
REMARK 927      BINDING AFFINITY PREDICTED BY RF-SCORE:    0.00 PKD
ROOT
HETATM    1  C   UNL     1     -10.716   6.817  68.007  1.00  0.00    -0.302 C  
HETATM    2  C   UNL     1     -10.191   6.632  66.702  1.00  0.00    -0.208 C  
HETATM    3  C   UNL     1      -9.418   7.579  67.543  1.00  0.00    -0.165 C  
HETATM    4  C   UNL     1      -9.982   7.683  69.514  1.00  0.00    -0.182 C  
HETATM    5  C   UNL     1      -9.031   6.858  68.968  1.00  0.00    -0.132 C  
HETATM    6  C   UNL     1     -12.026  11.425  69.319  1.00  0.00    -0.400 C  
HETATM    7  O   UNL     1      -9.324   8.274  70.648  1.00  0.00    -0.151 OA 
HETATM    8  C   UNL     1      -7.980   8.428  68.899  1.00  0.00    -0.115 C  
HETATM    9  C   UNL     1      -8.403   5.592  69.463  1.00  0.00    -0.102 C  
HETATM   10  O   UNL     1     -11.352  13.418  64.291  1.00  0.00    -0.375 OA 
HETATM   11  H   UNL     1      -9.585   8.322  71.560  1.00  0.00     0.000 HD 
HETATM   12  C   UNL     1      -9.022   9.874  68.736  1.00  0.00    -0.140 C  
HETATM   13  C   UNL     1     -10.509   9.867  67.905  1.00  0.00    -0.282 C  
HETATM   14  C   UNL     1     -11.537   8.480  68.018  1.00  0.00     1.693 C  
HETATM   15  C   UNL     1     -12.666   8.526  66.981  1.00  0.00    12.397 C  
HETATM   16  C   UNL     1     -13.406   9.857  67.014  1.00  0.00    15.745 C  
HETATM   17  C   UNL     1     -12.425  10.986  66.815  1.00  0.00     3.572 C  
HETATM   18  C   UNL     1     -12.407  11.609  65.618  1.00  0.00     1.202 C  
HETATM   19  C   UNL     1     -11.503  12.666  65.422  1.00  0.00    -0.338 A  
HETATM   20  C   UNL     1     -10.661  13.166  66.386  1.00  0.00    -0.293 A  
HETATM   21  C   UNL     1     -10.448  12.504  67.699  1.00  0.00    -0.228 C  
HETATM   22  C   UNL     1     -10.200  14.379  65.850  1.00  0.00    -0.325 A  
HETATM   23  C   UNL     1     -11.358  11.217  67.944  1.00  0.00    -0.378 C  
HETATM   24  N   UNL     1     -10.544  14.512  64.566  1.00  0.00    -0.259 NA 
ENDROOT
BRANCH   4  25
HETATM   25  C   UNL     1     -10.961   6.760  70.305  1.00  0.00    -0.339 C  
HETATM   26  C   UNL     1     -11.740   6.093  70.931  1.00  0.00    -0.179 C  
ENDBRANCH   4  25
TORSDOF 1
ENDMDL
MODEL      125
REMARK 921   NORMALIZED FREE ENERGY PREDICTED BY IDOCK:   37.20 KCAL/MOL
REMARK 922        TOTAL FREE ENERGY PREDICTED BY IDOCK:   39.35 KCAL/MOL
REMARK 923 INTER-LIGAND FREE ENERGY PREDICTED BY IDOCK:   39.34 KCAL/MOL
REMARK 924 INTRA-LIGAND FREE ENERGY PREDICTED BY IDOCK:    0.01 KCAL/MOL
REMARK 927      BINDING AFFINITY PREDICTED BY RF-SCORE:    0.00 PKD
ROOT
HETATM    1  C   UNL     1      -8.251  14.106  67.605  1.00  0.00    -0.193 C  
HETATM    2  C   UNL     1      -9.382  13.333  67.237  1.00  0.00    -0.226 C  
HETATM    3  C   UNL     1      -9.635  14.793  67.305  1.00  0.00    -0.223 C  
HETATM    4  C   UNL     1      -7.977  15.972  67.577  1.00  0.00    -0.144 C  
HETATM    5  C   UNL     1      -8.530  15.585  66.383  1.00  0.00    -0.226 C  
HETATM    6  C   UNL     1      -8.616  16.902  71.694  1.00  0.00    10.208 C  
HETATM    7  O   UNL     1      -7.803  17.393  67.440  1.00  0.00    -0.191 OA 
HETATM    8  C   UNL     1      -9.852  16.872  66.795  1.00  0.00    -0.284 C  
HETATM    9  C   UNL     1      -7.975  15.543  64.992  1.00  0.00     6.536 C  
HETATM   10  O   UNL     1     -13.410  14.757  73.149  1.00  0.00    -0.511 OA 
HETATM   11  H   UNL     1      -7.036  17.939  67.566  1.00  0.00     0.000 HD 
HETATM   12  C   UNL     1     -10.021  17.052  68.568  1.00  0.00    -0.293 C  
HETATM   13  C   UNL     1      -9.775  15.774  69.666  1.00  0.00    -0.248 C  
HETATM   14  C   UNL     1      -8.514  14.628  69.365  1.00  0.00     0.100 C  
HETATM   15  C   UNL     1      -8.636  13.400  70.276  1.00  0.00     3.900 C  
HETATM   16  C   UNL     1      -8.784  13.796  71.738  1.00  0.00    10.479 C  
HETATM   17  C   UNL     1      -9.966  14.720  71.895  1.00  0.00     3.413 C  
HETATM   18  C   UNL     1     -11.094  14.224  72.447  1.00  0.00     2.203 C  
HETATM   19  C   UNL     1     -12.199  15.076  72.604  1.00  0.00    -0.342 A  
HETATM   20  C   UNL     1     -12.208  16.414  72.290  1.00  0.00    -0.368 A  
HETATM   21  C   UNL     1     -11.111  17.079  71.541  1.00  0.00     1.029 C  
HETATM   22  C   UNL     1     -13.375  16.906  72.897  1.00  0.00     1.989 A  
HETATM   23  C   UNL     1      -9.866  16.134  71.218  1.00  0.00     2.839 C  
HETATM   24  N   UNL     1     -14.147  15.915  73.354  1.00  0.00     0.014 NA 
ENDROOT
BRANCH   4  25
HETATM   25  C   UNL     1      -6.468  15.575  67.511  1.00  0.00    -0.186 C  
HETATM   26  C   UNL     1      -5.309  15.262  67.512  1.00  0.00     0.069 C  
ENDBRANCH   4  25
TORSDOF 1
ENDMDL
MODEL      126
REMARK 921   NORMALIZED FREE ENERGY PREDICTED BY IDOCK:   40.17 KCAL/MOL
REMARK 922        TOTAL FREE ENERGY PREDICTED BY IDOCK:   42.50 KCAL/MOL
REMARK 923 INTER-LIGAND FREE ENERGY PREDICTED BY IDOCK:   42.49 KCAL/MOL
REMARK 924 INTRA-LIGAND FREE ENERGY PREDICTED BY IDOCK:    0.01 KCAL/MOL
REMARK 927      BINDING AFFINITY PREDICTED BY RF-SCORE:    0.00 PKD
ROOT
HETATM    1  C   UNL     1      -8.395   8.741  69.337  1.00  0.00    -0.117 C  
HETATM    2  C   UNL     1      -9.022   9.109  68.119  1.00  0.00    -0.129 C  
HETATM    3  C   UNL     1      -8.419  10.242  68.862  1.00  0.00    -0.138 C  
HETATM    4  C   UNL     1      -7.280   9.733  70.492  1.00  0.00    -0.120 C  
HETATM    5  C   UNL     1      -6.848   9.903  69.200  1.00  0.00    -0.055 C  
HETATM    6  C   UNL     1     -10.089  10.836  73.511  1.00  0.00    16.550 C  
HETATM    7  O   UNL     1      -6.361  10.513  71.276  1.00  0.00    -0.321 OA 
HETATM    8  C   UNL     1      -7.054  11.744  69.575  1.00  0.00     0.089 C  
HETATM    9  C   UNL     1      -5.609   9.445  68.493  1.00  0.00    -0.040 C  
HETATM   10  O   UNL     1     -14.365  13.131  71.032  1.00  0.00     1.481 OA 
HETATM   11  H   UNL     1      -5.834  10.278  72.030  1.00  0.00     0.000 HD 
HETATM   12  C   UNL     1      -8.332  11.996  70.802  1.00  0.00     7.210 C  
HETATM   13  C   UNL     1      -9.698  10.989  70.951  1.00  0.00     3.993 C  
HETATM   14  C   UNL     1      -9.527   9.286  70.702  1.00  0.00    -0.333 C  
HETATM   15  C   UNL     1     -10.889   8.592  70.577  1.00  0.00    -0.257 C  
HETATM   16  C   UNL     1     -11.818   8.966  71.724  1.00  0.00    -0.429 C  
HETATM   17  C   UNL     1     -11.965  10.466  71.788  1.00  0.00     0.026 C  
HETATM   18  C   UNL     1     -13.119  11.012  71.352  1.00  0.00    -0.441 C  
HETATM   19  C   UNL     1     -13.271  12.407  71.412  1.00  0.00    -0.098 A  
HETATM   20  C   UNL     1     -12.345  13.273  71.943  1.00  0.00     0.192 A  
HETATM   21  C   UNL     1     -10.971  12.858  72.325  1.00  0.00     7.994 C  
HETATM   22  C   UNL     1     -13.042  14.485  72.079  1.00  0.00    -0.344 A  
HETATM   23  C   UNL     1     -10.686  11.296  72.165  1.00  0.00     8.246 C  
HETATM   24  N   UNL     1     -14.231  14.440  71.470  1.00  0.00    -0.391 NA 
ENDROOT
BRANCH   4  25
HETATM   25  C   UNL     1      -6.781   8.322  70.939  1.00  0.00    -0.040 C  
HETATM   26  C   UNL     1      -6.443   7.230  71.308  1.00  0.00    -0.040 C  
ENDBRANCH   4  25
TORSDOF 1
ENDMDL
MODEL      127
REMARK 921   NORMALIZED FREE ENERGY PREDICTED BY IDOCK:   47.31 KCAL/MOL
REMARK 922        TOTAL FREE ENERGY PREDICTED BY IDOCK:   50.06 KCAL/MOL
REMARK 923 INTER-LIGAND FREE ENERGY PREDICTED BY IDOCK:   50.04 KCAL/MOL
REMARK 924 INTRA-LIGAND FREE ENERGY PREDICTED BY IDOCK:    0.02 KCAL/MOL
REMARK 927      BINDING AFFINITY PREDICTED BY RF-SCORE:    0.00 PKD
ROOT
HETATM    1  C   UNL     1     -11.837  11.423  65.218  1.00  0.00     0.441 C  
HETATM    2  C   UNL     1     -12.336  11.327  66.542  1.00  0.00     2.408 C  
HETATM    3  C   UNL     1     -10.856  11.327  66.446  1.00  0.00    -0.306 C  
HETATM    4  C   UNL     1     -10.086  11.724  64.585  1.00  0.00    -0.272 C  
HETATM    5  C   UNL     1     -10.362  12.631  65.577  1.00  0.00    -0.305 C  
HETATM    6  C   UNL     1      -8.937   7.736  63.588  1.00  0.00     1.144 C  
HETATM    7  O   UNL     1      -8.747  12.051  64.173  1.00  0.00     0.221 OA 
HETATM    8  C   UNL     1      -8.796  11.944  66.381  1.00  0.00    -0.152 C  
HETATM    9  C   UNL     1     -10.565  14.115  65.545  1.00  0.00    -0.335 C  
HETATM   10  O   UNL     1      -9.881   4.604  67.947  1.00  0.00    -0.158 OA 
HETATM   11  H   UNL     1      -8.391  12.234  63.312  1.00  0.00     0.000 HD 
HETATM   12  C   UNL     1      -8.540  10.239  65.900  1.00  0.00    -0.160 C  
HETATM   13  C   UNL     1      -9.814   9.157  65.572  1.00  0.00    -0.064 C  
HETATM   14  C   UNL     1     -11.227   9.734  64.757  1.00  0.00     4.027 C  
HETATM   15  C   UNL     1     -12.372   8.715  64.820  1.00  0.00    17.982 C  
HETATM   16  C   UNL     1     -11.918   7.330  64.379  1.00  0.00    17.744 C  
HETATM   17  C   UNL     1     -10.742   6.893  65.217  1.00  0.00     4.371 C  
HETATM   18  C   UNL     1     -10.951   5.960  66.170  1.00  0.00     0.324 C  
HETATM   19  C   UNL     1      -9.863   5.540  66.952  1.00  0.00    -0.163 A  
HETATM   20  C   UNL     1      -8.567   5.966  66.785  1.00  0.00    -0.113 A  
HETATM   21  C   UNL     1      -8.192   7.091  65.891  1.00  0.00    -0.133 C  
HETATM   22  C   UNL     1      -7.805   5.066  67.548  1.00  0.00    -0.095 A  
HETATM   23  C   UNL     1      -9.406   7.704  65.056  1.00  0.00     0.996 C  
HETATM   24  N   UNL     1      -8.579   4.288  68.311  1.00  0.00    -0.093 NA 
ENDROOT
BRANCH   4  25
HETATM   25  C   UNL     1     -10.822  12.234  63.306  1.00  0.00    -0.359 C  
HETATM   26  C   UNL     1     -11.385  12.676  62.341  1.00  0.00     3.087 C  
ENDBRANCH   4  25
TORSDOF 1
ENDMDL
MODEL      128
REMARK 921   NORMALIZED FREE ENERGY PREDICTED BY IDOCK:   51.44 KCAL/MOL
REMARK 922        TOTAL FREE ENERGY PREDICTED BY IDOCK:   54.42 KCAL/MOL
REMARK 923 INTER-LIGAND FREE ENERGY PREDICTED BY IDOCK:   54.41 KCAL/MOL
REMARK 924 INTRA-LIGAND FREE ENERGY PREDICTED BY IDOCK:    0.01 KCAL/MOL
REMARK 927      BINDING AFFINITY PREDICTED BY RF-SCORE:    0.00 PKD
ROOT
HETATM    1  C   UNL     1     -12.621  11.276  72.840  1.00  0.00     3.689 C  
HETATM    2  C   UNL     1     -11.901  10.625  73.875  1.00  0.00    14.462 C  
HETATM    3  C   UNL     1     -11.081  10.980  72.691  1.00  0.00     8.158 C  
HETATM    4  C   UNL     1     -12.012  12.149  71.282  1.00  0.00     0.633 C  
HETATM    5  C   UNL     1     -11.268  12.577  72.353  1.00  0.00     7.637 C  
HETATM    6  C   UNL     1     -12.692   9.096  68.377  1.00  0.00     6.677 C  
HETATM    7  O   UNL     1     -11.475  12.880  70.166  1.00  0.00    -0.518 OA 
HETATM    8  C   UNL     1      -9.794  12.014  71.312  1.00  0.00    10.020 C  
HETATM    9  C   UNL     1     -11.193  13.900  73.052  1.00  0.00     3.571 C  
HETATM   10  O   UNL     1     -10.321   4.534  70.186  1.00  0.00    -0.150 OA 
HETATM   11  H   UNL     1     -11.905  13.420  69.514  1.00  0.00     0.000 HD 
HETATM   12  C   UNL     1     -10.270  10.677  70.222  1.00  0.00     0.374 C  
HETATM   13  C   UNL     1     -11.458   9.524  70.618  1.00  0.00    -0.362 C  
HETATM   14  C   UNL     1     -12.864  10.023  71.494  1.00  0.00    -0.537 C  
HETATM   15  C   UNL     1     -13.660   8.821  72.019  1.00  0.00    -0.469 C  
HETATM   16  C   UNL     1     -13.937   7.806  70.919  1.00  0.00     0.077 C  
HETATM   17  C   UNL     1     -12.635   7.375  70.289  1.00  0.00     0.450 C  
HETATM   18  C   UNL     1     -12.156   6.150  70.593  1.00  0.00     0.269 C  
HETATM   19  C   UNL     1     -10.948   5.735  70.008  1.00  0.00    -0.311 A  
HETATM   20  C   UNL     1     -10.231   6.463  69.090  1.00  0.00    -0.217 A  
HETATM   21  C   UNL     1     -10.535   7.879  68.762  1.00  0.00    -0.198 C  
HETATM   22  C   UNL     1      -9.308   5.545  68.563  1.00  0.00    -0.121 A  
HETATM   23  C   UNL     1     -11.832   8.461  69.489  1.00  0.00     1.025 C  
HETATM   24  N   UNL     1      -9.297   4.404  69.259  1.00  0.00    -0.141 NA 
ENDROOT
BRANCH   4  25
HETATM   25  C   UNL     1     -13.381  12.893  71.373  1.00  0.00    -0.153 C  
HETATM   26  C   UNL     1     -14.408  13.510  71.456  1.00  0.00     0.547 C  
ENDBRANCH   4  25
TORSDOF 1
ENDMDL
MODEL      129
REMARK 921   NORMALIZED FREE ENERGY PREDICTED BY IDOCK:   55.19 KCAL/MOL
REMARK 922        TOTAL FREE ENERGY PREDICTED BY IDOCK:   58.40 KCAL/MOL
REMARK 923 INTER-LIGAND FREE ENERGY PREDICTED BY IDOCK:   58.35 KCAL/MOL
REMARK 924 INTRA-LIGAND FREE ENERGY PREDICTED BY IDOCK:    0.04 KCAL/MOL
REMARK 927      BINDING AFFINITY PREDICTED BY RF-SCORE:    0.00 PKD
ROOT
HETATM    1  C   UNL     1     -11.264   8.333  67.979  1.00  0.00     0.574 C  
HETATM    2  C   UNL     1     -12.342   9.107  67.479  1.00  0.00     6.814 C  
HETATM    3  C   UNL     1     -11.570   8.391  66.435  1.00  0.00     4.244 C  
HETATM    4  C   UNL     1     -10.169   7.057  67.123  1.00  0.00    -0.248 C  
HETATM    5  C   UNL     1     -11.481   6.795  66.817  1.00  0.00     0.642 C  
HETATM    6  C   UNL     1      -6.705   9.424  66.338  1.00  0.00    -0.075 C  
HETATM    7  O   UNL     1      -9.435   6.029  66.437  1.00  0.00    -0.156 OA 
HETATM    8  C   UNL     1     -10.889   6.915  65.026  1.00  0.00     6.155 C  
HETATM    9  C   UNL     1     -12.390   5.669  67.202  1.00  0.00     6.153 C  
HETATM   10  O   UNL     1      -8.338  13.944  63.767  1.00  0.00     8.022 OA 
HETATM   11  H   UNL     1      -8.787   5.412  66.755  1.00  0.00     0.000 HD 
HETATM   12  C   UNL     1      -9.484   8.016  64.902  1.00  0.00     1.232 C  
HETATM   13  C   UNL     1      -9.263   9.369  65.911  1.00  0.00    -0.269 C  
HETATM   14  C   UNL     1      -9.711   9.265  67.579  1.00  0.00    -0.201 C  
HETATM   15  C   UNL     1      -9.728  10.646  68.248  1.00  0.00    -0.169 C  
HETATM   16  C   UNL     1      -8.435  11.409  67.995  1.00  0.00    -0.145 C  
HETATM   17  C   UNL     1      -8.193  11.517  66.510  1.00  0.00    -0.129 C  
HETATM   18  C   UNL     1      -8.412  12.708  65.914  1.00  0.00     0.900 C  
HETATM   19  C   UNL     1      -8.185  12.823  64.533  1.00  0.00     4.628 A  
HETATM   20  C   UNL     1      -7.692  11.819  63.734  1.00  0.00     2.482 A  
HETATM   21  C   UNL     1      -7.542  10.416  64.194  1.00  0.00    -0.017 C  
HETATM   22  C   UNL     1      -7.337  12.469  62.540  1.00  0.00     5.047 A  
HETATM   23  C   UNL     1      -7.903  10.184  65.732  1.00  0.00    -0.139 C  
HETATM   24  N   UNL     1      -7.785  13.728  62.513  1.00  0.00    13.352 NA 
ENDROOT
BRANCH   4  25
HETATM   25  C   UNL     1      -9.944   6.532  68.576  1.00  0.00    -0.148 C  
HETATM   26  C   UNL     1      -9.821   6.140  69.705  1.00  0.00    -0.196 C  
ENDBRANCH   4  25
TORSDOF 1
ENDMDL
MODEL      130
REMARK 921   NORMALIZED FREE ENERGY PREDICTED BY IDOCK:   55.50 KCAL/MOL
REMARK 922        TOTAL FREE ENERGY PREDICTED BY IDOCK:   58.72 KCAL/MOL
REMARK 923 INTER-LIGAND FREE ENERGY PREDICTED BY IDOCK:   58.74 KCAL/MOL
REMARK 924 INTRA-LIGAND FREE ENERGY PREDICTED BY IDOCK:   -0.02 KCAL/MOL
REMARK 927      BINDING AFFINITY PREDICTED BY RF-SCORE:    0.00 PKD
ROOT
HETATM    1  C   UNL     1     -11.714   6.114  70.102  1.00  0.00    -0.119 C  
HETATM    2  C   UNL     1     -11.197   6.646  68.893  1.00  0.00    -0.273 C  
HETATM    3  C   UNL     1     -10.302   6.808  70.064  1.00  0.00    -0.225 C  
HETATM    4  C   UNL     1     -10.885   5.831  71.773  1.00  0.00    -0.252 C  
HETATM    5  C   UNL     1     -10.067   5.349  70.782  1.00  0.00    -0.287 C  
HETATM    6  C   UNL     1     -12.300   9.240  73.917  1.00  0.00     6.576 C  
HETATM    7  O   UNL     1     -10.167   5.554  72.987  1.00  0.00    -0.175 OA 
HETATM    8  C   UNL     1      -8.777   6.498  71.550  1.00  0.00    -0.132 C  
HETATM    9  C   UNL     1      -9.661   3.956  70.412  1.00  0.00    -0.245 C  
HETATM   10  O   UNL     1     -11.203  13.654  70.914  1.00  0.00     0.596 OA 
HETATM   11  H   UNL     1     -10.437   5.102  73.778  1.00  0.00     0.000 HD 
HETATM   12  C   UNL     1      -9.571   7.902  72.325  1.00  0.00    -0.255 C  
HETATM   13  C   UNL     1     -11.020   8.591  71.756  1.00  0.00    -0.376 C  
HETATM   14  C   UNL     1     -12.259   7.560  71.128  1.00  0.00    -0.330 C  
HETATM   15  C   UNL     1     -13.343   8.359  70.393  1.00  0.00     1.275 C  
HETATM   16  C   UNL     1     -13.861   9.514  71.240  1.00  0.00    -0.159 C  
HETATM   17  C   UNL     1     -12.708  10.395  71.653  1.00  0.00    -0.560 C  
HETATM   18  C   UNL     1     -12.563  11.586  71.035  1.00  0.00    -0.457 C  
HETATM   19  C   UNL     1     -11.498  12.418  71.415  1.00  0.00     2.627 A  
HETATM   20  C   UNL     1     -10.608  12.140  72.425  1.00  0.00    13.187 A  
HETATM   21  C   UNL     1     -10.534  10.818  73.099  1.00  0.00    13.241 C  
HETATM   22  C   UNL     1      -9.947  13.358  72.651  1.00  0.00    13.291 A  
HETATM   23  C   UNL     1     -11.643   9.773  72.627  1.00  0.00     1.888 C  
HETATM   24  N   UNL     1     -10.237  14.258  71.706  1.00  0.00     3.717 NA 
ENDROOT
BRANCH   4  25
HETATM   25  C   UNL     1     -12.018   4.772  71.960  1.00  0.00     1.416 C  
HETATM   26  C   UNL     1     -12.872   3.951  72.154  1.00  0.00     4.776 C  
ENDBRANCH   4  25
TORSDOF 1
ENDMDL
MODEL      131
REMARK 921   NORMALIZED FREE ENERGY PREDICTED BY IDOCK:   65.96 KCAL/MOL
REMARK 922        TOTAL FREE ENERGY PREDICTED BY IDOCK:   69.79 KCAL/MOL
REMARK 923 INTER-LIGAND FREE ENERGY PREDICTED BY IDOCK:   69.75 KCAL/MOL
REMARK 924 INTRA-LIGAND FREE ENERGY PREDICTED BY IDOCK:    0.05 KCAL/MOL
REMARK 927      BINDING AFFINITY PREDICTED BY RF-SCORE:    0.00 PKD
ROOT
HETATM    1  C   UNL     1      -8.586  11.429  65.389  1.00  0.00     0.155 C  
HETATM    2  C   UNL     1      -7.191  11.652  65.504  1.00  0.00     1.193 C  
HETATM    3  C   UNL     1      -7.695  10.512  66.307  1.00  0.00    -0.135 C  
HETATM    4  C   UNL     1      -9.652   9.987  65.976  1.00  0.00    -0.222 C  
HETATM    5  C   UNL     1      -8.542   9.491  65.339  1.00  0.00    -0.173 C  
HETATM    6  C   UNL     1     -11.294  11.651  69.547  1.00  0.00    -0.328 C  
HETATM    7  O   UNL     1     -10.388   8.814  66.365  1.00  0.00    -0.306 OA 
HETATM    8  C   UNL     1      -8.273   8.543  66.951  1.00  0.00    -0.106 C  
HETATM    9  C   UNL     1      -8.379   8.764  64.039  1.00  0.00    -0.146 C  
HETATM   10  O   UNL     1      -7.153  13.530  72.552  1.00  0.00     3.601 OA 
HETATM   11  H   UNL     1     -11.293   8.571  66.212  1.00  0.00     0.000 HD 
HETATM   12  C   UNL     1      -8.962   9.447  68.333  1.00  0.00    -0.128 C  
HETATM   13  C   UNL     1      -9.021  11.148  68.403  1.00  0.00    -0.165 C  
HETATM   14  C   UNL     1      -9.354  12.044  66.962  1.00  0.00    -0.191 C  
HETATM   15  C   UNL     1      -9.069  13.540  67.147  1.00  0.00    -0.232 C  
HETATM   16  C   UNL     1      -9.745  14.091  68.395  1.00  0.00    -0.223 C  
HETATM   17  C   UNL     1      -9.312  13.292  69.599  1.00  0.00     1.710 C  
HETATM   18  C   UNL     1      -8.429  13.854  70.452  1.00  0.00     3.066 C  
HETATM   19  C   UNL     1      -8.022  13.123  71.580  1.00  0.00    10.710 A  
HETATM   20  C   UNL     1      -8.503  11.882  71.925  1.00  0.00    16.476 A  
HETATM   21  C   UNL     1      -9.358  11.065  71.027  1.00  0.00     5.262 C  
HETATM   22  C   UNL     1      -8.069  11.698  73.248  1.00  0.00    20.701 A  
HETATM   23  C   UNL     1      -9.762  11.788  69.662  1.00  0.00     1.139 C  
HETATM   24  N   UNL     1      -7.197  12.641  73.616  1.00  0.00     7.579 NA 
ENDROOT
BRANCH   4  25
HETATM   25  C   UNL     1     -10.622  10.473  64.854  1.00  0.00    -0.099 C  
HETATM   26  C   UNL     1     -11.327  10.863  63.963  1.00  0.00     0.610 C  
ENDBRANCH   4  25
TORSDOF 1
ENDMDL
