MODEL        1
REMARK 921   NORMALIZED FREE ENERGY PREDICTED BY IDOCK:   -7.82 KCAL/MOL
REMARK 922        TOTAL FREE ENERGY PREDICTED BY IDOCK:  -10.21 KCAL/MOL
REMARK 923 INTER-LIGAND FREE ENERGY PREDICTED BY IDOCK:   -9.65 KCAL/MOL
REMARK 924 INTRA-LIGAND FREE ENERGY PREDICTED BY IDOCK:   -0.56 KCAL/MOL
REMARK 927      BINDING AFFINITY PREDICTED BY RF-SCORE:    0.00 PKD
ROOT
HETATM    1  O   UNL     1     -14.043   9.179  72.797  1.00  0.00    -0.518 OA 
HETATM    2  N   UNL     1     -13.256   9.087  71.847  1.00  0.00    -0.375 N  
HETATM    3  O   UNL     1     -12.844   8.019  71.375  1.00  0.00    -0.318 OA 
HETATM    4  C   UNL     1     -12.775  10.334  71.236  1.00  0.00    -0.421 A  
HETATM    5  C   UNL     1     -13.213  11.561  71.740  1.00  0.00    -0.456 A  
HETATM    6  C   UNL     1     -12.779  12.748  71.141  1.00  0.00    -0.355 A  
HETATM    7  C   UNL     1     -11.911  12.739  70.033  1.00  0.00    -0.371 A  
HETATM    8  C   UNL     1     -11.467  11.495  69.553  1.00  0.00    -0.378 A  
HETATM    9  C   UNL     1     -11.895  10.295  70.147  1.00  0.00    -0.343 A  
ENDROOT
BRANCH   7  10
HETATM   10  C   UNL     1     -11.524  14.009  69.412  1.00  0.00    -0.290 A  
HETATM   11  C   UNL     1     -11.967  15.310  69.562  1.00  0.00    -0.356 A  
HETATM   12  C   UNL     1     -11.234  16.106  68.651  1.00  0.00    -0.369 A  
HETATM   13  C   UNL     1     -10.372  15.257  67.991  1.00  0.00    -0.244 A  
HETATM   14  O   UNL     1     -10.544  13.976  68.455  1.00  0.00    -0.241 OA 
BRANCH  13  15
HETATM   15  C   UNL     1      -9.404  15.487  66.951  1.00  0.00    -0.233 C  
BRANCH  15  16
HETATM   16  N   UNL     1      -9.457  14.835  65.829  1.00  0.00    -0.506 NA 
HETATM   17  H   UNL     1      -8.607  14.568  65.332  1.00  0.00     0.000 HD 
BRANCH  16  18
HETATM   18  N   UNL     1     -10.698  14.519  65.336  1.00  0.00    -0.336 N  
HETATM   19  C   UNL     1     -11.122  13.138  65.245  1.00  0.00    -0.283 C  
HETATM   20  C   UNL     1     -12.342  13.283  64.356  1.00  0.00    -0.348 C  
HETATM   21  N   UNL     1     -12.531  14.593  64.061  1.00  0.00    -0.813 NA 
HETATM   22  O   UNL     1     -13.042  12.367  63.947  1.00  0.00    -0.763 OA 
HETATM   23  C   UNL     1     -11.517  15.350  64.551  1.00  0.00    -0.311 C  
HETATM   24  O   UNL     1     -11.360  16.535  64.292  1.00  0.00    -1.020 OA 
ENDBRANCH  16  18
ENDBRANCH  15  16
ENDBRANCH  13  15
ENDBRANCH   7  10
TORSDOF 4
ENDMDL
MODEL        2
REMARK 921   NORMALIZED FREE ENERGY PREDICTED BY IDOCK:   -7.50 KCAL/MOL
REMARK 922        TOTAL FREE ENERGY PREDICTED BY IDOCK:   -9.82 KCAL/MOL
REMARK 923 INTER-LIGAND FREE ENERGY PREDICTED BY IDOCK:   -9.19 KCAL/MOL
REMARK 924 INTRA-LIGAND FREE ENERGY PREDICTED BY IDOCK:   -0.62 KCAL/MOL
REMARK 927      BINDING AFFINITY PREDICTED BY RF-SCORE:    0.00 PKD
ROOT
HETATM    1  O   UNL     1     -11.070   6.619  70.579  1.00  0.00    -0.263 OA 
HETATM    2  N   UNL     1     -11.939   7.256  71.188  1.00  0.00    -0.314 N  
HETATM    3  O   UNL     1     -12.764   6.756  71.963  1.00  0.00    -0.301 OA 
HETATM    4  C   UNL     1     -11.995   8.709  70.976  1.00  0.00    -0.243 A  
HETATM    5  C   UNL     1     -11.082   9.313  70.108  1.00  0.00    -0.260 A  
HETATM    6  C   UNL     1     -11.116  10.699  69.927  1.00  0.00    -0.364 A  
HETATM    7  C   UNL     1     -12.046  11.508  70.606  1.00  0.00    -0.450 A  
HETATM    8  C   UNL     1     -12.968  10.879  71.461  1.00  0.00    -0.556 A  
HETATM    9  C   UNL     1     -12.945   9.487  71.650  1.00  0.00    -0.483 A  
ENDROOT
BRANCH   7  10
HETATM   10  C   UNL     1     -12.008  12.961  70.419  1.00  0.00    -0.249 A  
HETATM   11  C   UNL     1     -12.296  14.031  71.246  1.00  0.00    -0.436 A  
HETATM   12  C   UNL     1     -12.113  15.208  70.485  1.00  0.00    -0.390 A  
HETATM   13  C   UNL     1     -11.714  14.805  69.227  1.00  0.00    -0.316 A  
HETATM   14  O   UNL     1     -11.645  13.435  69.185  1.00  0.00    -0.274 OA 
BRANCH  13  15
HETATM   15  C   UNL     1     -11.400  15.547  68.035  1.00  0.00    -0.330 C  
BRANCH  15  16
HETATM   16  N   UNL     1     -10.816  14.976  67.025  1.00  0.00    -0.306 NA 
HETATM   17  H   UNL     1      -9.815  14.780  67.035  1.00  0.00     0.000 HD 
BRANCH  16  18
HETATM   18  N   UNL     1     -11.595  14.648  65.944  1.00  0.00    -0.349 N  
HETATM   19  C   UNL     1     -12.171  13.326  65.829  1.00  0.00    -0.456 C  
HETATM   20  C   UNL     1     -12.612  13.343  64.378  1.00  0.00    -0.190 C  
HETATM   21  N   UNL     1     -12.321  14.550  63.833  1.00  0.00    -0.757 NA 
HETATM   22  O   UNL     1     -13.133  12.413  63.778  1.00  0.00    -0.756 OA 
HETATM   23  C   UNL     1     -11.629  15.322  64.709  1.00  0.00    -0.322 C  
HETATM   24  O   UNL     1     -11.109  16.389  64.418  1.00  0.00    -0.825 OA 
ENDBRANCH  16  18
ENDBRANCH  15  16
ENDBRANCH  13  15
ENDBRANCH   7  10
TORSDOF 4
ENDMDL
MODEL        3
REMARK 921   NORMALIZED FREE ENERGY PREDICTED BY IDOCK:   -7.50 KCAL/MOL
REMARK 922        TOTAL FREE ENERGY PREDICTED BY IDOCK:   -9.81 KCAL/MOL
REMARK 923 INTER-LIGAND FREE ENERGY PREDICTED BY IDOCK:   -9.18 KCAL/MOL
REMARK 924 INTRA-LIGAND FREE ENERGY PREDICTED BY IDOCK:   -0.63 KCAL/MOL
REMARK 927      BINDING AFFINITY PREDICTED BY RF-SCORE:    0.00 PKD
ROOT
HETATM    1  O   UNL     1     -13.007   6.745  71.939  1.00  0.00    -0.325 OA 
HETATM    2  N   UNL     1     -12.221   7.277  71.145  1.00  0.00    -0.337 N  
HETATM    3  O   UNL     1     -11.425   6.662  70.424  1.00  0.00    -0.335 OA 
HETATM    4  C   UNL     1     -12.234   8.744  71.052  1.00  0.00    -0.190 A  
HETATM    5  C   UNL     1     -13.116   9.476  71.850  1.00  0.00    -0.517 A  
HETATM    6  C   UNL     1     -13.149  10.870  71.741  1.00  0.00    -0.564 A  
HETATM    7  C   UNL     1     -12.316  11.558  70.839  1.00  0.00    -0.460 A  
HETATM    8  C   UNL     1     -11.423  10.805  70.059  1.00  0.00    -0.412 A  
HETATM    9  C   UNL     1     -11.380   9.404  70.160  1.00  0.00    -0.220 A  
ENDROOT
BRANCH   7  10
HETATM   10  C   UNL     1     -12.424  13.016  70.729  1.00  0.00    -0.302 A  
HETATM   11  C   UNL     1     -13.102  13.974  71.461  1.00  0.00    -0.436 A  
HETATM   12  C   UNL     1     -12.855  15.222  70.843  1.00  0.00    -0.511 A  
HETATM   13  C   UNL     1     -12.032  14.971  69.766  1.00  0.00    -0.328 A  
HETATM   14  O   UNL     1     -11.764  13.627  69.695  1.00  0.00    -0.291 OA 
BRANCH  13  15
HETATM   15  C   UNL     1     -11.468  15.838  68.766  1.00  0.00    -0.388 C  
BRANCH  15  16
HETATM   16  N   UNL     1     -10.692  15.372  67.834  1.00  0.00    -0.278 NA 
HETATM   17  H   UNL     1      -9.789  14.954  68.058  1.00  0.00     0.000 HD 
BRANCH  16  18
HETATM   18  N   UNL     1     -11.132  15.462  66.537  1.00  0.00    -0.276 N  
HETATM   19  C   UNL     1     -11.998  14.443  65.984  1.00  0.00    -0.367 C  
HETATM   20  C   UNL     1     -11.913  14.782  64.508  1.00  0.00    -0.440 C  
HETATM   21  N   UNL     1     -11.120  15.870  64.340  1.00  0.00    -0.486 NA 
HETATM   22  O   UNL     1     -12.455  14.167  63.600  1.00  0.00    -0.819 OA 
HETATM   23  C   UNL     1     -10.561  16.246  65.518  1.00  0.00    -0.353 C  
HETATM   24  O   UNL     1      -9.687  17.094  65.621  1.00  0.00    -0.545 OA 
ENDBRANCH  16  18
ENDBRANCH  15  16
ENDBRANCH  13  15
ENDBRANCH   7  10
TORSDOF 4
ENDMDL
MODEL        4
REMARK 921   NORMALIZED FREE ENERGY PREDICTED BY IDOCK:   -7.30 KCAL/MOL
REMARK 922        TOTAL FREE ENERGY PREDICTED BY IDOCK:   -9.57 KCAL/MOL
REMARK 923 INTER-LIGAND FREE ENERGY PREDICTED BY IDOCK:   -8.94 KCAL/MOL
REMARK 924 INTRA-LIGAND FREE ENERGY PREDICTED BY IDOCK:   -0.63 KCAL/MOL
REMARK 927      BINDING AFFINITY PREDICTED BY RF-SCORE:    0.00 PKD
ROOT
HETATM    1  O   UNL     1     -10.780   5.998  70.863  1.00  0.00    -0.240 OA 
HETATM    2  N   UNL     1     -11.677   6.512  71.543  1.00  0.00    -0.312 N  
HETATM    3  O   UNL     1     -12.387   5.899  72.351  1.00  0.00    -0.198 OA 
HETATM    4  C   UNL     1     -11.915   7.954  71.382  1.00  0.00    -0.303 A  
HETATM    5  C   UNL     1     -11.137   8.682  70.479  1.00  0.00    -0.268 A  
HETATM    6  C   UNL     1     -11.343  10.059  70.345  1.00  0.00    -0.392 A  
HETATM    7  C   UNL     1     -12.316  10.735  71.105  1.00  0.00    -0.498 A  
HETATM    8  C   UNL     1     -13.101   9.980  71.994  1.00  0.00    -0.541 A  
HETATM    9  C   UNL     1     -12.904   8.596  72.136  1.00  0.00    -0.442 A  
ENDROOT
BRANCH   7  10
HETATM   10  C   UNL     1     -12.460  12.187  70.962  1.00  0.00    -0.269 A  
HETATM   11  C   UNL     1     -13.109  13.152  71.709  1.00  0.00    -0.478 A  
HETATM   12  C   UNL     1     -12.927  14.386  71.043  1.00  0.00    -0.416 A  
HETATM   13  C   UNL     1     -12.169  14.120  69.922  1.00  0.00    -0.359 A  
HETATM   14  O   UNL     1     -11.878  12.780  69.872  1.00  0.00    -0.324 OA 
BRANCH  13  15
HETATM   15  C   UNL     1     -11.687  14.969  68.865  1.00  0.00    -0.328 C  
BRANCH  15  16
HETATM   16  N   UNL     1     -10.756  14.565  68.053  1.00  0.00    -0.239 NA 
HETATM   17  H   UNL     1      -9.902  14.130  68.402  1.00  0.00     0.000 HD 
BRANCH  16  18
HETATM   18  N   UNL     1     -10.963  14.748  66.709  1.00  0.00    -0.321 N  
HETATM   19  C   UNL     1     -10.696  16.030  66.093  1.00  0.00    -0.244 C  
HETATM   20  C   UNL     1     -11.386  15.841  64.755  1.00  0.00    -0.314 C  
HETATM   21  N   UNL     1     -11.912  14.592  64.692  1.00  0.00    -0.452 NA 
HETATM   22  O   UNL     1     -11.476  16.682  63.872  1.00  0.00    -1.186 OA 
HETATM   23  C   UNL     1     -11.761  13.944  65.875  1.00  0.00    -0.359 C  
HETATM   24  O   UNL     1     -12.281  12.870  66.137  1.00  0.00    -0.456 OA 
ENDBRANCH  16  18
ENDBRANCH  15  16
ENDBRANCH  13  15
ENDBRANCH   7  10
TORSDOF 4
ENDMDL
MODEL        5
REMARK 921   NORMALIZED FREE ENERGY PREDICTED BY IDOCK:   -7.20 KCAL/MOL
REMARK 922        TOTAL FREE ENERGY PREDICTED BY IDOCK:   -9.44 KCAL/MOL
REMARK 923 INTER-LIGAND FREE ENERGY PREDICTED BY IDOCK:   -8.84 KCAL/MOL
REMARK 924 INTRA-LIGAND FREE ENERGY PREDICTED BY IDOCK:   -0.60 KCAL/MOL
REMARK 927      BINDING AFFINITY PREDICTED BY RF-SCORE:    0.00 PKD
ROOT
HETATM    1  O   UNL     1     -12.975  15.571  71.689  1.00  0.00    -0.403 OA 
HETATM    2  N   UNL     1     -13.082  14.367  71.955  1.00  0.00    -0.335 N  
HETATM    3  O   UNL     1     -13.636  13.917  72.966  1.00  0.00    -0.628 OA 
HETATM    4  C   UNL     1     -12.512  13.404  71.003  1.00  0.00    -0.353 A  
HETATM    5  C   UNL     1     -11.877  13.871  69.850  1.00  0.00    -0.394 A  
HETATM    6  C   UNL     1     -11.359  12.955  68.928  1.00  0.00    -0.335 A  
HETATM    7  C   UNL     1     -11.466  11.567  69.131  1.00  0.00    -0.362 A  
HETATM    8  C   UNL     1     -12.092  11.117  70.306  1.00  0.00    -0.462 A  
HETATM    9  C   UNL     1     -12.616  12.028  71.240  1.00  0.00    -0.357 A  
ENDROOT
BRANCH   7  10
HETATM   10  C   UNL     1     -10.950  10.648  68.111  1.00  0.00    -0.269 A  
HETATM   11  C   UNL     1     -10.605   9.310  68.130  1.00  0.00    -0.248 A  
HETATM   12  C   UNL     1     -10.123   8.986  66.841  1.00  0.00    -0.338 A  
HETATM   13  C   UNL     1     -10.201  10.140  66.090  1.00  0.00    -0.215 A  
HETATM   14  O   UNL     1     -10.709  11.156  66.861  1.00  0.00    -0.249 OA 
BRANCH  13  15
HETATM   15  C   UNL     1      -9.840  10.426  64.727  1.00  0.00    -0.340 C  
BRANCH  15  16
HETATM   16  N   UNL     1     -10.736  10.791  63.859  1.00  0.00    -0.455 NA 
HETATM   17  H   UNL     1     -11.104  10.134  63.171  1.00  0.00     0.000 HD 
BRANCH  16  18
HETATM   18  N   UNL     1     -11.167  12.093  63.901  1.00  0.00    -0.377 N  
HETATM   19  C   UNL     1     -10.241  13.162  64.210  1.00  0.00    -0.261 C  
HETATM   20  C   UNL     1     -11.212  14.296  64.477  1.00  0.00    -0.322 C  
HETATM   21  N   UNL     1     -12.482  13.857  64.291  1.00  0.00    -0.678 NA 
HETATM   22  O   UNL     1     -10.910  15.429  64.826  1.00  0.00    -0.422 OA 
HETATM   23  C   UNL     1     -12.499  12.524  64.038  1.00  0.00    -0.435 C  
HETATM   24  O   UNL     1     -13.517  11.849  63.989  1.00  0.00    -0.600 OA 
ENDBRANCH  16  18
ENDBRANCH  15  16
ENDBRANCH  13  15
ENDBRANCH   7  10
TORSDOF 4
ENDMDL
MODEL        6
REMARK 921   NORMALIZED FREE ENERGY PREDICTED BY IDOCK:   -7.16 KCAL/MOL
REMARK 922        TOTAL FREE ENERGY PREDICTED BY IDOCK:   -9.39 KCAL/MOL
REMARK 923 INTER-LIGAND FREE ENERGY PREDICTED BY IDOCK:   -8.67 KCAL/MOL
REMARK 924 INTRA-LIGAND FREE ENERGY PREDICTED BY IDOCK:   -0.72 KCAL/MOL
REMARK 927      BINDING AFFINITY PREDICTED BY RF-SCORE:    0.00 PKD
ROOT
HETATM    1  O   UNL     1     -13.862  13.448  72.773  1.00  0.00    -0.720 OA 
HETATM    2  N   UNL     1     -13.343  12.608  72.027  1.00  0.00    -0.504 N  
HETATM    3  O   UNL     1     -13.386  11.384  72.208  1.00  0.00    -0.410 OA 
HETATM    4  C   UNL     1     -12.626  13.098  70.841  1.00  0.00    -0.295 A  
HETATM    5  C   UNL     1     -12.553  14.473  70.602  1.00  0.00    -0.416 A  
HETATM    6  C   UNL     1     -11.896  14.939  69.458  1.00  0.00    -0.360 A  
HETATM    7  C   UNL     1     -11.308  14.055  68.535  1.00  0.00    -0.308 A  
HETATM    8  C   UNL     1     -11.376  12.677  68.804  1.00  0.00    -0.333 A  
HETATM    9  C   UNL     1     -12.033  12.197  69.950  1.00  0.00    -0.380 A  
ENDROOT
BRANCH   7  10
HETATM   10  C   UNL     1     -10.673  14.593  67.328  1.00  0.00    -0.290 A  
HETATM   11  C   UNL     1     -10.900  14.409  65.976  1.00  0.00    -0.309 A  
HETATM   12  C   UNL     1      -9.928  15.168  65.284  1.00  0.00    -0.325 A  
HETATM   13  C   UNL     1      -9.155  15.787  66.244  1.00  0.00    -0.338 A  
HETATM   14  O   UNL     1      -9.609  15.441  67.492  1.00  0.00    -0.206 OA 
BRANCH  13  15
HETATM   15  C   UNL     1      -8.016  16.661  66.144  1.00  0.00    -0.202 C  
BRANCH  15  16
HETATM   16  N   UNL     1      -8.154  17.905  65.797  1.00  0.00    -0.526 NA 
HETATM   17  H   UNL     1      -7.706  18.273  64.957  1.00  0.00     0.000 HD 
BRANCH  16  18
HETATM   18  N   UNL     1      -8.925  18.707  66.601  1.00  0.00    -0.298 N  
HETATM   19  C   UNL     1      -8.618  18.844  68.009  1.00  0.00    -0.299 C  
HETATM   20  C   UNL     1      -9.892  19.501  68.505  1.00  0.00    -0.429 C  
HETATM   21  N   UNL     1     -10.732  19.701  67.460  1.00  0.00    -0.448 NA 
HETATM   22  O   UNL     1     -10.142  19.791  69.667  1.00  0.00    -0.276 OA 
HETATM   23  C   UNL     1     -10.228  19.156  66.324  1.00  0.00    -0.452 C  
HETATM   24  O   UNL     1     -10.852  19.056  65.277  1.00  0.00    -0.540 OA 
ENDBRANCH  16  18
ENDBRANCH  15  16
ENDBRANCH  13  15
ENDBRANCH   7  10
TORSDOF 4
ENDMDL
MODEL        7
REMARK 921   NORMALIZED FREE ENERGY PREDICTED BY IDOCK:   -7.11 KCAL/MOL
REMARK 922        TOTAL FREE ENERGY PREDICTED BY IDOCK:   -9.33 KCAL/MOL
REMARK 923 INTER-LIGAND FREE ENERGY PREDICTED BY IDOCK:   -8.84 KCAL/MOL
REMARK 924 INTRA-LIGAND FREE ENERGY PREDICTED BY IDOCK:   -0.49 KCAL/MOL
REMARK 927      BINDING AFFINITY PREDICTED BY RF-SCORE:    0.00 PKD
ROOT
HETATM    1  O   UNL     1     -12.915   6.918  71.798  1.00  0.00    -0.363 OA 
HETATM    2  N   UNL     1     -12.161   7.500  71.007  1.00  0.00    -0.291 N  
HETATM    3  O   UNL     1     -11.372   6.933  70.241  1.00  0.00    -0.293 OA 
HETATM    4  C   UNL     1     -12.207   8.969  70.975  1.00  0.00    -0.223 A  
HETATM    5  C   UNL     1     -13.083   9.647  71.826  1.00  0.00    -0.514 A  
HETATM    6  C   UNL     1     -13.149  11.044  71.776  1.00  0.00    -0.554 A  
HETATM    7  C   UNL     1     -12.355  11.787  70.884  1.00  0.00    -0.420 A  
HETATM    8  C   UNL     1     -11.467  11.086  70.050  1.00  0.00    -0.398 A  
HETATM    9  C   UNL     1     -11.391   9.684  70.091  1.00  0.00    -0.275 A  
ENDROOT
BRANCH   7  10
HETATM   10  C   UNL     1     -12.497  13.246  70.838  1.00  0.00    -0.342 A  
HETATM   11  C   UNL     1     -13.407  14.127  71.392  1.00  0.00    -0.402 A  
HETATM   12  C   UNL     1     -13.049  15.423  70.955  1.00  0.00    -0.565 A  
HETATM   13  C   UNL     1     -11.933  15.277  70.159  1.00  0.00    -0.338 A  
HETATM   14  O   UNL     1     -11.590  13.949  70.088  1.00  0.00    -0.251 OA 
BRANCH  13  15
HETATM   15  C   UNL     1     -11.141  16.231  69.429  1.00  0.00    -0.328 C  
BRANCH  15  16
HETATM   16  N   UNL     1     -11.198  16.298  68.133  1.00  0.00    -0.333 NA 
HETATM   17  H   UNL     1     -11.671  15.578  67.586  1.00  0.00     0.000 HD 
BRANCH  16  18
HETATM   18  N   UNL     1     -10.598  17.373  67.526  1.00  0.00    -0.352 N  
HETATM   19  C   UNL     1     -10.460  18.630  68.230  1.00  0.00    -0.270 C  
HETATM   20  C   UNL     1     -10.089  19.548  67.082  1.00  0.00    -0.400 C  
HETATM   21  N   UNL     1     -10.015  18.829  65.935  1.00  0.00    -0.518 NA 
HETATM   22  O   UNL     1      -9.902  20.755  67.162  1.00  0.00    -0.463 OA 
HETATM   23  C   UNL     1     -10.404  17.545  66.144  1.00  0.00    -0.329 C  
HETATM   24  O   UNL     1     -10.580  16.730  65.251  1.00  0.00    -0.621 OA 
ENDBRANCH  16  18
ENDBRANCH  15  16
ENDBRANCH  13  15
ENDBRANCH   7  10
TORSDOF 4
ENDMDL
MODEL        8
REMARK 921   NORMALIZED FREE ENERGY PREDICTED BY IDOCK:   -7.03 KCAL/MOL
REMARK 922        TOTAL FREE ENERGY PREDICTED BY IDOCK:   -9.24 KCAL/MOL
REMARK 923 INTER-LIGAND FREE ENERGY PREDICTED BY IDOCK:   -8.65 KCAL/MOL
REMARK 924 INTRA-LIGAND FREE ENERGY PREDICTED BY IDOCK:   -0.58 KCAL/MOL
REMARK 927      BINDING AFFINITY PREDICTED BY RF-SCORE:    0.00 PKD
ROOT
HETATM    1  O   UNL     1     -10.746   6.439  70.592  1.00  0.00    -0.230 OA 
HETATM    2  N   UNL     1     -11.702   6.789  71.294  1.00  0.00    -0.318 N  
HETATM    3  O   UNL     1     -12.401   6.020  71.967  1.00  0.00    -0.219 OA 
HETATM    4  C   UNL     1     -12.032   8.221  71.333  1.00  0.00    -0.299 A  
HETATM    5  C   UNL     1     -11.269   9.122  70.587  1.00  0.00    -0.322 A  
HETATM    6  C   UNL     1     -11.564  10.489  70.645  1.00  0.00    -0.445 A  
HETATM    7  C   UNL     1     -12.611  10.982  71.445  1.00  0.00    -0.498 A  
HETATM    8  C   UNL     1     -13.379  10.057  72.173  1.00  0.00    -0.469 A  
HETATM    9  C   UNL     1     -13.093   8.682  72.122  1.00  0.00    -0.423 A  
ENDROOT
BRANCH   7  10
HETATM   10  C   UNL     1     -12.848  12.428  71.509  1.00  0.00    -0.274 A  
HETATM   11  C   UNL     1     -13.675  13.218  72.286  1.00  0.00    -0.686 A  
HETATM   12  C   UNL     1     -13.496  14.554  71.856  1.00  0.00    -0.466 A  
HETATM   13  C   UNL     1     -12.564  14.520  70.841  1.00  0.00    -0.344 A  
HETATM   14  O   UNL     1     -12.164  13.224  70.629  1.00  0.00    -0.360 OA 
BRANCH  13  15
HETATM   15  C   UNL     1     -12.003  15.557  70.017  1.00  0.00    -0.364 C  
BRANCH  15  16
HETATM   16  N   UNL     1     -12.281  15.632  68.749  1.00  0.00    -0.554 NA 
HETATM   17  H   UNL     1     -13.239  15.764  68.425  1.00  0.00     0.000 HD 
BRANCH  16  18
HETATM   18  N   UNL     1     -11.238  15.526  67.864  1.00  0.00    -0.328 N  
HETATM   19  C   UNL     1     -10.252  16.580  67.763  1.00  0.00    -0.278 C  
HETATM   20  C   UNL     1      -9.559  16.186  66.472  1.00  0.00    -0.262 C  
HETATM   21  N   UNL     1     -10.113  15.043  65.995  1.00  0.00    -0.282 NA 
HETATM   22  O   UNL     1      -8.655  16.804  65.927  1.00  0.00    -0.500 OA 
HETATM   23  C   UNL     1     -11.179  14.672  66.748  1.00  0.00    -0.344 C  
HETATM   24  O   UNL     1     -11.949  13.772  66.447  1.00  0.00    -0.389 OA 
ENDBRANCH  16  18
ENDBRANCH  15  16
ENDBRANCH  13  15
ENDBRANCH   7  10
TORSDOF 4
ENDMDL
MODEL        9
REMARK 921   NORMALIZED FREE ENERGY PREDICTED BY IDOCK:   -7.03 KCAL/MOL
REMARK 922        TOTAL FREE ENERGY PREDICTED BY IDOCK:   -9.23 KCAL/MOL
REMARK 923 INTER-LIGAND FREE ENERGY PREDICTED BY IDOCK:   -8.69 KCAL/MOL
REMARK 924 INTRA-LIGAND FREE ENERGY PREDICTED BY IDOCK:   -0.54 KCAL/MOL
REMARK 927      BINDING AFFINITY PREDICTED BY RF-SCORE:    0.00 PKD
ROOT
HETATM    1  O   UNL     1     -10.205   4.856  71.028  1.00  0.00    -0.217 OA 
HETATM    2  N   UNL     1     -10.674   5.621  71.880  1.00  0.00    -0.235 N  
HETATM    3  O   UNL     1     -10.924   5.303  73.051  1.00  0.00    -0.251 OA 
HETATM    4  C   UNL     1     -10.953   7.006  71.475  1.00  0.00    -0.234 A  
HETATM    5  C   UNL     1     -10.687   7.405  70.163  1.00  0.00    -0.254 A  
HETATM    6  C   UNL     1     -10.925   8.730  69.784  1.00  0.00    -0.146 A  
HETATM    7  C   UNL     1     -11.423   9.679  70.695  1.00  0.00    -0.376 A  
HETATM    8  C   UNL     1     -11.702   9.253  72.006  1.00  0.00    -0.336 A  
HETATM    9  C   UNL     1     -11.467   7.924  72.399  1.00  0.00    -0.433 A  
ENDROOT
BRANCH   7  10
HETATM   10  C   UNL     1     -11.609  11.067  70.260  1.00  0.00    -0.322 A  
HETATM   11  C   UNL     1     -12.386  12.110  70.730  1.00  0.00    -0.391 A  
HETATM   12  C   UNL     1     -12.176  13.207  69.863  1.00  0.00    -0.293 A  
HETATM   13  C   UNL     1     -11.275  12.787  68.908  1.00  0.00    -0.283 A  
HETATM   14  O   UNL     1     -10.924  11.483  69.149  1.00  0.00    -0.220 OA 
BRANCH  13  15
HETATM   15  C   UNL     1     -10.702  13.454  67.768  1.00  0.00    -0.248 C  
BRANCH  15  16
HETATM   16  N   UNL     1     -10.734  12.911  66.588  1.00  0.00    -0.263 NA 
HETATM   17  H   UNL     1     -10.453  11.941  66.444  1.00  0.00     0.000 HD 
BRANCH  16  18
HETATM   18  N   UNL     1     -11.159  13.691  65.542  1.00  0.00    -0.293 N  
HETATM   19  C   UNL     1     -10.581  15.000  65.321  1.00  0.00    -0.397 C  
HETATM   20  C   UNL     1     -11.577  15.576  64.332  1.00  0.00    -0.258 C  
HETATM   21  N   UNL     1     -12.530  14.650  64.061  1.00  0.00    -0.813 NA 
HETATM   22  O   UNL     1     -11.546  16.705  63.862  1.00  0.00    -1.204 OA 
HETATM   23  C   UNL     1     -12.367  13.547  64.835  1.00  0.00    -0.407 C  
HETATM   24  O   UNL     1     -13.175  12.633  64.904  1.00  0.00    -0.819 OA 
ENDBRANCH  16  18
ENDBRANCH  15  16
ENDBRANCH  13  15
ENDBRANCH   7  10
TORSDOF 4
ENDMDL
MODEL       10
REMARK 921   NORMALIZED FREE ENERGY PREDICTED BY IDOCK:   -6.97 KCAL/MOL
REMARK 922        TOTAL FREE ENERGY PREDICTED BY IDOCK:   -9.16 KCAL/MOL
REMARK 923 INTER-LIGAND FREE ENERGY PREDICTED BY IDOCK:   -8.50 KCAL/MOL
REMARK 924 INTRA-LIGAND FREE ENERGY PREDICTED BY IDOCK:   -0.65 KCAL/MOL
REMARK 927      BINDING AFFINITY PREDICTED BY RF-SCORE:    0.00 PKD
ROOT
HETATM    1  O   UNL     1     -12.391  16.132  63.718  1.00  0.00    -0.864 OA 
HETATM    2  N   UNL     1     -11.415  15.991  64.466  1.00  0.00    -0.369 N  
HETATM    3  O   UNL     1     -10.699  16.917  64.871  1.00  0.00    -0.725 OA 
HETATM    4  C   UNL     1     -11.082  14.629  64.905  1.00  0.00    -0.401 A  
HETATM    5  C   UNL     1     -11.864  13.556  64.470  1.00  0.00    -0.442 A  
HETATM    6  C   UNL     1     -11.565  12.263  64.910  1.00  0.00    -0.395 A  
HETATM    7  C   UNL     1     -10.496  12.012  65.790  1.00  0.00    -0.290 A  
HETATM    8  C   UNL     1      -9.710  13.103  66.201  1.00  0.00    -0.254 A  
HETATM    9  C   UNL     1     -10.000  14.407  65.765  1.00  0.00    -0.354 A  
ENDROOT
BRANCH   7  10
HETATM   10  C   UNL     1     -10.255  10.645  66.259  1.00  0.00    -0.245 A  
HETATM   11  C   UNL     1      -9.734   9.514  65.656  1.00  0.00    -0.361 A  
HETATM   12  C   UNL     1      -9.792   8.471  66.609  1.00  0.00    -0.342 A  
HETATM   13  C   UNL     1     -10.340   9.012  67.753  1.00  0.00    -0.246 A  
HETATM   14  O   UNL     1     -10.620  10.340  67.544  1.00  0.00    -0.229 OA 
BRANCH  13  15
HETATM   15  C   UNL     1     -10.657   8.435  69.033  1.00  0.00    -0.154 C  
BRANCH  15  16
HETATM   16  N   UNL     1     -10.474   9.102  70.133  1.00  0.00    -0.206 NA 
HETATM   17  H   UNL     1      -9.541   9.234  70.523  1.00  0.00     0.000 HD 
BRANCH  16  18
HETATM   18  N   UNL     1     -11.584   9.623  70.750  1.00  0.00    -0.299 N  
HETATM   19  C   UNL     1     -11.858  11.043  70.691  1.00  0.00    -0.333 C  
HETATM   20  C   UNL     1     -12.924  11.161  71.763  1.00  0.00    -0.421 C  
HETATM   21  N   UNL     1     -13.182   9.934  72.281  1.00  0.00    -0.403 NA 
HETATM   22  O   UNL     1     -13.461  12.199  72.127  1.00  0.00    -0.494 OA 
HETATM   23  C   UNL     1     -12.335   9.006  71.767  1.00  0.00    -0.367 C  
HETATM   24  O   UNL     1     -12.248   7.858  72.177  1.00  0.00    -0.309 OA 
ENDBRANCH  16  18
ENDBRANCH  15  16
ENDBRANCH  13  15
ENDBRANCH   7  10
TORSDOF 4
ENDMDL
MODEL       11
REMARK 921   NORMALIZED FREE ENERGY PREDICTED BY IDOCK:   -6.87 KCAL/MOL
REMARK 922        TOTAL FREE ENERGY PREDICTED BY IDOCK:   -9.03 KCAL/MOL
REMARK 923 INTER-LIGAND FREE ENERGY PREDICTED BY IDOCK:   -8.29 KCAL/MOL
REMARK 924 INTRA-LIGAND FREE ENERGY PREDICTED BY IDOCK:   -0.74 KCAL/MOL
REMARK 927      BINDING AFFINITY PREDICTED BY RF-SCORE:    0.00 PKD
ROOT
HETATM    1  O   UNL     1     -10.609  15.955  64.764  1.00  0.00    -0.562 OA 
HETATM    2  N   UNL     1     -10.402  16.487  65.862  1.00  0.00    -0.351 N  
HETATM    3  O   UNL     1      -9.817  17.567  66.022  1.00  0.00    -0.467 OA 
HETATM    4  C   UNL     1     -10.884  15.788  67.061  1.00  0.00    -0.273 A  
HETATM    5  C   UNL     1     -11.546  14.566  66.924  1.00  0.00    -0.399 A  
HETATM    6  C   UNL     1     -12.031  13.914  68.063  1.00  0.00    -0.390 A  
HETATM    7  C   UNL     1     -11.872  14.461  69.349  1.00  0.00    -0.369 A  
HETATM    8  C   UNL     1     -11.186  15.682  69.467  1.00  0.00    -0.313 A  
HETATM    9  C   UNL     1     -10.694  16.347  68.331  1.00  0.00    -0.327 A  
ENDROOT
BRANCH   7  10
HETATM   10  C   UNL     1     -12.441  13.761  70.505  1.00  0.00    -0.339 A  
HETATM   11  C   UNL     1     -12.947  14.191  71.717  1.00  0.00    -0.427 A  
HETATM   12  C   UNL     1     -13.313  13.037  72.448  1.00  0.00    -0.563 A  
HETATM   13  C   UNL     1     -13.019  11.954  71.647  1.00  0.00    -0.342 A  
HETATM   14  O   UNL     1     -12.490  12.392  70.458  1.00  0.00    -0.278 OA 
BRANCH  13  15
HETATM   15  C   UNL     1     -13.155  10.537  71.858  1.00  0.00    -0.462 C  
BRANCH  15  16
HETATM   16  N   UNL     1     -12.670   9.683  71.008  1.00  0.00    -0.457 NA 
HETATM   17  H   UNL     1     -13.149   9.480  70.130  1.00  0.00     0.000 HD 
BRANCH  16  18
HETATM   18  N   UNL     1     -11.490   9.062  71.334  1.00  0.00    -0.302 N  
HETATM   19  C   UNL     1     -11.369   8.325  72.574  1.00  0.00    -0.385 C  
HETATM   20  C   UNL     1      -9.864   8.148  72.641  1.00  0.00    -0.294 C  
HETATM   21  N   UNL     1      -9.295   8.705  71.543  1.00  0.00    -0.224 NA 
HETATM   22  O   UNL     1      -9.247   7.607  73.549  1.00  0.00    -0.225 OA 
HETATM   23  C   UNL     1     -10.225   9.342  70.788  1.00  0.00    -0.299 C  
HETATM   24  O   UNL     1      -9.959  10.057  69.833  1.00  0.00    -0.237 OA 
ENDBRANCH  16  18
ENDBRANCH  15  16
ENDBRANCH  13  15
ENDBRANCH   7  10
TORSDOF 4
ENDMDL
MODEL       12
REMARK 921   NORMALIZED FREE ENERGY PREDICTED BY IDOCK:   -6.80 KCAL/MOL
REMARK 922        TOTAL FREE ENERGY PREDICTED BY IDOCK:   -8.95 KCAL/MOL
REMARK 923 INTER-LIGAND FREE ENERGY PREDICTED BY IDOCK:   -8.43 KCAL/MOL
REMARK 924 INTRA-LIGAND FREE ENERGY PREDICTED BY IDOCK:   -0.52 KCAL/MOL
REMARK 927      BINDING AFFINITY PREDICTED BY RF-SCORE:    0.00 PKD
ROOT
HETATM    1  O   UNL     1     -10.253  16.158  64.837  1.00  0.00    -0.502 OA 
HETATM    2  N   UNL     1     -10.179  16.736  65.928  1.00  0.00    -0.344 N  
HETATM    3  O   UNL     1      -9.669  17.851  66.101  1.00  0.00    -0.452 OA 
HETATM    4  C   UNL     1     -10.736  16.051  67.103  1.00  0.00    -0.283 A  
HETATM    5  C   UNL     1     -11.319  14.791  66.951  1.00  0.00    -0.358 A  
HETATM    6  C   UNL     1     -11.876  14.150  68.063  1.00  0.00    -0.400 A  
HETATM    7  C   UNL     1     -11.869  14.747  69.337  1.00  0.00    -0.360 A  
HETATM    8  C   UNL     1     -11.261  16.007  69.472  1.00  0.00    -0.348 A  
HETATM    9  C   UNL     1     -10.697  16.661  68.363  1.00  0.00    -0.353 A  
ENDROOT
BRANCH   7  10
HETATM   10  C   UNL     1     -12.508  14.055  70.460  1.00  0.00    -0.359 A  
HETATM   11  C   UNL     1     -13.215  14.494  71.564  1.00  0.00    -0.431 A  
HETATM   12  C   UNL     1     -13.549  13.351  72.326  1.00  0.00    -0.703 A  
HETATM   13  C   UNL     1     -13.037  12.264  71.650  1.00  0.00    -0.306 A  
HETATM   14  O   UNL     1     -12.404  12.690  70.508  1.00  0.00    -0.337 OA 
BRANCH  13  15
HETATM   15  C   UNL     1     -13.047  10.855  71.946  1.00  0.00    -0.432 C  
BRANCH  15  16
HETATM   16  N   UNL     1     -12.722   9.978  71.044  1.00  0.00    -0.364 NA 
HETATM   17  H   UNL     1     -12.805  10.187  70.049  1.00  0.00     0.000 HD 
BRANCH  16  18
HETATM   18  N   UNL     1     -12.264   8.760  71.479  1.00  0.00    -0.313 N  
HETATM   19  C   UNL     1     -10.843   8.496  71.556  1.00  0.00    -0.263 C  
HETATM   20  C   UNL     1     -10.853   6.990  71.732  1.00  0.00    -0.223 C  
HETATM   21  N   UNL     1     -12.135   6.549  71.772  1.00  0.00    -0.347 NA 
HETATM   22  O   UNL     1      -9.865   6.272  71.807  1.00  0.00    -0.165 OA 
HETATM   23  C   UNL     1     -13.002   7.564  71.531  1.00  0.00    -0.359 C  
HETATM   24  O   UNL     1     -14.202   7.412  71.354  1.00  0.00    -0.433 OA 
ENDBRANCH  16  18
ENDBRANCH  15  16
ENDBRANCH  13  15
ENDBRANCH   7  10
TORSDOF 4
ENDMDL
MODEL       13
REMARK 921   NORMALIZED FREE ENERGY PREDICTED BY IDOCK:   -6.79 KCAL/MOL
REMARK 922        TOTAL FREE ENERGY PREDICTED BY IDOCK:   -8.94 KCAL/MOL
REMARK 923 INTER-LIGAND FREE ENERGY PREDICTED BY IDOCK:   -8.34 KCAL/MOL
REMARK 924 INTRA-LIGAND FREE ENERGY PREDICTED BY IDOCK:   -0.60 KCAL/MOL
REMARK 927      BINDING AFFINITY PREDICTED BY RF-SCORE:    0.00 PKD
ROOT
HETATM    1  O   UNL     1     -12.895  15.727  63.614  1.00  0.00    -0.362 OA 
HETATM    2  N   UNL     1     -11.845  15.731  64.268  1.00  0.00    -0.269 N  
HETATM    3  O   UNL     1     -11.119  16.721  64.428  1.00  0.00    -1.072 OA 
HETATM    4  C   UNL     1     -11.431  14.471  64.901  1.00  0.00    -0.396 A  
HETATM    5  C   UNL     1     -12.221  13.330  64.744  1.00  0.00    -0.466 A  
HETATM    6  C   UNL     1     -11.843  12.138  65.369  1.00  0.00    -0.357 A  
HETATM    7  C   UNL     1     -10.683  12.058  66.162  1.00  0.00    -0.312 A  
HETATM    8  C   UNL     1      -9.892  13.212  66.293  1.00  0.00    -0.284 A  
HETATM    9  C   UNL     1     -10.261  14.416  65.669  1.00  0.00    -0.371 A  
ENDROOT
BRANCH   7  10
HETATM   10  C   UNL     1     -10.357  10.797  66.836  1.00  0.00    -0.241 A  
HETATM   11  C   UNL     1     -10.045   9.531  66.376  1.00  0.00    -0.328 A  
HETATM   12  C   UNL     1      -9.868   8.707  67.512  1.00  0.00    -0.234 A  
HETATM   13  C   UNL     1     -10.073   9.509  68.615  1.00  0.00    -0.181 A  
HETATM   14  O   UNL     1     -10.367  10.786  68.206  1.00  0.00    -0.161 OA 
BRANCH  13  15
HETATM   15  C   UNL     1     -10.045   9.228  70.026  1.00  0.00    -0.212 C  
BRANCH  15  16
HETATM   16  N   UNL     1     -10.685   9.978  70.872  1.00  0.00    -0.359 NA 
HETATM   17  H   UNL     1     -10.344  10.907  71.119  1.00  0.00     0.000 HD 
BRANCH  16  18
HETATM   18  N   UNL     1     -11.838   9.474  71.420  1.00  0.00    -0.361 N  
HETATM   19  C   UNL     1     -12.157   8.068  71.292  1.00  0.00    -0.291 C  
HETATM   20  C   UNL     1     -13.613   8.077  71.718  1.00  0.00    -0.348 C  
HETATM   21  N   UNL     1     -13.976   9.339  72.055  1.00  0.00    -0.362 NA 
HETATM   22  O   UNL     1     -14.358   7.106  71.740  1.00  0.00    -0.417 OA 
HETATM   23  C   UNL     1     -12.971  10.215  71.800  1.00  0.00    -0.462 C  
HETATM   24  O   UNL     1     -13.090  11.430  71.864  1.00  0.00    -0.492 OA 
ENDBRANCH  16  18
ENDBRANCH  15  16
ENDBRANCH  13  15
ENDBRANCH   7  10
TORSDOF 4
ENDMDL
MODEL       14
REMARK 921   NORMALIZED FREE ENERGY PREDICTED BY IDOCK:   -6.79 KCAL/MOL
REMARK 922        TOTAL FREE ENERGY PREDICTED BY IDOCK:   -8.93 KCAL/MOL
REMARK 923 INTER-LIGAND FREE ENERGY PREDICTED BY IDOCK:   -8.51 KCAL/MOL
REMARK 924 INTRA-LIGAND FREE ENERGY PREDICTED BY IDOCK:   -0.43 KCAL/MOL
REMARK 927      BINDING AFFINITY PREDICTED BY RF-SCORE:    0.00 PKD
ROOT
HETATM    1  O   UNL     1     -13.134  10.826  72.044  1.00  0.00    -0.483 OA 
HETATM    2  N   UNL     1     -12.471   9.815  71.778  1.00  0.00    -0.391 N  
HETATM    3  O   UNL     1     -12.325   8.850  72.539  1.00  0.00    -0.349 OA 
HETATM    4  C   UNL     1     -11.812   9.757  70.466  1.00  0.00    -0.240 A  
HETATM    5  C   UNL     1     -11.951  10.826  69.579  1.00  0.00    -0.364 A  
HETATM    6  C   UNL     1     -11.347  10.759  68.318  1.00  0.00    -0.376 A  
HETATM    7  C   UNL     1     -10.604   9.634  67.917  1.00  0.00    -0.308 A  
HETATM    8  C   UNL     1     -10.461   8.576  68.831  1.00  0.00    -0.207 A  
HETATM    9  C   UNL     1     -11.062   8.632  70.101  1.00  0.00    -0.199 A  
ENDROOT
BRANCH   7  10
HETATM   10  C   UNL     1     -10.032   9.593  66.567  1.00  0.00    -0.246 A  
HETATM   11  C   UNL     1      -9.072   8.798  65.969  1.00  0.00    -0.265 A  
HETATM   12  C   UNL     1      -8.910   9.266  64.645  1.00  0.00    -0.218 A  
HETATM   13  C   UNL     1      -9.784  10.322  64.491  1.00  0.00    -0.329 A  
HETATM   14  O   UNL     1     -10.473  10.522  65.661  1.00  0.00    -0.227 OA 
BRANCH  13  15
HETATM   15  C   UNL     1     -10.050  11.195  63.378  1.00  0.00    -0.390 C  
BRANCH  15  16
HETATM   16  N   UNL     1      -9.847  12.475  63.466  1.00  0.00    -0.647 NA 
HETATM   17  H   UNL     1      -9.043  12.915  63.018  1.00  0.00     0.000 HD 
BRANCH  16  18
HETATM   18  N   UNL     1     -10.754  13.213  64.184  1.00  0.00    -0.407 N  
HETATM   19  C   UNL     1     -10.367  13.839  65.431  1.00  0.00    -0.333 C  
HETATM   20  C   UNL     1     -11.729  14.208  65.987  1.00  0.00    -0.382 C  
HETATM   21  N   UNL     1     -12.691  13.839  65.105  1.00  0.00    -0.686 NA 
HETATM   22  O   UNL     1     -11.940  14.737  67.069  1.00  0.00    -0.350 OA 
HETATM   23  C   UNL     1     -12.154  13.159  64.061  1.00  0.00    -0.446 C  
HETATM   24  O   UNL     1     -12.812  12.581  63.209  1.00  0.00    -0.666 OA 
ENDBRANCH  16  18
ENDBRANCH  15  16
ENDBRANCH  13  15
ENDBRANCH   7  10
TORSDOF 4
ENDMDL
MODEL       15
REMARK 921   NORMALIZED FREE ENERGY PREDICTED BY IDOCK:   -6.74 KCAL/MOL
REMARK 922        TOTAL FREE ENERGY PREDICTED BY IDOCK:   -8.88 KCAL/MOL
REMARK 923 INTER-LIGAND FREE ENERGY PREDICTED BY IDOCK:   -8.27 KCAL/MOL
REMARK 924 INTRA-LIGAND FREE ENERGY PREDICTED BY IDOCK:   -0.61 KCAL/MOL
REMARK 927      BINDING AFFINITY PREDICTED BY RF-SCORE:    0.00 PKD
ROOT
HETATM    1  O   UNL     1     -12.832   9.081  73.003  1.00  0.00    -0.248 OA 
HETATM    2  N   UNL     1     -11.878   8.602  72.377  1.00  0.00    -0.362 N  
HETATM    3  O   UNL     1     -11.159   7.681  72.786  1.00  0.00    -0.326 OA 
HETATM    4  C   UNL     1     -11.577   9.167  71.054  1.00  0.00    -0.306 A  
HETATM    5  C   UNL     1     -12.363  10.209  70.557  1.00  0.00    -0.330 A  
HETATM    6  C   UNL     1     -12.095  10.728  69.286  1.00  0.00    -0.278 A  
HETATM    7  C   UNL     1     -11.053  10.222  68.488  1.00  0.00    -0.294 A  
HETATM    8  C   UNL     1     -10.262   9.186  69.014  1.00  0.00    -0.219 A  
HETATM    9  C   UNL     1     -10.520   8.656  70.290  1.00  0.00    -0.229 A  
ENDROOT
BRANCH   7  10
HETATM   10  C   UNL     1     -10.845  10.769  67.144  1.00  0.00    -0.277 A  
HETATM   11  C   UNL     1      -9.832  10.631  66.212  1.00  0.00    -0.263 A  
HETATM   12  C   UNL     1     -10.173  11.442  65.105  1.00  0.00    -0.328 A  
HETATM   13  C   UNL     1     -11.382  12.034  65.407  1.00  0.00    -0.321 A  
HETATM   14  O   UNL     1     -11.796  11.622  66.649  1.00  0.00    -0.533 OA 
BRANCH  13  15
HETATM   15  C   UNL     1     -12.205  12.964  64.681  1.00  0.00    -0.435 C  
BRANCH  15  16
HETATM   16  N   UNL     1     -12.579  14.088  65.215  1.00  0.00    -0.591 NA 
HETATM   17  H   UNL     1     -13.566  14.303  65.358  1.00  0.00     0.000 HD 
BRANCH  16  18
HETATM   18  N   UNL     1     -11.597  14.975  65.578  1.00  0.00    -0.267 N  
HETATM   19  C   UNL     1     -11.187  15.089  66.962  1.00  0.00    -0.328 C  
HETATM   20  C   UNL     1     -10.388  16.377  66.906  1.00  0.00    -0.300 C  
HETATM   21  N   UNL     1     -10.370  16.841  65.632  1.00  0.00    -0.562 NA 
HETATM   22  O   UNL     1      -9.856  16.930  67.859  1.00  0.00    -0.251 OA 
HETATM   23  C   UNL     1     -11.158  16.082  64.830  1.00  0.00    -0.365 C  
HETATM   24  O   UNL     1     -11.442  16.372  63.677  1.00  0.00    -0.858 OA 
ENDBRANCH  16  18
ENDBRANCH  15  16
ENDBRANCH  13  15
ENDBRANCH   7  10
TORSDOF 4
ENDMDL
MODEL       16
REMARK 921   NORMALIZED FREE ENERGY PREDICTED BY IDOCK:   -6.71 KCAL/MOL
REMARK 922        TOTAL FREE ENERGY PREDICTED BY IDOCK:   -8.84 KCAL/MOL
REMARK 923 INTER-LIGAND FREE ENERGY PREDICTED BY IDOCK:   -8.12 KCAL/MOL
REMARK 924 INTRA-LIGAND FREE ENERGY PREDICTED BY IDOCK:   -0.72 KCAL/MOL
REMARK 927      BINDING AFFINITY PREDICTED BY RF-SCORE:    0.00 PKD
ROOT
HETATM    1  O   UNL     1     -12.111   5.802  72.485  1.00  0.00    -0.241 OA 
HETATM    2  N   UNL     1     -11.438   6.285  71.565  1.00  0.00    -0.297 N  
HETATM    3  O   UNL     1     -10.667   5.639  70.844  1.00  0.00    -0.255 OA 
HETATM    4  C   UNL     1     -11.565   7.727  71.310  1.00  0.00    -0.277 A  
HETATM    5  C   UNL     1     -12.424   8.492  72.103  1.00  0.00    -0.437 A  
HETATM    6  C   UNL     1     -12.567   9.859  71.842  1.00  0.00    -0.471 A  
HETATM    7  C   UNL     1     -11.869  10.486  70.794  1.00  0.00    -0.465 A  
HETATM    8  C   UNL     1     -10.996   9.702  70.020  1.00  0.00    -0.297 A  
HETATM    9  C   UNL     1     -10.843   8.328  70.272  1.00  0.00    -0.241 A  
ENDROOT
BRANCH   7  10
HETATM   10  C   UNL     1     -12.091  11.911  70.533  1.00  0.00    -0.331 A  
HETATM   11  C   UNL     1     -12.701  12.922  71.252  1.00  0.00    -0.371 A  
HETATM   12  C   UNL     1     -12.644  14.091  70.458  1.00  0.00    -0.399 A  
HETATM   13  C   UNL     1     -11.996  13.743  69.292  1.00  0.00    -0.352 A  
HETATM   14  O   UNL     1     -11.653  12.414  69.335  1.00  0.00    -0.282 OA 
BRANCH  13  15
HETATM   15  C   UNL     1     -11.664  14.500  68.114  1.00  0.00    -0.337 C  
BRANCH  15  16
HETATM   16  N   UNL     1     -10.678  14.147  67.345  1.00  0.00    -0.282 NA 
HETATM   17  H   UNL     1      -9.710  14.222  67.658  1.00  0.00     0.000 HD 
BRANCH  16  18
HETATM   18  N   UNL     1     -10.988  13.670  66.096  1.00  0.00    -0.283 N  
HETATM   19  C   UNL     1     -11.538  14.552  65.089  1.00  0.00    -0.371 C  
HETATM   20  C   UNL     1     -12.020  13.538  64.069  1.00  0.00    -0.449 C  
HETATM   21  N   UNL     1     -11.716  12.288  64.498  1.00  0.00    -0.346 NA 
HETATM   22  O   UNL     1     -12.609  13.795  63.028  1.00  0.00    -0.721 OA 
HETATM   23  C   UNL     1     -11.184  12.321  65.746  1.00  0.00    -0.337 C  
HETATM   24  O   UNL     1     -10.970  11.328  66.426  1.00  0.00    -0.279 OA 
ENDBRANCH  16  18
ENDBRANCH  15  16
ENDBRANCH  13  15
ENDBRANCH   7  10
TORSDOF 4
ENDMDL
MODEL       17
REMARK 921   NORMALIZED FREE ENERGY PREDICTED BY IDOCK:   -6.71 KCAL/MOL
REMARK 922        TOTAL FREE ENERGY PREDICTED BY IDOCK:   -8.84 KCAL/MOL
REMARK 923 INTER-LIGAND FREE ENERGY PREDICTED BY IDOCK:   -8.27 KCAL/MOL
REMARK 924 INTRA-LIGAND FREE ENERGY PREDICTED BY IDOCK:   -0.58 KCAL/MOL
REMARK 927      BINDING AFFINITY PREDICTED BY RF-SCORE:    0.00 PKD
ROOT
HETATM    1  O   UNL     1     -11.122   7.025  70.088  1.00  0.00    -0.264 OA 
HETATM    2  N   UNL     1     -11.964   7.421  70.903  1.00  0.00    -0.299 N  
HETATM    3  O   UNL     1     -12.624   6.685  71.648  1.00  0.00    -0.347 OA 
HETATM    4  C   UNL     1     -12.198   8.870  70.994  1.00  0.00    -0.203 A  
HETATM    5  C   UNL     1     -11.476   9.735  70.170  1.00  0.00    -0.272 A  
HETATM    6  C   UNL     1     -11.677  11.115  70.275  1.00  0.00    -0.431 A  
HETATM    7  C   UNL     1     -12.589  11.658  71.199  1.00  0.00    -0.439 A  
HETATM    8  C   UNL     1     -13.320  10.769  72.005  1.00  0.00    -0.403 A  
HETATM    9  C   UNL     1     -13.127   9.380  71.908  1.00  0.00    -0.505 A  
ENDROOT
BRANCH   7  10
HETATM   10  C   UNL     1     -12.727  13.114  71.303  1.00  0.00    -0.306 A  
HETATM   11  C   UNL     1     -13.617  13.935  71.971  1.00  0.00    -0.566 A  
HETATM   12  C   UNL     1     -13.269  15.269  71.655  1.00  0.00    -0.532 A  
HETATM   13  C   UNL     1     -12.178  15.203  70.814  1.00  0.00    -0.340 A  
HETATM   14  O   UNL     1     -11.842  13.889  70.600  1.00  0.00    -0.296 OA 
BRANCH  13  15
HETATM   15  C   UNL     1     -11.407  16.226  70.159  1.00  0.00    -0.282 C  
BRANCH  15  16
HETATM   16  N   UNL     1     -10.489  15.921  69.291  1.00  0.00    -0.233 NA 
HETATM   17  H   UNL     1      -9.685  15.349  69.550  1.00  0.00     0.000 HD 
BRANCH  16  18
HETATM   18  N   UNL     1     -10.642  16.397  68.013  1.00  0.00    -0.303 N  
HETATM   19  C   UNL     1     -10.901  15.487  66.917  1.00  0.00    -0.301 C  
HETATM   20  C   UNL     1     -10.642  16.400  65.735  1.00  0.00    -0.315 C  
HETATM   21  N   UNL     1     -10.321  17.639  66.183  1.00  0.00    -0.420 NA 
HETATM   22  O   UNL     1     -10.692  16.077  64.556  1.00  0.00    -0.542 OA 
HETATM   23  C   UNL     1     -10.219  17.651  67.537  1.00  0.00    -0.348 C  
HETATM   24  O   UNL     1      -9.790  18.596  68.183  1.00  0.00    -0.319 OA 
ENDBRANCH  16  18
ENDBRANCH  15  16
ENDBRANCH  13  15
ENDBRANCH   7  10
TORSDOF 4
ENDMDL
MODEL       18
REMARK 921   NORMALIZED FREE ENERGY PREDICTED BY IDOCK:   -6.71 KCAL/MOL
REMARK 922        TOTAL FREE ENERGY PREDICTED BY IDOCK:   -8.84 KCAL/MOL
REMARK 923 INTER-LIGAND FREE ENERGY PREDICTED BY IDOCK:   -8.18 KCAL/MOL
REMARK 924 INTRA-LIGAND FREE ENERGY PREDICTED BY IDOCK:   -0.66 KCAL/MOL
REMARK 927      BINDING AFFINITY PREDICTED BY RF-SCORE:    0.00 PKD
ROOT
HETATM    1  O   UNL     1     -14.032  13.412  72.792  1.00  0.00    -0.724 OA 
HETATM    2  N   UNL     1     -13.378  12.703  72.017  1.00  0.00    -0.504 N  
HETATM    3  O   UNL     1     -13.293  11.470  72.094  1.00  0.00    -0.477 OA 
HETATM    4  C   UNL     1     -12.650  13.371  70.929  1.00  0.00    -0.327 A  
HETATM    5  C   UNL     1     -12.719  14.760  70.809  1.00  0.00    -0.422 A  
HETATM    6  C   UNL     1     -12.050  15.395  69.756  1.00  0.00    -0.373 A  
HETATM    7  C   UNL     1     -11.311  14.665  68.807  1.00  0.00    -0.302 A  
HETATM    8  C   UNL     1     -11.239  13.269  68.957  1.00  0.00    -0.320 A  
HETATM    9  C   UNL     1     -11.906  12.620  70.011  1.00  0.00    -0.358 A  
ENDROOT
BRANCH   7  10
HETATM   10  C   UNL     1     -10.669  15.373  67.696  1.00  0.00    -0.292 A  
HETATM   11  C   UNL     1      -9.687  15.019  66.789  1.00  0.00    -0.253 A  
HETATM   12  C   UNL     1      -9.449  16.149  65.971  1.00  0.00    -0.374 A  
HETATM   13  C   UNL     1     -10.302  17.139  66.411  1.00  0.00    -0.307 A  
HETATM   14  O   UNL     1     -11.050  16.668  67.461  1.00  0.00    -0.207 OA 
BRANCH  13  15
HETATM   15  C   UNL     1     -10.499  18.498  65.981  1.00  0.00    -0.400 C  
BRANCH  15  16
HETATM   16  N   UNL     1     -10.076  19.496  66.698  1.00  0.00    -0.382 NA 
HETATM   17  H   UNL     1     -10.660  20.318  66.857  1.00  0.00     0.000 HD 
BRANCH  16  18
HETATM   18  N   UNL     1      -8.815  19.405  67.232  1.00  0.00    -0.290 N  
HETATM   19  C   UNL     1      -8.624  19.417  68.666  1.00  0.00    -0.358 C  
HETATM   20  C   UNL     1      -7.127  19.647  68.741  1.00  0.00    -0.346 C  
HETATM   21  N   UNL     1      -6.617  19.710  67.486  1.00  0.00    -0.207 NA 
HETATM   22  O   UNL     1      -6.473  19.776  69.767  1.00  0.00    -0.330 OA 
HETATM   23  C   UNL     1      -7.607  19.664  66.560  1.00  0.00    -0.269 C  
HETATM   24  O   UNL     1      -7.437  19.860  65.366  1.00  0.00    -0.361 OA 
ENDBRANCH  16  18
ENDBRANCH  15  16
ENDBRANCH  13  15
ENDBRANCH   7  10
TORSDOF 4
ENDMDL
MODEL       19
REMARK 921   NORMALIZED FREE ENERGY PREDICTED BY IDOCK:   -6.68 KCAL/MOL
REMARK 922        TOTAL FREE ENERGY PREDICTED BY IDOCK:   -8.80 KCAL/MOL
REMARK 923 INTER-LIGAND FREE ENERGY PREDICTED BY IDOCK:   -8.21 KCAL/MOL
REMARK 924 INTRA-LIGAND FREE ENERGY PREDICTED BY IDOCK:   -0.60 KCAL/MOL
REMARK 927      BINDING AFFINITY PREDICTED BY RF-SCORE:    0.00 PKD
ROOT
HETATM    1  O   UNL     1     -10.152   8.105  70.264  1.00  0.00    -0.189 OA 
HETATM    2  N   UNL     1     -10.731   9.146  70.599  1.00  0.00    -0.234 N  
HETATM    3  O   UNL     1     -11.075   9.419  71.756  1.00  0.00    -0.370 OA 
HETATM    4  C   UNL     1     -11.033  10.128  69.548  1.00  0.00    -0.256 A  
HETATM    5  C   UNL     1     -10.663   9.857  68.228  1.00  0.00    -0.276 A  
HETATM    6  C   UNL     1     -10.923  10.804  67.232  1.00  0.00    -0.359 A  
HETATM    7  C   UNL     1     -11.546  12.031  67.526  1.00  0.00    -0.401 A  
HETATM    8  C   UNL     1     -11.927  12.276  68.857  1.00  0.00    -0.300 A  
HETATM    9  C   UNL     1     -11.671  11.332  69.867  1.00  0.00    -0.430 A  
ENDROOT
BRANCH   7  10
HETATM   10  C   UNL     1     -11.753  13.009  66.454  1.00  0.00    -0.390 A  
HETATM   11  C   UNL     1     -12.509  13.000  65.296  1.00  0.00    -0.555 A  
HETATM   12  C   UNL     1     -12.269  14.225  64.632  1.00  0.00    -0.470 A  
HETATM   13  C   UNL     1     -11.381  14.931  65.417  1.00  0.00    -0.346 A  
HETATM   14  O   UNL     1     -11.067  14.193  66.532  1.00  0.00    -0.308 OA 
BRANCH  13  15
HETATM   15  C   UNL     1     -10.765  16.220  65.250  1.00  0.00    -0.332 C  
BRANCH  15  16
HETATM   16  N   UNL     1      -9.543  16.434  65.636  1.00  0.00    -0.507 NA 
HETATM   17  H   UNL     1      -8.769  15.877  65.275  1.00  0.00     0.000 HD 
BRANCH  16  18
HETATM   18  N   UNL     1      -9.332  17.438  66.547  1.00  0.00    -0.264 N  
HETATM   19  C   UNL     1     -10.374  17.812  67.480  1.00  0.00    -0.369 C  
HETATM   20  C   UNL     1      -9.821  19.127  67.996  1.00  0.00    -0.356 C  
HETATM   21  N   UNL     1      -8.621  19.372  67.413  1.00  0.00    -0.291 NA 
HETATM   22  O   UNL     1     -10.372  19.869  68.797  1.00  0.00    -0.433 OA 
HETATM   23  C   UNL     1      -8.341  18.433  66.474  1.00  0.00    -0.272 C  
HETATM   24  O   UNL     1      -7.402  18.505  65.694  1.00  0.00    -0.499 OA 
ENDBRANCH  16  18
ENDBRANCH  15  16
ENDBRANCH  13  15
ENDBRANCH   7  10
TORSDOF 4
ENDMDL
MODEL       20
REMARK 921   NORMALIZED FREE ENERGY PREDICTED BY IDOCK:   -6.65 KCAL/MOL
REMARK 922        TOTAL FREE ENERGY PREDICTED BY IDOCK:   -8.76 KCAL/MOL
REMARK 923 INTER-LIGAND FREE ENERGY PREDICTED BY IDOCK:   -8.23 KCAL/MOL
REMARK 924 INTRA-LIGAND FREE ENERGY PREDICTED BY IDOCK:   -0.53 KCAL/MOL
REMARK 927      BINDING AFFINITY PREDICTED BY RF-SCORE:    0.00 PKD
ROOT
HETATM    1  O   UNL     1     -10.415  17.041  65.293  1.00  0.00    -0.649 OA 
HETATM    2  N   UNL     1     -11.061  16.183  64.678  1.00  0.00    -0.411 N  
HETATM    3  O   UNL     1     -11.839  16.421  63.745  1.00  0.00    -1.002 OA 
HETATM    4  C   UNL     1     -10.893  14.780  65.085  1.00  0.00    -0.404 A  
HETATM    5  C   UNL     1     -10.026  14.469  66.135  1.00  0.00    -0.330 A  
HETATM    6  C   UNL     1      -9.843  13.132  66.504  1.00  0.00    -0.265 A  
HETATM    7  C   UNL     1     -10.509  12.086  65.838  1.00  0.00    -0.290 A  
HETATM    8  C   UNL     1     -11.391  12.423  64.797  1.00  0.00    -0.360 A  
HETATM    9  C   UNL     1     -11.584  13.762  64.417  1.00  0.00    -0.418 A  
ENDROOT
BRANCH   7  10
HETATM   10  C   UNL     1     -10.245  10.699  66.232  1.00  0.00    -0.245 A  
HETATM   11  C   UNL     1      -9.767   9.595  65.550  1.00  0.00    -0.372 A  
HETATM   12  C   UNL     1      -9.771   8.511  66.458  1.00  0.00    -0.330 A  
HETATM   13  C   UNL     1     -10.245   9.003  67.656  1.00  0.00    -0.242 A  
HETATM   14  O   UNL     1     -10.532  10.339  67.523  1.00  0.00    -0.209 OA 
BRANCH  13  15
HETATM   15  C   UNL     1     -10.485   8.372  68.927  1.00  0.00    -0.189 C  
BRANCH  15  16
HETATM   16  N   UNL     1     -11.265   8.918  69.811  1.00  0.00    -0.430 NA 
HETATM   17  H   UNL     1     -11.929   9.648  69.551  1.00  0.00     0.000 HD 
BRANCH  16  18
HETATM   18  N   UNL     1     -11.162   8.478  71.106  1.00  0.00    -0.257 N  
HETATM   19  C   UNL     1      -9.961   8.730  71.874  1.00  0.00    -0.331 C  
HETATM   20  C   UNL     1     -10.179   7.788  73.042  1.00  0.00    -0.330 C  
HETATM   21  N   UNL     1     -11.371   7.158  72.897  1.00  0.00    -0.257 NA 
HETATM   22  O   UNL     1      -9.400   7.604  73.967  1.00  0.00    -0.262 OA 
HETATM   23  C   UNL     1     -11.942   7.473  71.707  1.00  0.00    -0.301 C  
HETATM   24  O   UNL     1     -12.938   6.924  71.259  1.00  0.00    -0.350 OA 
ENDBRANCH  16  18
ENDBRANCH  15  16
ENDBRANCH  13  15
ENDBRANCH   7  10
TORSDOF 4
ENDMDL
MODEL       21
REMARK 921   NORMALIZED FREE ENERGY PREDICTED BY IDOCK:   -6.64 KCAL/MOL
REMARK 922        TOTAL FREE ENERGY PREDICTED BY IDOCK:   -8.75 KCAL/MOL
REMARK 923 INTER-LIGAND FREE ENERGY PREDICTED BY IDOCK:   -8.19 KCAL/MOL
REMARK 924 INTRA-LIGAND FREE ENERGY PREDICTED BY IDOCK:   -0.57 KCAL/MOL
REMARK 927      BINDING AFFINITY PREDICTED BY RF-SCORE:    0.00 PKD
ROOT
HETATM    1  O   UNL     1     -10.009   8.211  70.283  1.00  0.00    -0.187 OA 
HETATM    2  N   UNL     1     -10.650   9.244  70.516  1.00  0.00    -0.231 N  
HETATM    3  O   UNL     1     -11.042   9.591  71.638  1.00  0.00    -0.371 OA 
HETATM    4  C   UNL     1     -10.969  10.120  69.380  1.00  0.00    -0.245 A  
HETATM    5  C   UNL     1     -10.547   9.763  68.097  1.00  0.00    -0.276 A  
HETATM    6  C   UNL     1     -10.825  10.611  67.020  1.00  0.00    -0.298 A  
HETATM    7  C   UNL     1     -11.518  11.823  67.195  1.00  0.00    -0.366 A  
HETATM    8  C   UNL     1     -11.951  12.154  68.491  1.00  0.00    -0.273 A  
HETATM    9  C   UNL     1     -11.678  11.310  69.582  1.00  0.00    -0.420 A  
ENDROOT
BRANCH   7  10
HETATM   10  C   UNL     1     -11.742  12.698  66.041  1.00  0.00    -0.417 A  
HETATM   11  C   UNL     1     -12.356  12.511  64.816  1.00  0.00    -0.544 A  
HETATM   12  C   UNL     1     -12.221  13.720  64.095  1.00  0.00    -0.443 A  
HETATM   13  C   UNL     1     -11.537  14.593  64.914  1.00  0.00    -0.405 A  
HETATM   14  O   UNL     1     -11.246  13.974  66.104  1.00  0.00    -0.309 OA 
BRANCH  13  15
HETATM   15  C   UNL     1     -11.096  15.949  64.719  1.00  0.00    -0.384 C  
BRANCH  15  16
HETATM   16  N   UNL     1     -10.091  16.431  65.387  1.00  0.00    -0.563 NA 
HETATM   17  H   UNL     1      -9.130  16.200  65.136  1.00  0.00     0.000 HD 
BRANCH  16  18
HETATM   18  N   UNL     1     -10.371  17.261  66.443  1.00  0.00    -0.333 N  
HETATM   19  C   UNL     1     -10.277  18.697  66.292  1.00  0.00    -0.427 C  
HETATM   20  C   UNL     1     -10.324  19.129  67.745  1.00  0.00    -0.421 C  
HETATM   21  N   UNL     1     -10.459  18.037  68.537  1.00  0.00    -0.333 NA 
HETATM   22  O   UNL     1     -10.234  20.280  68.153  1.00  0.00    -0.385 OA 
HETATM   23  C   UNL     1     -10.397  16.897  67.802  1.00  0.00    -0.327 C  
HETATM   24  O   UNL     1     -10.334  15.776  68.283  1.00  0.00    -0.231 OA 
ENDBRANCH  16  18
ENDBRANCH  15  16
ENDBRANCH  13  15
ENDBRANCH   7  10
TORSDOF 4
ENDMDL
MODEL       22
REMARK 921   NORMALIZED FREE ENERGY PREDICTED BY IDOCK:   -6.63 KCAL/MOL
REMARK 922        TOTAL FREE ENERGY PREDICTED BY IDOCK:   -8.74 KCAL/MOL
REMARK 923 INTER-LIGAND FREE ENERGY PREDICTED BY IDOCK:   -8.04 KCAL/MOL
REMARK 924 INTRA-LIGAND FREE ENERGY PREDICTED BY IDOCK:   -0.70 KCAL/MOL
REMARK 927      BINDING AFFINITY PREDICTED BY RF-SCORE:    0.00 PKD
ROOT
HETATM    1  O   UNL     1     -12.338  16.228  73.334  1.00  0.00    -0.488 OA 
HETATM    2  N   UNL     1     -12.641  15.194  72.725  1.00  0.00    -0.360 N  
HETATM    3  O   UNL     1     -13.240  14.232  73.224  1.00  0.00    -0.614 OA 
HETATM    4  C   UNL     1     -12.265  15.101  71.307  1.00  0.00    -0.333 A  
HETATM    5  C   UNL     1     -11.586  16.164  70.705  1.00  0.00    -0.382 A  
HETATM    6  C   UNL     1     -11.253  16.089  69.349  1.00  0.00    -0.349 A  
HETATM    7  C   UNL     1     -11.589  14.967  68.569  1.00  0.00    -0.348 A  
HETATM    8  C   UNL     1     -12.254  13.901  69.198  1.00  0.00    -0.305 A  
HETATM    9  C   UNL     1     -12.594  13.964  70.560  1.00  0.00    -0.382 A  
ENDROOT
BRANCH   7  10
HETATM   10  C   UNL     1     -11.259  14.959  67.140  1.00  0.00    -0.343 A  
HETATM   11  C   UNL     1     -10.370  15.685  66.370  1.00  0.00    -0.303 A  
HETATM   12  C   UNL     1     -10.533  15.257  65.032  1.00  0.00    -0.411 A  
HETATM   13  C   UNL     1     -11.509  14.283  65.047  1.00  0.00    -0.364 A  
HETATM   14  O   UNL     1     -11.951  14.095  66.332  1.00  0.00    -0.400 OA 
BRANCH  13  15
HETATM   15  C   UNL     1     -12.104  13.503  63.994  1.00  0.00    -0.441 C  
BRANCH  15  16
HETATM   16  N   UNL     1     -11.961  12.212  63.953  1.00  0.00    -0.459 NA 
HETATM   17  H   UNL     1     -12.750  11.599  63.748  1.00  0.00     0.000 HD 
BRANCH  16  18
HETATM   18  N   UNL     1     -10.710  11.704  64.195  1.00  0.00    -0.332 N  
HETATM   19  C   UNL     1      -9.814  11.406  63.098  1.00  0.00    -0.388 C  
HETATM   20  C   UNL     1      -8.765  10.579  63.816  1.00  0.00    -0.180 C  
HETATM   21  N   UNL     1      -9.080  10.498  65.133  1.00  0.00    -0.186 NA 
HETATM   22  O   UNL     1      -7.794  10.047  63.297  1.00  0.00    -0.140 OA 
HETATM   23  C   UNL     1     -10.282  11.077  65.379  1.00  0.00    -0.274 C  
HETATM   24  O   UNL     1     -10.870  11.005  66.448  1.00  0.00    -0.257 OA 
ENDBRANCH  16  18
ENDBRANCH  15  16
ENDBRANCH  13  15
ENDBRANCH   7  10
TORSDOF 4
ENDMDL
MODEL       23
REMARK 921   NORMALIZED FREE ENERGY PREDICTED BY IDOCK:   -6.63 KCAL/MOL
REMARK 922        TOTAL FREE ENERGY PREDICTED BY IDOCK:   -8.73 KCAL/MOL
REMARK 923 INTER-LIGAND FREE ENERGY PREDICTED BY IDOCK:   -8.08 KCAL/MOL
REMARK 924 INTRA-LIGAND FREE ENERGY PREDICTED BY IDOCK:   -0.65 KCAL/MOL
REMARK 927      BINDING AFFINITY PREDICTED BY RF-SCORE:    0.00 PKD
ROOT
HETATM    1  O   UNL     1     -12.760  15.464  63.718  1.00  0.00    -0.628 OA 
HETATM    2  N   UNL     1     -11.767  15.668  64.429  1.00  0.00    -0.318 N  
HETATM    3  O   UNL     1     -11.049  16.674  64.364  1.00  0.00    -0.985 OA 
HETATM    4  C   UNL     1     -11.415  14.641  65.420  1.00  0.00    -0.352 A  
HETATM    5  C   UNL     1     -12.198  13.489  65.525  1.00  0.00    -0.490 A  
HETATM    6  C   UNL     1     -11.881  12.526  66.487  1.00  0.00    -0.434 A  
HETATM    7  C   UNL     1     -10.792  12.689  67.363  1.00  0.00    -0.272 A  
HETATM    8  C   UNL     1     -10.005  13.846  67.229  1.00  0.00    -0.242 A  
HETATM    9  C   UNL     1     -10.313  14.822  66.265  1.00  0.00    -0.305 A  
ENDROOT
BRANCH   7  10
HETATM   10  C   UNL     1     -10.531  11.672  68.386  1.00  0.00    -0.213 A  
HETATM   11  C   UNL     1      -9.438  10.874  68.671  1.00  0.00    -0.192 A  
HETATM   12  C   UNL     1      -9.799  10.049  69.762  1.00  0.00    -0.270 A  
HETATM   13  C   UNL     1     -11.094  10.384  70.097  1.00  0.00    -0.314 A  
HETATM   14  O   UNL     1     -11.542  11.377  69.262  1.00  0.00    -0.257 OA 
BRANCH  13  15
HETATM   15  C   UNL     1     -11.988   9.876  71.103  1.00  0.00    -0.384 C  
BRANCH  15  16
HETATM   16  N   UNL     1     -12.655   8.776  70.915  1.00  0.00    -0.494 NA 
HETATM   17  H   UNL     1     -13.571   8.784  70.467  1.00  0.00     0.000 HD 
BRANCH  16  18
HETATM   18  N   UNL     1     -12.080   7.605  71.341  1.00  0.00    -0.307 N  
HETATM   19  C   UNL     1     -11.616   7.470  72.705  1.00  0.00    -0.282 C  
HETATM   20  C   UNL     1     -10.783   6.208  72.588  1.00  0.00    -0.229 C  
HETATM   21  N   UNL     1     -10.848   5.741  71.316  1.00  0.00    -0.259 NA 
HETATM   22  O   UNL     1     -10.134   5.693  73.488  1.00  0.00    -0.171 OA 
HETATM   23  C   UNL     1     -11.536   6.600  70.521  1.00  0.00    -0.376 C  
HETATM   24  O   UNL     1     -11.607   6.499  69.306  1.00  0.00    -0.309 OA 
ENDBRANCH  16  18
ENDBRANCH  15  16
ENDBRANCH  13  15
ENDBRANCH   7  10
TORSDOF 4
ENDMDL
MODEL       24
REMARK 921   NORMALIZED FREE ENERGY PREDICTED BY IDOCK:   -6.62 KCAL/MOL
REMARK 922        TOTAL FREE ENERGY PREDICTED BY IDOCK:   -8.73 KCAL/MOL
REMARK 923 INTER-LIGAND FREE ENERGY PREDICTED BY IDOCK:   -8.22 KCAL/MOL
REMARK 924 INTRA-LIGAND FREE ENERGY PREDICTED BY IDOCK:   -0.51 KCAL/MOL
REMARK 927      BINDING AFFINITY PREDICTED BY RF-SCORE:    0.00 PKD
ROOT
HETATM    1  O   UNL     1     -11.744   9.137  71.974  1.00  0.00    -0.357 OA 
HETATM    2  N   UNL     1     -11.304   8.851  70.854  1.00  0.00    -0.273 N  
HETATM    3  O   UNL     1     -10.826   7.751  70.545  1.00  0.00    -0.233 OA 
HETATM    4  C   UNL     1     -11.352   9.890  69.816  1.00  0.00    -0.193 A  
HETATM    5  C   UNL     1     -11.882  11.145  70.124  1.00  0.00    -0.449 A  
HETATM    6  C   UNL     1     -11.954  12.126  69.130  1.00  0.00    -0.311 A  
HETATM    7  C   UNL     1     -11.510  11.879  67.817  1.00  0.00    -0.389 A  
HETATM    8  C   UNL     1     -10.963  10.616  67.533  1.00  0.00    -0.371 A  
HETATM    9  C   UNL     1     -10.884   9.622  68.524  1.00  0.00    -0.202 A  
ENDROOT
BRANCH   7  10
HETATM   10  C   UNL     1     -11.653  12.924  66.800  1.00  0.00    -0.360 A  
HETATM   11  C   UNL     1     -12.528  13.106  65.745  1.00  0.00    -0.441 A  
HETATM   12  C   UNL     1     -12.141  14.294  65.083  1.00  0.00    -0.410 A  
HETATM   13  C   UNL     1     -11.050  14.788  65.767  1.00  0.00    -0.338 A  
HETATM   14  O   UNL     1     -10.752  13.957  66.818  1.00  0.00    -0.279 OA 
BRANCH  13  15
HETATM   15  C   UNL     1     -10.225  15.947  65.552  1.00  0.00    -0.365 C  
BRANCH  15  16
HETATM   16  N   UNL     1     -10.751  17.122  65.374  1.00  0.00    -0.560 NA 
HETATM   17  H   UNL     1     -11.413  17.296  64.618  1.00  0.00     0.000 HD 
BRANCH  16  18
HETATM   18  N   UNL     1     -10.384  18.119  66.242  1.00  0.00    -0.404 N  
HETATM   19  C   UNL     1     -10.181  17.832  67.646  1.00  0.00    -0.358 C  
HETATM   20  C   UNL     1     -10.147  19.239  68.212  1.00  0.00    -0.425 C  
HETATM   21  N   UNL     1     -10.284  20.134  67.203  1.00  0.00    -0.431 NA 
HETATM   22  O   UNL     1     -10.034  19.532  69.394  1.00  0.00    -0.384 OA 
HETATM   23  C   UNL     1     -10.522  19.502  66.025  1.00  0.00    -0.516 C  
HETATM   24  O   UNL     1     -10.838  20.075  64.993  1.00  0.00    -0.172 OA 
ENDBRANCH  16  18
ENDBRANCH  15  16
ENDBRANCH  13  15
ENDBRANCH   7  10
TORSDOF 4
ENDMDL
MODEL       25
REMARK 921   NORMALIZED FREE ENERGY PREDICTED BY IDOCK:   -6.62 KCAL/MOL
REMARK 922        TOTAL FREE ENERGY PREDICTED BY IDOCK:   -8.73 KCAL/MOL
REMARK 923 INTER-LIGAND FREE ENERGY PREDICTED BY IDOCK:   -8.06 KCAL/MOL
REMARK 924 INTRA-LIGAND FREE ENERGY PREDICTED BY IDOCK:   -0.67 KCAL/MOL
REMARK 927      BINDING AFFINITY PREDICTED BY RF-SCORE:    0.00 PKD
ROOT
HETATM    1  O   UNL     1     -12.930   9.090  73.188  1.00  0.00    -0.142 OA 
HETATM    2  N   UNL     1     -12.057   8.526  72.515  1.00  0.00    -0.375 N  
HETATM    3  O   UNL     1     -11.445   7.509  72.866  1.00  0.00    -0.328 OA 
HETATM    4  C   UNL     1     -11.725   9.105  71.205  1.00  0.00    -0.326 A  
HETATM    5  C   UNL     1     -12.391  10.253  70.772  1.00  0.00    -0.445 A  
HETATM    6  C   UNL     1     -12.097  10.788  69.514  1.00  0.00    -0.344 A  
HETATM    7  C   UNL     1     -11.144  10.193  68.665  1.00  0.00    -0.254 A  
HETATM    8  C   UNL     1     -10.472   9.049  69.128  1.00  0.00    -0.239 A  
HETATM    9  C   UNL     1     -10.759   8.503  70.391  1.00  0.00    -0.246 A  
ENDROOT
BRANCH   7  10
HETATM   10  C   UNL     1     -10.907  10.765  67.337  1.00  0.00    -0.290 A  
HETATM   11  C   UNL     1      -9.826  10.742  66.475  1.00  0.00    -0.246 A  
HETATM   12  C   UNL     1     -10.177  11.517  65.346  1.00  0.00    -0.311 A  
HETATM   13  C   UNL     1     -11.460  11.974  65.565  1.00  0.00    -0.313 A  
HETATM   14  O   UNL     1     -11.910  11.513  66.778  1.00  0.00    -0.511 OA 
BRANCH  13  15
HETATM   15  C   UNL     1     -12.328  12.813  64.783  1.00  0.00    -0.478 C  
BRANCH  15  16
HETATM   16  N   UNL     1     -12.847  13.893  65.285  1.00  0.00    -0.749 NA 
HETATM   17  H   UNL     1     -13.857  14.037  65.298  1.00  0.00     0.000 HD 
BRANCH  16  18
HETATM   18  N   UNL     1     -11.987  14.833  65.795  1.00  0.00    -0.224 N  
HETATM   19  C   UNL     1     -11.090  15.557  64.921  1.00  0.00    -0.416 C  
HETATM   20  C   UNL     1     -10.151  16.173  65.940  1.00  0.00    -0.354 C  
HETATM   21  N   UNL     1     -10.550  15.825  67.189  1.00  0.00    -0.310 NA 
HETATM   22  O   UNL     1      -9.172  16.861  65.687  1.00  0.00    -0.512 OA 
HETATM   23  C   UNL     1     -11.586  14.950  67.138  1.00  0.00    -0.315 C  
HETATM   24  O   UNL     1     -12.031  14.359  68.111  1.00  0.00    -0.328 OA 
ENDBRANCH  16  18
ENDBRANCH  15  16
ENDBRANCH  13  15
ENDBRANCH   7  10
TORSDOF 4
ENDMDL
MODEL       26
REMARK 921   NORMALIZED FREE ENERGY PREDICTED BY IDOCK:   -6.52 KCAL/MOL
REMARK 922        TOTAL FREE ENERGY PREDICTED BY IDOCK:   -8.60 KCAL/MOL
REMARK 923 INTER-LIGAND FREE ENERGY PREDICTED BY IDOCK:   -8.01 KCAL/MOL
REMARK 924 INTRA-LIGAND FREE ENERGY PREDICTED BY IDOCK:   -0.59 KCAL/MOL
REMARK 927      BINDING AFFINITY PREDICTED BY RF-SCORE:    0.00 PKD
ROOT
HETATM    1  O   UNL     1     -10.724  17.463  65.148  1.00  0.00    -0.684 OA 
HETATM    2  N   UNL     1     -11.269  16.402  64.816  1.00  0.00    -0.321 N  
HETATM    3  O   UNL     1     -11.924  16.242  63.778  1.00  0.00    -0.973 OA 
HETATM    4  C   UNL     1     -11.128  15.251  65.718  1.00  0.00    -0.301 A  
HETATM    5  C   UNL     1     -10.398  15.390  66.901  1.00  0.00    -0.277 A  
HETATM    6  C   UNL     1     -10.238  14.287  67.747  1.00  0.00    -0.235 A  
HETATM    7  C   UNL     1     -10.792  13.032  67.433  1.00  0.00    -0.269 A  
HETATM    8  C   UNL     1     -11.539  12.918  66.247  1.00  0.00    -0.424 A  
HETATM    9  C   UNL     1     -11.707  14.019  65.390  1.00  0.00    -0.344 A  
ENDROOT
BRANCH   7  10
HETATM   10  C   UNL     1     -10.555  11.896  68.328  1.00  0.00    -0.213 A  
HETATM   11  C   UNL     1      -9.531  10.974  68.437  1.00  0.00    -0.182 A  
HETATM   12  C   UNL     1      -9.885  10.080  69.474  1.00  0.00    -0.249 A  
HETATM   13  C   UNL     1     -11.106  10.500  69.957  1.00  0.00    -0.308 A  
HETATM   14  O   UNL     1     -11.516  11.611  69.263  1.00  0.00    -0.251 OA 
BRANCH  13  15
HETATM   15  C   UNL     1     -11.963   9.980  70.989  1.00  0.00    -0.376 C  
BRANCH  15  16
HETATM   16  N   UNL     1     -12.592   8.853  70.834  1.00  0.00    -0.497 NA 
HETATM   17  H   UNL     1     -13.445   8.796  70.279  1.00  0.00     0.000 HD 
BRANCH  16  18
HETATM   18  N   UNL     1     -12.066   7.744  71.447  1.00  0.00    -0.304 N  
HETATM   19  C   UNL     1     -11.545   7.827  72.794  1.00  0.00    -0.314 C  
HETATM   20  C   UNL     1     -10.793   6.513  72.880  1.00  0.00    -0.258 C  
HETATM   21  N   UNL     1     -10.945   5.830  71.719  1.00  0.00    -0.264 NA 
HETATM   22  O   UNL     1     -10.132   6.127  73.835  1.00  0.00    -0.205 OA 
HETATM   23  C   UNL     1     -11.620   6.574  70.806  1.00  0.00    -0.377 C  
HETATM   24  O   UNL     1     -11.755   6.260  69.632  1.00  0.00    -0.382 OA 
ENDBRANCH  16  18
ENDBRANCH  15  16
ENDBRANCH  13  15
ENDBRANCH   7  10
TORSDOF 4
ENDMDL
MODEL       27
REMARK 921   NORMALIZED FREE ENERGY PREDICTED BY IDOCK:   -6.51 KCAL/MOL
REMARK 922        TOTAL FREE ENERGY PREDICTED BY IDOCK:   -8.59 KCAL/MOL
REMARK 923 INTER-LIGAND FREE ENERGY PREDICTED BY IDOCK:   -8.09 KCAL/MOL
REMARK 924 INTRA-LIGAND FREE ENERGY PREDICTED BY IDOCK:   -0.50 KCAL/MOL
REMARK 927      BINDING AFFINITY PREDICTED BY RF-SCORE:    0.00 PKD
ROOT
HETATM    1  O   UNL     1      -7.873   7.438  63.967  1.00  0.00    -0.126 OA 
HETATM    2  N   UNL     1      -8.394   7.473  65.089  1.00  0.00    -0.120 N  
HETATM    3  O   UNL     1      -8.333   6.560  65.923  1.00  0.00    -0.127 OA 
HETATM    4  C   UNL     1      -9.138   8.686  65.459  1.00  0.00    -0.131 A  
HETATM    5  C   UNL     1      -9.233   9.739  64.546  1.00  0.00    -0.310 A  
HETATM    6  C   UNL     1      -9.916  10.904  64.907  1.00  0.00    -0.361 A  
HETATM    7  C   UNL     1     -10.510  11.048  66.175  1.00  0.00    -0.301 A  
HETATM    8  C   UNL     1     -10.419   9.969  67.072  1.00  0.00    -0.302 A  
HETATM    9  C   UNL     1      -9.736   8.792  66.720  1.00  0.00    -0.286 A  
ENDROOT
BRANCH   7  10
HETATM   10  C   UNL     1     -11.173  12.308  66.521  1.00  0.00    -0.324 A  
HETATM   11  C   UNL     1     -11.971  13.185  65.810  1.00  0.00    -0.473 A  
HETATM   12  C   UNL     1     -12.281  14.261  66.674  1.00  0.00    -0.411 A  
HETATM   13  C   UNL     1     -11.664  13.989  67.877  1.00  0.00    -0.362 A  
HETATM   14  O   UNL     1     -10.990  12.796  67.789  1.00  0.00    -0.224 OA 
BRANCH  13  15
HETATM   15  C   UNL     1     -11.607  14.721  69.115  1.00  0.00    -0.303 C  
BRANCH  15  16
HETATM   16  N   UNL     1     -11.478  14.106  70.252  1.00  0.00    -0.476 NA 
HETATM   17  H   UNL     1     -10.851  13.308  70.354  1.00  0.00     0.000 HD 
BRANCH  16  18
HETATM   18  N   UNL     1     -12.218  14.569  71.311  1.00  0.00    -0.340 N  
HETATM   19  C   UNL     1     -11.844  15.794  71.986  1.00  0.00    -0.490 C  
HETATM   20  C   UNL     1     -12.700  15.691  73.234  1.00  0.00    -0.510 C  
HETATM   21  N   UNL     1     -13.445  14.559  73.178  1.00  0.00    -0.581 NA 
HETATM   22  O   UNL     1     -12.710  16.488  74.162  1.00  0.00    -0.683 OA 
HETATM   23  C   UNL     1     -13.115  13.818  72.091  1.00  0.00    -0.406 C  
HETATM   24  O   UNL     1     -13.521  12.683  71.888  1.00  0.00    -0.444 OA 
ENDBRANCH  16  18
ENDBRANCH  15  16
ENDBRANCH  13  15
ENDBRANCH   7  10
TORSDOF 4
ENDMDL
MODEL       28
REMARK 921   NORMALIZED FREE ENERGY PREDICTED BY IDOCK:   -6.51 KCAL/MOL
REMARK 922        TOTAL FREE ENERGY PREDICTED BY IDOCK:   -8.59 KCAL/MOL
REMARK 923 INTER-LIGAND FREE ENERGY PREDICTED BY IDOCK:   -7.94 KCAL/MOL
REMARK 924 INTRA-LIGAND FREE ENERGY PREDICTED BY IDOCK:   -0.65 KCAL/MOL
REMARK 927      BINDING AFFINITY PREDICTED BY RF-SCORE:    0.00 PKD
ROOT
HETATM    1  O   UNL     1      -7.344  19.713  68.887  1.00  0.00    -0.348 OA 
HETATM    2  N   UNL     1      -7.962  19.656  67.817  1.00  0.00    -0.295 N  
HETATM    3  O   UNL     1      -7.964  20.547  66.957  1.00  0.00    -0.323 OA 
HETATM    4  C   UNL     1      -8.749  18.445  67.546  1.00  0.00    -0.258 A  
HETATM    5  C   UNL     1      -8.775  17.417  68.492  1.00  0.00    -0.277 A  
HETATM    6  C   UNL     1      -9.500  16.251  68.223  1.00  0.00    -0.214 A  
HETATM    7  C   UNL     1     -10.204  16.084  67.017  1.00  0.00    -0.282 A  
HETATM    8  C   UNL     1     -10.181  17.138  66.087  1.00  0.00    -0.343 A  
HETATM    9  C   UNL     1      -9.456  18.314  66.345  1.00  0.00    -0.290 A  
ENDROOT
BRANCH   7  10
HETATM   10  C   UNL     1     -10.909  14.824  66.764  1.00  0.00    -0.316 A  
HETATM   11  C   UNL     1     -11.734  14.388  65.742  1.00  0.00    -0.362 A  
HETATM   12  C   UNL     1     -12.152  13.079  66.075  1.00  0.00    -0.493 A  
HETATM   13  C   UNL     1     -11.559  12.771  67.281  1.00  0.00    -0.360 A  
HETATM   14  O   UNL     1     -10.796  13.832  67.702  1.00  0.00    -0.250 OA 
BRANCH  13  15
HETATM   15  C   UNL     1     -11.627  11.599  68.114  1.00  0.00    -0.319 C  
BRANCH  15  16
HETATM   16  N   UNL     1     -11.228  11.631  69.350  1.00  0.00    -0.337 NA 
HETATM   17  H   UNL     1     -10.243  11.519  69.591  1.00  0.00     0.000 HD 
BRANCH  16  18
HETATM   18  N   UNL     1     -12.181  11.821  70.319  1.00  0.00    -0.320 N  
HETATM   19  C   UNL     1     -12.483  13.152  70.800  1.00  0.00    -0.308 C  
HETATM   20  C   UNL     1     -13.286  12.820  72.043  1.00  0.00    -0.466 C  
HETATM   21  N   UNL     1     -13.404  11.474  72.157  1.00  0.00    -0.374 NA 
HETATM   22  O   UNL     1     -13.745  13.630  72.836  1.00  0.00    -0.672 OA 
HETATM   23  C   UNL     1     -12.678  10.843  71.199  1.00  0.00    -0.429 C  
HETATM   24  O   UNL     1     -12.484   9.636  71.171  1.00  0.00    -0.311 OA 
ENDBRANCH  16  18
ENDBRANCH  15  16
ENDBRANCH  13  15
ENDBRANCH   7  10
TORSDOF 4
ENDMDL
MODEL       29
REMARK 921   NORMALIZED FREE ENERGY PREDICTED BY IDOCK:   -6.48 KCAL/MOL
REMARK 922        TOTAL FREE ENERGY PREDICTED BY IDOCK:   -8.55 KCAL/MOL
REMARK 923 INTER-LIGAND FREE ENERGY PREDICTED BY IDOCK:   -7.97 KCAL/MOL
REMARK 924 INTRA-LIGAND FREE ENERGY PREDICTED BY IDOCK:   -0.58 KCAL/MOL
REMARK 927      BINDING AFFINITY PREDICTED BY RF-SCORE:    0.00 PKD
ROOT
HETATM    1  O   UNL     1      -9.963  17.341  65.465  1.00  0.00    -0.557 OA 
HETATM    2  N   UNL     1     -10.771  16.465  65.131  1.00  0.00    -0.360 N  
HETATM    3  O   UNL     1     -11.423  16.474  64.078  1.00  0.00    -1.137 OA 
HETATM    4  C   UNL     1     -10.971  15.334  66.048  1.00  0.00    -0.317 A  
HETATM    5  C   UNL     1     -10.256  15.288  67.247  1.00  0.00    -0.248 A  
HETATM    6  C   UNL     1     -10.424  14.198  68.107  1.00  0.00    -0.244 A  
HETATM    7  C   UNL     1     -11.294  13.138  67.792  1.00  0.00    -0.326 A  
HETATM    8  C   UNL     1     -12.018  13.214  66.590  1.00  0.00    -0.451 A  
HETATM    9  C   UNL     1     -11.859  14.304  65.718  1.00  0.00    -0.377 A  
ENDROOT
BRANCH   7  10
HETATM   10  C   UNL     1     -11.398  11.996  68.705  1.00  0.00    -0.278 A  
HETATM   11  C   UNL     1     -11.891  11.851  69.989  1.00  0.00    -0.407 A  
HETATM   12  C   UNL     1     -11.677  10.505  70.368  1.00  0.00    -0.434 A  
HETATM   13  C   UNL     1     -11.069   9.887  69.295  1.00  0.00    -0.181 A  
HETATM   14  O   UNL     1     -10.901  10.792  68.278  1.00  0.00    -0.195 OA 
BRANCH  13  15
HETATM   15  C   UNL     1     -10.602   8.540  69.102  1.00  0.00    -0.173 C  
BRANCH  15  16
HETATM   16  N   UNL     1     -11.381   7.522  69.315  1.00  0.00    -0.416 NA 
HETATM   17  H   UNL     1     -12.030   7.194  68.600  1.00  0.00     0.000 HD 
BRANCH  16  18
HETATM   18  N   UNL     1     -11.299   6.906  70.539  1.00  0.00    -0.307 N  
HETATM   19  C   UNL     1     -10.256   5.938  70.804  1.00  0.00    -0.211 C  
HETATM   20  C   UNL     1     -10.780   5.314  72.083  1.00  0.00    -0.209 C  
HETATM   21  N   UNL     1     -11.938   5.921  72.440  1.00  0.00    -0.242 NA 
HETATM   22  O   UNL     1     -10.257   4.392  72.695  1.00  0.00    -0.169 OA 
HETATM   23  C   UNL     1     -12.328   6.812  71.493  1.00  0.00    -0.358 C  
HETATM   24  O   UNL     1     -13.412   7.377  71.490  1.00  0.00    -0.376 OA 
ENDBRANCH  16  18
ENDBRANCH  15  16
ENDBRANCH  13  15
ENDBRANCH   7  10
TORSDOF 4
ENDMDL
MODEL       30
REMARK 921   NORMALIZED FREE ENERGY PREDICTED BY IDOCK:   -6.45 KCAL/MOL
REMARK 922        TOTAL FREE ENERGY PREDICTED BY IDOCK:   -8.52 KCAL/MOL
REMARK 923 INTER-LIGAND FREE ENERGY PREDICTED BY IDOCK:   -7.77 KCAL/MOL
REMARK 924 INTRA-LIGAND FREE ENERGY PREDICTED BY IDOCK:   -0.75 KCAL/MOL
REMARK 927      BINDING AFFINITY PREDICTED BY RF-SCORE:    0.00 PKD
ROOT
HETATM    1  O   UNL     1      -7.461  21.282  67.156  1.00  0.00    -0.416 OA 
HETATM    2  N   UNL     1      -7.186  20.165  66.702  1.00  0.00    -0.251 N  
HETATM    3  O   UNL     1      -6.229  19.925  65.953  1.00  0.00    -0.178 OA 
HETATM    4  C   UNL     1      -8.056  19.041  67.077  1.00  0.00    -0.265 A  
HETATM    5  C   UNL     1      -9.148  19.270  67.918  1.00  0.00    -0.363 A  
HETATM    6  C   UNL     1      -9.960  18.197  68.300  1.00  0.00    -0.380 A  
HETATM    7  C   UNL     1      -9.702  16.885  67.860  1.00  0.00    -0.254 A  
HETATM    8  C   UNL     1      -8.610  16.680  66.999  1.00  0.00    -0.220 A  
HETATM    9  C   UNL     1      -7.787  17.750  66.608  1.00  0.00    -0.277 A  
ENDROOT
BRANCH   7  10
HETATM   10  C   UNL     1     -10.556  15.788  68.327  1.00  0.00    -0.271 A  
HETATM   11  C   UNL     1     -11.596  15.719  69.236  1.00  0.00    -0.380 A  
HETATM   12  C   UNL     1     -12.004  14.366  69.298  1.00  0.00    -0.362 A  
HETATM   13  C   UNL     1     -11.199  13.671  68.420  1.00  0.00    -0.276 A  
HETATM   14  O   UNL     1     -10.317  14.537  67.823  1.00  0.00    -0.235 OA 
BRANCH  13  15
HETATM   15  C   UNL     1     -11.135  12.276  68.073  1.00  0.00    -0.239 C  
BRANCH  15  16
HETATM   16  N   UNL     1     -11.959  11.761  67.211  1.00  0.00    -0.607 NA 
HETATM   17  H   UNL     1     -12.821  11.305  67.510  1.00  0.00     0.000 HD 
BRANCH  16  18
HETATM   18  N   UNL     1     -11.627  11.853  65.883  1.00  0.00    -0.299 N  
HETATM   19  C   UNL     1     -10.349  11.364  65.411  1.00  0.00    -0.279 C  
HETATM   20  C   UNL     1     -10.310  11.985  64.028  1.00  0.00    -0.373 C  
HETATM   21  N   UNL     1     -11.454  12.681  63.814  1.00  0.00    -0.434 NA 
HETATM   22  O   UNL     1      -9.388  11.896  63.229  1.00  0.00    -0.219 OA 
HETATM   23  C   UNL     1     -12.222  12.703  64.933  1.00  0.00    -0.471 C  
HETATM   24  O   UNL     1     -13.225  13.389  65.061  1.00  0.00    -0.715 OA 
ENDBRANCH  16  18
ENDBRANCH  15  16
ENDBRANCH  13  15
ENDBRANCH   7  10
TORSDOF 4
ENDMDL
MODEL       31
REMARK 921   NORMALIZED FREE ENERGY PREDICTED BY IDOCK:   -6.45 KCAL/MOL
REMARK 922        TOTAL FREE ENERGY PREDICTED BY IDOCK:   -8.51 KCAL/MOL
REMARK 923 INTER-LIGAND FREE ENERGY PREDICTED BY IDOCK:   -7.96 KCAL/MOL
REMARK 924 INTRA-LIGAND FREE ENERGY PREDICTED BY IDOCK:   -0.56 KCAL/MOL
REMARK 927      BINDING AFFINITY PREDICTED BY RF-SCORE:    0.00 PKD
ROOT
HETATM    1  O   UNL     1      -9.543   5.912  67.714  1.00  0.00    -0.113 OA 
HETATM    2  N   UNL     1      -9.365   6.630  66.721  1.00  0.00    -0.153 N  
HETATM    3  O   UNL     1      -8.848   6.251  65.663  1.00  0.00    -0.147 OA 
HETATM    4  C   UNL     1      -9.800   8.031  66.805  1.00  0.00    -0.257 A  
HETATM    5  C   UNL     1     -10.387   8.499  67.983  1.00  0.00    -0.272 A  
HETATM    6  C   UNL     1     -10.828   9.825  68.054  1.00  0.00    -0.276 A  
HETATM    7  C   UNL     1     -10.699  10.703  66.962  1.00  0.00    -0.317 A  
HETATM    8  C   UNL     1     -10.088  10.218  65.793  1.00  0.00    -0.325 A  
HETATM    9  C   UNL     1      -9.641   8.888  65.710  1.00  0.00    -0.245 A  
ENDROOT
BRANCH   7  10
HETATM   10  C   UNL     1     -11.220  12.069  67.072  1.00  0.00    -0.320 A  
HETATM   11  C   UNL     1     -11.681  12.984  66.143  1.00  0.00    -0.445 A  
HETATM   12  C   UNL     1     -12.014  14.162  66.851  1.00  0.00    -0.479 A  
HETATM   13  C   UNL     1     -11.748  13.912  68.180  1.00  0.00    -0.353 A  
HETATM   14  O   UNL     1     -11.267  12.634  68.320  1.00  0.00    -0.237 OA 
BRANCH  13  15
HETATM   15  C   UNL     1     -11.870  14.733  69.356  1.00  0.00    -0.323 C  
BRANCH  15  16
HETATM   16  N   UNL     1     -13.029  14.956  69.900  1.00  0.00    -0.585 NA 
HETATM   17  H   UNL     1     -13.848  15.172  69.330  1.00  0.00     0.000 HD 
BRANCH  16  18
HETATM   18  N   UNL     1     -13.111  14.893  71.268  1.00  0.00    -0.354 N  
HETATM   19  C   UNL     1     -12.858  16.068  72.073  1.00  0.00    -0.316 C  
HETATM   20  C   UNL     1     -12.721  15.437  73.446  1.00  0.00    -0.533 C  
HETATM   21  N   UNL     1     -12.916  14.098  73.347  1.00  0.00    -0.433 NA 
HETATM   22  O   UNL     1     -12.457  16.029  74.483  1.00  0.00    -0.676 OA 
HETATM   23  C   UNL     1     -13.058  13.725  72.050  1.00  0.00    -0.396 C  
HETATM   24  O   UNL     1     -13.088  12.563  71.672  1.00  0.00    -0.402 OA 
ENDBRANCH  16  18
ENDBRANCH  15  16
ENDBRANCH  13  15
ENDBRANCH   7  10
TORSDOF 4
ENDMDL
MODEL       32
REMARK 921   NORMALIZED FREE ENERGY PREDICTED BY IDOCK:   -6.44 KCAL/MOL
REMARK 922        TOTAL FREE ENERGY PREDICTED BY IDOCK:   -8.50 KCAL/MOL
REMARK 923 INTER-LIGAND FREE ENERGY PREDICTED BY IDOCK:   -7.99 KCAL/MOL
REMARK 924 INTRA-LIGAND FREE ENERGY PREDICTED BY IDOCK:   -0.51 KCAL/MOL
REMARK 927      BINDING AFFINITY PREDICTED BY RF-SCORE:    0.00 PKD
ROOT
HETATM    1  O   UNL     1      -9.827  20.467  66.838  1.00  0.00    -0.450 OA 
HETATM    2  N   UNL     1     -10.084  19.718  67.788  1.00  0.00    -0.393 N  
HETATM    3  O   UNL     1     -10.141  20.076  68.972  1.00  0.00    -0.389 OA 
HETATM    4  C   UNL     1     -10.342  18.302  67.491  1.00  0.00    -0.398 A  
HETATM    5  C   UNL     1     -10.286  17.856  66.169  1.00  0.00    -0.343 A  
HETATM    6  C   UNL     1     -10.559  16.515  65.881  1.00  0.00    -0.279 A  
HETATM    7  C   UNL     1     -10.895  15.598  66.894  1.00  0.00    -0.282 A  
HETATM    8  C   UNL     1     -10.928  16.063  68.220  1.00  0.00    -0.335 A  
HETATM    9  C   UNL     1     -10.655  17.408  68.522  1.00  0.00    -0.340 A  
ENDROOT
BRANCH   7  10
HETATM   10  C   UNL     1     -11.219  14.214  66.534  1.00  0.00    -0.330 A  
HETATM   11  C   UNL     1     -11.827  13.640  65.433  1.00  0.00    -0.370 A  
HETATM   12  C   UNL     1     -11.902  12.249  65.678  1.00  0.00    -0.423 A  
HETATM   13  C   UNL     1     -11.330  12.036  66.915  1.00  0.00    -0.341 A  
HETATM   14  O   UNL     1     -10.909  13.232  67.438  1.00  0.00    -0.261 OA 
BRANCH  13  15
HETATM   15  C   UNL     1     -11.138  10.839  67.691  1.00  0.00    -0.319 C  
BRANCH  15  16
HETATM   16  N   UNL     1     -12.030  10.447  68.551  1.00  0.00    -0.759 NA 
HETATM   17  H   UNL     1     -13.026  10.477  68.330  1.00  0.00     0.000 HD 
BRANCH  16  18
HETATM   18  N   UNL     1     -11.584   9.993  69.766  1.00  0.00    -0.182 N  
HETATM   19  C   UNL     1     -10.736   8.822  69.844  1.00  0.00    -0.223 C  
HETATM   20  C   UNL     1     -10.809   8.529  71.331  1.00  0.00    -0.260 C  
HETATM   21  N   UNL     1     -11.580   9.466  71.937  1.00  0.00    -0.355 NA 
HETATM   22  O   UNL     1     -10.277   7.587  71.901  1.00  0.00    -0.185 OA 
HETATM   23  C   UNL     1     -12.135  10.301  71.022  1.00  0.00    -0.386 C  
HETATM   24  O   UNL     1     -12.992  11.131  71.285  1.00  0.00    -0.391 OA 
ENDBRANCH  16  18
ENDBRANCH  15  16
ENDBRANCH  13  15
ENDBRANCH   7  10
TORSDOF 4
ENDMDL
MODEL       33
REMARK 921   NORMALIZED FREE ENERGY PREDICTED BY IDOCK:   -6.42 KCAL/MOL
REMARK 922        TOTAL FREE ENERGY PREDICTED BY IDOCK:   -8.48 KCAL/MOL
REMARK 923 INTER-LIGAND FREE ENERGY PREDICTED BY IDOCK:   -7.98 KCAL/MOL
REMARK 924 INTRA-LIGAND FREE ENERGY PREDICTED BY IDOCK:   -0.50 KCAL/MOL
REMARK 927      BINDING AFFINITY PREDICTED BY RF-SCORE:    0.00 PKD
ROOT
HETATM    1  O   UNL     1      -9.727   3.479  71.410  1.00  0.00    -0.160 OA 
HETATM    2  N   UNL     1     -10.060   4.234  72.333  1.00  0.00    -0.171 N  
HETATM    3  O   UNL     1     -10.052   3.925  73.532  1.00  0.00    -0.121 OA 
HETATM    4  C   UNL     1     -10.494   5.593  71.981  1.00  0.00    -0.219 A  
HETATM    5  C   UNL     1     -10.520   5.981  70.640  1.00  0.00    -0.305 A  
HETATM    6  C   UNL     1     -10.905   7.283  70.306  1.00  0.00    -0.264 A  
HETATM    7  C   UNL     1     -11.266   8.220  71.292  1.00  0.00    -0.302 A  
HETATM    8  C   UNL     1     -11.252   7.804  72.635  1.00  0.00    -0.438 A  
HETATM    9  C   UNL     1     -10.867   6.498  72.982  1.00  0.00    -0.291 A  
ENDROOT
BRANCH   7  10
HETATM   10  C   UNL     1     -11.617   9.586  70.893  1.00  0.00    -0.326 A  
HETATM   11  C   UNL     1     -12.295  10.613  71.524  1.00  0.00    -0.414 A  
HETATM   12  C   UNL     1     -12.358  11.692  70.613  1.00  0.00    -0.437 A  
HETATM   13  C   UNL     1     -11.709  11.279  69.468  1.00  0.00    -0.345 A  
HETATM   14  O   UNL     1     -11.252   9.996  69.637  1.00  0.00    -0.244 OA 
BRANCH  13  15
HETATM   15  C   UNL     1     -11.472  11.933  68.208  1.00  0.00    -0.311 C  
BRANCH  15  16
HETATM   16  N   UNL     1     -11.781  11.357  67.085  1.00  0.00    -0.544 NA 
HETATM   17  H   UNL     1     -12.177  10.418  67.064  1.00  0.00     0.000 HD 
BRANCH  16  18
HETATM   18  N   UNL     1     -11.553  12.060  65.929  1.00  0.00    -0.348 N  
HETATM   19  C   UNL     1     -12.414  13.163  65.559  1.00  0.00    -0.458 C  
HETATM   20  C   UNL     1     -11.998  13.365  64.115  1.00  0.00    -0.450 C  
HETATM   21  N   UNL     1     -11.014  12.484  63.802  1.00  0.00    -0.419 NA 
HETATM   22  O   UNL     1     -12.480  14.178  63.338  1.00  0.00    -0.797 OA 
HETATM   23  C   UNL     1     -10.788  11.628  64.830  1.00  0.00    -0.308 C  
HETATM   24  O   UNL     1     -10.069  10.643  64.754  1.00  0.00    -0.304 OA 
ENDBRANCH  16  18
ENDBRANCH  15  16
ENDBRANCH  13  15
ENDBRANCH   7  10
TORSDOF 4
ENDMDL
MODEL       34
REMARK 921   NORMALIZED FREE ENERGY PREDICTED BY IDOCK:   -6.42 KCAL/MOL
REMARK 922        TOTAL FREE ENERGY PREDICTED BY IDOCK:   -8.47 KCAL/MOL
REMARK 923 INTER-LIGAND FREE ENERGY PREDICTED BY IDOCK:   -7.84 KCAL/MOL
REMARK 924 INTRA-LIGAND FREE ENERGY PREDICTED BY IDOCK:   -0.63 KCAL/MOL
REMARK 927      BINDING AFFINITY PREDICTED BY RF-SCORE:    0.00 PKD
ROOT
HETATM    1  O   UNL     1     -13.272   8.805  73.042  1.00  0.00    -0.292 OA 
HETATM    2  N   UNL     1     -12.372   8.643  72.208  1.00  0.00    -0.379 N  
HETATM    3  O   UNL     1     -11.696   7.611  72.094  1.00  0.00    -0.286 OA 
HETATM    4  C   UNL     1     -12.084   9.752  71.288  1.00  0.00    -0.382 A  
HETATM    5  C   UNL     1     -12.822  10.934  71.385  1.00  0.00    -0.554 A  
HETATM    6  C   UNL     1     -12.569  11.980  70.492  1.00  0.00    -0.192 A  
HETATM    7  C   UNL     1     -11.588  11.870  69.489  1.00  0.00    -0.394 A  
HETATM    8  C   UNL     1     -10.844  10.680  69.420  1.00  0.00    -0.289 A  
HETATM    9  C   UNL     1     -11.088   9.622  70.313  1.00  0.00    -0.327 A  
ENDROOT
BRANCH   7  10
HETATM   10  C   UNL     1     -11.395  12.977  68.547  1.00  0.00    -0.288 A  
HETATM   11  C   UNL     1     -12.148  13.469  67.497  1.00  0.00    -0.340 A  
HETATM   12  C   UNL     1     -11.418  14.538  66.926  1.00  0.00    -0.375 A  
HETATM   13  C   UNL     1     -10.255  14.654  67.658  1.00  0.00    -0.232 A  
HETATM   14  O   UNL     1     -10.239  13.706  68.650  1.00  0.00    -0.232 OA 
BRANCH  13  15
HETATM   15  C   UNL     1      -9.128  15.541  67.537  1.00  0.00    -0.193 C  
BRANCH  15  16
HETATM   16  N   UNL     1      -8.888  16.173  66.426  1.00  0.00    -0.290 NA 
HETATM   17  H   UNL     1      -8.426  15.710  65.644  1.00  0.00     0.000 HD 
BRANCH  16  18
HETATM   18  N   UNL     1      -9.279  17.486  66.346  1.00  0.00    -0.263 N  
HETATM   19  C   UNL     1      -8.864  18.438  67.354  1.00  0.00    -0.257 C  
HETATM   20  C   UNL     1      -9.795  19.593  67.040  1.00  0.00    -0.374 C  
HETATM   21  N   UNL     1     -10.568  19.273  65.973  1.00  0.00    -0.479 NA 
HETATM   22  O   UNL     1      -9.860  20.647  67.658  1.00  0.00    -0.413 OA 
HETATM   23  C   UNL     1     -10.355  17.988  65.591  1.00  0.00    -0.049 C  
HETATM   24  O   UNL     1     -11.031  17.400  64.761  1.00  0.00    -0.964 OA 
ENDBRANCH  16  18
ENDBRANCH  15  16
ENDBRANCH  13  15
ENDBRANCH   7  10
TORSDOF 4
ENDMDL
MODEL       35
REMARK 921   NORMALIZED FREE ENERGY PREDICTED BY IDOCK:   -6.41 KCAL/MOL
REMARK 922        TOTAL FREE ENERGY PREDICTED BY IDOCK:   -8.47 KCAL/MOL
REMARK 923 INTER-LIGAND FREE ENERGY PREDICTED BY IDOCK:   -7.94 KCAL/MOL
REMARK 924 INTRA-LIGAND FREE ENERGY PREDICTED BY IDOCK:   -0.53 KCAL/MOL
REMARK 927      BINDING AFFINITY PREDICTED BY RF-SCORE:    0.00 PKD
ROOT
HETATM    1  O   UNL     1      -8.674   8.788  63.200  1.00  0.00    -0.133 OA 
HETATM    2  N   UNL     1      -9.238   9.843  63.516  1.00  0.00    -0.264 N  
HETATM    3  O   UNL     1      -9.462  10.782  62.740  1.00  0.00    -0.295 OA 
HETATM    4  C   UNL     1      -9.672   9.994  64.912  1.00  0.00    -0.307 A  
HETATM    5  C   UNL     1      -9.437   8.959  65.820  1.00  0.00    -0.272 A  
HETATM    6  C   UNL     1      -9.876   9.089  67.142  1.00  0.00    -0.262 A  
HETATM    7  C   UNL     1     -10.556  10.239  67.582  1.00  0.00    -0.312 A  
HETATM    8  C   UNL     1     -10.767  11.276  66.657  1.00  0.00    -0.321 A  
HETATM    9  C   UNL     1     -10.330  11.158  65.327  1.00  0.00    -0.336 A  
ENDROOT
BRANCH   7  10
HETATM   10  C   UNL     1     -11.038  10.305  68.965  1.00  0.00    -0.230 A  
HETATM   11  C   UNL     1     -11.000   9.417  70.025  1.00  0.00    -0.267 A  
HETATM   12  C   UNL     1     -11.671  10.032  71.107  1.00  0.00    -0.472 A  
HETATM   13  C   UNL     1     -12.083  11.271  70.662  1.00  0.00    -0.383 A  
HETATM   14  O   UNL     1     -11.695  11.442  69.357  1.00  0.00    -0.277 OA 
BRANCH  13  15
HETATM   15  C   UNL     1     -12.820  12.326  71.304  1.00  0.00    -0.239 C  
BRANCH  15  16
HETATM   16  N   UNL     1     -12.743  13.552  70.881  1.00  0.00    -0.318 NA 
HETATM   17  H   UNL     1     -12.995  13.798  69.924  1.00  0.00     0.000 HD 
BRANCH  16  18
HETATM   18  N   UNL     1     -12.309  14.504  71.770  1.00  0.00    -0.343 N  
HETATM   19  C   UNL     1     -12.923  14.622  73.075  1.00  0.00    -0.510 C  
HETATM   20  C   UNL     1     -12.377  15.968  73.514  1.00  0.00    -0.562 C  
HETATM   21  N   UNL     1     -11.555  16.456  72.552  1.00  0.00    -0.324 NA 
HETATM   22  O   UNL     1     -12.645  16.542  74.560  1.00  0.00    -0.750 OA 
HETATM   23  C   UNL     1     -11.563  15.655  71.457  1.00  0.00    -0.435 C  
HETATM   24  O   UNL     1     -11.036  15.944  70.393  1.00  0.00    -0.321 OA 
ENDBRANCH  16  18
ENDBRANCH  15  16
ENDBRANCH  13  15
ENDBRANCH   7  10
TORSDOF 4
ENDMDL
MODEL       36
REMARK 921   NORMALIZED FREE ENERGY PREDICTED BY IDOCK:   -6.40 KCAL/MOL
REMARK 922        TOTAL FREE ENERGY PREDICTED BY IDOCK:   -8.45 KCAL/MOL
REMARK 923 INTER-LIGAND FREE ENERGY PREDICTED BY IDOCK:   -7.74 KCAL/MOL
REMARK 924 INTRA-LIGAND FREE ENERGY PREDICTED BY IDOCK:   -0.71 KCAL/MOL
REMARK 927      BINDING AFFINITY PREDICTED BY RF-SCORE:    0.00 PKD
ROOT
HETATM    1  O   UNL     1     -13.542  13.203  72.734  1.00  0.00    -0.598 OA 
HETATM    2  N   UNL     1     -13.206  12.265  72.000  1.00  0.00    -0.474 N  
HETATM    3  O   UNL     1     -13.303  11.067  72.298  1.00  0.00    -0.390 OA 
HETATM    4  C   UNL     1     -12.652  12.596  70.679  1.00  0.00    -0.160 A  
HETATM    5  C   UNL     1     -12.524  13.936  70.305  1.00  0.00    -0.380 A  
HETATM    6  C   UNL     1     -12.025  14.252  69.037  1.00  0.00    -0.360 A  
HETATM    7  C   UNL     1     -11.651  13.251  68.122  1.00  0.00    -0.373 A  
HETATM    8  C   UNL     1     -11.770  11.910  68.525  1.00  0.00    -0.388 A  
HETATM    9  C   UNL     1     -12.270  11.579  69.797  1.00  0.00    -0.310 A  
ENDROOT
BRANCH   7  10
HETATM   10  C   UNL     1     -11.178  13.635  66.788  1.00  0.00    -0.314 A  
HETATM   11  C   UNL     1     -10.656  14.805  66.269  1.00  0.00    -0.306 A  
HETATM   12  C   UNL     1     -10.421  14.581  64.892  1.00  0.00    -0.435 A  
HETATM   13  C   UNL     1     -10.805  13.282  64.634  1.00  0.00    -0.382 A  
HETATM   14  O   UNL     1     -11.263  12.700  65.790  1.00  0.00    -0.291 OA 
BRANCH  13  15
HETATM   15  C   UNL     1     -10.814  12.506  63.422  1.00  0.00    -0.302 C  
BRANCH  15  16
HETATM   16  N   UNL     1     -10.947  11.213  63.455  1.00  0.00    -0.747 NA 
HETATM   17  H   UNL     1     -11.865  10.774  63.381  1.00  0.00     0.000 HD 
BRANCH  16  18
HETATM   18  N   UNL     1      -9.808  10.462  63.592  1.00  0.00    -0.286 N  
HETATM   19  C   UNL     1      -9.120   9.953  62.425  1.00  0.00    -0.290 C  
HETATM   20  C   UNL     1      -8.190   8.944  63.072  1.00  0.00    -0.187 C  
HETATM   21  N   UNL     1      -8.366   8.967  64.417  1.00  0.00    -0.169 NA 
HETATM   22  O   UNL     1      -7.413   8.207  62.482  1.00  0.00    -0.099 OA 
HETATM   23  C   UNL     1      -9.389   9.792  64.756  1.00  0.00    -0.265 C  
HETATM   24  O   UNL     1      -9.857   9.874  65.882  1.00  0.00    -0.237 OA 
ENDBRANCH  16  18
ENDBRANCH  15  16
ENDBRANCH  13  15
ENDBRANCH   7  10
TORSDOF 4
ENDMDL
MODEL       37
REMARK 921   NORMALIZED FREE ENERGY PREDICTED BY IDOCK:   -6.40 KCAL/MOL
REMARK 922        TOTAL FREE ENERGY PREDICTED BY IDOCK:   -8.45 KCAL/MOL
REMARK 923 INTER-LIGAND FREE ENERGY PREDICTED BY IDOCK:   -8.05 KCAL/MOL
REMARK 924 INTRA-LIGAND FREE ENERGY PREDICTED BY IDOCK:   -0.40 KCAL/MOL
REMARK 927      BINDING AFFINITY PREDICTED BY RF-SCORE:    0.00 PKD
ROOT
HETATM    1  O   UNL     1     -13.609  13.393  73.180  1.00  0.00    -0.372 OA 
HETATM    2  N   UNL     1     -12.944  14.437  73.164  1.00  0.00    -0.500 N  
HETATM    3  O   UNL     1     -12.679  15.118  74.163  1.00  0.00    -0.499 OA 
HETATM    4  C   UNL     1     -12.433  14.901  71.866  1.00  0.00    -0.333 A  
HETATM    5  C   UNL     1     -12.712  14.163  70.714  1.00  0.00    -0.414 A  
HETATM    6  C   UNL     1     -12.202  14.588  69.483  1.00  0.00    -0.306 A  
HETATM    7  C   UNL     1     -11.407  15.744  69.375  1.00  0.00    -0.348 A  
HETATM    8  C   UNL     1     -11.154  16.483  70.543  1.00  0.00    -0.104 A  
HETATM    9  C   UNL     1     -11.662  16.067  71.786  1.00  0.00    -0.593 A  
ENDROOT
BRANCH   7  10
HETATM   10  C   UNL     1     -10.857  16.120  68.069  1.00  0.00    -0.333 A  
HETATM   11  C   UNL     1     -10.000  17.123  67.655  1.00  0.00    -0.283 A  
HETATM   12  C   UNL     1      -9.869  17.006  66.252  1.00  0.00    -0.310 A  
HETATM   13  C   UNL     1     -10.646  15.932  65.872  1.00  0.00    -0.337 A  
HETATM   14  O   UNL     1     -11.248  15.386  66.979  1.00  0.00    -0.312 OA 
BRANCH  13  15
HETATM   15  C   UNL     1     -10.918  15.350  64.585  1.00  0.00    -0.314 C  
BRANCH  15  16
HETATM   16  N   UNL     1     -10.478  14.167  64.277  1.00  0.00    -0.538 NA 
HETATM   17  H   UNL     1     -10.062  13.978  63.365  1.00  0.00     0.000 HD 
BRANCH  16  18
HETATM   18  N   UNL     1     -10.593  13.181  65.224  1.00  0.00    -0.304 N  
HETATM   19  C   UNL     1      -9.414  12.525  65.747  1.00  0.00    -0.059 C  
HETATM   20  C   UNL     1     -10.048  11.338  66.448  1.00  0.00    -0.220 C  
HETATM   21  N   UNL     1     -11.396  11.408  66.321  1.00  0.00    -0.280 NA 
HETATM   22  O   UNL     1      -9.446  10.442  67.024  1.00  0.00    -0.159 OA 
HETATM   23  C   UNL     1     -11.753  12.442  65.518  1.00  0.00    -0.407 C  
HETATM   24  O   UNL     1     -12.890  12.633  65.114  1.00  0.00    -0.721 OA 
ENDBRANCH  16  18
ENDBRANCH  15  16
ENDBRANCH  13  15
ENDBRANCH   7  10
TORSDOF 4
ENDMDL
MODEL       38
REMARK 921   NORMALIZED FREE ENERGY PREDICTED BY IDOCK:   -6.38 KCAL/MOL
REMARK 922        TOTAL FREE ENERGY PREDICTED BY IDOCK:   -8.43 KCAL/MOL
REMARK 923 INTER-LIGAND FREE ENERGY PREDICTED BY IDOCK:   -7.73 KCAL/MOL
REMARK 924 INTRA-LIGAND FREE ENERGY PREDICTED BY IDOCK:   -0.70 KCAL/MOL
REMARK 927      BINDING AFFINITY PREDICTED BY RF-SCORE:    0.00 PKD
ROOT
HETATM    1  O   UNL     1      -9.912  17.596  66.041  1.00  0.00    -0.469 OA 
HETATM    2  N   UNL     1     -10.365  16.466  65.818  1.00  0.00    -0.371 N  
HETATM    3  O   UNL     1     -10.352  15.908  64.713  1.00  0.00    -0.485 OA 
HETATM    4  C   UNL     1     -10.962  15.735  66.945  1.00  0.00    -0.207 A  
HETATM    5  C   UNL     1     -10.999  16.331  68.208  1.00  0.00    -0.348 A  
HETATM    6  C   UNL     1     -11.540  15.625  69.287  1.00  0.00    -0.375 A  
HETATM    7  C   UNL     1     -12.046  14.321  69.135  1.00  0.00    -0.337 A  
HETATM    8  C   UNL     1     -12.016  13.747  67.852  1.00  0.00    -0.391 A  
HETATM    9  C   UNL     1     -11.476  14.446  66.760  1.00  0.00    -0.381 A  
ENDROOT
BRANCH   7  10
HETATM   10  C   UNL     1     -12.558  13.605  70.308  1.00  0.00    -0.186 A  
HETATM   11  C   UNL     1     -13.110  14.023  71.505  1.00  0.00    -0.436 A  
HETATM   12  C   UNL     1     -13.376  12.862  72.267  1.00  0.00    -0.597 A  
HETATM   13  C   UNL     1     -12.981  11.787  71.499  1.00  0.00    -0.341 A  
HETATM   14  O   UNL     1     -12.485  12.237  70.301  1.00  0.00    -0.198 OA 
BRANCH  13  15
HETATM   15  C   UNL     1     -12.991  10.370  71.751  1.00  0.00    -0.475 C  
BRANCH  15  16
HETATM   16  N   UNL     1     -11.883   9.701  71.862  1.00  0.00    -0.314 NA 
HETATM   17  H   UNL     1     -11.280   9.809  72.678  1.00  0.00     0.000 HD 
BRANCH  16  18
HETATM   18  N   UNL     1     -11.555   8.843  70.843  1.00  0.00    -0.283 N  
HETATM   19  C   UNL     1     -11.923   7.446  70.913  1.00  0.00    -0.277 C  
HETATM   20  C   UNL     1     -11.071   6.881  69.792  1.00  0.00    -0.271 C  
HETATM   21  N   UNL     1     -10.377   7.886  69.203  1.00  0.00    -0.217 NA 
HETATM   22  O   UNL     1     -10.998   5.702  69.474  1.00  0.00    -0.334 OA 
HETATM   23  C   UNL     1     -10.568   9.056  69.863  1.00  0.00    -0.228 C  
HETATM   24  O   UNL     1      -9.940  10.080  69.637  1.00  0.00    -0.212 OA 
ENDBRANCH  16  18
ENDBRANCH  15  16
ENDBRANCH  13  15
ENDBRANCH   7  10
TORSDOF 4
ENDMDL
MODEL       39
REMARK 921   NORMALIZED FREE ENERGY PREDICTED BY IDOCK:   -6.33 KCAL/MOL
REMARK 922        TOTAL FREE ENERGY PREDICTED BY IDOCK:   -8.36 KCAL/MOL
REMARK 923 INTER-LIGAND FREE ENERGY PREDICTED BY IDOCK:   -7.67 KCAL/MOL
REMARK 924 INTRA-LIGAND FREE ENERGY PREDICTED BY IDOCK:   -0.70 KCAL/MOL
REMARK 927      BINDING AFFINITY PREDICTED BY RF-SCORE:    0.00 PKD
ROOT
HETATM    1  O   UNL     1     -13.405  15.475  71.444  1.00  0.00    -0.484 OA 
HETATM    2  N   UNL     1     -13.335  14.284  71.770  1.00  0.00    -0.347 N  
HETATM    3  O   UNL     1     -13.771  13.817  72.831  1.00  0.00    -0.684 OA 
HETATM    4  C   UNL     1     -12.689  13.356  70.831  1.00  0.00    -0.272 A  
HETATM    5  C   UNL     1     -12.182  13.842  69.624  1.00  0.00    -0.359 A  
HETATM    6  C   UNL     1     -11.592  12.955  68.717  1.00  0.00    -0.351 A  
HETATM    7  C   UNL     1     -11.501  11.577  68.987  1.00  0.00    -0.355 A  
HETATM    8  C   UNL     1     -12.001  11.111  70.216  1.00  0.00    -0.460 A  
HETATM    9  C   UNL     1     -12.595  11.992  71.136  1.00  0.00    -0.372 A  
ENDROOT
BRANCH   7  10
HETATM   10  C   UNL     1     -10.918  10.683  67.983  1.00  0.00    -0.282 A  
HETATM   11  C   UNL     1     -10.259  10.904  66.787  1.00  0.00    -0.277 A  
HETATM   12  C   UNL     1      -9.967   9.636  66.233  1.00  0.00    -0.335 A  
HETATM   13  C   UNL     1     -10.453   8.698  67.119  1.00  0.00    -0.289 A  
HETATM   14  O   UNL     1     -11.031   9.333  68.190  1.00  0.00    -0.138 OA 
BRANCH  13  15
HETATM   15  C   UNL     1     -10.464   7.259  67.085  1.00  0.00    -0.324 C  
BRANCH  15  16
HETATM   16  N   UNL     1     -11.252   6.576  67.861  1.00  0.00    -0.569 NA 
HETATM   17  H   UNL     1     -12.229   6.418  67.615  1.00  0.00     0.000 HD 
BRANCH  16  18
HETATM   18  N   UNL     1     -10.719   6.075  69.022  1.00  0.00    -0.292 N  
HETATM   19  C   UNL     1      -9.810   4.950  68.987  1.00  0.00    -0.180 C  
HETATM   20  C   UNL     1      -9.791   4.566  70.454  1.00  0.00    -0.232 C  
HETATM   21  N   UNL     1     -10.575   5.423  71.154  1.00  0.00    -0.230 NA 
HETATM   22  O   UNL     1      -9.182   3.623  70.939  1.00  0.00    -0.104 OA 
HETATM   23  C   UNL     1     -11.220   6.278  70.321  1.00  0.00    -0.388 C  
HETATM   24  O   UNL     1     -12.103   7.044  70.676  1.00  0.00    -0.341 OA 
ENDBRANCH  16  18
ENDBRANCH  15  16
ENDBRANCH  13  15
ENDBRANCH   7  10
TORSDOF 4
ENDMDL
MODEL       40
REMARK 921   NORMALIZED FREE ENERGY PREDICTED BY IDOCK:   -6.32 KCAL/MOL
REMARK 922        TOTAL FREE ENERGY PREDICTED BY IDOCK:   -8.36 KCAL/MOL
REMARK 923 INTER-LIGAND FREE ENERGY PREDICTED BY IDOCK:   -8.12 KCAL/MOL
REMARK 924 INTRA-LIGAND FREE ENERGY PREDICTED BY IDOCK:   -0.24 KCAL/MOL
REMARK 927      BINDING AFFINITY PREDICTED BY RF-SCORE:    0.00 PKD
ROOT
HETATM    1  O   UNL     1      -9.654  10.836  63.378  1.00  0.00    -0.274 OA 
HETATM    2  N   UNL     1     -10.433  11.659  63.877  1.00  0.00    -0.341 N  
HETATM    3  O   UNL     1     -10.963  12.591  63.259  1.00  0.00    -0.425 OA 
HETATM    4  C   UNL     1     -10.751  11.518  65.305  1.00  0.00    -0.279 A  
HETATM    5  C   UNL     1     -10.172  10.480  66.039  1.00  0.00    -0.310 A  
HETATM    6  C   UNL     1     -10.496  10.328  67.391  1.00  0.00    -0.303 A  
HETATM    7  C   UNL     1     -11.399  11.195  68.034  1.00  0.00    -0.380 A  
HETATM    8  C   UNL     1     -11.956  12.244  67.283  1.00  0.00    -0.201 A  
HETATM    9  C   UNL     1     -11.638  12.407  65.924  1.00  0.00    -0.449 A  
ENDROOT
BRANCH   7  10
HETATM   10  C   UNL     1     -11.742  10.963  69.441  1.00  0.00    -0.325 A  
HETATM   11  C   UNL     1     -11.626   9.866  70.275  1.00  0.00    -0.319 A  
HETATM   12  C   UNL     1     -12.172  10.237  71.526  1.00  0.00    -0.449 A  
HETATM   13  C   UNL     1     -12.591  11.545  71.402  1.00  0.00    -0.314 A  
HETATM   14  O   UNL     1     -12.326  11.992  70.131  1.00  0.00    -0.240 OA 
BRANCH  13  15
HETATM   15  C   UNL     1     -13.232  12.440  72.327  1.00  0.00    -0.287 C  
BRANCH  15  16
HETATM   16  N   UNL     1     -13.883  13.485  71.908  1.00  0.00    -0.384 NA 
HETATM   17  H   UNL     1     -14.885  13.445  71.724  1.00  0.00     0.000 HD 
BRANCH  16  18
HETATM   18  N   UNL     1     -13.170  14.643  71.721  1.00  0.00    -0.329 N  
HETATM   19  C   UNL     1     -12.598  14.951  70.428  1.00  0.00    -0.343 C  
HETATM   20  C   UNL     1     -11.660  16.082  70.805  1.00  0.00    -0.400 C  
HETATM   21  N   UNL     1     -11.772  16.336  72.133  1.00  0.00    -0.494 NA 
HETATM   22  O   UNL     1     -10.903  16.667  70.044  1.00  0.00    -0.329 OA 
HETATM   23  C   UNL     1     -12.593  15.435  72.729  1.00  0.00    -0.400 C  
HETATM   24  O   UNL     1     -12.742  15.341  73.939  1.00  0.00    -0.541 OA 
ENDBRANCH  16  18
ENDBRANCH  15  16
ENDBRANCH  13  15
ENDBRANCH   7  10
TORSDOF 4
ENDMDL
MODEL       41
REMARK 921   NORMALIZED FREE ENERGY PREDICTED BY IDOCK:   -6.30 KCAL/MOL
REMARK 922        TOTAL FREE ENERGY PREDICTED BY IDOCK:   -8.33 KCAL/MOL
REMARK 923 INTER-LIGAND FREE ENERGY PREDICTED BY IDOCK:   -7.88 KCAL/MOL
REMARK 924 INTRA-LIGAND FREE ENERGY PREDICTED BY IDOCK:   -0.45 KCAL/MOL
REMARK 927      BINDING AFFINITY PREDICTED BY RF-SCORE:    0.00 PKD
ROOT
HETATM    1  O   UNL     1     -10.272   4.268  74.357  1.00  0.00    -0.182 OA 
HETATM    2  N   UNL     1     -10.453   4.317  73.133  1.00  0.00    -0.170 N  
HETATM    3  O   UNL     1     -10.441   3.334  72.381  1.00  0.00    -0.126 OA 
HETATM    4  C   UNL     1     -10.699   5.635  72.531  1.00  0.00    -0.239 A  
HETATM    5  C   UNL     1     -10.719   6.769  73.346  1.00  0.00    -0.332 A  
HETATM    6  C   UNL     1     -10.982   8.020  72.779  1.00  0.00    -0.449 A  
HETATM    7  C   UNL     1     -11.234   8.167  71.402  1.00  0.00    -0.297 A  
HETATM    8  C   UNL     1     -11.192   7.015  70.597  1.00  0.00    -0.327 A  
HETATM    9  C   UNL     1     -10.928   5.752  71.155  1.00  0.00    -0.295 A  
ENDROOT
BRANCH   7  10
HETATM   10  C   UNL     1     -11.552   9.493  70.865  1.00  0.00    -0.326 A  
HETATM   11  C   UNL     1     -12.292  10.557  71.348  1.00  0.00    -0.477 A  
HETATM   12  C   UNL     1     -12.274  11.562  70.352  1.00  0.00    -0.442 A  
HETATM   13  C   UNL     1     -11.518  11.068  69.309  1.00  0.00    -0.300 A  
HETATM   14  O   UNL     1     -11.073   9.808  69.621  1.00  0.00    -0.237 OA 
BRANCH  13  15
HETATM   15  C   UNL     1     -11.167  11.625  68.029  1.00  0.00    -0.263 C  
BRANCH  15  16
HETATM   16  N   UNL     1     -12.035  12.288  67.325  1.00  0.00    -0.559 NA 
HETATM   17  H   UNL     1     -13.036  12.198  67.499  1.00  0.00     0.000 HD 
BRANCH  16  18
HETATM   18  N   UNL     1     -11.554  13.114  66.340  1.00  0.00    -0.332 N  
HETATM   19  C   UNL     1     -10.512  14.074  66.633  1.00  0.00    -0.272 C  
HETATM   20  C   UNL     1     -10.580  14.941  65.390  1.00  0.00    -0.373 C  
HETATM   21  N   UNL     1     -11.528  14.452  64.551  1.00  0.00    -0.366 NA 
HETATM   22  O   UNL     1      -9.906  15.939  65.175  1.00  0.00    -0.382 OA 
HETATM   23  C   UNL     1     -12.194  13.419  65.126  1.00  0.00    -0.434 C  
HETATM   24  O   UNL     1     -13.196  12.903  64.652  1.00  0.00    -0.700 OA 
ENDBRANCH  16  18
ENDBRANCH  15  16
ENDBRANCH  13  15
ENDBRANCH   7  10
TORSDOF 4
ENDMDL
MODEL       42
REMARK 921   NORMALIZED FREE ENERGY PREDICTED BY IDOCK:   -6.27 KCAL/MOL
REMARK 922        TOTAL FREE ENERGY PREDICTED BY IDOCK:   -8.30 KCAL/MOL
REMARK 923 INTER-LIGAND FREE ENERGY PREDICTED BY IDOCK:   -7.79 KCAL/MOL
REMARK 924 INTRA-LIGAND FREE ENERGY PREDICTED BY IDOCK:   -0.51 KCAL/MOL
REMARK 927      BINDING AFFINITY PREDICTED BY RF-SCORE:    0.00 PKD
ROOT
HETATM    1  O   UNL     1     -10.648   6.668  74.166  1.00  0.00    -0.310 OA 
HETATM    2  N   UNL     1     -10.742   6.140  73.050  1.00  0.00    -0.240 N  
HETATM    3  O   UNL     1     -10.885   4.926  72.855  1.00  0.00    -0.218 OA 
HETATM    4  C   UNL     1     -10.679   7.017  71.873  1.00  0.00    -0.217 A  
HETATM    5  C   UNL     1     -10.517   8.394  72.049  1.00  0.00    -0.384 A  
HETATM    6  C   UNL     1     -10.486   9.233  70.930  1.00  0.00    -0.372 A  
HETATM    7  C   UNL     1     -10.621   8.725  69.625  1.00  0.00    -0.220 A  
HETATM    8  C   UNL     1     -10.765   7.336  69.468  1.00  0.00    -0.244 A  
HETATM    9  C   UNL     1     -10.796   6.482  70.584  1.00  0.00    -0.317 A  
ENDROOT
BRANCH   7  10
HETATM   10  C   UNL     1     -10.631   9.653  68.489  1.00  0.00    -0.220 A  
HETATM   11  C   UNL     1     -10.017   9.639  67.251  1.00  0.00    -0.250 A  
HETATM   12  C   UNL     1     -10.373  10.841  66.597  1.00  0.00    -0.294 A  
HETATM   13  C   UNL     1     -11.194  11.532  67.463  1.00  0.00    -0.298 A  
HETATM   14  O   UNL     1     -11.357  10.808  68.617  1.00  0.00    -0.254 OA 
BRANCH  13  15
HETATM   15  C   UNL     1     -11.844  12.811  67.356  1.00  0.00    -0.342 C  
BRANCH  15  16
HETATM   16  N   UNL     1     -12.189  13.294  66.200  1.00  0.00    -0.420 NA 
HETATM   17  H   UNL     1     -12.970  12.901  65.674  1.00  0.00     0.000 HD 
BRANCH  16  18
HETATM   18  N   UNL     1     -11.463  14.353  65.713  1.00  0.00    -0.330 N  
HETATM   19  C   UNL     1     -10.530  15.056  66.566  1.00  0.00    -0.285 C  
HETATM   20  C   UNL     1     -10.267  16.291  65.725  1.00  0.00    -0.367 C  
HETATM   21  N   UNL     1     -10.964  16.203  64.565  1.00  0.00    -0.631 NA 
HETATM   22  O   UNL     1      -9.555  17.234  66.042  1.00  0.00    -0.455 OA 
HETATM   23  C   UNL     1     -11.762  15.105  64.563  1.00  0.00    -0.328 C  
HETATM   24  O   UNL     1     -12.606  14.875  63.710  1.00  0.00    -0.791 OA 
ENDBRANCH  16  18
ENDBRANCH  15  16
ENDBRANCH  13  15
ENDBRANCH   7  10
TORSDOF 4
ENDMDL
MODEL       43
REMARK 921   NORMALIZED FREE ENERGY PREDICTED BY IDOCK:   -6.27 KCAL/MOL
REMARK 922        TOTAL FREE ENERGY PREDICTED BY IDOCK:   -8.29 KCAL/MOL
REMARK 923 INTER-LIGAND FREE ENERGY PREDICTED BY IDOCK:   -7.64 KCAL/MOL
REMARK 924 INTRA-LIGAND FREE ENERGY PREDICTED BY IDOCK:   -0.64 KCAL/MOL
REMARK 927      BINDING AFFINITY PREDICTED BY RF-SCORE:    0.00 PKD
ROOT
HETATM    1  O   UNL     1     -12.097   9.092  70.948  1.00  0.00    -0.280 OA 
HETATM    2  N   UNL     1     -12.337  10.279  71.199  1.00  0.00    -0.360 N  
HETATM    3  O   UNL     1     -12.804  10.692  72.269  1.00  0.00    -0.286 OA 
HETATM    4  C   UNL     1     -12.048  11.270  70.153  1.00  0.00    -0.366 A  
HETATM    5  C   UNL     1     -11.522  10.846  68.930  1.00  0.00    -0.369 A  
HETATM    6  C   UNL     1     -11.219  11.791  67.945  1.00  0.00    -0.331 A  
HETATM    7  C   UNL     1     -11.426  13.167  68.155  1.00  0.00    -0.349 A  
HETATM    8  C   UNL     1     -11.973  13.571  69.385  1.00  0.00    -0.383 A  
HETATM    9  C   UNL     1     -12.282  12.631  70.383  1.00  0.00    -0.368 A  
ENDROOT
BRANCH   7  10
HETATM   10  C   UNL     1     -11.047  14.120  67.108  1.00  0.00    -0.307 A  
HETATM   11  C   UNL     1     -11.599  14.451  65.884  1.00  0.00    -0.361 A  
HETATM   12  C   UNL     1     -10.754  15.421  65.296  1.00  0.00    -0.439 A  
HETATM   13  C   UNL     1      -9.728  15.643  66.190  1.00  0.00    -0.318 A  
HETATM   14  O   UNL     1      -9.906  14.854  67.298  1.00  0.00    -0.226 OA 
BRANCH  13  15
HETATM   15  C   UNL     1      -8.573  16.500  66.133  1.00  0.00    -0.299 C  
BRANCH  15  16
HETATM   16  N   UNL     1      -8.698  17.784  65.972  1.00  0.00    -0.514 NA 
HETATM   17  H   UNL     1      -8.890  18.185  65.055  1.00  0.00     0.000 HD 
BRANCH  16  18
HETATM   18  N   UNL     1      -8.561  18.578  67.083  1.00  0.00    -0.264 N  
HETATM   19  C   UNL     1      -7.246  18.904  67.593  1.00  0.00    -0.219 C  
HETATM   20  C   UNL     1      -7.611  19.465  68.954  1.00  0.00    -0.363 C  
HETATM   21  N   UNL     1      -8.960  19.454  69.099  1.00  0.00    -0.234 NA 
HETATM   22  O   UNL     1      -6.821  19.852  69.804  1.00  0.00    -0.337 OA 
HETATM   23  C   UNL     1      -9.554  18.845  68.042  1.00  0.00    -0.322 C  
HETATM   24  O   UNL     1     -10.742  18.562  67.994  1.00  0.00    -0.347 OA 
ENDBRANCH  16  18
ENDBRANCH  15  16
ENDBRANCH  13  15
ENDBRANCH   7  10
TORSDOF 4
ENDMDL
MODEL       44
REMARK 921   NORMALIZED FREE ENERGY PREDICTED BY IDOCK:   -6.24 KCAL/MOL
REMARK 922        TOTAL FREE ENERGY PREDICTED BY IDOCK:   -8.26 KCAL/MOL
REMARK 923 INTER-LIGAND FREE ENERGY PREDICTED BY IDOCK:   -7.73 KCAL/MOL
REMARK 924 INTRA-LIGAND FREE ENERGY PREDICTED BY IDOCK:   -0.54 KCAL/MOL
REMARK 927      BINDING AFFINITY PREDICTED BY RF-SCORE:    0.00 PKD
ROOT
HETATM    1  O   UNL     1     -11.060   8.173  70.329  1.00  0.00    -0.256 OA 
HETATM    2  N   UNL     1     -11.420   9.302  70.686  1.00  0.00    -0.272 N  
HETATM    3  O   UNL     1     -11.725   9.610  71.845  1.00  0.00    -0.357 OA 
HETATM    4  C   UNL     1     -11.490  10.352  69.660  1.00  0.00    -0.262 A  
HETATM    5  C   UNL     1     -11.156  10.045  68.339  1.00  0.00    -0.236 A  
HETATM    6  C   UNL     1     -11.194  11.051  67.367  1.00  0.00    -0.355 A  
HETATM    7  C   UNL     1     -11.557  12.372  67.688  1.00  0.00    -0.421 A  
HETATM    8  C   UNL     1     -11.908  12.655  69.019  1.00  0.00    -0.341 A  
HETATM    9  C   UNL     1     -11.874  11.654  70.004  1.00  0.00    -0.435 A  
ENDROOT
BRANCH   7  10
HETATM   10  C   UNL     1     -11.535  13.399  66.642  1.00  0.00    -0.344 A  
HETATM   11  C   UNL     1     -12.093  13.477  65.380  1.00  0.00    -0.447 A  
HETATM   12  C   UNL     1     -11.683  14.709  64.819  1.00  0.00    -0.429 A  
HETATM   13  C   UNL     1     -10.898  15.331  65.767  1.00  0.00    -0.358 A  
HETATM   14  O   UNL     1     -10.809  14.536  66.882  1.00  0.00    -0.294 OA 
BRANCH  13  15
HETATM   15  C   UNL     1     -10.195  16.586  65.759  1.00  0.00    -0.329 C  
BRANCH  15  16
HETATM   16  N   UNL     1     -10.782  17.686  66.126  1.00  0.00    -0.194 NA 
HETATM   17  H   UNL     1     -11.750  17.880  65.870  1.00  0.00     0.000 HD 
BRANCH  16  18
HETATM   18  N   UNL     1     -10.050  18.577  66.870  1.00  0.00    -0.349 N  
HETATM   19  C   UNL     1      -9.312  19.641  66.223  1.00  0.00    -0.383 C  
HETATM   20  C   UNL     1      -8.431  20.100  67.369  1.00  0.00    -0.339 C  
HETATM   21  N   UNL     1      -8.717  19.373  68.477  1.00  0.00    -0.362 NA 
HETATM   22  O   UNL     1      -7.579  20.976  67.310  1.00  0.00    -0.340 OA 
HETATM   23  C   UNL     1      -9.611  18.392  68.193  1.00  0.00    -0.316 C  
HETATM   24  O   UNL     1      -9.918  17.500  68.970  1.00  0.00    -0.307 OA 
ENDBRANCH  16  18
ENDBRANCH  15  16
ENDBRANCH  13  15
ENDBRANCH   7  10
TORSDOF 4
ENDMDL
MODEL       45
REMARK 921   NORMALIZED FREE ENERGY PREDICTED BY IDOCK:   -6.24 KCAL/MOL
REMARK 922        TOTAL FREE ENERGY PREDICTED BY IDOCK:   -8.26 KCAL/MOL
REMARK 923 INTER-LIGAND FREE ENERGY PREDICTED BY IDOCK:   -7.52 KCAL/MOL
REMARK 924 INTRA-LIGAND FREE ENERGY PREDICTED BY IDOCK:   -0.74 KCAL/MOL
REMARK 927      BINDING AFFINITY PREDICTED BY RF-SCORE:    0.00 PKD
ROOT
HETATM    1  O   UNL     1     -12.921  15.900  71.927  1.00  0.00    -0.453 OA 
HETATM    2  N   UNL     1     -12.395  15.232  71.027  1.00  0.00    -0.333 N  
HETATM    3  O   UNL     1     -11.729  15.705  70.097  1.00  0.00    -0.307 OA 
HETATM    4  C   UNL     1     -12.574  13.774  71.066  1.00  0.00    -0.371 A  
HETATM    5  C   UNL     1     -13.320  13.200  72.099  1.00  0.00    -0.621 A  
HETATM    6  C   UNL     1     -13.467  11.810  72.153  1.00  0.00    -0.273 A  
HETATM    7  C   UNL     1     -12.874  10.969  71.194  1.00  0.00    -0.491 A  
HETATM    8  C   UNL     1     -12.143  11.567  70.153  1.00  0.00    -0.432 A  
HETATM    9  C   UNL     1     -11.989  12.963  70.087  1.00  0.00    -0.373 A  
ENDROOT
BRANCH   7  10
HETATM   10  C   UNL     1     -13.018   9.516  71.323  1.00  0.00    -0.328 A  
HETATM   11  C   UNL     1     -14.067   8.698  71.699  1.00  0.00    -0.468 A  
HETATM   12  C   UNL     1     -13.588   7.368  71.673  1.00  0.00    -0.449 A  
HETATM   13  C   UNL     1     -12.269   7.432  71.277  1.00  0.00    -0.341 A  
HETATM   14  O   UNL     1     -11.919   8.741  71.058  1.00  0.00    -0.290 OA 
BRANCH  13  15
HETATM   15  C   UNL     1     -11.271   6.413  71.088  1.00  0.00    -0.302 C  
BRANCH  15  16
HETATM   16  N   UNL     1     -10.297   6.575  70.243  1.00  0.00    -0.195 NA 
HETATM   17  H   UNL     1      -9.353   6.795  70.560  1.00  0.00     0.000 HD 
BRANCH  16  18
HETATM   18  N   UNL     1     -10.587   6.441  68.908  1.00  0.00    -0.224 N  
HETATM   19  C   UNL     1     -10.512   5.145  68.268  1.00  0.00    -0.011 C  
HETATM   20  C   UNL     1     -10.563   5.557  66.809  1.00  0.00    -0.291 C  
HETATM   21  N   UNL     1     -10.684   6.905  66.725  1.00  0.00    -0.280 NA 
HETATM   22  O   UNL     1     -10.488   4.801  65.850  1.00  0.00    -0.285 OA 
HETATM   23  C   UNL     1     -10.608   7.474  67.954  1.00  0.00    -0.185 C  
HETATM   24  O   UNL     1     -10.530   8.679  68.147  1.00  0.00    -0.218 OA 
ENDBRANCH  16  18
ENDBRANCH  15  16
ENDBRANCH  13  15
ENDBRANCH   7  10
TORSDOF 4
ENDMDL
MODEL       46
REMARK 921   NORMALIZED FREE ENERGY PREDICTED BY IDOCK:   -6.24 KCAL/MOL
REMARK 922        TOTAL FREE ENERGY PREDICTED BY IDOCK:   -8.26 KCAL/MOL
REMARK 923 INTER-LIGAND FREE ENERGY PREDICTED BY IDOCK:   -7.74 KCAL/MOL
REMARK 924 INTRA-LIGAND FREE ENERGY PREDICTED BY IDOCK:   -0.51 KCAL/MOL
REMARK 927      BINDING AFFINITY PREDICTED BY RF-SCORE:    0.00 PKD
ROOT
HETATM    1  O   UNL     1      -5.729  20.098  66.380  1.00  0.00    -0.173 OA 
HETATM    2  N   UNL     1      -6.883  20.268  66.794  1.00  0.00    -0.225 N  
HETATM    3  O   UNL     1      -7.326  21.340  67.225  1.00  0.00    -0.484 OA 
HETATM    4  C   UNL     1      -7.793  19.114  66.771  1.00  0.00    -0.258 A  
HETATM    5  C   UNL     1      -7.332  17.885  66.293  1.00  0.00    -0.327 A  
HETATM    6  C   UNL     1      -8.205  16.793  66.244  1.00  0.00    -0.359 A  
HETATM    7  C   UNL     1      -9.544  16.902  66.661  1.00  0.00    -0.282 A  
HETATM    8  C   UNL     1      -9.983  18.142  67.156  1.00  0.00    -0.341 A  
HETATM    9  C   UNL     1      -9.115  19.246  67.211  1.00  0.00    -0.346 A  
ENDROOT
BRANCH   7  10
HETATM   10  C   UNL     1     -10.431  15.740  66.544  1.00  0.00    -0.303 A  
HETATM   11  C   UNL     1     -11.141  15.193  65.491  1.00  0.00    -0.347 A  
HETATM   12  C   UNL     1     -11.859  14.088  66.004  1.00  0.00    -0.401 A  
HETATM   13  C   UNL     1     -11.551  14.006  67.346  1.00  0.00    -0.368 A  
HETATM   14  O   UNL     1     -10.677  15.011  67.678  1.00  0.00    -0.263 OA 
BRANCH  13  15
HETATM   15  C   UNL     1     -11.989  13.106  68.379  1.00  0.00    -0.289 C  
BRANCH  15  16
HETATM   16  N   UNL     1     -11.504  13.179  69.582  1.00  0.00    -0.455 NA 
HETATM   17  H   UNL     1     -10.814  13.887  69.832  1.00  0.00     0.000 HD 
BRANCH  16  18
HETATM   18  N   UNL     1     -11.955  12.268  70.505  1.00  0.00    -0.292 N  
HETATM   19  C   UNL     1     -11.723  10.853  70.312  1.00  0.00    -0.347 C  
HETATM   20  C   UNL     1     -12.670  10.276  71.346  1.00  0.00    -0.442 C  
HETATM   21  N   UNL     1     -13.285  11.287  72.008  1.00  0.00    -0.459 NA 
HETATM   22  O   UNL     1     -12.871   9.086  71.548  1.00  0.00    -0.320 OA 
HETATM   23  C   UNL     1     -12.954  12.488  71.470  1.00  0.00    -0.280 C  
HETATM   24  O   UNL     1     -13.488  13.545  71.774  1.00  0.00    -0.385 OA 
ENDBRANCH  16  18
ENDBRANCH  15  16
ENDBRANCH  13  15
ENDBRANCH   7  10
TORSDOF 4
ENDMDL
MODEL       47
REMARK 921   NORMALIZED FREE ENERGY PREDICTED BY IDOCK:   -6.22 KCAL/MOL
REMARK 922        TOTAL FREE ENERGY PREDICTED BY IDOCK:   -8.24 KCAL/MOL
REMARK 923 INTER-LIGAND FREE ENERGY PREDICTED BY IDOCK:   -7.72 KCAL/MOL
REMARK 924 INTRA-LIGAND FREE ENERGY PREDICTED BY IDOCK:   -0.51 KCAL/MOL
REMARK 927      BINDING AFFINITY PREDICTED BY RF-SCORE:    0.00 PKD
ROOT
HETATM    1  O   UNL     1     -10.480   7.147  71.101  1.00  0.00    -0.210 OA 
HETATM    2  N   UNL     1     -11.192   8.057  71.546  1.00  0.00    -0.248 N  
HETATM    3  O   UNL     1     -11.777   8.023  72.637  1.00  0.00    -0.388 OA 
HETATM    4  C   UNL     1     -11.354   9.262  70.721  1.00  0.00    -0.287 A  
HETATM    5  C   UNL     1     -10.713   9.339  69.483  1.00  0.00    -0.236 A  
HETATM    6  C   UNL     1     -10.843  10.497  68.709  1.00  0.00    -0.269 A  
HETATM    7  C   UNL     1     -11.604  11.595  69.151  1.00  0.00    -0.378 A  
HETATM    8  C   UNL     1     -12.257  11.490  70.391  1.00  0.00    -0.442 A  
HETATM    9  C   UNL     1     -12.134  10.332  71.177  1.00  0.00    -0.494 A  
ENDROOT
BRANCH   7  10
HETATM   10  C   UNL     1     -11.669  12.804  68.324  1.00  0.00    -0.344 A  
HETATM   11  C   UNL     1     -11.911  13.020  66.980  1.00  0.00    -0.437 A  
HETATM   12  C   UNL     1     -11.801  14.412  66.756  1.00  0.00    -0.431 A  
HETATM   13  C   UNL     1     -11.504  14.985  67.975  1.00  0.00    -0.342 A  
HETATM   14  O   UNL     1     -11.427  14.007  68.935  1.00  0.00    -0.255 OA 
BRANCH  13  15
HETATM   15  C   UNL     1     -11.262  16.349  68.362  1.00  0.00    -0.324 C  
BRANCH  15  16
HETATM   16  N   UNL     1     -10.052  16.802  68.503  1.00  0.00    -0.265 NA 
HETATM   17  H   UNL     1      -9.394  16.360  69.145  1.00  0.00     0.000 HD 
BRANCH  16  18
HETATM   18  N   UNL     1      -9.694  17.897  67.758  1.00  0.00    -0.275 N  
HETATM   19  C   UNL     1      -8.845  17.746  66.596  1.00  0.00    -0.264 C  
HETATM   20  C   UNL     1      -8.462  19.192  66.345  1.00  0.00    -0.318 C  
HETATM   21  N   UNL     1      -9.077  19.985  67.258  1.00  0.00    -0.340 NA 
HETATM   22  O   UNL     1      -7.704  19.591  65.472  1.00  0.00    -0.419 OA 
HETATM   23  C   UNL     1      -9.745  19.239  68.174  1.00  0.00    -0.363 C  
HETATM   24  O   UNL     1     -10.250  19.694  69.190  1.00  0.00    -0.394 OA 
ENDBRANCH  16  18
ENDBRANCH  15  16
ENDBRANCH  13  15
ENDBRANCH   7  10
TORSDOF 4
ENDMDL
MODEL       48
REMARK 921   NORMALIZED FREE ENERGY PREDICTED BY IDOCK:   -6.22 KCAL/MOL
REMARK 922        TOTAL FREE ENERGY PREDICTED BY IDOCK:   -8.23 KCAL/MOL
REMARK 923 INTER-LIGAND FREE ENERGY PREDICTED BY IDOCK:   -7.72 KCAL/MOL
REMARK 924 INTRA-LIGAND FREE ENERGY PREDICTED BY IDOCK:   -0.51 KCAL/MOL
REMARK 927      BINDING AFFINITY PREDICTED BY RF-SCORE:    0.00 PKD
ROOT
HETATM    1  O   UNL     1     -10.165  16.788  65.532  1.00  0.00    -0.567 OA 
HETATM    2  N   UNL     1     -10.571  15.627  65.398  1.00  0.00    -0.390 N  
HETATM    3  O   UNL     1     -10.567  14.999  64.331  1.00  0.00    -0.112 OA 
HETATM    4  C   UNL     1     -11.093  14.944  66.590  1.00  0.00    -0.329 A  
HETATM    5  C   UNL     1     -11.116  15.618  67.813  1.00  0.00    -0.311 A  
HETATM    6  C   UNL     1     -11.586  14.960  68.954  1.00  0.00    -0.339 A  
HETATM    7  C   UNL     1     -12.034  13.627  68.904  1.00  0.00    -0.392 A  
HETATM    8  C   UNL     1     -12.020  12.973  67.660  1.00  0.00    -0.353 A  
HETATM    9  C   UNL     1     -11.550  13.624  66.506  1.00  0.00    -0.392 A  
ENDROOT
BRANCH   7  10
HETATM   10  C   UNL     1     -12.472  12.967  70.138  1.00  0.00    -0.096 A  
HETATM   11  C   UNL     1     -12.972  13.439  71.337  1.00  0.00    -0.412 A  
HETATM   12  C   UNL     1     -13.175  12.316  72.173  1.00  0.00    -0.466 A  
HETATM   13  C   UNL     1     -12.795  11.209  71.444  1.00  0.00    -0.439 A  
HETATM   14  O   UNL     1     -12.369  11.602  70.200  1.00  0.00    -0.274 OA 
BRANCH  13  15
HETATM   15  C   UNL     1     -12.763   9.808  71.771  1.00  0.00    -0.426 C  
BRANCH  15  16
HETATM   16  N   UNL     1     -12.177   8.950  70.990  1.00  0.00    -0.427 NA 
HETATM   17  H   UNL     1     -11.995   9.166  70.010  1.00  0.00     0.000 HD 
BRANCH  16  18
HETATM   18  N   UNL     1     -11.812   7.744  71.533  1.00  0.00    -0.283 N  
HETATM   19  C   UNL     1     -11.212   7.684  72.849  1.00  0.00    -0.372 C  
HETATM   20  C   UNL     1     -10.688   6.260  72.847  1.00  0.00    -0.247 C  
HETATM   21  N   UNL     1     -11.015   5.661  71.675  1.00  0.00    -0.240 NA 
HETATM   22  O   UNL     1     -10.051   5.731  73.747  1.00  0.00    -0.182 OA 
HETATM   23  C   UNL     1     -11.604   6.544  70.829  1.00  0.00    -0.377 C  
HETATM   24  O   UNL     1     -11.853   6.306  69.657  1.00  0.00    -0.290 OA 
ENDBRANCH  16  18
ENDBRANCH  15  16
ENDBRANCH  13  15
ENDBRANCH   7  10
TORSDOF 4
ENDMDL
MODEL       49
REMARK 921   NORMALIZED FREE ENERGY PREDICTED BY IDOCK:   -6.21 KCAL/MOL
REMARK 922        TOTAL FREE ENERGY PREDICTED BY IDOCK:   -8.22 KCAL/MOL
REMARK 923 INTER-LIGAND FREE ENERGY PREDICTED BY IDOCK:   -7.60 KCAL/MOL
REMARK 924 INTRA-LIGAND FREE ENERGY PREDICTED BY IDOCK:   -0.62 KCAL/MOL
REMARK 927      BINDING AFFINITY PREDICTED BY RF-SCORE:    0.00 PKD
ROOT
HETATM    1  O   UNL     1     -12.768  14.948  63.857  1.00  0.00    -0.789 OA 
HETATM    2  N   UNL     1     -11.751  15.456  64.346  1.00  0.00    -0.338 N  
HETATM    3  O   UNL     1     -11.367  16.613  64.128  1.00  0.00    -1.141 OA 
HETATM    4  C   UNL     1     -10.942  14.628  65.251  1.00  0.00    -0.367 A  
HETATM    5  C   UNL     1     -11.339  13.316  65.522  1.00  0.00    -0.315 A  
HETATM    6  C   UNL     1     -10.586  12.536  66.406  1.00  0.00    -0.271 A  
HETATM    7  C   UNL     1      -9.434  13.042  67.037  1.00  0.00    -0.237 A  
HETATM    8  C   UNL     1      -9.041  14.358  66.736  1.00  0.00    -0.278 A  
HETATM    9  C   UNL     1      -9.789  15.151  65.849  1.00  0.00    -0.372 A  
ENDROOT
BRANCH   7  10
HETATM   10  C   UNL     1      -8.707  12.200  67.991  1.00  0.00    -0.180 A  
HETATM   11  C   UNL     1      -7.400  12.190  68.441  1.00  0.00    -0.108 A  
HETATM   12  C   UNL     1      -7.277  11.103  69.337  1.00  0.00    -0.091 A  
HETATM   13  C   UNL     1      -8.516  10.502  69.400  1.00  0.00    -0.094 A  
HETATM   14  O   UNL     1      -9.393  11.171  68.583  1.00  0.00    -0.184 OA 
BRANCH  13  15
HETATM   15  C   UNL     1      -8.992   9.353  70.124  1.00  0.00    -0.227 C  
BRANCH  15  16
HETATM   16  N   UNL     1      -9.824   8.515  69.581  1.00  0.00    -0.180 NA 
HETATM   17  H   UNL     1      -9.600   8.039  68.708  1.00  0.00     0.000 HD 
BRANCH  16  18
HETATM   18  N   UNL     1     -11.015   8.296  70.227  1.00  0.00    -0.241 N  
HETATM   19  C   UNL     1     -11.625   9.344  71.017  1.00  0.00    -0.330 C  
HETATM   20  C   UNL     1     -12.668   8.545  71.775  1.00  0.00    -0.349 C  
HETATM   21  N   UNL     1     -12.611   7.247  71.387  1.00  0.00    -0.373 NA 
HETATM   22  O   UNL     1     -13.432   8.988  72.621  1.00  0.00    -0.463 OA 
HETATM   23  C   UNL     1     -11.575   7.043  70.534  1.00  0.00    -0.319 C  
HETATM   24  O   UNL     1     -11.205   5.940  70.159  1.00  0.00    -0.353 OA 
ENDBRANCH  16  18
ENDBRANCH  15  16
ENDBRANCH  13  15
ENDBRANCH   7  10
TORSDOF 4
ENDMDL
MODEL       50
REMARK 921   NORMALIZED FREE ENERGY PREDICTED BY IDOCK:   -6.21 KCAL/MOL
REMARK 922        TOTAL FREE ENERGY PREDICTED BY IDOCK:   -8.21 KCAL/MOL
REMARK 923 INTER-LIGAND FREE ENERGY PREDICTED BY IDOCK:   -7.79 KCAL/MOL
REMARK 924 INTRA-LIGAND FREE ENERGY PREDICTED BY IDOCK:   -0.42 KCAL/MOL
REMARK 927      BINDING AFFINITY PREDICTED BY RF-SCORE:    0.00 PKD
ROOT
HETATM    1  O   UNL     1     -10.621  17.080  64.963  1.00  0.00    -0.703 OA 
HETATM    2  N   UNL     1     -11.356  16.150  64.607  1.00  0.00    -0.381 N  
HETATM    3  O   UNL     1     -12.147  16.202  63.656  1.00  0.00    -0.800 OA 
HETATM    4  C   UNL     1     -11.284  14.894  65.367  1.00  0.00    -0.359 A  
HETATM    5  C   UNL     1     -10.405  14.794  66.448  1.00  0.00    -0.297 A  
HETATM    6  C   UNL     1     -10.314  13.590  67.154  1.00  0.00    -0.250 A  
HETATM    7  C   UNL     1     -11.086  12.468  66.799  1.00  0.00    -0.323 A  
HETATM    8  C   UNL     1     -11.977  12.595  65.719  1.00  0.00    -0.503 A  
HETATM    9  C   UNL     1     -12.078  13.800  65.003  1.00  0.00    -0.424 A  
ENDROOT
BRANCH   7  10
HETATM   10  C   UNL     1     -10.918  11.215  67.541  1.00  0.00    -0.275 A  
HETATM   11  C   UNL     1     -10.782  10.921  68.885  1.00  0.00    -0.252 A  
HETATM   12  C   UNL     1     -10.610   9.522  68.990  1.00  0.00    -0.238 A  
HETATM   13  C   UNL     1     -10.655   9.022  67.705  1.00  0.00    -0.214 A  
HETATM   14  O   UNL     1     -10.847  10.052  66.819  1.00  0.00    -0.140 OA 
BRANCH  13  15
HETATM   15  C   UNL     1     -10.523   7.686  67.189  1.00  0.00    -0.342 C  
BRANCH  15  16
HETATM   16  N   UNL     1     -11.358   6.750  67.528  1.00  0.00    -0.707 NA 
HETATM   17  H   UNL     1     -12.254   6.642  67.053  1.00  0.00     0.000 HD 
BRANCH  16  18
HETATM   18  N   UNL     1     -10.990   5.911  68.550  1.00  0.00    -0.263 N  
HETATM   19  C   UNL     1     -11.322   6.236  69.921  1.00  0.00    -0.434 C  
HETATM   20  C   UNL     1     -10.437   5.250  70.659  1.00  0.00    -0.236 C  
HETATM   21  N   UNL     1      -9.759   4.493  69.761  1.00  0.00    -0.200 NA 
HETATM   22  O   UNL     1     -10.327   5.158  71.874  1.00  0.00    -0.203 OA 
HETATM   23  C   UNL     1      -9.992   4.921  68.495  1.00  0.00    -0.115 C  
HETATM   24  O   UNL     1      -9.387   4.517  67.513  1.00  0.00    -0.130 OA 
ENDBRANCH  16  18
ENDBRANCH  15  16
ENDBRANCH  13  15
ENDBRANCH   7  10
TORSDOF 4
ENDMDL
MODEL       51
REMARK 921   NORMALIZED FREE ENERGY PREDICTED BY IDOCK:   -6.18 KCAL/MOL
REMARK 922        TOTAL FREE ENERGY PREDICTED BY IDOCK:   -8.18 KCAL/MOL
REMARK 923 INTER-LIGAND FREE ENERGY PREDICTED BY IDOCK:   -7.48 KCAL/MOL
REMARK 924 INTRA-LIGAND FREE ENERGY PREDICTED BY IDOCK:   -0.70 KCAL/MOL
REMARK 927      BINDING AFFINITY PREDICTED BY RF-SCORE:    0.00 PKD
ROOT
HETATM    1  O   UNL     1     -12.411  13.483  63.112  1.00  0.00    -0.759 OA 
HETATM    2  N   UNL     1     -12.493  13.557  64.345  1.00  0.00    -0.311 N  
HETATM    3  O   UNL     1     -13.098  14.448  64.958  1.00  0.00    -0.615 OA 
HETATM    4  C   UNL     1     -11.827  12.515  65.138  1.00  0.00    -0.405 A  
HETATM    5  C   UNL     1     -11.133  11.493  64.485  1.00  0.00    -0.340 A  
HETATM    6  C   UNL     1     -10.523  10.485  65.237  1.00  0.00    -0.232 A  
HETATM    7  C   UNL     1     -10.595  10.468  66.643  1.00  0.00    -0.263 A  
HETATM    8  C   UNL     1     -11.282  11.515  67.281  1.00  0.00    -0.365 A  
HETATM    9  C   UNL     1     -11.898  12.535  66.536  1.00  0.00    -0.434 A  
ENDROOT
BRANCH   7  10
HETATM   10  C   UNL     1      -9.979   9.362  67.382  1.00  0.00    -0.199 A  
HETATM   11  C   UNL     1      -9.330   8.206  66.990  1.00  0.00    -0.197 A  
HETATM   12  C   UNL     1      -8.991   7.499  68.167  1.00  0.00    -0.129 A  
HETATM   13  C   UNL     1      -9.441   8.259  69.226  1.00  0.00    -0.155 A  
HETATM   14  O   UNL     1     -10.041   9.399  68.751  1.00  0.00    -0.180 OA 
BRANCH  13  15
HETATM   15  C   UNL     1      -9.398   8.046  70.648  1.00  0.00    -0.158 C  
BRANCH  15  16
HETATM   16  N   UNL     1      -9.906   8.914  71.472  1.00  0.00    -0.294 NA 
HETATM   17  H   UNL     1      -9.316   9.587  71.961  1.00  0.00     0.000 HD 
BRANCH  16  18
HETATM   18  N   UNL     1     -11.266   8.891  71.658  1.00  0.00    -0.319 N  
HETATM   19  C   UNL     1     -11.963   7.632  71.814  1.00  0.00    -0.299 C  
HETATM   20  C   UNL     1     -13.398   8.089  71.636  1.00  0.00    -0.332 C  
HETATM   21  N   UNL     1     -13.423   9.432  71.445  1.00  0.00    -0.367 NA 
HETATM   22  O   UNL     1     -14.385   7.367  71.642  1.00  0.00    -0.438 OA 
HETATM   23  C   UNL     1     -12.164   9.931  71.358  1.00  0.00    -0.408 C  
HETATM   24  O   UNL     1     -11.904  11.079  71.032  1.00  0.00    -0.280 OA 
ENDBRANCH  16  18
ENDBRANCH  15  16
ENDBRANCH  13  15
ENDBRANCH   7  10
TORSDOF 4
ENDMDL
MODEL       52
REMARK 921   NORMALIZED FREE ENERGY PREDICTED BY IDOCK:   -6.17 KCAL/MOL
REMARK 922        TOTAL FREE ENERGY PREDICTED BY IDOCK:   -8.17 KCAL/MOL
REMARK 923 INTER-LIGAND FREE ENERGY PREDICTED BY IDOCK:   -7.62 KCAL/MOL
REMARK 924 INTRA-LIGAND FREE ENERGY PREDICTED BY IDOCK:   -0.55 KCAL/MOL
REMARK 927      BINDING AFFINITY PREDICTED BY RF-SCORE:    0.00 PKD
ROOT
HETATM    1  O   UNL     1     -12.300  13.882  62.986  1.00  0.00    -0.618 OA 
HETATM    2  N   UNL     1     -12.271  14.551  64.027  1.00  0.00    -0.364 N  
HETATM    3  O   UNL     1     -12.360  15.785  64.073  1.00  0.00    -0.696 OA 
HETATM    4  C   UNL     1     -12.120  13.830  65.298  1.00  0.00    -0.407 A  
HETATM    5  C   UNL     1     -12.015  12.437  65.290  1.00  0.00    -0.461 A  
HETATM    6  C   UNL     1     -11.901  11.747  66.501  1.00  0.00    -0.011 A  
HETATM    7  C   UNL     1     -11.894  12.422  67.736  1.00  0.00    -0.362 A  
HETATM    8  C   UNL     1     -11.983  13.825  67.721  1.00  0.00    -0.391 A  
HETATM    9  C   UNL     1     -12.097  14.529  66.511  1.00  0.00    -0.330 A  
ENDROOT
BRANCH   7  10
HETATM   10  C   UNL     1     -11.821  11.649  68.979  1.00  0.00    -0.328 A  
HETATM   11  C   UNL     1     -12.088  11.954  70.301  1.00  0.00    -0.409 A  
HETATM   12  C   UNL     1     -11.788  10.800  71.063  1.00  0.00    -0.349 A  
HETATM   13  C   UNL     1     -11.357   9.841  70.171  1.00  0.00    -0.251 A  
HETATM   14  O   UNL     1     -11.380  10.354  68.898  1.00  0.00    -0.249 OA 
BRANCH  13  15
HETATM   15  C   UNL     1     -10.904   8.488  70.359  1.00  0.00    -0.234 C  
BRANCH  15  16
HETATM   16  N   UNL     1     -11.715   7.483  70.220  1.00  0.00    -0.493 NA 
HETATM   17  H   UNL     1     -12.696   7.553  70.494  1.00  0.00     0.000 HD 
BRANCH  16  18
HETATM   18  N   UNL     1     -11.205   6.323  69.693  1.00  0.00    -0.413 N  
HETATM   19  C   UNL     1     -10.607   5.326  70.555  1.00  0.00    -0.202 C  
HETATM   20  C   UNL     1      -9.909   4.457  69.527  1.00  0.00    -0.188 C  
HETATM   21  N   UNL     1     -10.155   4.943  68.284  1.00  0.00    -0.114 NA 
HETATM   22  O   UNL     1      -9.214   3.480  69.769  1.00  0.00    -0.117 OA 
HETATM   23  C   UNL     1     -10.846   6.109  68.350  1.00  0.00    -0.305 C  
HETATM   24  O   UNL     1     -11.059   6.833  67.388  1.00  0.00    -0.328 OA 
ENDBRANCH  16  18
ENDBRANCH  15  16
ENDBRANCH  13  15
ENDBRANCH   7  10
TORSDOF 4
ENDMDL
MODEL       53
REMARK 921   NORMALIZED FREE ENERGY PREDICTED BY IDOCK:   -6.17 KCAL/MOL
REMARK 922        TOTAL FREE ENERGY PREDICTED BY IDOCK:   -8.16 KCAL/MOL
REMARK 923 INTER-LIGAND FREE ENERGY PREDICTED BY IDOCK:   -7.57 KCAL/MOL
REMARK 924 INTRA-LIGAND FREE ENERGY PREDICTED BY IDOCK:   -0.60 KCAL/MOL
REMARK 927      BINDING AFFINITY PREDICTED BY RF-SCORE:    0.00 PKD
ROOT
HETATM    1  O   UNL     1     -10.295  13.118  63.888  1.00  0.00    -0.354 OA 
HETATM    2  N   UNL     1     -10.118  12.038  64.465  1.00  0.00    -0.275 N  
HETATM    3  O   UNL     1      -9.493  11.080  63.991  1.00  0.00    -0.226 OA 
HETATM    4  C   UNL     1     -10.691  11.880  65.810  1.00  0.00    -0.284 A  
HETATM    5  C   UNL     1     -11.406  12.935  66.380  1.00  0.00    -0.361 A  
HETATM    6  C   UNL     1     -11.927  12.797  67.671  1.00  0.00    -0.331 A  
HETATM    7  C   UNL     1     -11.745  11.617  68.416  1.00  0.00    -0.374 A  
HETATM    8  C   UNL     1     -11.039  10.560  67.816  1.00  0.00    -0.382 A  
HETATM    9  C   UNL     1     -10.511  10.687  66.520  1.00  0.00    -0.285 A  
ENDROOT
BRANCH   7  10
HETATM   10  C   UNL     1     -12.270  11.540  69.783  1.00  0.00    -0.244 A  
HETATM   11  C   UNL     1     -12.479  12.484  70.771  1.00  0.00    -0.357 A  
HETATM   12  C   UNL     1     -12.973  11.798  71.905  1.00  0.00    -0.435 A  
HETATM   13  C   UNL     1     -13.051  10.466  71.555  1.00  0.00    -0.431 A  
HETATM   14  O   UNL     1     -12.626  10.306  70.259  1.00  0.00    -0.247 OA 
BRANCH  13  15
HETATM   15  C   UNL     1     -13.461   9.301  72.293  1.00  0.00    -0.482 C  
BRANCH  15  16
HETATM   16  N   UNL     1     -12.587   8.452  72.746  1.00  0.00    -0.613 NA 
HETATM   17  H   UNL     1     -12.533   8.230  73.740  1.00  0.00     0.000 HD 
BRANCH  16  18
HETATM   18  N   UNL     1     -11.741   7.867  71.839  1.00  0.00    -0.282 N  
HETATM   19  C   UNL     1     -12.171   6.719  71.069  1.00  0.00    -0.352 C  
HETATM   20  C   UNL     1     -10.841   6.248  70.512  1.00  0.00    -0.288 C  
HETATM   21  N   UNL     1      -9.857   7.084  70.928  1.00  0.00    -0.185 NA 
HETATM   22  O   UNL     1     -10.668   5.259  69.813  1.00  0.00    -0.286 OA 
HETATM   23  C   UNL     1     -10.342   8.007  71.797  1.00  0.00    -0.217 C  
HETATM   24  O   UNL     1      -9.642   8.776  72.439  1.00  0.00    -0.279 OA 
ENDBRANCH  16  18
ENDBRANCH  15  16
ENDBRANCH  13  15
ENDBRANCH   7  10
TORSDOF 4
ENDMDL
MODEL       54
REMARK 921   NORMALIZED FREE ENERGY PREDICTED BY IDOCK:   -6.16 KCAL/MOL
REMARK 922        TOTAL FREE ENERGY PREDICTED BY IDOCK:   -8.16 KCAL/MOL
REMARK 923 INTER-LIGAND FREE ENERGY PREDICTED BY IDOCK:   -7.63 KCAL/MOL
REMARK 924 INTRA-LIGAND FREE ENERGY PREDICTED BY IDOCK:   -0.53 KCAL/MOL
REMARK 927      BINDING AFFINITY PREDICTED BY RF-SCORE:    0.00 PKD
ROOT
HETATM    1  O   UNL     1     -12.776  15.756  63.732  1.00  0.00    -0.582 OA 
HETATM    2  N   UNL     1     -11.708  15.752  64.358  1.00  0.00    -0.310 N  
HETATM    3  O   UNL     1     -10.941  16.719  64.448  1.00  0.00    -0.974 OA 
HETATM    4  C   UNL     1     -11.324  14.510  65.045  1.00  0.00    -0.377 A  
HETATM    5  C   UNL     1     -12.161  13.395  64.967  1.00  0.00    -0.436 A  
HETATM    6  C   UNL     1     -11.811  12.222  65.644  1.00  0.00    -0.423 A  
HETATM    7  C   UNL     1     -10.633  12.137  66.410  1.00  0.00    -0.275 A  
HETATM    8  C   UNL     1      -9.796  13.265  66.460  1.00  0.00    -0.281 A  
HETATM    9  C   UNL     1     -10.136  14.449  65.784  1.00  0.00    -0.361 A  
ENDROOT
BRANCH   7  10
HETATM   10  C   UNL     1     -10.336  10.900  67.139  1.00  0.00    -0.220 A  
HETATM   11  C   UNL     1      -9.681  10.636  68.327  1.00  0.00    -0.169 A  
HETATM   12  C   UNL     1      -9.671   9.231  68.493  1.00  0.00    -0.162 A  
HETATM   13  C   UNL     1     -10.327   8.702  67.402  1.00  0.00    -0.284 A  
HETATM   14  O   UNL     1     -10.738   9.717  66.575  1.00  0.00    -0.116 OA 
BRANCH  13  15
HETATM   15  C   UNL     1     -10.610   7.344  67.017  1.00  0.00    -0.344 C  
BRANCH  15  16
HETATM   16  N   UNL     1     -11.395   6.594  67.730  1.00  0.00    -0.663 NA 
HETATM   17  H   UNL     1     -12.346   6.385  67.427  1.00  0.00     0.000 HD 
BRANCH  16  18
HETATM   18  N   UNL     1     -10.896   6.093  68.907  1.00  0.00    -0.310 N  
HETATM   19  C   UNL     1      -9.946   5.002  68.895  1.00  0.00    -0.166 C  
HETATM   20  C   UNL     1      -9.977   4.595  70.356  1.00  0.00    -0.230 C  
HETATM   21  N   UNL     1     -10.823   5.411  71.033  1.00  0.00    -0.176 NA 
HETATM   22  O   UNL     1      -9.356   3.666  70.853  1.00  0.00    -0.120 OA 
HETATM   23  C   UNL     1     -11.461   6.256  70.185  1.00  0.00    -0.382 C  
HETATM   24  O   UNL     1     -12.387   6.984  70.512  1.00  0.00    -0.267 OA 
ENDBRANCH  16  18
ENDBRANCH  15  16
ENDBRANCH  13  15
ENDBRANCH   7  10
TORSDOF 4
ENDMDL
MODEL       55
REMARK 921   NORMALIZED FREE ENERGY PREDICTED BY IDOCK:   -6.15 KCAL/MOL
REMARK 922        TOTAL FREE ENERGY PREDICTED BY IDOCK:   -8.15 KCAL/MOL
REMARK 923 INTER-LIGAND FREE ENERGY PREDICTED BY IDOCK:   -7.58 KCAL/MOL
REMARK 924 INTRA-LIGAND FREE ENERGY PREDICTED BY IDOCK:   -0.57 KCAL/MOL
REMARK 927      BINDING AFFINITY PREDICTED BY RF-SCORE:    0.00 PKD
ROOT
HETATM    1  O   UNL     1     -10.780  16.716  67.499  1.00  0.00    -0.325 OA 
HETATM    2  N   UNL     1     -10.817  15.576  67.018  1.00  0.00    -0.323 N  
HETATM    3  O   UNL     1     -10.516  15.296  65.850  1.00  0.00    -0.294 OA 
HETATM    4  C   UNL     1     -11.248  14.478  67.894  1.00  0.00    -0.295 A  
HETATM    5  C   UNL     1     -11.598  14.753  69.218  1.00  0.00    -0.331 A  
HETATM    6  C   UNL     1     -11.981  13.705  70.061  1.00  0.00    -0.413 A  
HETATM    7  C   UNL     1     -12.019  12.372  69.610  1.00  0.00    -0.341 A  
HETATM    8  C   UNL     1     -11.681  12.120  68.269  1.00  0.00    -0.401 A  
HETATM    9  C   UNL     1     -11.295  13.165  67.412  1.00  0.00    -0.344 A  
ENDROOT
BRANCH   7  10
HETATM   10  C   UNL     1     -12.381  11.305  70.547  1.00  0.00    -0.356 A  
HETATM   11  C   UNL     1     -13.109  11.283  71.722  1.00  0.00    -0.527 A  
HETATM   12  C   UNL     1     -13.080   9.954  72.205  1.00  0.00    -0.497 A  
HETATM   13  C   UNL     1     -12.341   9.222  71.300  1.00  0.00    -0.328 A  
HETATM   14  O   UNL     1     -11.916  10.043  70.284  1.00  0.00    -0.249 OA 
BRANCH  13  15
HETATM   15  C   UNL     1     -11.959   7.835  71.269  1.00  0.00    -0.302 C  
BRANCH  15  16
HETATM   16  N   UNL     1     -12.295   7.069  70.274  1.00  0.00    -0.610 NA 
HETATM   17  H   UNL     1     -13.210   7.150  69.831  1.00  0.00     0.000 HD 
BRANCH  16  18
HETATM   18  N   UNL     1     -11.374   6.147  69.844  1.00  0.00    -0.421 N  
HETATM   19  C   UNL     1     -10.535   5.450  70.795  1.00  0.00    -0.247 C  
HETATM   20  C   UNL     1      -9.501   4.850  69.861  1.00  0.00    -0.160 C  
HETATM   21  N   UNL     1      -9.805   5.180  68.581  1.00  0.00    -0.151 NA 
HETATM   22  O   UNL     1      -8.531   4.187  70.200  1.00  0.00    -0.064 OA 
HETATM   23  C   UNL     1     -10.862   6.031  68.539  1.00  0.00    -0.286 C  
HETATM   24  O   UNL     1     -11.239   6.604  67.528  1.00  0.00    -0.319 OA 
ENDBRANCH  16  18
ENDBRANCH  15  16
ENDBRANCH  13  15
ENDBRANCH   7  10
TORSDOF 4
ENDMDL
MODEL       56
REMARK 921   NORMALIZED FREE ENERGY PREDICTED BY IDOCK:   -6.15 KCAL/MOL
REMARK 922        TOTAL FREE ENERGY PREDICTED BY IDOCK:   -8.14 KCAL/MOL
REMARK 923 INTER-LIGAND FREE ENERGY PREDICTED BY IDOCK:   -7.61 KCAL/MOL
REMARK 924 INTRA-LIGAND FREE ENERGY PREDICTED BY IDOCK:   -0.53 KCAL/MOL
REMARK 927      BINDING AFFINITY PREDICTED BY RF-SCORE:    0.00 PKD
ROOT
HETATM    1  O   UNL     1     -10.398  13.588  64.337  1.00  0.00    -0.433 OA 
HETATM    2  N   UNL     1     -10.786  14.263  65.299  1.00  0.00    -0.342 N  
HETATM    3  O   UNL     1     -10.915  15.494  65.289  1.00  0.00    -0.361 OA 
HETATM    4  C   UNL     1     -11.117  13.552  66.543  1.00  0.00    -0.300 A  
HETATM    5  C   UNL     1     -10.983  12.163  66.597  1.00  0.00    -0.325 A  
HETATM    6  C   UNL     1     -11.326  11.483  67.770  1.00  0.00    -0.364 A  
HETATM    7  C   UNL     1     -11.810  12.164  68.902  1.00  0.00    -0.358 A  
HETATM    8  C   UNL     1     -11.919  13.564  68.833  1.00  0.00    -0.378 A  
HETATM    9  C   UNL     1     -11.577  14.259  67.660  1.00  0.00    -0.396 A  
ENDROOT
BRANCH   7  10
HETATM   10  C   UNL     1     -12.200  11.400  70.090  1.00  0.00    -0.321 A  
HETATM   11  C   UNL     1     -12.926  11.716  71.223  1.00  0.00    -0.368 A  
HETATM   12  C   UNL     1     -12.934  10.566  72.047  1.00  0.00    -0.490 A  
HETATM   13  C   UNL     1     -12.218   9.597  71.377  1.00  0.00    -0.385 A  
HETATM   14  O   UNL     1     -11.772  10.101  70.180  1.00  0.00    -0.261 OA 
BRANCH  13  15
HETATM   15  C   UNL     1     -11.876   8.243  71.723  1.00  0.00    -0.306 C  
BRANCH  15  16
HETATM   16  N   UNL     1     -11.862   7.851  72.962  1.00  0.00    -0.633 NA 
HETATM   17  H   UNL     1     -12.620   8.091  73.601  1.00  0.00     0.000 HD 
BRANCH  16  18
HETATM   18  N   UNL     1     -10.790   7.102  73.379  1.00  0.00    -0.354 N  
HETATM   19  C   UNL     1      -9.473   7.695  73.470  1.00  0.00    -0.289 C  
HETATM   20  C   UNL     1      -8.620   6.449  73.614  1.00  0.00    -0.123 C  
HETATM   21  N   UNL     1      -9.421   5.354  73.627  1.00  0.00    -0.137 NA 
HETATM   22  O   UNL     1      -7.400   6.422  73.688  1.00  0.00    -0.086 OA 
HETATM   23  C   UNL     1     -10.713   5.698  73.395  1.00  0.00    -0.278 C  
HETATM   24  O   UNL     1     -11.610   4.892  73.198  1.00  0.00    -0.324 OA 
ENDBRANCH  16  18
ENDBRANCH  15  16
ENDBRANCH  13  15
ENDBRANCH   7  10
TORSDOF 4
ENDMDL
MODEL       57
REMARK 921   NORMALIZED FREE ENERGY PREDICTED BY IDOCK:   -6.14 KCAL/MOL
REMARK 922        TOTAL FREE ENERGY PREDICTED BY IDOCK:   -8.13 KCAL/MOL
REMARK 923 INTER-LIGAND FREE ENERGY PREDICTED BY IDOCK:   -7.39 KCAL/MOL
REMARK 924 INTRA-LIGAND FREE ENERGY PREDICTED BY IDOCK:   -0.74 KCAL/MOL
REMARK 927      BINDING AFFINITY PREDICTED BY RF-SCORE:    0.00 PKD
ROOT
HETATM    1  O   UNL     1     -12.317  13.831  62.987  1.00  0.00    -0.661 OA 
HETATM    2  N   UNL     1     -12.370  13.776  64.222  1.00  0.00    -0.375 N  
HETATM    3  O   UNL     1     -12.931  14.615  64.940  1.00  0.00    -0.481 OA 
HETATM    4  C   UNL     1     -11.723  12.635  64.883  1.00  0.00    -0.353 A  
HETATM    5  C   UNL     1     -11.078  11.668  64.109  1.00  0.00    -0.435 A  
HETATM    6  C   UNL     1     -10.486  10.566  64.736  1.00  0.00    -0.198 A  
HETATM    7  C   UNL     1     -10.528  10.402  66.133  1.00  0.00    -0.224 A  
HETATM    8  C   UNL     1     -11.166  11.397  66.895  1.00  0.00    -0.331 A  
HETATM    9  C   UNL     1     -11.763  12.509  66.277  1.00  0.00    -0.462 A  
ENDROOT
BRANCH   7  10
HETATM   10  C   UNL     1      -9.935   9.205  66.736  1.00  0.00    -0.254 A  
HETATM   11  C   UNL     1      -8.651   8.691  66.754  1.00  0.00    -0.126 A  
HETATM   12  C   UNL     1      -8.701   7.472  67.468  1.00  0.00    -0.125 A  
HETATM   13  C   UNL     1     -10.012   7.299  67.860  1.00  0.00    -0.158 A  
HETATM   14  O   UNL     1     -10.767   8.357  67.419  1.00  0.00    -0.269 OA 
BRANCH  13  15
HETATM   15  C   UNL     1     -10.665   6.247  68.593  1.00  0.00    -0.298 C  
BRANCH  15  16
HETATM   16  N   UNL     1     -11.570   6.513  69.487  1.00  0.00    -0.642 NA 
HETATM   17  H   UNL     1     -12.554   6.304  69.322  1.00  0.00     0.000 HD 
BRANCH  16  18
HETATM   18  N   UNL     1     -11.151   7.088  70.661  1.00  0.00    -0.259 N  
HETATM   19  C   UNL     1     -10.766   6.262  71.785  1.00  0.00    -0.236 C  
HETATM   20  C   UNL     1     -10.736   7.299  72.891  1.00  0.00    -0.322 C  
HETATM   21  N   UNL     1     -11.039   8.516  72.375  1.00  0.00    -0.361 NA 
HETATM   22  O   UNL     1     -10.496   7.081  74.070  1.00  0.00    -0.366 OA 
HETATM   23  C   UNL     1     -11.385   8.414  71.067  1.00  0.00    -0.266 C  
HETATM   24  O   UNL     1     -11.852   9.332  70.409  1.00  0.00    -0.191 OA 
ENDBRANCH  16  18
ENDBRANCH  15  16
ENDBRANCH  13  15
ENDBRANCH   7  10
TORSDOF 4
ENDMDL
MODEL       58
REMARK 921   NORMALIZED FREE ENERGY PREDICTED BY IDOCK:   -6.13 KCAL/MOL
REMARK 922        TOTAL FREE ENERGY PREDICTED BY IDOCK:   -8.12 KCAL/MOL
REMARK 923 INTER-LIGAND FREE ENERGY PREDICTED BY IDOCK:   -7.62 KCAL/MOL
REMARK 924 INTRA-LIGAND FREE ENERGY PREDICTED BY IDOCK:   -0.50 KCAL/MOL
REMARK 927      BINDING AFFINITY PREDICTED BY RF-SCORE:    0.00 PKD
ROOT
HETATM    1  O   UNL     1      -9.592  20.071  65.609  1.00  0.00    -0.289 OA 
HETATM    2  N   UNL     1      -9.784  19.728  66.783  1.00  0.00    -0.367 N  
HETATM    3  O   UNL     1      -9.732  20.491  67.756  1.00  0.00    -0.375 OA 
HETATM    4  C   UNL     1     -10.097  18.315  67.039  1.00  0.00    -0.360 A  
HETATM    5  C   UNL     1     -10.163  17.421  65.968  1.00  0.00    -0.308 A  
HETATM    6  C   UNL     1     -10.489  16.082  66.207  1.00  0.00    -0.326 A  
HETATM    7  C   UNL     1     -10.758  15.610  67.506  1.00  0.00    -0.303 A  
HETATM    8  C   UNL     1     -10.667  16.522  68.572  1.00  0.00    -0.336 A  
HETATM    9  C   UNL     1     -10.340  17.869  68.344  1.00  0.00    -0.380 A  
ENDROOT
BRANCH   7  10
HETATM   10  C   UNL     1     -11.141  14.208  67.697  1.00  0.00    -0.282 A  
HETATM   11  C   UNL     1     -11.289  13.140  66.831  1.00  0.00    -0.355 A  
HETATM   12  C   UNL     1     -11.726  12.037  67.602  1.00  0.00    -0.365 A  
HETATM   13  C   UNL     1     -11.819  12.480  68.904  1.00  0.00    -0.301 A  
HETATM   14  O   UNL     1     -11.460  13.803  68.967  1.00  0.00    -0.265 OA 
BRANCH  13  15
HETATM   15  C   UNL     1     -12.225  11.819  70.117  1.00  0.00    -0.263 C  
BRANCH  15  16
HETATM   16  N   UNL     1     -12.515  10.553  70.126  1.00  0.00    -0.479 NA 
HETATM   17  H   UNL     1     -13.152  10.151  69.437  1.00  0.00     0.000 HD 
BRANCH  16  18
HETATM   18  N   UNL     1     -11.934   9.776  71.096  1.00  0.00    -0.347 N  
HETATM   19  C   UNL     1     -10.502   9.565  71.107  1.00  0.00    -0.288 C  
HETATM   20  C   UNL     1     -10.401   8.415  72.091  1.00  0.00    -0.327 C  
HETATM   21  N   UNL     1     -11.639   8.104  72.548  1.00  0.00    -0.399 NA 
HETATM   22  O   UNL     1      -9.372   7.838  72.413  1.00  0.00    -0.146 OA 
HETATM   23  C   UNL     1     -12.589   8.831  71.907  1.00  0.00    -0.371 C  
HETATM   24  O   UNL     1     -13.790   8.636  72.016  1.00  0.00    -0.392 OA 
ENDBRANCH  16  18
ENDBRANCH  15  16
ENDBRANCH  13  15
ENDBRANCH   7  10
TORSDOF 4
ENDMDL
MODEL       59
REMARK 921   NORMALIZED FREE ENERGY PREDICTED BY IDOCK:   -6.10 KCAL/MOL
REMARK 922        TOTAL FREE ENERGY PREDICTED BY IDOCK:   -8.09 KCAL/MOL
REMARK 923 INTER-LIGAND FREE ENERGY PREDICTED BY IDOCK:   -7.45 KCAL/MOL
REMARK 924 INTRA-LIGAND FREE ENERGY PREDICTED BY IDOCK:   -0.63 KCAL/MOL
REMARK 927      BINDING AFFINITY PREDICTED BY RF-SCORE:    0.00 PKD
ROOT
HETATM    1  O   UNL     1     -10.934   7.173  68.327  1.00  0.00    -0.137 OA 
HETATM    2  N   UNL     1     -10.417   7.514  67.256  1.00  0.00    -0.293 N  
HETATM    3  O   UNL     1      -9.953   6.730  66.417  1.00  0.00    -0.116 OA 
HETATM    4  C   UNL     1     -10.348   8.951  66.958  1.00  0.00    -0.269 A  
HETATM    5  C   UNL     1     -10.858   9.869  67.879  1.00  0.00    -0.312 A  
HETATM    6  C   UNL     1     -10.820  11.236  67.583  1.00  0.00    -0.286 A  
HETATM    7  C   UNL     1     -10.282  11.713  66.373  1.00  0.00    -0.256 A  
HETATM    8  C   UNL     1      -9.757  10.774  65.468  1.00  0.00    -0.290 A  
HETATM    9  C   UNL     1      -9.790   9.398  65.754  1.00  0.00    -0.345 A  
ENDROOT
BRANCH   7  10
HETATM   10  C   UNL     1     -10.309  13.151  66.091  1.00  0.00    -0.284 A  
HETATM   11  C   UNL     1     -11.217  13.973  65.449  1.00  0.00    -0.319 A  
HETATM   12  C   UNL     1     -10.670  15.278  65.449  1.00  0.00    -0.407 A  
HETATM   13  C   UNL     1      -9.456  15.195  66.098  1.00  0.00    -0.319 A  
HETATM   14  O   UNL     1      -9.234  13.899  66.494  1.00  0.00    -0.260 OA 
BRANCH  13  15
HETATM   15  C   UNL     1      -8.450  16.183  66.385  1.00  0.00    -0.334 C  
BRANCH  15  16
HETATM   16  N   UNL     1      -8.486  17.357  65.829  1.00  0.00    -0.500 NA 
HETATM   17  H   UNL     1      -8.069  17.521  64.912  1.00  0.00     0.000 HD 
BRANCH  16  18
HETATM   18  N   UNL     1      -9.104  18.368  66.521  1.00  0.00    -0.294 N  
HETATM   19  C   UNL     1      -8.743  18.643  67.895  1.00  0.00    -0.288 C  
HETATM   20  C   UNL     1      -9.889  19.549  68.303  1.00  0.00    -0.416 C  
HETATM   21  N   UNL     1     -10.716  19.736  67.244  1.00  0.00    -0.439 NA 
HETATM   22  O   UNL     1     -10.062  20.027  69.416  1.00  0.00    -0.306 OA 
HETATM   23  C   UNL     1     -10.330  18.972  66.191  1.00  0.00    -0.468 C  
HETATM   24  O   UNL     1     -10.988  18.832  65.170  1.00  0.00    -0.514 OA 
ENDBRANCH  16  18
ENDBRANCH  15  16
ENDBRANCH  13  15
ENDBRANCH   7  10
TORSDOF 4
ENDMDL
MODEL       60
REMARK 921   NORMALIZED FREE ENERGY PREDICTED BY IDOCK:   -6.01 KCAL/MOL
REMARK 922        TOTAL FREE ENERGY PREDICTED BY IDOCK:   -7.97 KCAL/MOL
REMARK 923 INTER-LIGAND FREE ENERGY PREDICTED BY IDOCK:   -7.39 KCAL/MOL
REMARK 924 INTRA-LIGAND FREE ENERGY PREDICTED BY IDOCK:   -0.58 KCAL/MOL
REMARK 927      BINDING AFFINITY PREDICTED BY RF-SCORE:    0.00 PKD
ROOT
HETATM    1  O   UNL     1     -13.911   9.223  72.546  1.00  0.00    -0.459 OA 
HETATM    2  N   UNL     1     -12.825   8.740  72.205  1.00  0.00    -0.374 N  
HETATM    3  O   UNL     1     -12.367   7.669  72.625  1.00  0.00    -0.116 OA 
HETATM    4  C   UNL     1     -12.020   9.490  71.230  1.00  0.00    -0.365 A  
HETATM    5  C   UNL     1     -12.499  10.704  70.733  1.00  0.00    -0.480 A  
HETATM    6  C   UNL     1     -11.748  11.405  69.784  1.00  0.00    -0.418 A  
HETATM    7  C   UNL     1     -10.517  10.914  69.310  1.00  0.00    -0.230 A  
HETATM    8  C   UNL     1     -10.044   9.700  69.838  1.00  0.00    -0.279 A  
HETATM    9  C   UNL     1     -10.789   8.987  70.792  1.00  0.00    -0.310 A  
ENDROOT
BRANCH   7  10
HETATM   10  C   UNL     1      -9.791  11.663  68.280  1.00  0.00    -0.199 A  
HETATM   11  C   UNL     1      -8.477  11.652  67.850  1.00  0.00    -0.148 A  
HETATM   12  C   UNL     1      -8.361  12.638  66.843  1.00  0.00    -0.078 A  
HETATM   13  C   UNL     1      -9.611  13.202  66.698  1.00  0.00    -0.260 A  
HETATM   14  O   UNL     1     -10.487  12.606  67.570  1.00  0.00    -0.218 OA 
BRANCH  13  15
HETATM   15  C   UNL     1     -10.097  14.255  65.846  1.00  0.00    -0.326 C  
BRANCH  15  16
HETATM   16  N   UNL     1     -11.022  15.073  66.252  1.00  0.00    -0.336 NA 
HETATM   17  H   UNL     1     -11.985  14.762  66.376  1.00  0.00     0.000 HD 
BRANCH  16  18
HETATM   18  N   UNL     1     -10.654  16.370  66.507  1.00  0.00    -0.276 N  
HETATM   19  C   UNL     1     -10.470  16.826  67.869  1.00  0.00    -0.335 C  
HETATM   20  C   UNL     1     -10.428  18.326  67.652  1.00  0.00    -0.411 C  
HETATM   21  N   UNL     1     -10.544  18.594  66.328  1.00  0.00    -0.398 NA 
HETATM   22  O   UNL     1     -10.326  19.173  68.529  1.00  0.00    -0.386 OA 
HETATM   23  C   UNL     1     -10.774  17.457  65.623  1.00  0.00    -0.111 C  
HETATM   24  O   UNL     1     -11.072  17.435  64.438  1.00  0.00    -0.873 OA 
ENDBRANCH  16  18
ENDBRANCH  15  16
ENDBRANCH  13  15
ENDBRANCH   7  10
TORSDOF 4
ENDMDL
MODEL       61
REMARK 921   NORMALIZED FREE ENERGY PREDICTED BY IDOCK:   -6.00 KCAL/MOL
REMARK 922        TOTAL FREE ENERGY PREDICTED BY IDOCK:   -7.97 KCAL/MOL
REMARK 923 INTER-LIGAND FREE ENERGY PREDICTED BY IDOCK:   -7.46 KCAL/MOL
REMARK 924 INTRA-LIGAND FREE ENERGY PREDICTED BY IDOCK:   -0.51 KCAL/MOL
REMARK 927      BINDING AFFINITY PREDICTED BY RF-SCORE:    0.00 PKD
ROOT
HETATM    1  O   UNL     1     -10.240  17.404  65.657  1.00  0.00    -0.586 OA 
HETATM    2  N   UNL     1     -10.909  16.420  65.314  1.00  0.00    -0.325 N  
HETATM    3  O   UNL     1     -11.420  16.271  64.197  1.00  0.00    -0.821 OA 
HETATM    4  C   UNL     1     -11.111  15.353  66.305  1.00  0.00    -0.226 A  
HETATM    5  C   UNL     1     -10.553  15.484  67.579  1.00  0.00    -0.297 A  
HETATM    6  C   UNL     1     -10.720  14.456  68.513  1.00  0.00    -0.258 A  
HETATM    7  C   UNL     1     -11.436  13.285  68.200  1.00  0.00    -0.347 A  
HETATM    8  C   UNL     1     -12.005  13.182  66.919  1.00  0.00    -0.421 A  
HETATM    9  C   UNL     1     -11.845  14.208  65.972  1.00  0.00    -0.409 A  
ENDROOT
BRANCH   7  10
HETATM   10  C   UNL     1     -11.541  12.217  69.198  1.00  0.00    -0.318 A  
HETATM   11  C   UNL     1     -12.360  12.024  70.295  1.00  0.00    -0.275 A  
HETATM   12  C   UNL     1     -11.958  10.814  70.907  1.00  0.00    -0.438 A  
HETATM   13  C   UNL     1     -10.916  10.319  70.152  1.00  0.00    -0.314 A  
HETATM   14  O   UNL     1     -10.661  11.171  69.106  1.00  0.00    -0.213 OA 
BRANCH  13  15
HETATM   15  C   UNL     1     -10.101   9.141  70.294  1.00  0.00    -0.206 C  
BRANCH  15  16
HETATM   16  N   UNL     1      -9.233   9.038  71.255  1.00  0.00    -0.252 NA 
HETATM   17  H   UNL     1      -8.488   9.725  71.371  1.00  0.00     0.000 HD 
BRANCH  16  18
HETATM   18  N   UNL     1      -9.356   7.969  72.108  1.00  0.00    -0.171 N  
HETATM   19  C   UNL     1     -10.398   6.986  71.906  1.00  0.00    -0.192 C  
HETATM   20  C   UNL     1     -10.347   6.255  73.234  1.00  0.00    -0.231 C  
HETATM   21  N   UNL     1      -9.366   6.789  74.005  1.00  0.00    -0.190 NA 
HETATM   22  O   UNL     1     -11.082   5.339  73.576  1.00  0.00    -0.302 OA 
HETATM   23  C   UNL     1      -8.816   7.874  73.403  1.00  0.00    -0.263 C  
HETATM   24  O   UNL     1      -8.026   8.630  73.947  1.00  0.00    -0.406 OA 
ENDBRANCH  16  18
ENDBRANCH  15  16
ENDBRANCH  13  15
ENDBRANCH   7  10
TORSDOF 4
ENDMDL
MODEL       62
REMARK 921   NORMALIZED FREE ENERGY PREDICTED BY IDOCK:   -5.98 KCAL/MOL
REMARK 922        TOTAL FREE ENERGY PREDICTED BY IDOCK:   -7.93 KCAL/MOL
REMARK 923 INTER-LIGAND FREE ENERGY PREDICTED BY IDOCK:   -7.27 KCAL/MOL
REMARK 924 INTRA-LIGAND FREE ENERGY PREDICTED BY IDOCK:   -0.67 KCAL/MOL
REMARK 927      BINDING AFFINITY PREDICTED BY RF-SCORE:    0.00 PKD
ROOT
HETATM    1  O   UNL     1     -11.737   9.063  72.158  1.00  0.00    -0.356 OA 
HETATM    2  N   UNL     1     -11.342   8.593  71.083  1.00  0.00    -0.264 N  
HETATM    3  O   UNL     1     -11.039   7.406  70.903  1.00  0.00    -0.252 OA 
HETATM    4  C   UNL     1     -11.225   9.508  69.940  1.00  0.00    -0.178 A  
HETATM    5  C   UNL     1     -11.555  10.856  70.102  1.00  0.00    -0.425 A  
HETATM    6  C   UNL     1     -11.472  11.722  69.007  1.00  0.00    -0.358 A  
HETATM    7  C   UNL     1     -11.067  11.269  67.738  1.00  0.00    -0.328 A  
HETATM    8  C   UNL     1     -10.722   9.913  67.600  1.00  0.00    -0.339 A  
HETATM    9  C   UNL     1     -10.801   9.033  68.693  1.00  0.00    -0.061 A  
ENDROOT
BRANCH   7  10
HETATM   10  C   UNL     1     -11.043  12.207  66.612  1.00  0.00    -0.306 A  
HETATM   11  C   UNL     1     -11.486  12.130  65.305  1.00  0.00    -0.388 A  
HETATM   12  C   UNL     1     -11.142  13.349  64.676  1.00  0.00    -0.380 A  
HETATM   13  C   UNL     1     -10.510  14.119  65.629  1.00  0.00    -0.321 A  
HETATM   14  O   UNL     1     -10.451  13.427  66.813  1.00  0.00    -0.270 OA 
BRANCH  13  15
HETATM   15  C   UNL     1      -9.928  15.434  65.571  1.00  0.00    -0.344 C  
BRANCH  15  16
HETATM   16  N   UNL     1     -10.659  16.498  65.723  1.00  0.00    -0.333 NA 
HETATM   17  H   UNL     1     -11.373  16.751  65.040  1.00  0.00     0.000 HD 
BRANCH  16  18
HETATM   18  N   UNL     1     -10.433  17.268  66.836  1.00  0.00    -0.303 N  
HETATM   19  C   UNL     1      -9.427  18.308  66.816  1.00  0.00    -0.300 C  
HETATM   20  C   UNL     1      -9.314  18.609  68.299  1.00  0.00    -0.328 C  
HETATM   21  N   UNL     1     -10.188  17.831  68.984  1.00  0.00    -0.352 NA 
HETATM   22  O   UNL     1      -8.544  19.411  68.809  1.00  0.00    -0.362 OA 
HETATM   23  C   UNL     1     -10.806  16.952  68.155  1.00  0.00    -0.351 C  
HETATM   24  O   UNL     1     -11.520  16.037  68.537  1.00  0.00    -0.370 OA 
ENDBRANCH  16  18
ENDBRANCH  15  16
ENDBRANCH  13  15
ENDBRANCH   7  10
TORSDOF 4
ENDMDL
MODEL       63
REMARK 921   NORMALIZED FREE ENERGY PREDICTED BY IDOCK:   -5.98 KCAL/MOL
REMARK 922        TOTAL FREE ENERGY PREDICTED BY IDOCK:   -7.93 KCAL/MOL
REMARK 923 INTER-LIGAND FREE ENERGY PREDICTED BY IDOCK:   -7.33 KCAL/MOL
REMARK 924 INTRA-LIGAND FREE ENERGY PREDICTED BY IDOCK:   -0.60 KCAL/MOL
REMARK 927      BINDING AFFINITY PREDICTED BY RF-SCORE:    0.00 PKD
ROOT
HETATM    1  O   UNL     1     -10.391  13.145  64.005  1.00  0.00    -0.396 OA 
HETATM    2  N   UNL     1     -10.564  13.967  64.914  1.00  0.00    -0.398 N  
HETATM    3  O   UNL     1     -10.404  15.189  64.798  1.00  0.00    -0.331 OA 
HETATM    4  C   UNL     1     -10.989  13.456  66.225  1.00  0.00    -0.288 A  
HETATM    5  C   UNL     1     -11.179  12.083  66.398  1.00  0.00    -0.389 A  
HETATM    6  C   UNL     1     -11.612  11.598  67.637  1.00  0.00    -0.349 A  
HETATM    7  C   UNL     1     -11.869  12.462  68.717  1.00  0.00    -0.358 A  
HETATM    8  C   UNL     1     -11.653  13.838  68.528  1.00  0.00    -0.373 A  
HETATM    9  C   UNL     1     -11.218  14.337  67.288  1.00  0.00    -0.330 A  
ENDROOT
BRANCH   7  10
HETATM   10  C   UNL     1     -12.367  11.908  69.980  1.00  0.00    -0.130 A  
HETATM   11  C   UNL     1     -12.734  12.478  71.185  1.00  0.00    -0.340 A  
HETATM   12  C   UNL     1     -13.096  11.421  72.052  1.00  0.00    -0.423 A  
HETATM   13  C   UNL     1     -12.939  10.253  71.336  1.00  0.00    -0.440 A  
HETATM   14  O   UNL     1     -12.499  10.546  70.069  1.00  0.00    -0.278 OA 
BRANCH  13  15
HETATM   15  C   UNL     1     -13.136   8.873  71.693  1.00  0.00    -0.357 C  
BRANCH  15  16
HETATM   16  N   UNL     1     -12.295   8.254  72.466  1.00  0.00    -0.557 NA 
HETATM   17  H   UNL     1     -12.530   8.034  73.434  1.00  0.00     0.000 HD 
BRANCH  16  18
HETATM   18  N   UNL     1     -11.078   7.909  71.933  1.00  0.00    -0.254 N  
HETATM   19  C   UNL     1      -9.887   8.653  72.281  1.00  0.00    -0.289 C  
HETATM   20  C   UNL     1      -8.928   8.148  71.220  1.00  0.00    -0.146 C  
HETATM   21  N   UNL     1      -9.556   7.228  70.446  1.00  0.00    -0.166 NA 
HETATM   22  O   UNL     1      -7.772   8.519  71.065  1.00  0.00    -0.076 OA 
HETATM   23  C   UNL     1     -10.867   7.128  70.782  1.00  0.00    -0.244 C  
HETATM   24  O   UNL     1     -11.691   6.492  70.142  1.00  0.00    -0.418 OA 
ENDBRANCH  16  18
ENDBRANCH  15  16
ENDBRANCH  13  15
ENDBRANCH   7  10
TORSDOF 4
ENDMDL
MODEL       64
REMARK 921   NORMALIZED FREE ENERGY PREDICTED BY IDOCK:   -5.95 KCAL/MOL
REMARK 922        TOTAL FREE ENERGY PREDICTED BY IDOCK:   -7.89 KCAL/MOL
REMARK 923 INTER-LIGAND FREE ENERGY PREDICTED BY IDOCK:   -7.14 KCAL/MOL
REMARK 924 INTRA-LIGAND FREE ENERGY PREDICTED BY IDOCK:   -0.75 KCAL/MOL
REMARK 927      BINDING AFFINITY PREDICTED BY RF-SCORE:    0.00 PKD
ROOT
HETATM    1  O   UNL     1     -10.063  20.449  67.376  1.00  0.00    -0.417 OA 
HETATM    2  N   UNL     1     -10.088  19.379  67.997  1.00  0.00    -0.387 N  
HETATM    3  O   UNL     1      -9.924  19.271  69.219  1.00  0.00    -0.384 OA 
HETATM    4  C   UNL     1     -10.329  18.149  67.229  1.00  0.00    -0.386 A  
HETATM    5  C   UNL     1     -10.516  18.227  65.847  1.00  0.00    -0.324 A  
HETATM    6  C   UNL     1     -10.774  17.061  65.120  1.00  0.00    -0.066 A  
HETATM    7  C   UNL     1     -10.855  15.804  65.747  1.00  0.00    -0.286 A  
HETATM    8  C   UNL     1     -10.645  15.745  67.136  1.00  0.00    -0.313 A  
HETATM    9  C   UNL     1     -10.384  16.910  67.878  1.00  0.00    -0.332 A  
ENDROOT
BRANCH   7  10
HETATM   10  C   UNL     1     -11.176  14.619  64.946  1.00  0.00    -0.396 A  
HETATM   11  C   UNL     1     -12.334  14.171  64.338  1.00  0.00    -0.410 A  
HETATM   12  C   UNL     1     -12.035  12.927  63.738  1.00  0.00    -0.582 A  
HETATM   13  C   UNL     1     -10.705  12.673  64.000  1.00  0.00    -0.425 A  
HETATM   14  O   UNL     1     -10.177  13.705  64.734  1.00  0.00    -0.392 OA 
BRANCH  13  15
HETATM   15  C   UNL     1      -9.854  11.563  63.663  1.00  0.00    -0.353 C  
BRANCH  15  16
HETATM   16  N   UNL     1      -8.760  11.330  64.325  1.00  0.00    -0.362 NA 
HETATM   17  H   UNL     1      -7.849  11.597  63.952  1.00  0.00     0.000 HD 
BRANCH  16  18
HETATM   18  N   UNL     1      -8.876  10.712  65.545  1.00  0.00    -0.183 N  
HETATM   19  C   UNL     1      -9.614   9.473  65.672  1.00  0.00    -0.277 C  
HETATM   20  C   UNL     1      -9.753   9.390  67.180  1.00  0.00    -0.173 C  
HETATM   21  N   UNL     1      -9.128  10.451  67.749  1.00  0.00    -0.131 NA 
HETATM   22  O   UNL     1     -10.351   8.519  67.796  1.00  0.00    -0.218 OA 
HETATM   23  C   UNL     1      -8.675  11.310  66.802  1.00  0.00    -0.166 C  
HETATM   24  O   UNL     1      -8.217  12.417  67.045  1.00  0.00    -0.178 OA 
ENDBRANCH  16  18
ENDBRANCH  15  16
ENDBRANCH  13  15
ENDBRANCH   7  10
TORSDOF 4
ENDMDL
MODEL       65
REMARK 921   NORMALIZED FREE ENERGY PREDICTED BY IDOCK:   -5.95 KCAL/MOL
REMARK 922        TOTAL FREE ENERGY PREDICTED BY IDOCK:   -7.89 KCAL/MOL
REMARK 923 INTER-LIGAND FREE ENERGY PREDICTED BY IDOCK:   -7.41 KCAL/MOL
REMARK 924 INTRA-LIGAND FREE ENERGY PREDICTED BY IDOCK:   -0.48 KCAL/MOL
REMARK 927      BINDING AFFINITY PREDICTED BY RF-SCORE:    0.00 PKD
ROOT
HETATM    1  O   UNL     1      -9.810   3.844  70.735  1.00  0.00    -0.194 OA 
HETATM    2  N   UNL     1      -9.931   4.503  71.775  1.00  0.00    -0.188 N  
HETATM    3  O   UNL     1      -9.617   4.102  72.904  1.00  0.00    -0.124 OA 
HETATM    4  C   UNL     1     -10.488   5.859  71.663  1.00  0.00    -0.233 A  
HETATM    5  C   UNL     1     -10.857   6.348  70.409  1.00  0.00    -0.343 A  
HETATM    6  C   UNL     1     -11.360   7.649  70.297  1.00  0.00    -0.197 A  
HETATM    7  C   UNL     1     -11.499   8.484  71.421  1.00  0.00    -0.344 A  
HETATM    8  C   UNL     1     -11.139   7.965  72.677  1.00  0.00    -0.447 A  
HETATM    9  C   UNL     1     -10.634   6.660  72.802  1.00  0.00    -0.260 A  
ENDROOT
BRANCH   7  10
HETATM   10  C   UNL     1     -11.986   9.855  71.243  1.00  0.00    -0.402 A  
HETATM   11  C   UNL     1     -13.008  10.580  71.827  1.00  0.00    -0.582 A  
HETATM   12  C   UNL     1     -13.021  11.853  71.210  1.00  0.00    -0.334 A  
HETATM   13  C   UNL     1     -12.001  11.850  70.281  1.00  0.00    -0.330 A  
HETATM   14  O   UNL     1     -11.365  10.634  70.302  1.00  0.00    -0.298 OA 
BRANCH  13  15
HETATM   15  C   UNL     1     -11.548  12.848  69.350  1.00  0.00    -0.302 C  
BRANCH  15  16
HETATM   16  N   UNL     1     -12.292  13.868  69.044  1.00  0.00    -0.449 NA 
HETATM   17  H   UNL     1     -13.198  14.015  69.491  1.00  0.00     0.000 HD 
BRANCH  16  18
HETATM   18  N   UNL     1     -11.815  14.742  68.099  1.00  0.00    -0.315 N  
HETATM   19  C   UNL     1     -11.716  14.339  66.713  1.00  0.00    -0.405 C  
HETATM   20  C   UNL     1     -10.847  15.455  66.164  1.00  0.00    -0.313 C  
HETATM   21  N   UNL     1     -10.567  16.337  67.156  1.00  0.00    -0.310 NA 
HETATM   22  O   UNL     1     -10.440  15.545  65.014  1.00  0.00    -0.404 OA 
HETATM   23  C   UNL     1     -11.049  15.895  68.345  1.00  0.00    -0.345 C  
HETATM   24  O   UNL     1     -10.800  16.419  69.421  1.00  0.00    -0.294 OA 
ENDBRANCH  16  18
ENDBRANCH  15  16
ENDBRANCH  13  15
ENDBRANCH   7  10
TORSDOF 4
ENDMDL
MODEL       66
REMARK 921   NORMALIZED FREE ENERGY PREDICTED BY IDOCK:   -5.92 KCAL/MOL
REMARK 922        TOTAL FREE ENERGY PREDICTED BY IDOCK:   -7.86 KCAL/MOL
REMARK 923 INTER-LIGAND FREE ENERGY PREDICTED BY IDOCK:   -7.33 KCAL/MOL
REMARK 924 INTRA-LIGAND FREE ENERGY PREDICTED BY IDOCK:   -0.53 KCAL/MOL
REMARK 927      BINDING AFFINITY PREDICTED BY RF-SCORE:    0.00 PKD
ROOT
HETATM    1  O   UNL     1     -13.532  15.414  73.270  1.00  0.00    -0.472 OA 
HETATM    2  N   UNL     1     -13.454  14.451  72.498  1.00  0.00    -0.460 N  
HETATM    3  O   UNL     1     -13.976  13.345  72.696  1.00  0.00    -0.755 OA 
HETATM    4  C   UNL     1     -12.688  14.631  71.256  1.00  0.00    -0.332 A  
HETATM    5  C   UNL     1     -12.082  15.862  70.995  1.00  0.00    -0.438 A  
HETATM    6  C   UNL     1     -11.377  16.044  69.801  1.00  0.00    -0.331 A  
HETATM    7  C   UNL     1     -11.266  15.015  68.847  1.00  0.00    -0.288 A  
HETATM    8  C   UNL     1     -11.867  13.778  69.138  1.00  0.00    -0.398 A  
HETATM    9  C   UNL     1     -12.577  13.583  70.335  1.00  0.00    -0.267 A  
ENDROOT
BRANCH   7  10
HETATM   10  C   UNL     1     -10.557  15.273  67.590  1.00  0.00    -0.270 A  
HETATM   11  C   UNL     1     -10.722  14.809  66.298  1.00  0.00    -0.313 A  
HETATM   12  C   UNL     1      -9.696  15.387  65.515  1.00  0.00    -0.318 A  
HETATM   13  C   UNL     1      -8.954  16.182  66.363  1.00  0.00    -0.318 A  
HETATM   14  O   UNL     1      -9.479  16.118  67.629  1.00  0.00    -0.218 OA 
BRANCH  13  15
HETATM   15  C   UNL     1      -7.787  16.995  66.142  1.00  0.00    -0.260 C  
BRANCH  15  16
HETATM   16  N   UNL     1      -7.426  17.898  67.004  1.00  0.00    -0.194 NA 
HETATM   17  H   UNL     1      -7.413  17.698  68.005  1.00  0.00     0.000 HD 
BRANCH  16  18
HETATM   18  N   UNL     1      -7.064  19.129  66.519  1.00  0.00    -0.210 N  
HETATM   19  C   UNL     1      -6.648  19.281  65.141  1.00  0.00    -0.214 C  
HETATM   20  C   UNL     1      -6.039  20.669  65.190  1.00  0.00    -0.259 C  
HETATM   21  N   UNL     1      -6.164  21.173  66.443  1.00  0.00    -0.279 NA 
HETATM   22  O   UNL     1      -5.499  21.247  64.256  1.00  0.00    -0.215 OA 
HETATM   23  C   UNL     1      -6.686  20.246  67.286  1.00  0.00    -0.233 C  
HETATM   24  O   UNL     1      -6.756  20.386  68.498  1.00  0.00    -0.291 OA 
ENDBRANCH  16  18
ENDBRANCH  15  16
ENDBRANCH  13  15
ENDBRANCH   7  10
TORSDOF 4
ENDMDL
MODEL       67
REMARK 921   NORMALIZED FREE ENERGY PREDICTED BY IDOCK:   -5.91 KCAL/MOL
REMARK 922        TOTAL FREE ENERGY PREDICTED BY IDOCK:   -7.85 KCAL/MOL
REMARK 923 INTER-LIGAND FREE ENERGY PREDICTED BY IDOCK:   -7.22 KCAL/MOL
REMARK 924 INTRA-LIGAND FREE ENERGY PREDICTED BY IDOCK:   -0.62 KCAL/MOL
REMARK 927      BINDING AFFINITY PREDICTED BY RF-SCORE:    0.00 PKD
ROOT
HETATM    1  O   UNL     1     -12.878  15.883  71.814  1.00  0.00    -0.455 OA 
HETATM    2  N   UNL     1     -12.348  15.207  70.924  1.00  0.00    -0.323 N  
HETATM    3  O   UNL     1     -11.678  15.672  69.992  1.00  0.00    -0.308 OA 
HETATM    4  C   UNL     1     -12.525  13.749  70.976  1.00  0.00    -0.380 A  
HETATM    5  C   UNL     1     -13.275  13.185  72.011  1.00  0.00    -0.543 A  
HETATM    6  C   UNL     1     -13.420  11.796  72.078  1.00  0.00    -0.319 A  
HETATM    7  C   UNL     1     -12.823  10.945  71.129  1.00  0.00    -0.508 A  
HETATM    8  C   UNL     1     -12.087  11.534  70.086  1.00  0.00    -0.432 A  
HETATM    9  C   UNL     1     -11.935  12.929  70.007  1.00  0.00    -0.380 A  
ENDROOT
BRANCH   7  10
HETATM   10  C   UNL     1     -12.965   9.493  71.273  1.00  0.00    -0.328 A  
HETATM   11  C   UNL     1     -13.896   8.692  71.908  1.00  0.00    -0.481 A  
HETATM   12  C   UNL     1     -13.477   7.352  71.734  1.00  0.00    -0.383 A  
HETATM   13  C   UNL     1     -12.314   7.395  70.995  1.00  0.00    -0.268 A  
HETATM   14  O   UNL     1     -12.001   8.700  70.708  1.00  0.00    -0.240 OA 
BRANCH  13  15
HETATM   15  C   UNL     1     -11.433   6.358  70.528  1.00  0.00    -0.379 C  
BRANCH  15  16
HETATM   16  N   UNL     1     -10.612   5.760  71.339  1.00  0.00    -0.244 NA 
HETATM   17  H   UNL     1     -10.738   4.779  71.589  1.00  0.00     0.000 HD 
BRANCH  16  18
HETATM   18  N   UNL     1      -9.572   6.496  71.846  1.00  0.00    -0.152 N  
HETATM   19  C   UNL     1      -9.633   7.021  73.194  1.00  0.00    -0.166 C  
HETATM   20  C   UNL     1      -8.481   8.006  73.158  1.00  0.00    -0.208 C  
HETATM   21  N   UNL     1      -7.886   7.960  71.940  1.00  0.00    -0.097 NA 
HETATM   22  O   UNL     1      -8.144   8.747  74.071  1.00  0.00    -0.366 OA 
HETATM   23  C   UNL     1      -8.567   7.139  71.101  1.00  0.00    -0.129 C  
HETATM   24  O   UNL     1      -8.338   7.040  69.904  1.00  0.00    -0.135 OA 
ENDBRANCH  16  18
ENDBRANCH  15  16
ENDBRANCH  13  15
ENDBRANCH   7  10
TORSDOF 4
ENDMDL
MODEL       68
REMARK 921   NORMALIZED FREE ENERGY PREDICTED BY IDOCK:   -5.90 KCAL/MOL
REMARK 922        TOTAL FREE ENERGY PREDICTED BY IDOCK:   -7.84 KCAL/MOL
REMARK 923 INTER-LIGAND FREE ENERGY PREDICTED BY IDOCK:   -7.21 KCAL/MOL
REMARK 924 INTRA-LIGAND FREE ENERGY PREDICTED BY IDOCK:   -0.63 KCAL/MOL
REMARK 927      BINDING AFFINITY PREDICTED BY RF-SCORE:    0.00 PKD
ROOT
HETATM    1  O   UNL     1     -14.022  15.825  72.256  1.00  0.00    -0.495 OA 
HETATM    2  N   UNL     1     -13.272  15.415  71.362  1.00  0.00    -0.470 N  
HETATM    3  O   UNL     1     -12.716  16.136  70.523  1.00  0.00    -0.220 OA 
HETATM    4  C   UNL     1     -13.021  13.968  71.291  1.00  0.00    -0.347 A  
HETATM    5  C   UNL     1     -13.631  13.120  72.219  1.00  0.00    -0.677 A  
HETATM    6  C   UNL     1     -13.371  11.746  72.170  1.00  0.00    -0.334 A  
HETATM    7  C   UNL     1     -12.503  11.194  71.210  1.00  0.00    -0.466 A  
HETATM    8  C   UNL     1     -11.915  12.063  70.275  1.00  0.00    -0.398 A  
HETATM    9  C   UNL     1     -12.169  13.445  70.313  1.00  0.00    -0.405 A  
ENDROOT
BRANCH   7  10
HETATM   10  C   UNL     1     -12.227   9.754  71.233  1.00  0.00    -0.374 A  
HETATM   11  C   UNL     1     -12.449   8.762  72.169  1.00  0.00    -0.460 A  
HETATM   12  C   UNL     1     -11.922   7.562  71.637  1.00  0.00    -0.333 A  
HETATM   13  C   UNL     1     -11.407   7.874  70.397  1.00  0.00    -0.194 A  
HETATM   14  O   UNL     1     -11.595   9.211  70.145  1.00  0.00    -0.165 OA 
BRANCH  13  15
HETATM   15  C   UNL     1     -10.735   7.075  69.406  1.00  0.00    -0.238 C  
BRANCH  15  16
HETATM   16  N   UNL     1     -10.958   7.252  68.138  1.00  0.00    -0.465 NA 
HETATM   17  H   UNL     1     -11.782   6.856  67.686  1.00  0.00     0.000 HD 
BRANCH  16  18
HETATM   18  N   UNL     1     -10.043   7.991  67.431  1.00  0.00    -0.205 N  
HETATM   19  C   UNL     1     -10.415   9.269  66.862  1.00  0.00    -0.214 C  
HETATM   20  C   UNL     1      -9.244   9.505  65.928  1.00  0.00    -0.206 C  
HETATM   21  N   UNL     1      -8.365   8.478  66.039  1.00  0.00    -0.123 NA 
HETATM   22  O   UNL     1      -9.111  10.459  65.173  1.00  0.00    -0.174 OA 
HETATM   23  C   UNL     1      -8.853   7.511  66.856  1.00  0.00    -0.135 C  
HETATM   24  O   UNL     1      -8.335   6.414  67.003  1.00  0.00    -0.112 OA 
ENDBRANCH  16  18
ENDBRANCH  15  16
ENDBRANCH  13  15
ENDBRANCH   7  10
TORSDOF 4
ENDMDL
MODEL       69
REMARK 921   NORMALIZED FREE ENERGY PREDICTED BY IDOCK:   -5.87 KCAL/MOL
REMARK 922        TOTAL FREE ENERGY PREDICTED BY IDOCK:   -7.81 KCAL/MOL
REMARK 923 INTER-LIGAND FREE ENERGY PREDICTED BY IDOCK:   -7.52 KCAL/MOL
REMARK 924 INTRA-LIGAND FREE ENERGY PREDICTED BY IDOCK:   -0.29 KCAL/MOL
REMARK 927      BINDING AFFINITY PREDICTED BY RF-SCORE:    0.00 PKD
ROOT
HETATM    1  O   UNL     1     -11.425   6.425  71.773  1.00  0.00    -0.272 OA 
HETATM    2  N   UNL     1     -11.033   6.648  70.621  1.00  0.00    -0.262 N  
HETATM    3  O   UNL     1     -10.512   5.805  69.879  1.00  0.00    -0.235 OA 
HETATM    4  C   UNL     1     -11.196   8.011  70.096  1.00  0.00    -0.144 A  
HETATM    5  C   UNL     1     -11.777   8.993  70.902  1.00  0.00    -0.327 A  
HETATM    6  C   UNL     1     -11.959  10.283  70.393  1.00  0.00    -0.391 A  
HETATM    7  C   UNL     1     -11.576  10.619  69.082  1.00  0.00    -0.342 A  
HETATM    8  C   UNL     1     -10.976   9.621  68.293  1.00  0.00    -0.172 A  
HETATM    9  C   UNL     1     -10.787   8.322  68.793  1.00  0.00     0.019 A  
ENDROOT
BRANCH   7  10
HETATM   10  C   UNL     1     -11.832  11.972  68.581  1.00  0.00    -0.311 A  
HETATM   11  C   UNL     1     -11.957  13.203  69.198  1.00  0.00    -0.329 A  
HETATM   12  C   UNL     1     -12.249  14.148  68.188  1.00  0.00    -0.179 A  
HETATM   13  C   UNL     1     -12.283  13.454  66.997  1.00  0.00    -0.268 A  
HETATM   14  O   UNL     1     -12.025  12.126  67.232  1.00  0.00    -0.573 OA 
BRANCH  13  15
HETATM   15  C   UNL     1     -12.546  13.874  65.646  1.00  0.00    -0.517 C  
BRANCH  15  16
HETATM   16  N   UNL     1     -11.585  13.983  64.778  1.00  0.00    -0.363 NA 
HETATM   17  H   UNL     1     -11.615  13.482  63.890  1.00  0.00     0.000 HD 
BRANCH  16  18
HETATM   18  N   UNL     1     -10.527  14.796  65.101  1.00  0.00    -0.399 N  
HETATM   19  C   UNL     1      -9.486  14.325  65.989  1.00  0.00    -0.182 C  
HETATM   20  C   UNL     1      -8.783  15.632  66.305  1.00  0.00    -0.290 C  
HETATM   21  N   UNL     1      -9.383  16.642  65.626  1.00  0.00    -0.476 NA 
HETATM   22  O   UNL     1      -7.835  15.769  67.066  1.00  0.00    -0.195 OA 
HETATM   23  C   UNL     1     -10.485  16.196  64.972  1.00  0.00    -0.179 C  
HETATM   24  O   UNL     1     -11.293  16.925  64.416  1.00  0.00    -1.133 OA 
ENDBRANCH  16  18
ENDBRANCH  15  16
ENDBRANCH  13  15
ENDBRANCH   7  10
TORSDOF 4
ENDMDL
MODEL       70
REMARK 921   NORMALIZED FREE ENERGY PREDICTED BY IDOCK:   -5.87 KCAL/MOL
REMARK 922        TOTAL FREE ENERGY PREDICTED BY IDOCK:   -7.81 KCAL/MOL
REMARK 923 INTER-LIGAND FREE ENERGY PREDICTED BY IDOCK:   -7.20 KCAL/MOL
REMARK 924 INTRA-LIGAND FREE ENERGY PREDICTED BY IDOCK:   -0.61 KCAL/MOL
REMARK 927      BINDING AFFINITY PREDICTED BY RF-SCORE:    0.00 PKD
ROOT
HETATM    1  O   UNL     1     -13.138  15.880  72.174  1.00  0.00    -0.452 OA 
HETATM    2  N   UNL     1     -12.572  15.275  71.255  1.00  0.00    -0.348 N  
HETATM    3  O   UNL     1     -11.908  15.815  70.361  1.00  0.00    -0.332 OA 
HETATM    4  C   UNL     1     -12.697  13.811  71.222  1.00  0.00    -0.371 A  
HETATM    5  C   UNL     1     -13.439  13.162  72.212  1.00  0.00    -0.665 A  
HETATM    6  C   UNL     1     -13.535  11.767  72.198  1.00  0.00    -0.273 A  
HETATM    7  C   UNL     1     -12.895  10.994  71.211  1.00  0.00    -0.528 A  
HETATM    8  C   UNL     1     -12.168  11.668  70.214  1.00  0.00    -0.401 A  
HETATM    9  C   UNL     1     -12.065  13.069  70.217  1.00  0.00    -0.388 A  
ENDROOT
BRANCH   7  10
HETATM   10  C   UNL     1     -12.986   9.532  71.270  1.00  0.00    -0.328 A  
HETATM   11  C   UNL     1     -13.982   8.661  71.673  1.00  0.00    -0.459 A  
HETATM   12  C   UNL     1     -13.467   7.351  71.540  1.00  0.00    -0.445 A  
HETATM   13  C   UNL     1     -12.183   7.480  71.054  1.00  0.00    -0.259 A  
HETATM   14  O   UNL     1     -11.888   8.810  70.884  1.00  0.00    -0.282 OA 
BRANCH  13  15
HETATM   15  C   UNL     1     -11.172   6.506  70.739  1.00  0.00    -0.321 C  
BRANCH  15  16
HETATM   16  N   UNL     1     -10.008   6.537  71.315  1.00  0.00    -0.181 NA 
HETATM   17  H   UNL     1      -9.321   7.254  71.081  1.00  0.00     0.000 HD 
BRANCH  16  18
HETATM   18  N   UNL     1      -9.735   5.568  72.247  1.00  0.00    -0.155 N  
HETATM   19  C   UNL     1      -9.607   4.182  71.849  1.00  0.00    -0.152 C  
HETATM   20  C   UNL     1      -9.666   3.501  73.203  1.00  0.00    -0.117 C  
HETATM   21  N   UNL     1      -9.778   4.440  74.176  1.00  0.00    -0.119 NA 
HETATM   22  O   UNL     1      -9.638   2.294  73.399  1.00  0.00    -0.085 OA 
HETATM   23  C   UNL     1      -9.916   5.678  73.638  1.00  0.00    -0.184 C  
HETATM   24  O   UNL     1     -10.192   6.678  74.284  1.00  0.00    -0.349 OA 
ENDBRANCH  16  18
ENDBRANCH  15  16
ENDBRANCH  13  15
ENDBRANCH   7  10
TORSDOF 4
ENDMDL
MODEL       71
REMARK 921   NORMALIZED FREE ENERGY PREDICTED BY IDOCK:   -5.87 KCAL/MOL
REMARK 922        TOTAL FREE ENERGY PREDICTED BY IDOCK:   -7.80 KCAL/MOL
REMARK 923 INTER-LIGAND FREE ENERGY PREDICTED BY IDOCK:   -7.07 KCAL/MOL
REMARK 924 INTRA-LIGAND FREE ENERGY PREDICTED BY IDOCK:   -0.73 KCAL/MOL
REMARK 927      BINDING AFFINITY PREDICTED BY RF-SCORE:    0.00 PKD
ROOT
HETATM    1  O   UNL     1      -7.705   4.459  68.754  1.00  0.00    -0.066 OA 
HETATM    2  N   UNL     1      -8.791   4.310  69.328  1.00  0.00    -0.088 N  
HETATM    3  O   UNL     1      -9.284   3.214  69.627  1.00  0.00    -0.123 OA 
HETATM    4  C   UNL     1      -9.550   5.518  69.681  1.00  0.00    -0.158 A  
HETATM    5  C   UNL     1      -9.029   6.774  69.359  1.00  0.00    -0.137 A  
HETATM    6  C   UNL     1      -9.736   7.926  69.720  1.00  0.00    -0.176 A  
HETATM    7  C   UNL     1     -10.962   7.853  70.407  1.00  0.00    -0.251 A  
HETATM    8  C   UNL     1     -11.477   6.580  70.704  1.00  0.00    -0.433 A  
HETATM    9  C   UNL     1     -10.777   5.415  70.347  1.00  0.00    -0.276 A  
ENDROOT
BRANCH   7  10
HETATM   10  C   UNL     1     -11.639   9.091  70.804  1.00  0.00    -0.265 A  
HETATM   11  C   UNL     1     -12.571   9.389  71.781  1.00  0.00    -0.470 A  
HETATM   12  C   UNL     1     -12.885  10.762  71.652  1.00  0.00    -0.562 A  
HETATM   13  C   UNL     1     -12.125  11.242  70.606  1.00  0.00    -0.383 A  
HETATM   14  O   UNL     1     -11.360  10.227  70.090  1.00  0.00    -0.270 OA 
BRANCH  13  15
HETATM   15  C   UNL     1     -12.031  12.547  70.007  1.00  0.00    -0.299 C  
BRANCH  15  16
HETATM   16  N   UNL     1     -11.055  12.848  69.204  1.00  0.00    -0.385 NA 
HETATM   17  H   UNL     1     -10.109  13.000  69.556  1.00  0.00     0.000 HD 
BRANCH  16  18
HETATM   18  N   UNL     1     -11.342  12.954  67.867  1.00  0.00    -0.274 N  
HETATM   19  C   UNL     1     -12.212  14.006  67.385  1.00  0.00    -0.254 C  
HETATM   20  C   UNL     1     -12.494  13.507  65.980  1.00  0.00    -0.399 C  
HETATM   21  N   UNL     1     -11.816  12.352  65.768  1.00  0.00    -0.478 NA 
HETATM   22  O   UNL     1     -13.231  14.044  65.165  1.00  0.00    -0.768 OA 
HETATM   23  C   UNL     1     -11.193  11.942  66.901  1.00  0.00    -0.325 C  
HETATM   24  O   UNL     1     -10.646  10.856  67.027  1.00  0.00    -0.232 OA 
ENDBRANCH  16  18
ENDBRANCH  15  16
ENDBRANCH  13  15
ENDBRANCH   7  10
TORSDOF 4
ENDMDL
MODEL       72
REMARK 921   NORMALIZED FREE ENERGY PREDICTED BY IDOCK:   -5.86 KCAL/MOL
REMARK 922        TOTAL FREE ENERGY PREDICTED BY IDOCK:   -7.78 KCAL/MOL
REMARK 923 INTER-LIGAND FREE ENERGY PREDICTED BY IDOCK:   -7.28 KCAL/MOL
REMARK 924 INTRA-LIGAND FREE ENERGY PREDICTED BY IDOCK:   -0.50 KCAL/MOL
REMARK 927      BINDING AFFINITY PREDICTED BY RF-SCORE:    0.00 PKD
ROOT
HETATM    1  O   UNL     1     -12.595   8.717  72.805  1.00  0.00    -0.316 OA 
HETATM    2  N   UNL     1     -11.759   8.696  71.892  1.00  0.00    -0.326 N  
HETATM    3  O   UNL     1     -11.020   7.737  71.637  1.00  0.00    -0.230 OA 
HETATM    4  C   UNL     1     -11.637   9.895  71.050  1.00  0.00    -0.389 A  
HETATM    5  C   UNL     1     -12.452  11.000  71.306  1.00  0.00    -0.475 A  
HETATM    6  C   UNL     1     -12.356  12.131  70.489  1.00  0.00    -0.358 A  
HETATM    7  C   UNL     1     -11.460  12.183  69.405  1.00  0.00    -0.355 A  
HETATM    8  C   UNL     1     -10.636  11.067  69.176  1.00  0.00    -0.253 A  
HETATM    9  C   UNL     1     -10.722   9.926  69.991  1.00  0.00    -0.338 A  
ENDROOT
BRANCH   7  10
HETATM   10  C   UNL     1     -11.433  13.373  68.549  1.00  0.00    -0.310 A  
HETATM   11  C   UNL     1     -11.546  13.560  67.184  1.00  0.00    -0.393 A  
HETATM   12  C   UNL     1     -11.398  14.945  66.940  1.00  0.00    -0.338 A  
HETATM   13  C   UNL     1     -11.207  15.543  68.169  1.00  0.00    -0.343 A  
HETATM   14  O   UNL     1     -11.232  14.586  69.153  1.00  0.00    -0.245 OA 
BRANCH  13  15
HETATM   15  C   UNL     1     -10.984  16.913  68.547  1.00  0.00    -0.290 C  
BRANCH  15  16
HETATM   16  N   UNL     1     -10.195  17.679  67.855  1.00  0.00    -0.339 NA 
HETATM   17  H   UNL     1     -10.447  17.989  66.917  1.00  0.00     0.000 HD 
BRANCH  16  18
HETATM   18  N   UNL     1      -9.009  18.055  68.434  1.00  0.00    -0.275 N  
HETATM   19  C   UNL     1      -8.647  19.454  68.523  1.00  0.00    -0.364 C  
HETATM   20  C   UNL     1      -7.180  19.335  68.888  1.00  0.00    -0.358 C  
HETATM   21  N   UNL     1      -6.848  18.025  69.002  1.00  0.00    -0.253 NA 
HETATM   22  O   UNL     1      -6.402  20.268  69.038  1.00  0.00    -0.315 OA 
HETATM   23  C   UNL     1      -7.890  17.231  68.647  1.00  0.00    -0.272 C  
HETATM   24  O   UNL     1      -7.810  16.019  68.509  1.00  0.00    -0.146 OA 
ENDBRANCH  16  18
ENDBRANCH  15  16
ENDBRANCH  13  15
ENDBRANCH   7  10
TORSDOF 4
ENDMDL
MODEL       73
REMARK 921   NORMALIZED FREE ENERGY PREDICTED BY IDOCK:   -5.85 KCAL/MOL
REMARK 922        TOTAL FREE ENERGY PREDICTED BY IDOCK:   -7.78 KCAL/MOL
REMARK 923 INTER-LIGAND FREE ENERGY PREDICTED BY IDOCK:   -7.17 KCAL/MOL
REMARK 924 INTRA-LIGAND FREE ENERGY PREDICTED BY IDOCK:   -0.61 KCAL/MOL
REMARK 927      BINDING AFFINITY PREDICTED BY RF-SCORE:    0.00 PKD
ROOT
HETATM    1  O   UNL     1      -7.494   6.949  66.054  1.00  0.00    -0.077 OA 
HETATM    2  N   UNL     1      -7.479   7.452  64.924  1.00  0.00    -0.080 N  
HETATM    3  O   UNL     1      -6.803   7.032  63.975  1.00  0.00    -0.048 OA 
HETATM    4  C   UNL     1      -8.323   8.632  64.690  1.00  0.00    -0.155 A  
HETATM    5  C   UNL     1      -9.099   9.139  65.734  1.00  0.00    -0.265 A  
HETATM    6  C   UNL     1      -9.925  10.245  65.505  1.00  0.00    -0.364 A  
HETATM    7  C   UNL     1      -9.999  10.860  64.242  1.00  0.00    -0.392 A  
HETATM    8  C   UNL     1      -9.195  10.346  63.210  1.00  0.00    -0.312 A  
HETATM    9  C   UNL     1      -8.361   9.236  63.428  1.00  0.00    -0.193 A  
ENDROOT
BRANCH   7  10
HETATM   10  C   UNL     1     -10.916  11.986  64.042  1.00  0.00    -0.381 A  
HETATM   11  C   UNL     1     -12.122  12.119  63.379  1.00  0.00    -0.608 A  
HETATM   12  C   UNL     1     -12.516  13.472  63.498  1.00  0.00    -0.234 A  
HETATM   13  C   UNL     1     -11.535  14.104  64.234  1.00  0.00    -0.272 A  
HETATM   14  O   UNL     1     -10.559  13.199  64.571  1.00  0.00    -0.363 OA 
BRANCH  13  15
HETATM   15  C   UNL     1     -11.381  15.471  64.656  1.00  0.00    -0.357 C  
BRANCH  15  16
HETATM   16  N   UNL     1     -10.240  15.913  65.093  1.00  0.00    -0.495 NA 
HETATM   17  H   UNL     1      -9.386  15.802  64.548  1.00  0.00     0.000 HD 
BRANCH  16  18
HETATM   18  N   UNL     1     -10.228  16.536  66.316  1.00  0.00    -0.319 N  
HETATM   19  C   UNL     1     -10.489  15.783  67.524  1.00  0.00    -0.288 C  
HETATM   20  C   UNL     1     -10.710  16.914  68.510  1.00  0.00    -0.359 C  
HETATM   21  N   UNL     1     -10.547  18.102  67.877  1.00  0.00    -0.396 NA 
HETATM   22  O   UNL     1     -11.009  16.787  69.689  1.00  0.00    -0.287 OA 
HETATM   23  C   UNL     1     -10.351  17.918  66.547  1.00  0.00    -0.362 C  
HETATM   24  O   UNL     1     -10.334  18.822  65.725  1.00  0.00    -0.562 OA 
ENDBRANCH  16  18
ENDBRANCH  15  16
ENDBRANCH  13  15
ENDBRANCH   7  10
TORSDOF 4
ENDMDL
MODEL       74
REMARK 921   NORMALIZED FREE ENERGY PREDICTED BY IDOCK:   -5.83 KCAL/MOL
REMARK 922        TOTAL FREE ENERGY PREDICTED BY IDOCK:   -7.75 KCAL/MOL
REMARK 923 INTER-LIGAND FREE ENERGY PREDICTED BY IDOCK:   -7.36 KCAL/MOL
REMARK 924 INTRA-LIGAND FREE ENERGY PREDICTED BY IDOCK:   -0.38 KCAL/MOL
REMARK 927      BINDING AFFINITY PREDICTED BY RF-SCORE:    0.00 PKD
ROOT
HETATM    1  O   UNL     1      -7.161   7.707  63.601  1.00  0.00    -0.064 OA 
HETATM    2  N   UNL     1      -7.590   7.861  64.751  1.00  0.00    -0.102 N  
HETATM    3  O   UNL     1      -7.276   7.157  65.720  1.00  0.00    -0.070 OA 
HETATM    4  C   UNL     1      -8.538   8.960  64.984  1.00  0.00    -0.176 A  
HETATM    5  C   UNL     1      -8.919   9.777  63.917  1.00  0.00    -0.277 A  
HETATM    6  C   UNL     1      -9.799  10.840  64.143  1.00  0.00    -0.384 A  
HETATM    7  C   UNL     1     -10.310  11.113  65.425  1.00  0.00    -0.331 A  
HETATM    8  C   UNL     1      -9.929  10.268  66.482  1.00  0.00    -0.280 A  
HETATM    9  C   UNL     1      -9.046   9.196  66.267  1.00  0.00    -0.222 A  
ENDROOT
BRANCH   7  10
HETATM   10  C   UNL     1     -11.191  12.269  65.618  1.00  0.00    -0.333 A  
HETATM   11  C   UNL     1     -12.424  12.617  65.097  1.00  0.00    -0.531 A  
HETATM   12  C   UNL     1     -12.758  13.884  65.628  1.00  0.00    -0.534 A  
HETATM   13  C   UNL     1     -11.717  14.250  66.455  1.00  0.00    -0.394 A  
HETATM   14  O   UNL     1     -10.761  13.265  66.455  1.00  0.00    -0.282 OA 
BRANCH  13  15
HETATM   15  C   UNL     1     -11.487  15.430  67.247  1.00  0.00    -0.165 C  
BRANCH  15  16
HETATM   16  N   UNL     1     -10.293  15.922  67.387  1.00  0.00    -0.282 NA 
HETATM   17  H   UNL     1      -9.510  15.336  67.674  1.00  0.00     0.000 HD 
BRANCH  16  18
HETATM   18  N   UNL     1     -10.125  17.261  67.134  1.00  0.00    -0.289 N  
HETATM   19  C   UNL     1      -9.872  18.186  68.218  1.00  0.00    -0.351 C  
HETATM   20  C   UNL     1     -10.110  19.507  67.513  1.00  0.00    -0.406 C  
HETATM   21  N   UNL     1     -10.415  19.275  66.212  1.00  0.00    -0.459 NA 
HETATM   22  O   UNL     1     -10.057  20.614  68.030  1.00  0.00    -0.252 OA 
HETATM   23  C   UNL     1     -10.526  17.944  65.972  1.00  0.00    -0.293 C  
HETATM   24  O   UNL     1     -10.944  17.469  64.926  1.00  0.00    -0.887 OA 
ENDBRANCH  16  18
ENDBRANCH  15  16
ENDBRANCH  13  15
ENDBRANCH   7  10
TORSDOF 4
ENDMDL
MODEL       75
REMARK 921   NORMALIZED FREE ENERGY PREDICTED BY IDOCK:   -5.83 KCAL/MOL
REMARK 922        TOTAL FREE ENERGY PREDICTED BY IDOCK:   -7.75 KCAL/MOL
REMARK 923 INTER-LIGAND FREE ENERGY PREDICTED BY IDOCK:   -7.15 KCAL/MOL
REMARK 924 INTRA-LIGAND FREE ENERGY PREDICTED BY IDOCK:   -0.59 KCAL/MOL
REMARK 927      BINDING AFFINITY PREDICTED BY RF-SCORE:    0.00 PKD
ROOT
HETATM    1  O   UNL     1     -10.736  17.433  65.023  1.00  0.00    -0.688 OA 
HETATM    2  N   UNL     1     -11.381  16.412  64.752  1.00  0.00    -0.264 N  
HETATM    3  O   UNL     1     -12.025  16.242  63.708  1.00  0.00    -0.973 OA 
HETATM    4  C   UNL     1     -11.383  15.323  65.739  1.00  0.00    -0.180 A  
HETATM    5  C   UNL     1     -10.670  15.475  66.931  1.00  0.00    -0.317 A  
HETATM    6  C   UNL     1     -10.647  14.428  67.859  1.00  0.00    -0.240 A  
HETATM    7  C   UNL     1     -11.322  13.217  67.619  1.00  0.00    -0.335 A  
HETATM    8  C   UNL     1     -12.049  13.091  66.422  1.00  0.00    -0.428 A  
HETATM    9  C   UNL     1     -12.080  14.136  65.483  1.00  0.00    -0.421 A  
ENDROOT
BRANCH   7  10
HETATM   10  C   UNL     1     -11.227  12.133  68.602  1.00  0.00    -0.269 A  
HETATM   11  C   UNL     1     -12.021  11.747  69.666  1.00  0.00    -0.378 A  
HETATM   12  C   UNL     1     -11.387  10.642  70.279  1.00  0.00    -0.401 A  
HETATM   13  C   UNL     1     -10.237  10.397  69.557  1.00  0.00    -0.231 A  
HETATM   14  O   UNL     1     -10.139  11.303  68.530  1.00  0.00    -0.190 OA 
BRANCH  13  15
HETATM   15  C   UNL     1      -9.192   9.421  69.715  1.00  0.00    -0.196 C  
BRANCH  15  16
HETATM   16  N   UNL     1      -9.460   8.209  70.101  1.00  0.00    -0.166 NA 
HETATM   17  H   UNL     1      -9.510   7.968  71.090  1.00  0.00     0.000 HD 
BRANCH  16  18
HETATM   18  N   UNL     1      -9.672   7.266  69.127  1.00  0.00    -0.159 N  
HETATM   19  C   UNL     1      -8.943   7.325  67.878  1.00  0.00    -0.130 C  
HETATM   20  C   UNL     1      -9.746   6.344  67.045  1.00  0.00    -0.149 C  
HETATM   21  N   UNL     1     -10.746   5.825  67.799  1.00  0.00    -0.246 NA 
HETATM   22  O   UNL     1      -9.544   6.070  65.870  1.00  0.00    -0.061 OA 
HETATM   23  C   UNL     1     -10.791   6.421  69.018  1.00  0.00    -0.327 C  
HETATM   24  O   UNL     1     -11.690   6.253  69.829  1.00  0.00    -0.403 OA 
ENDBRANCH  16  18
ENDBRANCH  15  16
ENDBRANCH  13  15
ENDBRANCH   7  10
TORSDOF 4
ENDMDL
MODEL       76
REMARK 921   NORMALIZED FREE ENERGY PREDICTED BY IDOCK:   -5.81 KCAL/MOL
REMARK 922        TOTAL FREE ENERGY PREDICTED BY IDOCK:   -7.72 KCAL/MOL
REMARK 923 INTER-LIGAND FREE ENERGY PREDICTED BY IDOCK:   -7.24 KCAL/MOL
REMARK 924 INTRA-LIGAND FREE ENERGY PREDICTED BY IDOCK:   -0.48 KCAL/MOL
REMARK 927      BINDING AFFINITY PREDICTED BY RF-SCORE:    0.00 PKD
ROOT
HETATM    1  O   UNL     1      -9.588   6.660  66.873  1.00  0.00    -0.146 OA 
HETATM    2  N   UNL     1     -10.186   7.430  67.635  1.00  0.00    -0.184 N  
HETATM    3  O   UNL     1     -10.659   7.108  68.732  1.00  0.00    -0.205 OA 
HETATM    4  C   UNL     1     -10.345   8.827  67.207  1.00  0.00    -0.290 A  
HETATM    5  C   UNL     1      -9.827   9.231  65.974  1.00  0.00    -0.363 A  
HETATM    6  C   UNL     1      -9.952  10.567  65.578  1.00  0.00    -0.342 A  
HETATM    7  C   UNL     1     -10.586  11.521  66.396  1.00  0.00    -0.304 A  
HETATM    8  C   UNL     1     -11.117  11.090  67.624  1.00  0.00    -0.363 A  
HETATM    9  C   UNL     1     -10.997   9.750  68.032  1.00  0.00    -0.236 A  
ENDROOT
BRANCH   7  10
HETATM   10  C   UNL     1     -10.648  12.918  65.956  1.00  0.00    -0.270 A  
HETATM   11  C   UNL     1     -11.516  13.614  65.134  1.00  0.00    -0.328 A  
HETATM   12  C   UNL     1     -11.034  14.941  65.050  1.00  0.00    -0.432 A  
HETATM   13  C   UNL     1      -9.898  14.998  65.829  1.00  0.00    -0.353 A  
HETATM   14  O   UNL     1      -9.662  13.766  66.387  1.00  0.00    -0.282 OA 
BRANCH  13  15
HETATM   15  C   UNL     1      -8.979  16.068  66.112  1.00  0.00    -0.345 C  
BRANCH  15  16
HETATM   16  N   UNL     1      -9.278  17.301  65.829  1.00  0.00    -0.508 NA 
HETATM   17  H   UNL     1      -9.749  17.545  64.958  1.00  0.00     0.000 HD 
BRANCH  16  18
HETATM   18  N   UNL     1      -8.937  18.263  66.747  1.00  0.00    -0.276 N  
HETATM   19  C   UNL     1      -7.688  18.173  67.473  1.00  0.00    -0.218 C  
HETATM   20  C   UNL     1      -7.927  19.205  68.559  1.00  0.00    -0.351 C  
HETATM   21  N   UNL     1      -9.145  19.773  68.380  1.00  0.00    -0.311 NA 
HETATM   22  O   UNL     1      -7.157  19.476  69.470  1.00  0.00    -0.323 OA 
HETATM   23  C   UNL     1      -9.815  19.171  67.365  1.00  0.00    -0.329 C  
HETATM   24  O   UNL     1     -10.989  19.383  67.099  1.00  0.00    -0.483 OA 
ENDBRANCH  16  18
ENDBRANCH  15  16
ENDBRANCH  13  15
ENDBRANCH   7  10
TORSDOF 4
ENDMDL
MODEL       77
REMARK 921   NORMALIZED FREE ENERGY PREDICTED BY IDOCK:   -5.78 KCAL/MOL
REMARK 922        TOTAL FREE ENERGY PREDICTED BY IDOCK:   -7.69 KCAL/MOL
REMARK 923 INTER-LIGAND FREE ENERGY PREDICTED BY IDOCK:   -7.20 KCAL/MOL
REMARK 924 INTRA-LIGAND FREE ENERGY PREDICTED BY IDOCK:   -0.50 KCAL/MOL
REMARK 927      BINDING AFFINITY PREDICTED BY RF-SCORE:    0.00 PKD
ROOT
HETATM    1  O   UNL     1     -12.529  13.635  63.209  1.00  0.00    -0.801 OA 
HETATM    2  N   UNL     1     -12.505  13.478  64.436  1.00  0.00    -0.311 N  
HETATM    3  O   UNL     1     -13.139  14.165  65.247  1.00  0.00    -0.763 OA 
HETATM    4  C   UNL     1     -11.662  12.398  64.969  1.00  0.00    -0.371 A  
HETATM    5  C   UNL     1     -10.928  11.600  64.088  1.00  0.00    -0.442 A  
HETATM    6  C   UNL     1     -10.149  10.554  64.592  1.00  0.00    -0.408 A  
HETATM    7  C   UNL     1     -10.088  10.278  65.970  1.00  0.00    -0.311 A  
HETATM    8  C   UNL     1     -10.819  11.104  66.841  1.00  0.00    -0.333 A  
HETATM    9  C   UNL     1     -11.606  12.159  66.347  1.00  0.00    -0.429 A  
ENDROOT
BRANCH   7  10
HETATM   10  C   UNL     1      -9.295   9.140  66.442  1.00  0.00    -0.204 A  
HETATM   11  C   UNL     1      -8.416   8.274  65.818  1.00  0.00    -0.164 A  
HETATM   12  C   UNL     1      -7.988   7.341  66.791  1.00  0.00    -0.118 A  
HETATM   13  C   UNL     1      -8.620   7.684  67.969  1.00  0.00    -0.123 A  
HETATM   14  O   UNL     1      -9.414   8.784  67.760  1.00  0.00    -0.139 OA 
BRANCH  13  15
HETATM   15  C   UNL     1      -8.589   7.097  69.282  1.00  0.00    -0.137 C  
BRANCH  15  16
HETATM   16  N   UNL     1      -9.044   7.740  70.315  1.00  0.00    -0.152 NA 
HETATM   17  H   UNL     1      -8.421   8.275  70.921  1.00  0.00     0.000 HD 
BRANCH  16  18
HETATM   18  N   UNL     1     -10.392   7.672  70.562  1.00  0.00    -0.209 N  
HETATM   19  C   UNL     1     -11.155   8.877  70.804  1.00  0.00    -0.261 C  
HETATM   20  C   UNL     1     -12.439   8.284  71.351  1.00  0.00    -0.292 C  
HETATM   21  N   UNL     1     -12.346   6.931  71.353  1.00  0.00    -0.367 NA 
HETATM   22  O   UNL     1     -13.407   8.917  71.750  1.00  0.00    -0.344 OA 
HETATM   23  C   UNL     1     -11.104   6.532  70.977  1.00  0.00    -0.288 C  
HETATM   24  O   UNL     1     -10.706   5.379  71.045  1.00  0.00    -0.233 OA 
ENDBRANCH  16  18
ENDBRANCH  15  16
ENDBRANCH  13  15
ENDBRANCH   7  10
TORSDOF 4
ENDMDL
MODEL       78
REMARK 921   NORMALIZED FREE ENERGY PREDICTED BY IDOCK:   -5.78 KCAL/MOL
REMARK 922        TOTAL FREE ENERGY PREDICTED BY IDOCK:   -7.69 KCAL/MOL
REMARK 923 INTER-LIGAND FREE ENERGY PREDICTED BY IDOCK:   -7.02 KCAL/MOL
REMARK 924 INTRA-LIGAND FREE ENERGY PREDICTED BY IDOCK:   -0.67 KCAL/MOL
REMARK 927      BINDING AFFINITY PREDICTED BY RF-SCORE:    0.00 PKD
ROOT
HETATM    1  O   UNL     1     -12.023  15.895  63.610  1.00  0.00    -0.652 OA 
HETATM    2  N   UNL     1     -11.323  16.004  64.625  1.00  0.00    -0.391 N  
HETATM    3  O   UNL     1     -10.647  17.001  64.909  1.00  0.00    -0.673 OA 
HETATM    4  C   UNL     1     -11.294  14.871  65.560  1.00  0.00    -0.339 A  
HETATM    5  C   UNL     1     -12.042  13.726  65.275  1.00  0.00    -0.425 A  
HETATM    6  C   UNL     1     -12.038  12.658  66.178  1.00  0.00    -0.399 A  
HETATM    7  C   UNL     1     -11.300  12.708  67.375  1.00  0.00    -0.367 A  
HETATM    8  C   UNL     1     -10.539  13.861  67.634  1.00  0.00    -0.247 A  
HETATM    9  C   UNL     1     -10.535  14.941  66.734  1.00  0.00    -0.284 A  
ENDROOT
BRANCH   7  10
HETATM   10  C   UNL     1     -11.368  11.581  68.310  1.00  0.00    -0.286 A  
HETATM   11  C   UNL     1     -11.967  11.409  69.544  1.00  0.00    -0.409 A  
HETATM   12  C   UNL     1     -11.645  10.104  69.985  1.00  0.00    -0.323 A  
HETATM   13  C   UNL     1     -10.869   9.536  68.997  1.00  0.00    -0.160 A  
HETATM   14  O   UNL     1     -10.701  10.432  67.972  1.00  0.00    -0.210 OA 
BRANCH  13  15
HETATM   15  C   UNL     1     -10.239   8.246  68.894  1.00  0.00    -0.210 C  
BRANCH  15  16
HETATM   16  N   UNL     1      -8.996   8.077  69.235  1.00  0.00    -0.148 NA 
HETATM   17  H   UNL     1      -8.260   8.009  68.533  1.00  0.00     0.000 HD 
BRANCH  16  18
HETATM   18  N   UNL     1      -8.713   7.994  70.575  1.00  0.00    -0.134 N  
HETATM   19  C   UNL     1      -9.465   7.100  71.430  1.00  0.00    -0.161 C  
HETATM   20  C   UNL     1      -9.046   7.610  72.796  1.00  0.00    -0.165 C  
HETATM   21  N   UNL     1      -8.158   8.624  72.646  1.00  0.00    -0.394 NA 
HETATM   22  O   UNL     1      -9.454   7.192  73.871  1.00  0.00    -0.213 OA 
HETATM   23  C   UNL     1      -8.007   8.943  71.336  1.00  0.00    -0.102 C  
HETATM   24  O   UNL     1      -7.389   9.920  70.937  1.00  0.00    -0.328 OA 
ENDBRANCH  16  18
ENDBRANCH  15  16
ENDBRANCH  13  15
ENDBRANCH   7  10
TORSDOF 4
ENDMDL
MODEL       79
REMARK 921   NORMALIZED FREE ENERGY PREDICTED BY IDOCK:   -5.77 KCAL/MOL
REMARK 922        TOTAL FREE ENERGY PREDICTED BY IDOCK:   -7.67 KCAL/MOL
REMARK 923 INTER-LIGAND FREE ENERGY PREDICTED BY IDOCK:   -7.14 KCAL/MOL
REMARK 924 INTRA-LIGAND FREE ENERGY PREDICTED BY IDOCK:   -0.53 KCAL/MOL
REMARK 927      BINDING AFFINITY PREDICTED BY RF-SCORE:    0.00 PKD
ROOT
HETATM    1  O   UNL     1      -8.824   5.655  68.661  1.00  0.00    -0.109 OA 
HETATM    2  N   UNL     1      -9.721   5.592  69.511  1.00  0.00    -0.149 N  
HETATM    3  O   UNL     1     -10.085   4.551  70.074  1.00  0.00    -0.227 OA 
HETATM    4  C   UNL     1     -10.402   6.841  69.878  1.00  0.00    -0.203 A  
HETATM    5  C   UNL     1     -10.023   8.037  69.265  1.00  0.00    -0.191 A  
HETATM    6  C   UNL     1     -10.651   9.231  69.634  1.00  0.00    -0.241 A  
HETATM    7  C   UNL     1     -11.657   9.260  70.617  1.00  0.00    -0.305 A  
HETATM    8  C   UNL     1     -12.037   8.043  71.209  1.00  0.00    -0.314 A  
HETATM    9  C   UNL     1     -11.414   6.837  70.846  1.00  0.00    -0.384 A  
ENDROOT
BRANCH   7  10
HETATM   10  C   UNL     1     -12.250  10.544  71.003  1.00  0.00    -0.400 A  
HETATM   11  C   UNL     1     -13.168  10.912  71.969  1.00  0.00    -0.456 A  
HETATM   12  C   UNL     1     -13.384  12.302  71.831  1.00  0.00    -0.431 A  
HETATM   13  C   UNL     1     -12.584  12.723  70.790  1.00  0.00    -0.225 A  
HETATM   14  O   UNL     1     -11.887  11.654  70.285  1.00  0.00    -0.340 OA 
BRANCH  13  15
HETATM   15  C   UNL     1     -12.395  14.015  70.185  1.00  0.00    -0.345 C  
BRANCH  15  16
HETATM   16  N   UNL     1     -12.361  14.152  68.893  1.00  0.00    -0.546 NA 
HETATM   17  H   UNL     1     -12.932  13.565  68.284  1.00  0.00     0.000 HD 
BRANCH  16  18
HETATM   18  N   UNL     1     -11.530  15.115  68.379  1.00  0.00    -0.319 N  
HETATM   19  C   UNL     1     -11.152  16.261  69.178  1.00  0.00    -0.322 C  
HETATM   20  C   UNL     1     -10.560  17.159  68.108  1.00  0.00    -0.380 C  
HETATM   21  N   UNL     1     -10.605  16.523  66.911  1.00  0.00    -0.279 NA 
HETATM   22  O   UNL     1     -10.126  18.289  68.283  1.00  0.00    -0.347 OA 
HETATM   23  C   UNL     1     -11.261  15.340  67.016  1.00  0.00    -0.275 C  
HETATM   24  O   UNL     1     -11.579  14.646  66.062  1.00  0.00    -0.356 OA 
ENDBRANCH  16  18
ENDBRANCH  15  16
ENDBRANCH  13  15
ENDBRANCH   7  10
TORSDOF 4
ENDMDL
MODEL       80
REMARK 921   NORMALIZED FREE ENERGY PREDICTED BY IDOCK:   -5.77 KCAL/MOL
REMARK 922        TOTAL FREE ENERGY PREDICTED BY IDOCK:   -7.67 KCAL/MOL
REMARK 923 INTER-LIGAND FREE ENERGY PREDICTED BY IDOCK:   -7.08 KCAL/MOL
REMARK 924 INTRA-LIGAND FREE ENERGY PREDICTED BY IDOCK:   -0.60 KCAL/MOL
REMARK 927      BINDING AFFINITY PREDICTED BY RF-SCORE:    0.00 PKD
ROOT
HETATM    1  O   UNL     1     -10.821   7.176  73.558  1.00  0.00    -0.361 OA 
HETATM    2  N   UNL     1     -11.165   6.416  72.644  1.00  0.00    -0.262 N  
HETATM    3  O   UNL     1     -11.900   5.430  72.788  1.00  0.00    -0.268 OA 
HETATM    4  C   UNL     1     -10.668   6.705  71.292  1.00  0.00    -0.231 A  
HETATM    5  C   UNL     1      -9.834   7.807  71.087  1.00  0.00    -0.187 A  
HETATM    6  C   UNL     1      -9.383   8.100  69.796  1.00  0.00    -0.159 A  
HETATM    7  C   UNL     1      -9.753   7.311  68.690  1.00  0.00    -0.146 A  
HETATM    8  C   UNL     1     -10.577   6.196  68.921  1.00  0.00    -0.335 A  
HETATM    9  C   UNL     1     -11.036   5.891  70.214  1.00  0.00    -0.390 A  
ENDROOT
BRANCH   7  10
HETATM   10  C   UNL     1      -9.292   7.689  67.351  1.00  0.00    -0.141 A  
HETATM   11  C   UNL     1      -8.630   7.003  66.349  1.00  0.00    -0.136 A  
HETATM   12  C   UNL     1      -8.417   7.916  65.290  1.00  0.00    -0.119 A  
HETATM   13  C   UNL     1      -8.964   9.118  65.691  1.00  0.00    -0.203 A  
HETATM   14  O   UNL     1      -9.503   8.981  66.946  1.00  0.00    -0.148 OA 
BRANCH  13  15
HETATM   15  C   UNL     1      -9.035  10.403  65.048  1.00  0.00    -0.195 C  
BRANCH  15  16
HETATM   16  N   UNL     1      -9.570  11.424  65.647  1.00  0.00    -0.226 NA 
HETATM   17  H   UNL     1      -9.138  11.839  66.473  1.00  0.00     0.000 HD 
BRANCH  16  18
HETATM   18  N   UNL     1     -10.739  11.923  65.129  1.00  0.00    -0.282 N  
HETATM   19  C   UNL     1     -10.754  12.550  63.825  1.00  0.00    -0.445 C  
HETATM   20  C   UNL     1     -12.114  13.220  63.858  1.00  0.00    -0.468 C  
HETATM   21  N   UNL     1     -12.729  12.934  65.032  1.00  0.00    -0.724 NA 
HETATM   22  O   UNL     1     -12.586  13.925  62.977  1.00  0.00    -0.694 OA 
HETATM   23  C   UNL     1     -11.901  12.241  65.855  1.00  0.00    -0.354 C  
HETATM   24  O   UNL     1     -12.148  11.995  67.026  1.00  0.00    -0.603 OA 
ENDBRANCH  16  18
ENDBRANCH  15  16
ENDBRANCH  13  15
ENDBRANCH   7  10
TORSDOF 4
ENDMDL
MODEL       81
REMARK 921   NORMALIZED FREE ENERGY PREDICTED BY IDOCK:   -5.72 KCAL/MOL
REMARK 922        TOTAL FREE ENERGY PREDICTED BY IDOCK:   -7.62 KCAL/MOL
REMARK 923 INTER-LIGAND FREE ENERGY PREDICTED BY IDOCK:   -7.00 KCAL/MOL
REMARK 924 INTRA-LIGAND FREE ENERGY PREDICTED BY IDOCK:   -0.62 KCAL/MOL
REMARK 927      BINDING AFFINITY PREDICTED BY RF-SCORE:    0.00 PKD
ROOT
HETATM    1  O   UNL     1     -13.248  15.815  72.887  1.00  0.00    -0.463 OA 
HETATM    2  N   UNL     1     -13.149  14.674  72.417  1.00  0.00    -0.357 N  
HETATM    3  O   UNL     1     -13.467  13.637  73.014  1.00  0.00    -0.573 OA 
HETATM    4  C   UNL     1     -12.617  14.541  71.054  1.00  0.00    -0.340 A  
HETATM    5  C   UNL     1     -12.244  15.687  70.347  1.00  0.00    -0.429 A  
HETATM    6  C   UNL     1     -11.764  15.564  69.039  1.00  0.00    -0.392 A  
HETATM    7  C   UNL     1     -11.652  14.310  68.410  1.00  0.00    -0.354 A  
HETATM    8  C   UNL     1     -12.014  13.169  69.145  1.00  0.00    -0.329 A  
HETATM    9  C   UNL     1     -12.497  13.279  70.461  1.00  0.00    -0.332 A  
ENDROOT
BRANCH   7  10
HETATM   10  C   UNL     1     -11.189  14.241  67.021  1.00  0.00    -0.323 A  
HETATM   11  C   UNL     1     -11.161  15.156  65.985  1.00  0.00    -0.312 A  
HETATM   12  C   UNL     1     -10.633  14.489  64.855  1.00  0.00    -0.450 A  
HETATM   13  C   UNL     1     -10.356  13.198  65.254  1.00  0.00    -0.305 A  
HETATM   14  O   UNL     1     -10.690  13.044  66.576  1.00  0.00    -0.274 OA 
BRANCH  13  15
HETATM   15  C   UNL     1      -9.826  12.065  64.542  1.00  0.00    -0.153 C  
BRANCH  15  16
HETATM   16  N   UNL     1     -10.438  10.919  64.555  1.00  0.00    -0.349 NA 
HETATM   17  H   UNL     1     -11.332  10.791  64.082  1.00  0.00     0.000 HD 
BRANCH  16  18
HETATM   18  N   UNL     1      -9.835   9.887  65.229  1.00  0.00    -0.317 N  
HETATM   19  C   UNL     1      -9.966   9.774  66.666  1.00  0.00    -0.229 C  
HETATM   20  C   UNL     1      -8.888   8.747  66.960  1.00  0.00    -0.127 C  
HETATM   21  N   UNL     1      -8.304   8.362  65.798  1.00  0.00    -0.137 NA 
HETATM   22  O   UNL     1      -8.573   8.338  68.069  1.00  0.00    -0.130 OA 
HETATM   23  C   UNL     1      -8.778   9.089  64.755  1.00  0.00    -0.153 C  
HETATM   24  O   UNL     1      -8.309   9.054  63.627  1.00  0.00    -0.171 OA 
ENDBRANCH  16  18
ENDBRANCH  15  16
ENDBRANCH  13  15
ENDBRANCH   7  10
TORSDOF 4
ENDMDL
MODEL       82
REMARK 921   NORMALIZED FREE ENERGY PREDICTED BY IDOCK:   -5.72 KCAL/MOL
REMARK 922        TOTAL FREE ENERGY PREDICTED BY IDOCK:   -7.62 KCAL/MOL
REMARK 923 INTER-LIGAND FREE ENERGY PREDICTED BY IDOCK:   -6.85 KCAL/MOL
REMARK 924 INTRA-LIGAND FREE ENERGY PREDICTED BY IDOCK:   -0.77 KCAL/MOL
REMARK 927      BINDING AFFINITY PREDICTED BY RF-SCORE:    0.00 PKD
ROOT
HETATM    1  O   UNL     1     -13.501  15.841  71.477  1.00  0.00    -0.473 OA 
HETATM    2  N   UNL     1     -13.534  14.714  71.988  1.00  0.00    -0.348 N  
HETATM    3  O   UNL     1     -14.069  14.449  73.073  1.00  0.00    -0.391 OA 
HETATM    4  C   UNL     1     -12.894  13.612  71.256  1.00  0.00    -0.344 A  
HETATM    5  C   UNL     1     -12.278  13.869  70.029  1.00  0.00    -0.408 A  
HETATM    6  C   UNL     1     -11.694  12.816  69.317  1.00  0.00    -0.376 A  
HETATM    7  C   UNL     1     -11.716  11.496  69.805  1.00  0.00    -0.426 A  
HETATM    8  C   UNL     1     -12.324  11.262  71.050  1.00  0.00    -0.472 A  
HETATM    9  C   UNL     1     -12.914  12.312  71.775  1.00  0.00    -0.431 A  
ENDROOT
BRANCH   7  10
HETATM   10  C   UNL     1     -11.132  10.421  68.997  1.00  0.00    -0.248 A  
HETATM   11  C   UNL     1     -10.803  10.314  67.659  1.00  0.00    -0.363 A  
HETATM   12  C   UNL     1     -10.308   9.005  67.456  1.00  0.00    -0.328 A  
HETATM   13  C   UNL     1     -10.350   8.373  68.681  1.00  0.00    -0.197 A  
HETATM   14  O   UNL     1     -10.849   9.236  69.625  1.00  0.00    -0.232 OA 
BRANCH  13  15
HETATM   15  C   UNL     1      -9.996   7.039  69.087  1.00  0.00    -0.165 C  
BRANCH  15  16
HETATM   16  N   UNL     1      -9.196   6.834  70.091  1.00  0.00    -0.155 NA 
HETATM   17  H   UNL     1      -8.187   6.953  69.996  1.00  0.00     0.000 HD 
BRANCH  16  18
HETATM   18  N   UNL     1      -9.758   6.452  71.283  1.00  0.00    -0.174 N  
HETATM   19  C   UNL     1     -10.597   5.275  71.353  1.00  0.00    -0.177 C  
HETATM   20  C   UNL     1     -11.232   5.472  72.716  1.00  0.00    -0.305 C  
HETATM   21  N   UNL     1     -10.744   6.603  73.282  1.00  0.00    -0.282 NA 
HETATM   22  O   UNL     1     -12.070   4.741  73.228  1.00  0.00    -0.112 OA 
HETATM   23  C   UNL     1      -9.933   7.264  72.418  1.00  0.00    -0.175 C  
HETATM   24  O   UNL     1      -9.490   8.386  72.616  1.00  0.00    -0.269 OA 
ENDBRANCH  16  18
ENDBRANCH  15  16
ENDBRANCH  13  15
ENDBRANCH   7  10
TORSDOF 4
ENDMDL
MODEL       83
REMARK 921   NORMALIZED FREE ENERGY PREDICTED BY IDOCK:   -5.70 KCAL/MOL
REMARK 922        TOTAL FREE ENERGY PREDICTED BY IDOCK:   -7.60 KCAL/MOL
REMARK 923 INTER-LIGAND FREE ENERGY PREDICTED BY IDOCK:   -7.03 KCAL/MOL
REMARK 924 INTRA-LIGAND FREE ENERGY PREDICTED BY IDOCK:   -0.57 KCAL/MOL
REMARK 927      BINDING AFFINITY PREDICTED BY RF-SCORE:    0.00 PKD
ROOT
HETATM    1  O   UNL     1      -9.633   5.365  67.265  1.00  0.00    -0.122 OA 
HETATM    2  N   UNL     1      -9.008   5.979  66.391  1.00  0.00    -0.141 N  
HETATM    3  O   UNL     1      -8.154   5.475  65.650  1.00  0.00    -0.108 OA 
HETATM    4  C   UNL     1      -9.302   7.409  66.218  1.00  0.00    -0.111 A  
HETATM    5  C   UNL     1     -10.259   8.017  67.035  1.00  0.00    -0.374 A  
HETATM    6  C   UNL     1     -10.560   9.370  66.853  1.00  0.00    -0.238 A  
HETATM    7  C   UNL     1      -9.926  10.139  65.860  1.00  0.00    -0.334 A  
HETATM    8  C   UNL     1      -8.953   9.513  65.061  1.00  0.00    -0.258 A  
HETATM    9  C   UNL     1      -8.641   8.154  65.235  1.00  0.00    -0.132 A  
ENDROOT
BRANCH   7  10
HETATM   10  C   UNL     1     -10.312  11.541  65.678  1.00  0.00    -0.261 A  
HETATM   11  C   UNL     1     -10.963  12.221  64.665  1.00  0.00    -0.349 A  
HETATM   12  C   UNL     1     -11.011  13.583  65.041  1.00  0.00    -0.342 A  
HETATM   13  C   UNL     1     -10.393  13.674  66.271  1.00  0.00    -0.293 A  
HETATM   14  O   UNL     1      -9.969  12.429  66.664  1.00  0.00    -0.217 OA 
BRANCH  13  15
HETATM   15  C   UNL     1     -10.128  14.795  67.133  1.00  0.00    -0.240 C  
BRANCH  15  16
HETATM   16  N   UNL     1     -10.983  15.766  67.252  1.00  0.00    -0.297 NA 
HETATM   17  H   UNL     1     -11.922  15.603  67.614  1.00  0.00     0.000 HD 
BRANCH  16  18
HETATM   18  N   UNL     1     -10.575  17.020  66.871  1.00  0.00    -0.259 N  
HETATM   19  C   UNL     1     -10.296  18.033  67.866  1.00  0.00    -0.392 C  
HETATM   20  C   UNL     1     -10.240  19.270  66.990  1.00  0.00    -0.398 C  
HETATM   21  N   UNL     1     -10.436  18.915  65.696  1.00  0.00    -0.562 NA 
HETATM   22  O   UNL     1     -10.065  20.416  67.380  1.00  0.00    -0.417 OA 
HETATM   23  C   UNL     1     -10.733  17.595  65.597  1.00  0.00    -0.084 C  
HETATM   24  O   UNL     1     -11.108  17.053  64.568  1.00  0.00    -1.098 OA 
ENDBRANCH  16  18
ENDBRANCH  15  16
ENDBRANCH  13  15
ENDBRANCH   7  10
TORSDOF 4
ENDMDL
MODEL       84
REMARK 921   NORMALIZED FREE ENERGY PREDICTED BY IDOCK:   -5.70 KCAL/MOL
REMARK 922        TOTAL FREE ENERGY PREDICTED BY IDOCK:   -7.59 KCAL/MOL
REMARK 923 INTER-LIGAND FREE ENERGY PREDICTED BY IDOCK:   -7.13 KCAL/MOL
REMARK 924 INTRA-LIGAND FREE ENERGY PREDICTED BY IDOCK:   -0.46 KCAL/MOL
REMARK 927      BINDING AFFINITY PREDICTED BY RF-SCORE:    0.00 PKD
ROOT
HETATM    1  O   UNL     1      -9.933  18.509  66.959  1.00  0.00    -0.313 OA 
HETATM    2  N   UNL     1     -10.405  17.957  65.957  1.00  0.00    -0.368 N  
HETATM    3  O   UNL     1     -10.884  18.554  64.984  1.00  0.00    -0.596 OA 
HETATM    4  C   UNL     1     -10.395  16.488  65.918  1.00  0.00    -0.350 A  
HETATM    5  C   UNL     1      -9.865  15.776  66.997  1.00  0.00    -0.238 A  
HETATM    6  C   UNL     1      -9.829  14.378  66.949  1.00  0.00    -0.263 A  
HETATM    7  C   UNL     1     -10.310  13.667  65.834  1.00  0.00    -0.304 A  
HETATM    8  C   UNL     1     -10.856  14.401  64.768  1.00  0.00    -0.415 A  
HETATM    9  C   UNL     1     -10.899  15.806  64.804  1.00  0.00    -0.365 A  
ENDROOT
BRANCH   7  10
HETATM   10  C   UNL     1     -10.205  12.204  65.813  1.00  0.00    -0.254 A  
HETATM   11  C   UNL     1      -9.924  11.289  64.815  1.00  0.00    -0.327 A  
HETATM   12  C   UNL     1     -10.008  10.002  65.396  1.00  0.00    -0.364 A  
HETATM   13  C   UNL     1     -10.330  10.190  66.723  1.00  0.00    -0.222 A  
HETATM   14  O   UNL     1     -10.447  11.532  66.983  1.00  0.00    -0.213 OA 
BRANCH  13  15
HETATM   15  C   UNL     1     -10.563   9.259  67.796  1.00  0.00    -0.246 C  
BRANCH  15  16
HETATM   16  N   UNL     1     -11.098   9.646  68.915  1.00  0.00    -0.438 NA 
HETATM   17  H   UNL     1     -11.790  10.395  68.939  1.00  0.00     0.000 HD 
BRANCH  16  18
HETATM   18  N   UNL     1     -10.697   9.010  70.063  1.00  0.00    -0.226 N  
HETATM   19  C   UNL     1     -11.674   8.427  70.958  1.00  0.00    -0.267 C  
HETATM   20  C   UNL     1     -10.813   8.182  72.182  1.00  0.00    -0.303 C  
HETATM   21  N   UNL     1      -9.539   8.566  71.922  1.00  0.00    -0.256 NA 
HETATM   22  O   UNL     1     -11.200   7.726  73.250  1.00  0.00    -0.350 OA 
HETATM   23  C   UNL     1      -9.452   9.152  70.700  1.00  0.00    -0.261 C  
HETATM   24  O   UNL     1      -8.455   9.727  70.287  1.00  0.00    -0.190 OA 
ENDBRANCH  16  18
ENDBRANCH  15  16
ENDBRANCH  13  15
ENDBRANCH   7  10
TORSDOF 4
ENDMDL
MODEL       85
REMARK 921   NORMALIZED FREE ENERGY PREDICTED BY IDOCK:   -5.69 KCAL/MOL
REMARK 922        TOTAL FREE ENERGY PREDICTED BY IDOCK:   -7.57 KCAL/MOL
REMARK 923 INTER-LIGAND FREE ENERGY PREDICTED BY IDOCK:   -7.25 KCAL/MOL
REMARK 924 INTRA-LIGAND FREE ENERGY PREDICTED BY IDOCK:   -0.32 KCAL/MOL
REMARK 927      BINDING AFFINITY PREDICTED BY RF-SCORE:    0.00 PKD
ROOT
HETATM    1  O   UNL     1     -11.693  12.245  63.763  1.00  0.00    -0.395 OA 
HETATM    2  N   UNL     1     -11.971  12.820  64.823  1.00  0.00    -0.377 N  
HETATM    3  O   UNL     1     -12.559  13.906  64.902  1.00  0.00    -0.590 OA 
HETATM    4  C   UNL     1     -11.574  12.165  66.078  1.00  0.00    -0.358 A  
HETATM    5  C   UNL     1     -10.907  10.939  66.033  1.00  0.00    -0.155 A  
HETATM    6  C   UNL     1     -10.555  10.301  67.227  1.00  0.00    -0.324 A  
HETATM    7  C   UNL     1     -10.862  10.863  68.480  1.00  0.00    -0.262 A  
HETATM    8  C   UNL     1     -11.517  12.107  68.504  1.00  0.00    -0.349 A  
HETATM    9  C   UNL     1     -11.875  12.757  67.310  1.00  0.00    -0.414 A  
ENDROOT
BRANCH   7  10
HETATM   10  C   UNL     1     -10.514  10.131  69.702  1.00  0.00    -0.252 A  
HETATM   11  C   UNL     1      -9.317   9.681  70.227  1.00  0.00    -0.292 A  
HETATM   12  C   UNL     1      -9.621   8.995  71.426  1.00  0.00    -0.356 A  
HETATM   13  C   UNL     1     -10.989   9.062  71.582  1.00  0.00    -0.365 A  
HETATM   14  O   UNL     1     -11.537   9.759  70.534  1.00  0.00    -0.268 OA 
BRANCH  13  15
HETATM   15  C   UNL     1     -11.868   8.537  72.593  1.00  0.00    -0.241 C  
BRANCH  15  16
HETATM   16  N   UNL     1     -12.384   7.349  72.481  1.00  0.00    -0.521 NA 
HETATM   17  H   UNL     1     -13.372   7.182  72.670  1.00  0.00     0.000 HD 
BRANCH  16  18
HETATM   18  N   UNL     1     -11.549   6.328  72.101  1.00  0.00    -0.308 N  
HETATM   19  C   UNL     1     -10.618   5.752  73.047  1.00  0.00    -0.242 C  
HETATM   20  C   UNL     1      -9.725   4.964  72.108  1.00  0.00    -0.163 C  
HETATM   21  N   UNL     1     -10.176   5.101  70.836  1.00  0.00    -0.229 NA 
HETATM   22  O   UNL     1      -8.738   4.317  72.432  1.00  0.00    -0.106 OA 
HETATM   23  C   UNL     1     -11.206   5.983  70.782  1.00  0.00    -0.269 C  
HETATM   24  O   UNL     1     -11.691   6.406  69.742  1.00  0.00    -0.414 OA 
ENDBRANCH  16  18
ENDBRANCH  15  16
ENDBRANCH  13  15
ENDBRANCH   7  10
TORSDOF 4
ENDMDL
MODEL       86
REMARK 921   NORMALIZED FREE ENERGY PREDICTED BY IDOCK:   -5.67 KCAL/MOL
REMARK 922        TOTAL FREE ENERGY PREDICTED BY IDOCK:   -7.56 KCAL/MOL
REMARK 923 INTER-LIGAND FREE ENERGY PREDICTED BY IDOCK:   -6.96 KCAL/MOL
REMARK 924 INTRA-LIGAND FREE ENERGY PREDICTED BY IDOCK:   -0.60 KCAL/MOL
REMARK 927      BINDING AFFINITY PREDICTED BY RF-SCORE:    0.00 PKD
ROOT
HETATM    1  O   UNL     1      -7.581   4.470  74.258  1.00  0.00    -0.079 OA 
HETATM    2  N   UNL     1      -8.498   4.253  73.456  1.00  0.00    -0.093 N  
HETATM    3  O   UNL     1      -8.750   3.148  72.956  1.00  0.00    -0.080 OA 
HETATM    4  C   UNL     1      -9.349   5.387  73.069  1.00  0.00    -0.136 A  
HETATM    5  C   UNL     1      -9.098   6.650  73.609  1.00  0.00    -0.155 A  
HETATM    6  C   UNL     1      -9.925   7.724  73.263  1.00  0.00    -0.370 A  
HETATM    7  C   UNL     1     -11.013   7.564  72.386  1.00  0.00    -0.333 A  
HETATM    8  C   UNL     1     -11.237   6.288  71.839  1.00  0.00    -0.332 A  
HETATM    9  C   UNL     1     -10.413   5.201  72.178  1.00  0.00    -0.281 A  
ENDROOT
BRANCH   7  10
HETATM   10  C   UNL     1     -11.878   8.711  72.094  1.00  0.00    -0.377 A  
HETATM   11  C   UNL     1     -13.199   8.998  72.381  1.00  0.00    -0.507 A  
HETATM   12  C   UNL     1     -13.490  10.252  71.796  1.00  0.00    -0.387 A  
HETATM   13  C   UNL     1     -12.330  10.678  71.184  1.00  0.00    -0.400 A  
HETATM   14  O   UNL     1     -11.343   9.742  71.367  1.00  0.00    -0.369 OA 
BRANCH  13  15
HETATM   15  C   UNL     1     -12.024  11.860  70.421  1.00  0.00    -0.311 C  
BRANCH  15  16
HETATM   16  N   UNL     1     -10.986  11.905  69.642  1.00  0.00    -0.467 NA 
HETATM   17  H   UNL     1     -10.043  11.775  70.009  1.00  0.00     0.000 HD 
BRANCH  16  18
HETATM   18  N   UNL     1     -11.205  12.134  68.306  1.00  0.00    -0.245 N  
HETATM   19  C   UNL     1     -11.942  13.301  67.874  1.00  0.00    -0.309 C  
HETATM   20  C   UNL     1     -12.213  12.934  66.427  1.00  0.00    -0.231 C  
HETATM   21  N   UNL     1     -11.648  11.732  66.153  1.00  0.00    -0.435 NA 
HETATM   22  O   UNL     1     -12.857  13.601  65.629  1.00  0.00    -0.495 OA 
HETATM   23  C   UNL     1     -11.118  11.181  67.275  1.00  0.00    -0.302 C  
HETATM   24  O   UNL     1     -10.690  10.038  67.339  1.00  0.00    -0.268 OA 
ENDBRANCH  16  18
ENDBRANCH  15  16
ENDBRANCH  13  15
ENDBRANCH   7  10
TORSDOF 4
ENDMDL
MODEL       87
REMARK 921   NORMALIZED FREE ENERGY PREDICTED BY IDOCK:   -5.67 KCAL/MOL
REMARK 922        TOTAL FREE ENERGY PREDICTED BY IDOCK:   -7.55 KCAL/MOL
REMARK 923 INTER-LIGAND FREE ENERGY PREDICTED BY IDOCK:   -6.82 KCAL/MOL
REMARK 924 INTRA-LIGAND FREE ENERGY PREDICTED BY IDOCK:   -0.73 KCAL/MOL
REMARK 927      BINDING AFFINITY PREDICTED BY RF-SCORE:    0.00 PKD
ROOT
HETATM    1  O   UNL     1      -9.631   8.909  65.715  1.00  0.00    -0.243 OA 
HETATM    2  N   UNL     1     -10.085   8.792  66.861  1.00  0.00    -0.252 N  
HETATM    3  O   UNL     1     -10.208   7.718  67.463  1.00  0.00    -0.194 OA 
HETATM    4  C   UNL     1     -10.506  10.017  67.556  1.00  0.00    -0.254 A  
HETATM    5  C   UNL     1     -10.384  11.250  66.911  1.00  0.00    -0.272 A  
HETATM    6  C   UNL     1     -10.757  12.418  67.583  1.00  0.00    -0.248 A  
HETATM    7  C   UNL     1     -11.250  12.385  68.900  1.00  0.00    -0.330 A  
HETATM    8  C   UNL     1     -11.382  11.133  69.525  1.00  0.00    -0.359 A  
HETATM    9  C   UNL     1     -11.011   9.952  68.860  1.00  0.00    -0.214 A  
ENDROOT
BRANCH   7  10
HETATM   10  C   UNL     1     -11.582  13.643  69.576  1.00  0.00    -0.301 A  
HETATM   11  C   UNL     1     -12.501  13.979  70.553  1.00  0.00    -0.429 A  
HETATM   12  C   UNL     1     -12.384  15.371  70.774  1.00  0.00    -0.447 A  
HETATM   13  C   UNL     1     -11.393  15.822  69.926  1.00  0.00    -0.349 A  
HETATM   14  O   UNL     1     -10.899  14.769  69.197  1.00  0.00    -0.244 OA 
BRANCH  13  15
HETATM   15  C   UNL     1     -10.852  17.134  69.693  1.00  0.00     0.164 C  
BRANCH  15  16
HETATM   16  N   UNL     1      -9.749  17.296  69.026  1.00  0.00    -0.239 NA 
HETATM   17  H   UNL     1      -8.844  17.059  69.433  1.00  0.00     0.000 HD 
BRANCH  16  18
HETATM   18  N   UNL     1      -9.846  17.798  67.752  1.00  0.00    -0.284 N  
HETATM   19  C   UNL     1     -10.235  19.174  67.534  1.00  0.00    -0.403 C  
HETATM   20  C   UNL     1     -10.534  19.143  66.047  1.00  0.00    -0.467 C  
HETATM   21  N   UNL     1     -10.291  17.899  65.565  1.00  0.00    -0.597 NA 
HETATM   22  O   UNL     1     -10.949  20.082  65.381  1.00  0.00    -0.300 OA 
HETATM   23  C   UNL     1      -9.969  17.046  66.570  1.00  0.00    -0.310 C  
HETATM   24  O   UNL     1      -9.857  15.837  66.431  1.00  0.00    -0.244 OA 
ENDBRANCH  16  18
ENDBRANCH  15  16
ENDBRANCH  13  15
ENDBRANCH   7  10
TORSDOF 4
ENDMDL
MODEL       88
REMARK 921   NORMALIZED FREE ENERGY PREDICTED BY IDOCK:   -5.66 KCAL/MOL
REMARK 922        TOTAL FREE ENERGY PREDICTED BY IDOCK:   -7.54 KCAL/MOL
REMARK 923 INTER-LIGAND FREE ENERGY PREDICTED BY IDOCK:   -6.93 KCAL/MOL
REMARK 924 INTRA-LIGAND FREE ENERGY PREDICTED BY IDOCK:   -0.61 KCAL/MOL
REMARK 927      BINDING AFFINITY PREDICTED BY RF-SCORE:    0.00 PKD
ROOT
HETATM    1  O   UNL     1      -8.418   7.093  70.072  1.00  0.00    -0.136 OA 
HETATM    2  N   UNL     1      -8.216   6.747  68.901  1.00  0.00    -0.120 N  
HETATM    3  O   UNL     1      -7.692   5.677  68.563  1.00  0.00    -0.086 OA 
HETATM    4  C   UNL     1      -8.630   7.671  67.835  1.00  0.00    -0.122 A  
HETATM    5  C   UNL     1      -9.223   8.889  68.174  1.00  0.00    -0.145 A  
HETATM    6  C   UNL     1      -9.643   9.756  67.160  1.00  0.00    -0.211 A  
HETATM    7  C   UNL     1      -9.487   9.430  65.800  1.00  0.00    -0.325 A  
HETATM    8  C   UNL     1      -8.870   8.208  65.481  1.00  0.00    -0.130 A  
HETATM    9  C   UNL     1      -8.444   7.329  66.490  1.00  0.00    -0.125 A  
ENDROOT
BRANCH   7  10
HETATM   10  C   UNL     1      -9.988  10.353  64.777  1.00  0.00    -0.339 A  
HETATM   11  C   UNL     1      -9.724  10.504  63.428  1.00  0.00    -0.368 A  
HETATM   12  C   UNL     1     -10.487  11.606  62.976  1.00  0.00    -0.256 A  
HETATM   13  C   UNL     1     -11.188  12.074  64.068  1.00  0.00    -0.397 A  
HETATM   14  O   UNL     1     -10.889  11.309  65.168  1.00  0.00    -0.270 OA 
BRANCH  13  15
HETATM   15  C   UNL     1     -12.104  13.173  64.223  1.00  0.00    -0.414 C  
BRANCH  15  16
HETATM   16  N   UNL     1     -12.119  13.885  65.310  1.00  0.00    -0.387 NA 
HETATM   17  H   UNL     1     -12.812  13.722  66.040  1.00  0.00     0.000 HD 
BRANCH  16  18
HETATM   18  N   UNL     1     -11.167  14.865  65.439  1.00  0.00    -0.349 N  
HETATM   19  C   UNL     1     -10.275  14.876  66.579  1.00  0.00    -0.275 C  
HETATM   20  C   UNL     1      -9.692  16.271  66.458  1.00  0.00    -0.263 C  
HETATM   21  N   UNL     1     -10.207  16.881  65.361  1.00  0.00    -0.623 NA 
HETATM   22  O   UNL     1      -8.896  16.783  67.232  1.00  0.00    -0.199 OA 
HETATM   23  C   UNL     1     -11.160  16.109  64.782  1.00  0.00    -0.333 C  
HETATM   24  O   UNL     1     -11.890  16.486  63.877  1.00  0.00    -1.059 OA 
ENDBRANCH  16  18
ENDBRANCH  15  16
ENDBRANCH  13  15
ENDBRANCH   7  10
TORSDOF 4
ENDMDL
MODEL       89
REMARK 921   NORMALIZED FREE ENERGY PREDICTED BY IDOCK:   -5.64 KCAL/MOL
REMARK 922        TOTAL FREE ENERGY PREDICTED BY IDOCK:   -7.52 KCAL/MOL
REMARK 923 INTER-LIGAND FREE ENERGY PREDICTED BY IDOCK:   -7.16 KCAL/MOL
REMARK 924 INTRA-LIGAND FREE ENERGY PREDICTED BY IDOCK:   -0.36 KCAL/MOL
REMARK 927      BINDING AFFINITY PREDICTED BY RF-SCORE:    0.00 PKD
ROOT
HETATM    1  O   UNL     1     -12.798  14.346  64.883  1.00  0.00    -0.645 OA 
HETATM    2  N   UNL     1     -12.138  13.312  64.722  1.00  0.00    -0.388 N  
HETATM    3  O   UNL     1     -11.750  12.887  63.626  1.00  0.00    -0.453 OA 
HETATM    4  C   UNL     1     -11.787  12.534  65.918  1.00  0.00    -0.430 A  
HETATM    5  C   UNL     1     -12.206  12.978  67.175  1.00  0.00    -0.200 A  
HETATM    6  C   UNL     1     -11.848  12.253  68.316  1.00  0.00    -0.367 A  
HETATM    7  C   UNL     1     -11.068  11.085  68.233  1.00  0.00    -0.316 A  
HETATM    8  C   UNL     1     -10.673  10.645  66.958  1.00  0.00    -0.317 A  
HETATM    9  C   UNL     1     -11.026  11.364  65.803  1.00  0.00    -0.256 A  
ENDROOT
BRANCH   7  10
HETATM   10  C   UNL     1     -10.680  10.389  69.464  1.00  0.00    -0.251 A  
HETATM   11  C   UNL     1      -9.459  10.041  70.010  1.00  0.00    -0.184 A  
HETATM   12  C   UNL     1      -9.724   9.337  71.207  1.00  0.00    -0.299 A  
HETATM   13  C   UNL     1     -11.095   9.292  71.342  1.00  0.00    -0.367 A  
HETATM   14  O   UNL     1     -11.682   9.937  70.282  1.00  0.00    -0.253 OA 
BRANCH  13  15
HETATM   15  C   UNL     1     -11.944   8.701  72.342  1.00  0.00    -0.340 C  
BRANCH  15  16
HETATM   16  N   UNL     1     -12.309   7.456  72.261  1.00  0.00    -0.490 NA 
HETATM   17  H   UNL     1     -13.268   7.172  72.461  1.00  0.00     0.000 HD 
BRANCH  16  18
HETATM   18  N   UNL     1     -11.357   6.538  71.896  1.00  0.00    -0.270 N  
HETATM   19  C   UNL     1     -11.266   6.081  70.525  1.00  0.00    -0.292 C  
HETATM   20  C   UNL     1     -10.357   4.879  70.696  1.00  0.00    -0.162 C  
HETATM   21  N   UNL     1     -10.003   4.764  72.000  1.00  0.00    -0.180 NA 
HETATM   22  O   UNL     1     -10.007   4.115  69.808  1.00  0.00    -0.206 OA 
HETATM   23  C   UNL     1     -10.655   5.679  72.761  1.00  0.00    -0.228 C  
HETATM   24  O   UNL     1     -10.638   5.691  73.983  1.00  0.00    -0.272 OA 
ENDBRANCH  16  18
ENDBRANCH  15  16
ENDBRANCH  13  15
ENDBRANCH   7  10
TORSDOF 4
ENDMDL
MODEL       90
REMARK 921   NORMALIZED FREE ENERGY PREDICTED BY IDOCK:   -5.64 KCAL/MOL
REMARK 922        TOTAL FREE ENERGY PREDICTED BY IDOCK:   -7.52 KCAL/MOL
REMARK 923 INTER-LIGAND FREE ENERGY PREDICTED BY IDOCK:   -7.31 KCAL/MOL
REMARK 924 INTRA-LIGAND FREE ENERGY PREDICTED BY IDOCK:   -0.21 KCAL/MOL
REMARK 927      BINDING AFFINITY PREDICTED BY RF-SCORE:    0.00 PKD
ROOT
HETATM    1  O   UNL     1     -14.125  12.437  73.138  1.00  0.00     0.712 OA 
HETATM    2  N   UNL     1     -13.466  12.049  72.166  1.00  0.00    -0.396 N  
HETATM    3  O   UNL     1     -13.391  10.872  71.791  1.00  0.00    -0.391 OA 
HETATM    4  C   UNL     1     -12.719  13.058  71.401  1.00  0.00    -0.281 A  
HETATM    5  C   UNL     1     -12.775  14.397  71.792  1.00  0.00    -0.427 A  
HETATM    6  C   UNL     1     -12.088  15.362  71.049  1.00  0.00    -0.417 A  
HETATM    7  C   UNL     1     -11.341  15.018  69.907  1.00  0.00    -0.307 A  
HETATM    8  C   UNL     1     -11.281  13.662  69.541  1.00  0.00    -0.205 A  
HETATM    9  C   UNL     1     -11.967  12.683  70.281  1.00  0.00    -0.363 A  
ENDROOT
BRANCH   7  10
HETATM   10  C   UNL     1     -10.678  16.073  69.135  1.00  0.00    -0.272 A  
HETATM   11  C   UNL     1     -10.553  17.439  69.311  1.00  0.00    -0.084 A  
HETATM   12  C   UNL     1      -9.830  17.937  68.202  1.00  0.00    -0.334 A  
HETATM   13  C   UNL     1      -9.540  16.852  67.402  1.00  0.00    -0.241 A  
HETATM   14  O   UNL     1     -10.053  15.712  67.970  1.00  0.00    -0.221 OA 
BRANCH  13  15
HETATM   15  C   UNL     1      -8.849  16.742  66.145  1.00  0.00    -0.263 C  
BRANCH  15  16
HETATM   16  N   UNL     1      -9.015  15.708  65.375  1.00  0.00    -0.022 NA 
HETATM   17  H   UNL     1      -8.218  15.202  64.990  1.00  0.00     0.000 HD 
BRANCH  16  18
HETATM   18  N   UNL     1     -10.303  15.322  65.101  1.00  0.00    -0.390 N  
HETATM   19  C   UNL     1     -10.651  13.919  65.038  1.00  0.00    -0.404 C  
HETATM   20  C   UNL     1     -12.017  14.003  64.386  1.00  0.00    -0.454 C  
HETATM   21  N   UNL     1     -12.336  15.304  64.175  1.00  0.00    -0.614 NA 
HETATM   22  O   UNL     1     -12.722  13.052  64.077  1.00  0.00    -0.656 OA 
HETATM   23  C   UNL     1     -11.299  16.115  64.502  1.00  0.00    -0.267 C  
HETATM   24  O   UNL     1     -11.264  17.313  64.261  1.00  0.00    -1.013 OA 
ENDBRANCH  16  18
ENDBRANCH  15  16
ENDBRANCH  13  15
ENDBRANCH   7  10
TORSDOF 4
ENDMDL
MODEL       91
REMARK 921   NORMALIZED FREE ENERGY PREDICTED BY IDOCK:   -5.64 KCAL/MOL
REMARK 922        TOTAL FREE ENERGY PREDICTED BY IDOCK:   -7.52 KCAL/MOL
REMARK 923 INTER-LIGAND FREE ENERGY PREDICTED BY IDOCK:   -6.90 KCAL/MOL
REMARK 924 INTRA-LIGAND FREE ENERGY PREDICTED BY IDOCK:   -0.61 KCAL/MOL
REMARK 927      BINDING AFFINITY PREDICTED BY RF-SCORE:    0.00 PKD
ROOT
HETATM    1  O   UNL     1     -11.733  16.061  68.617  1.00  0.00    -0.382 OA 
HETATM    2  N   UNL     1     -11.623  14.981  68.024  1.00  0.00    -0.337 N  
HETATM    3  O   UNL     1     -11.333  14.861  66.827  1.00  0.00    -0.344 OA 
HETATM    4  C   UNL     1     -11.854  13.752  68.797  1.00  0.00    -0.363 A  
HETATM    5  C   UNL     1     -12.185  13.843  70.151  1.00  0.00    -0.425 A  
HETATM    6  C   UNL     1     -12.376  12.674  70.894  1.00  0.00    -0.352 A  
HETATM    7  C   UNL     1     -12.238  11.400  70.312  1.00  0.00    -0.433 A  
HETATM    8  C   UNL     1     -11.923  11.330  68.944  1.00  0.00    -0.378 A  
HETATM    9  C   UNL     1     -11.729  12.498  68.186  1.00  0.00    -0.400 A  
ENDROOT
BRANCH   7  10
HETATM   10  C   UNL     1     -12.402  10.206  71.146  1.00  0.00    -0.385 A  
HETATM   11  C   UNL     1     -13.508   9.543  71.643  1.00  0.00    -0.463 A  
HETATM   12  C   UNL     1     -13.031   8.467  72.427  1.00  0.00    -0.354 A  
HETATM   13  C   UNL     1     -11.654   8.517  72.368  1.00  0.00    -0.354 A  
HETATM   14  O   UNL     1     -11.267   9.575  71.583  1.00  0.00    -0.378 OA 
BRANCH  13  15
HETATM   15  C   UNL     1     -10.636   7.701  72.974  1.00  0.00    -0.375 C  
BRANCH  15  16
HETATM   16  N   UNL     1      -9.496   7.501  72.382  1.00  0.00    -0.151 NA 
HETATM   17  H   UNL     1      -8.675   8.059  72.615  1.00  0.00     0.000 HD 
BRANCH  16  18
HETATM   18  N   UNL     1      -9.439   6.513  71.432  1.00  0.00    -0.158 N  
HETATM   19  C   UNL     1     -10.037   5.219  71.684  1.00  0.00    -0.199 C  
HETATM   20  C   UNL     1      -9.428   4.410  70.554  1.00  0.00    -0.171 C  
HETATM   21  N   UNL     1      -8.639   5.215  69.799  1.00  0.00    -0.095 NA 
HETATM   22  O   UNL     1      -9.598   3.215  70.357  1.00  0.00    -0.171 OA 
HETATM   23  C   UNL     1      -8.547   6.453  70.347  1.00  0.00    -0.142 C  
HETATM   24  O   UNL     1      -7.779   7.319  69.956  1.00  0.00    -0.092 OA 
ENDBRANCH  16  18
ENDBRANCH  15  16
ENDBRANCH  13  15
ENDBRANCH   7  10
TORSDOF 4
ENDMDL
MODEL       92
REMARK 921   NORMALIZED FREE ENERGY PREDICTED BY IDOCK:   -5.61 KCAL/MOL
REMARK 922        TOTAL FREE ENERGY PREDICTED BY IDOCK:   -7.48 KCAL/MOL
REMARK 923 INTER-LIGAND FREE ENERGY PREDICTED BY IDOCK:   -6.83 KCAL/MOL
REMARK 924 INTRA-LIGAND FREE ENERGY PREDICTED BY IDOCK:   -0.65 KCAL/MOL
REMARK 927      BINDING AFFINITY PREDICTED BY RF-SCORE:    0.00 PKD
ROOT
HETATM    1  O   UNL     1      -9.924   3.296  71.864  1.00  0.00    -0.168 OA 
HETATM    2  N   UNL     1      -9.846   4.175  72.733  1.00  0.00    -0.139 N  
HETATM    3  O   UNL     1      -9.345   4.015  73.853  1.00  0.00    -0.096 OA 
HETATM    4  C   UNL     1     -10.387   5.502  72.410  1.00  0.00    -0.206 A  
HETATM    5  C   UNL     1     -10.963   5.724  71.157  1.00  0.00    -0.295 A  
HETATM    6  C   UNL     1     -11.453   6.995  70.839  1.00  0.00    -0.349 A  
HETATM    7  C   UNL     1     -11.375   8.064  71.750  1.00  0.00    -0.318 A  
HETATM    8  C   UNL     1     -10.809   7.815  73.013  1.00  0.00    -0.451 A  
HETATM    9  C   UNL     1     -10.314   6.542  73.345  1.00  0.00    -0.278 A  
ENDROOT
BRANCH   7  10
HETATM   10  C   UNL     1     -11.859   9.389  71.350  1.00  0.00    -0.374 A  
HETATM   11  C   UNL     1     -12.812  10.245  71.869  1.00  0.00    -0.528 A  
HETATM   12  C   UNL     1     -12.867  11.373  71.016  1.00  0.00    -0.381 A  
HETATM   13  C   UNL     1     -11.940  11.156  70.018  1.00  0.00    -0.367 A  
HETATM   14  O   UNL     1     -11.320   9.949  70.221  1.00  0.00    -0.257 OA 
BRANCH  13  15
HETATM   15  C   UNL     1     -11.564  11.938  68.871  1.00  0.00    -0.311 C  
BRANCH  15  16
HETATM   16  N   UNL     1     -11.974  11.620  67.679  1.00  0.00    -0.625 NA 
HETATM   17  H   UNL     1     -12.961  11.673  67.428  1.00  0.00     0.000 HD 
BRANCH  16  18
HETATM   18  N   UNL     1     -11.029  11.211  66.772  1.00  0.00    -0.271 N  
HETATM   19  C   UNL     1     -10.686  12.049  65.642  1.00  0.00    -0.272 C  
HETATM   20  C   UNL     1      -9.914  11.059  64.791  1.00  0.00    -0.294 C  
HETATM   21  N   UNL     1      -9.847   9.866  65.434  1.00  0.00    -0.311 NA 
HETATM   22  O   UNL     1      -9.438  11.283  63.687  1.00  0.00    -0.233 OA 
HETATM   23  C   UNL     1     -10.582   9.892  66.575  1.00  0.00    -0.086 C  
HETATM   24  O   UNL     1     -10.819   8.907  67.258  1.00  0.00    -0.216 OA 
ENDBRANCH  16  18
ENDBRANCH  15  16
ENDBRANCH  13  15
ENDBRANCH   7  10
TORSDOF 4
ENDMDL
MODEL       93
REMARK 921   NORMALIZED FREE ENERGY PREDICTED BY IDOCK:   -5.60 KCAL/MOL
REMARK 922        TOTAL FREE ENERGY PREDICTED BY IDOCK:   -7.47 KCAL/MOL
REMARK 923 INTER-LIGAND FREE ENERGY PREDICTED BY IDOCK:   -6.81 KCAL/MOL
REMARK 924 INTRA-LIGAND FREE ENERGY PREDICTED BY IDOCK:   -0.65 KCAL/MOL
REMARK 927      BINDING AFFINITY PREDICTED BY RF-SCORE:    0.00 PKD
ROOT
HETATM    1  O   UNL     1     -10.086   5.490  69.786  1.00  0.00    -0.189 OA 
HETATM    2  N   UNL     1     -10.345   6.665  70.073  1.00  0.00    -0.193 N  
HETATM    3  O   UNL     1     -10.590   7.073  71.216  1.00  0.00    -0.217 OA 
HETATM    4  C   UNL     1     -10.363   7.648  68.980  1.00  0.00    -0.213 A  
HETATM    5  C   UNL     1     -10.094   7.228  67.675  1.00  0.00    -0.232 A  
HETATM    6  C   UNL     1     -10.082   8.167  66.638  1.00  0.00    -0.344 A  
HETATM    7  C   UNL     1     -10.331   9.531  66.877  1.00  0.00    -0.307 A  
HETATM    8  C   UNL     1     -10.619   9.929  68.194  1.00  0.00    -0.270 A  
HETATM    9  C   UNL     1     -10.634   8.996  69.244  1.00  0.00    -0.226 A  
ENDROOT
BRANCH   7  10
HETATM   10  C   UNL     1     -10.260  10.482  65.763  1.00  0.00    -0.243 A  
HETATM   11  C   UNL     1      -9.946  10.348  64.423  1.00  0.00    -0.388 A  
HETATM   12  C   UNL     1     -10.007  11.640  63.851  1.00  0.00    -0.358 A  
HETATM   13  C   UNL     1     -10.362  12.504  64.865  1.00  0.00    -0.300 A  
HETATM   14  O   UNL     1     -10.522  11.799  66.033  1.00  0.00    -0.231 OA 
BRANCH  13  15
HETATM   15  C   UNL     1     -10.559  13.929  64.890  1.00  0.00    -0.419 C  
BRANCH  15  16
HETATM   16  N   UNL     1      -9.720  14.711  65.500  1.00  0.00    -0.511 NA 
HETATM   17  H   UNL     1      -8.721  14.679  65.294  1.00  0.00     0.000 HD 
BRANCH  16  18
HETATM   18  N   UNL     1     -10.227  15.583  66.431  1.00  0.00    -0.277 N  
HETATM   19  C   UNL     1     -10.216  17.008  66.184  1.00  0.00    -0.337 C  
HETATM   20  C   UNL     1     -10.528  17.531  67.573  1.00  0.00    -0.355 C  
HETATM   21  N   UNL     1     -10.709  16.485  68.417  1.00  0.00    -0.322 NA 
HETATM   22  O   UNL     1     -10.590  18.708  67.897  1.00  0.00    -0.394 OA 
HETATM   23  C   UNL     1     -10.445  15.309  67.793  1.00  0.00    -0.253 C  
HETATM   24  O   UNL     1     -10.378  14.231  68.365  1.00  0.00    -0.234 OA 
ENDBRANCH  16  18
ENDBRANCH  15  16
ENDBRANCH  13  15
ENDBRANCH   7  10
TORSDOF 4
ENDMDL
MODEL       94
REMARK 921   NORMALIZED FREE ENERGY PREDICTED BY IDOCK:   -5.57 KCAL/MOL
REMARK 922        TOTAL FREE ENERGY PREDICTED BY IDOCK:   -7.43 KCAL/MOL
REMARK 923 INTER-LIGAND FREE ENERGY PREDICTED BY IDOCK:   -6.96 KCAL/MOL
REMARK 924 INTRA-LIGAND FREE ENERGY PREDICTED BY IDOCK:   -0.47 KCAL/MOL
REMARK 927      BINDING AFFINITY PREDICTED BY RF-SCORE:    0.00 PKD
ROOT
HETATM    1  O   UNL     1     -10.713  19.124  67.502  1.00  0.00    -0.462 OA 
HETATM    2  N   UNL     1     -10.078  18.380  66.743  1.00  0.00    -0.351 N  
HETATM    3  O   UNL     1      -9.329  18.771  65.838  1.00  0.00    -0.466 OA 
HETATM    4  C   UNL     1     -10.223  16.929  66.930  1.00  0.00    -0.296 A  
HETATM    5  C   UNL     1     -11.060  16.447  67.939  1.00  0.00    -0.249 A  
HETATM    6  C   UNL     1     -11.177  15.067  68.137  1.00  0.00    -0.316 A  
HETATM    7  C   UNL     1     -10.465  14.147  67.346  1.00  0.00    -0.271 A  
HETATM    8  C   UNL     1      -9.643  14.652  66.324  1.00  0.00    -0.333 A  
HETATM    9  C   UNL     1      -9.518  16.036  66.115  1.00  0.00    -0.371 A  
ENDROOT
BRANCH   7  10
HETATM   10  C   UNL     1     -10.585  12.713  67.625  1.00  0.00    -0.218 A  
HETATM   11  C   UNL     1     -11.387  11.711  67.109  1.00  0.00    -0.373 A  
HETATM   12  C   UNL     1     -11.075  10.525  67.812  1.00  0.00    -0.382 A  
HETATM   13  C   UNL     1     -10.092  10.854  68.723  1.00  0.00    -0.194 A  
HETATM   14  O   UNL     1      -9.788  12.187  68.608  1.00  0.00    -0.188 OA 
BRANCH  13  15
HETATM   15  C   UNL     1      -9.401  10.073  69.714  1.00  0.00    -0.202 C  
BRANCH  15  16
HETATM   16  N   UNL     1      -9.986   9.723  70.820  1.00  0.00    -0.339 NA 
HETATM   17  H   UNL     1      -9.789  10.204  71.698  1.00  0.00     0.000 HD 
BRANCH  16  18
HETATM   18  N   UNL     1     -10.880   8.683  70.764  1.00  0.00    -0.222 N  
HETATM   19  C   UNL     1     -12.242   8.861  71.220  1.00  0.00    -0.299 C  
HETATM   20  C   UNL     1     -12.699   7.417  71.289  1.00  0.00    -0.331 C  
HETATM   21  N   UNL     1     -11.692   6.605  70.881  1.00  0.00    -0.359 NA 
HETATM   22  O   UNL     1     -13.796   7.031  71.669  1.00  0.00    -0.346 OA 
HETATM   23  C   UNL     1     -10.561   7.318  70.650  1.00  0.00    -0.226 C  
HETATM   24  O   UNL     1      -9.469   6.816  70.426  1.00  0.00    -0.165 OA 
ENDBRANCH  16  18
ENDBRANCH  15  16
ENDBRANCH  13  15
ENDBRANCH   7  10
TORSDOF 4
ENDMDL
MODEL       95
REMARK 921   NORMALIZED FREE ENERGY PREDICTED BY IDOCK:   -5.56 KCAL/MOL
REMARK 922        TOTAL FREE ENERGY PREDICTED BY IDOCK:   -7.42 KCAL/MOL
REMARK 923 INTER-LIGAND FREE ENERGY PREDICTED BY IDOCK:   -6.92 KCAL/MOL
REMARK 924 INTRA-LIGAND FREE ENERGY PREDICTED BY IDOCK:   -0.50 KCAL/MOL
REMARK 927      BINDING AFFINITY PREDICTED BY RF-SCORE:    0.00 PKD
ROOT
HETATM    1  O   UNL     1      -9.107   7.062  66.883  1.00  0.00    -0.130 OA 
HETATM    2  N   UNL     1      -8.777   7.640  65.840  1.00  0.00    -0.162 N  
HETATM    3  O   UNL     1      -8.045   7.156  64.968  1.00  0.00    -0.125 OA 
HETATM    4  C   UNL     1      -9.291   9.000  65.622  1.00  0.00    -0.222 A  
HETATM    5  C   UNL     1     -10.119   9.584  66.583  1.00  0.00    -0.321 A  
HETATM    6  C   UNL     1     -10.632  10.867  66.364  1.00  0.00    -0.289 A  
HETATM    7  C   UNL     1     -10.339  11.586  65.190  1.00  0.00    -0.329 A  
HETATM    8  C   UNL     1      -9.489  10.988  64.244  1.00  0.00    -0.270 A  
HETATM    9  C   UNL     1      -8.966   9.700  64.454  1.00  0.00    -0.276 A  
ENDROOT
BRANCH   7  10
HETATM   10  C   UNL     1     -10.941  12.907  64.986  1.00  0.00    -0.297 A  
HETATM   11  C   UNL     1     -11.965  13.367  64.180  1.00  0.00    -0.505 A  
HETATM   12  C   UNL     1     -12.064  14.762  64.388  1.00  0.00    -0.457 A  
HETATM   13  C   UNL     1     -11.100  15.091  65.317  1.00  0.00    -0.386 A  
HETATM   14  O   UNL     1     -10.415  13.961  65.688  1.00  0.00    -0.290 OA 
BRANCH  13  15
HETATM   15  C   UNL     1     -10.718  16.349  65.901  1.00  0.00    -0.214 C  
BRANCH  15  16
HETATM   16  N   UNL     1     -10.677  16.505  67.191  1.00  0.00    -0.270 NA 
HETATM   17  H   UNL     1     -10.984  15.766  67.823  1.00  0.00     0.000 HD 
BRANCH  16  18
HETATM   18  N   UNL     1     -10.206  17.702  67.670  1.00  0.00    -0.335 N  
HETATM   19  C   UNL     1     -10.744  18.952  67.178  1.00  0.00    -0.432 C  
HETATM   20  C   UNL     1      -9.710  19.925  67.711  1.00  0.00    -0.392 C  
HETATM   21  N   UNL     1      -8.774  19.245  68.419  1.00  0.00    -0.346 NA 
HETATM   22  O   UNL     1      -9.700  21.133  67.522  1.00  0.00    -0.333 OA 
HETATM   23  C   UNL     1      -8.985  17.907  68.338  1.00  0.00    -0.282 C  
HETATM   24  O   UNL     1      -8.202  17.064  68.751  1.00  0.00    -0.253 OA 
ENDBRANCH  16  18
ENDBRANCH  15  16
ENDBRANCH  13  15
ENDBRANCH   7  10
TORSDOF 4
ENDMDL
MODEL       96
REMARK 921   NORMALIZED FREE ENERGY PREDICTED BY IDOCK:   -5.56 KCAL/MOL
REMARK 922        TOTAL FREE ENERGY PREDICTED BY IDOCK:   -7.42 KCAL/MOL
REMARK 923 INTER-LIGAND FREE ENERGY PREDICTED BY IDOCK:   -6.74 KCAL/MOL
REMARK 924 INTRA-LIGAND FREE ENERGY PREDICTED BY IDOCK:   -0.68 KCAL/MOL
REMARK 927      BINDING AFFINITY PREDICTED BY RF-SCORE:    0.00 PKD
ROOT
HETATM    1  O   UNL     1      -8.542   5.632  67.334  1.00  0.00    -0.110 OA 
HETATM    2  N   UNL     1      -8.095   6.189  66.323  1.00  0.00    -0.109 N  
HETATM    3  O   UNL     1      -7.201   5.727  65.602  1.00  0.00    -0.071 OA 
HETATM    4  C   UNL     1      -8.666   7.492  65.953  1.00  0.00    -0.147 A  
HETATM    5  C   UNL     1      -9.676   8.049  66.741  1.00  0.00    -0.305 A  
HETATM    6  C   UNL     1     -10.240   9.274  66.373  1.00  0.00    -0.298 A  
HETATM    7  C   UNL     1      -9.819   9.963  65.220  1.00  0.00    -0.373 A  
HETATM    8  C   UNL     1      -8.789   9.394  64.451  1.00  0.00    -0.225 A  
HETATM    9  C   UNL     1      -8.214   8.164  64.811  1.00  0.00    -0.137 A  
ENDROOT
BRANCH   7  10
HETATM   10  C   UNL     1     -10.477  11.221  64.852  1.00  0.00    -0.314 A  
HETATM   11  C   UNL     1     -11.075  11.672  63.690  1.00  0.00    -0.506 A  
HETATM   12  C   UNL     1     -11.498  13.000  63.929  1.00  0.00    -0.490 A  
HETATM   13  C   UNL     1     -11.144  13.298  65.228  1.00  0.00    -0.288 A  
HETATM   14  O   UNL     1     -10.524  12.213  65.796  1.00  0.00    -0.239 OA 
BRANCH  13  15
HETATM   15  C   UNL     1     -11.298  14.493  66.016  1.00  0.00    -0.341 C  
BRANCH  15  16
HETATM   16  N   UNL     1     -10.729  14.607  67.178  1.00  0.00    -0.287 NA 
HETATM   17  H   UNL     1      -9.716  14.696  67.265  1.00  0.00     0.000 HD 
BRANCH  16  18
HETATM   18  N   UNL     1     -11.540  14.605  68.285  1.00  0.00    -0.311 N  
HETATM   19  C   UNL     1     -11.764  15.824  69.033  1.00  0.00    -0.396 C  
HETATM   20  C   UNL     1     -12.394  15.261  70.292  1.00  0.00    -0.366 C  
HETATM   21  N   UNL     1     -12.506  13.914  70.178  1.00  0.00    -0.321 NA 
HETATM   22  O   UNL     1     -12.735  15.909  71.273  1.00  0.00    -0.467 OA 
HETATM   23  C   UNL     1     -11.921  13.477  69.034  1.00  0.00    -0.335 C  
HETATM   24  O   UNL     1     -11.742  12.299  68.764  1.00  0.00    -0.302 OA 
ENDBRANCH  16  18
ENDBRANCH  15  16
ENDBRANCH  13  15
ENDBRANCH   7  10
TORSDOF 4
ENDMDL
MODEL       97
REMARK 921   NORMALIZED FREE ENERGY PREDICTED BY IDOCK:   -5.54 KCAL/MOL
REMARK 922        TOTAL FREE ENERGY PREDICTED BY IDOCK:   -7.40 KCAL/MOL
REMARK 923 INTER-LIGAND FREE ENERGY PREDICTED BY IDOCK:   -6.71 KCAL/MOL
REMARK 924 INTRA-LIGAND FREE ENERGY PREDICTED BY IDOCK:   -0.69 KCAL/MOL
REMARK 927      BINDING AFFINITY PREDICTED BY RF-SCORE:    0.00 PKD
ROOT
HETATM    1  O   UNL     1     -12.034  16.495  73.201  1.00  0.00    -0.516 OA 
HETATM    2  N   UNL     1     -12.256  15.300  72.970  1.00  0.00    -0.392 N  
HETATM    3  O   UNL     1     -12.594  14.469  73.824  1.00  0.00    -0.427 OA 
HETATM    4  C   UNL     1     -12.108  14.832  71.585  1.00  0.00    -0.350 A  
HETATM    5  C   UNL     1     -11.726  15.737  70.592  1.00  0.00    -0.412 A  
HETATM    6  C   UNL     1     -11.613  15.301  69.268  1.00  0.00    -0.350 A  
HETATM    7  C   UNL     1     -11.880  13.967  68.907  1.00  0.00    -0.390 A  
HETATM    8  C   UNL     1     -12.245  13.068  69.924  1.00  0.00    -0.271 A  
HETATM    9  C   UNL     1     -12.361  13.495  71.258  1.00  0.00    -0.325 A  
ENDROOT
BRANCH   7  10
HETATM   10  C   UNL     1     -11.793  13.571  67.498  1.00  0.00    -0.368 A  
HETATM   11  C   UNL     1     -12.400  14.034  66.345  1.00  0.00    -0.468 A  
HETATM   12  C   UNL     1     -11.949  13.219  65.281  1.00  0.00    -0.422 A  
HETATM   13  C   UNL     1     -11.082  12.299  65.831  1.00  0.00    -0.322 A  
HETATM   14  O   UNL     1     -10.981  12.514  67.183  1.00  0.00    -0.246 OA 
BRANCH  13  15
HETATM   15  C   UNL     1     -10.335  11.216  65.249  1.00  0.00    -0.277 C  
BRANCH  15  16
HETATM   16  N   UNL     1      -9.167  10.882  65.711  1.00  0.00    -0.194 NA 
HETATM   17  H   UNL     1      -8.386  11.538  65.699  1.00  0.00     0.000 HD 
BRANCH  16  18
HETATM   18  N   UNL     1      -9.023   9.614  66.215  1.00  0.00    -0.150 N  
HETATM   19  C   UNL     1      -8.891   8.481  65.324  1.00  0.00    -0.100 C  
HETATM   20  C   UNL     1      -9.114   7.339  66.297  1.00  0.00    -0.149 C  
HETATM   21  N   UNL     1      -9.305   7.839  67.543  1.00  0.00    -0.138 NA 
HETATM   22  O   UNL     1      -9.140   6.150  66.010  1.00  0.00    -0.156 OA 
HETATM   23  C   UNL     1      -9.351   9.195  67.517  1.00  0.00    -0.135 C  
HETATM   24  O   UNL     1      -9.668   9.887  68.474  1.00  0.00    -0.149 OA 
ENDBRANCH  16  18
ENDBRANCH  15  16
ENDBRANCH  13  15
ENDBRANCH   7  10
TORSDOF 4
ENDMDL
MODEL       98
REMARK 921   NORMALIZED FREE ENERGY PREDICTED BY IDOCK:   -5.54 KCAL/MOL
REMARK 922        TOTAL FREE ENERGY PREDICTED BY IDOCK:   -7.39 KCAL/MOL
REMARK 923 INTER-LIGAND FREE ENERGY PREDICTED BY IDOCK:   -6.80 KCAL/MOL
REMARK 924 INTRA-LIGAND FREE ENERGY PREDICTED BY IDOCK:   -0.59 KCAL/MOL
REMARK 927      BINDING AFFINITY PREDICTED BY RF-SCORE:    0.00 PKD
ROOT
HETATM    1  O   UNL     1      -8.387   6.048  67.350  1.00  0.00    -0.106 OA 
HETATM    2  N   UNL     1      -8.046   6.584  66.288  1.00  0.00    -0.111 N  
HETATM    3  O   UNL     1      -7.192   6.133  65.514  1.00  0.00    -0.070 OA 
HETATM    4  C   UNL     1      -8.703   7.846  65.919  1.00  0.00    -0.154 A  
HETATM    5  C   UNL     1      -9.671   8.390  66.765  1.00  0.00    -0.309 A  
HETATM    6  C   UNL     1     -10.318   9.575  66.401  1.00  0.00    -0.243 A  
HETATM    7  C   UNL     1     -10.021  10.236  65.195  1.00  0.00    -0.395 A  
HETATM    8  C   UNL     1      -9.030   9.682  64.366  1.00  0.00    -0.276 A  
HETATM    9  C   UNL     1      -8.373   8.491  64.721  1.00  0.00    -0.163 A  
ENDROOT
BRANCH   7  10
HETATM   10  C   UNL     1     -10.761  11.450  64.837  1.00  0.00    -0.286 A  
HETATM   11  C   UNL     1     -11.135  12.009  63.629  1.00  0.00    -0.525 A  
HETATM   12  C   UNL     1     -11.802  13.221  63.921  1.00  0.00    -0.522 A  
HETATM   13  C   UNL     1     -11.812  13.344  65.295  1.00  0.00    -0.348 A  
HETATM   14  O   UNL     1     -11.181  12.263  65.857  1.00  0.00    -0.311 OA 
BRANCH  13  15
HETATM   15  C   UNL     1     -12.328  14.368  66.164  1.00  0.00    -0.314 C  
BRANCH  15  16
HETATM   16  N   UNL     1     -12.293  14.231  67.456  1.00  0.00    -0.587 NA 
HETATM   17  H   UNL     1     -12.860  13.527  67.929  1.00  0.00     0.000 HD 
BRANCH  16  18
HETATM   18  N   UNL     1     -11.465  15.069  68.160  1.00  0.00    -0.329 N  
HETATM   19  C   UNL     1     -10.062  15.168  67.822  1.00  0.00    -0.230 C  
HETATM   20  C   UNL     1      -9.536  15.898  69.043  1.00  0.00    -0.247 C  
HETATM   21  N   UNL     1     -10.564  16.166  69.886  1.00  0.00    -0.311 NA 
HETATM   22  O   UNL     1      -8.366  16.187  69.255  1.00  0.00    -0.238 OA 
HETATM   23  C   UNL     1     -11.715  15.604  69.437  1.00  0.00    -0.383 C  
HETATM   24  O   UNL     1     -12.752  15.559  70.082  1.00  0.00    -0.347 OA 
ENDBRANCH  16  18
ENDBRANCH  15  16
ENDBRANCH  13  15
ENDBRANCH   7  10
TORSDOF 4
ENDMDL
MODEL       99
REMARK 921   NORMALIZED FREE ENERGY PREDICTED BY IDOCK:   -5.49 KCAL/MOL
REMARK 922        TOTAL FREE ENERGY PREDICTED BY IDOCK:   -7.33 KCAL/MOL
REMARK 923 INTER-LIGAND FREE ENERGY PREDICTED BY IDOCK:   -6.83 KCAL/MOL
REMARK 924 INTRA-LIGAND FREE ENERGY PREDICTED BY IDOCK:   -0.50 KCAL/MOL
REMARK 927      BINDING AFFINITY PREDICTED BY RF-SCORE:    0.00 PKD
ROOT
HETATM    1  O   UNL     1      -8.598   3.070  69.251  1.00  0.00    -0.060 OA 
HETATM    2  N   UNL     1      -8.138   4.043  68.641  1.00  0.00    -0.074 N  
HETATM    3  O   UNL     1      -7.222   3.985  67.811  1.00  0.00    -0.062 OA 
HETATM    4  C   UNL     1      -8.720   5.363  68.923  1.00  0.00    -0.097 A  
HETATM    5  C   UNL     1      -9.754   5.473  69.856  1.00  0.00    -0.233 A  
HETATM    6  C   UNL     1     -10.329   6.724  70.104  1.00  0.00    -0.228 A  
HETATM    7  C   UNL     1      -9.893   7.881  69.431  1.00  0.00    -0.180 A  
HETATM    8  C   UNL     1      -8.839   7.752  68.511  1.00  0.00    -0.130 A  
HETATM    9  C   UNL     1      -8.253   6.500  68.253  1.00  0.00    -0.114 A  
ENDROOT
BRANCH   7  10
HETATM   10  C   UNL     1     -10.561   9.159  69.692  1.00  0.00    -0.228 A  
HETATM   11  C   UNL     1     -11.323   9.632  70.745  1.00  0.00    -0.409 A  
HETATM   12  C   UNL     1     -11.734  10.942  70.405  1.00  0.00    -0.444 A  
HETATM   13  C   UNL     1     -11.198  11.213  69.164  1.00  0.00    -0.264 A  
HETATM   14  O   UNL     1     -10.478  10.129  68.727  1.00  0.00    -0.184 OA 
BRANCH  13  15
HETATM   15  C   UNL     1     -11.287  12.368  68.310  1.00  0.00    -0.284 C  
BRANCH  15  16
HETATM   16  N   UNL     1     -12.004  12.347  67.226  1.00  0.00    -0.537 NA 
HETATM   17  H   UNL     1     -12.771  11.685  67.112  1.00  0.00     0.000 HD 
BRANCH  16  18
HETATM   18  N   UNL     1     -11.689  13.248  66.240  1.00  0.00    -0.351 N  
HETATM   19  C   UNL     1     -10.933  14.443  66.553  1.00  0.00    -0.316 C  
HETATM   20  C   UNL     1     -11.146  15.242  65.282  1.00  0.00    -0.376 C  
HETATM   21  N   UNL     1     -11.896  14.519  64.414  1.00  0.00    -0.423 NA 
HETATM   22  O   UNL     1     -10.727  16.372  65.069  1.00  0.00    -0.638 OA 
HETATM   23  C   UNL     1     -12.317  13.363  64.987  1.00  0.00    -0.436 C  
HETATM   24  O   UNL     1     -13.133  12.606  64.482  1.00  0.00    -0.763 OA 
ENDBRANCH  16  18
ENDBRANCH  15  16
ENDBRANCH  13  15
ENDBRANCH   7  10
TORSDOF 4
ENDMDL
MODEL      100
REMARK 921   NORMALIZED FREE ENERGY PREDICTED BY IDOCK:   -5.49 KCAL/MOL
REMARK 922        TOTAL FREE ENERGY PREDICTED BY IDOCK:   -7.33 KCAL/MOL
REMARK 923 INTER-LIGAND FREE ENERGY PREDICTED BY IDOCK:   -6.57 KCAL/MOL
REMARK 924 INTRA-LIGAND FREE ENERGY PREDICTED BY IDOCK:   -0.76 KCAL/MOL
REMARK 927      BINDING AFFINITY PREDICTED BY RF-SCORE:    0.00 PKD
ROOT
HETATM    1  O   UNL     1     -13.543  13.467  72.982  1.00  0.00    -0.533 OA 
HETATM    2  N   UNL     1     -13.065  12.957  71.961  1.00  0.00    -0.400 N  
HETATM    3  O   UNL     1     -13.103  11.749  71.695  1.00  0.00    -0.441 OA 
HETATM    4  C   UNL     1     -12.406  13.848  70.996  1.00  0.00    -0.376 A  
HETATM    5  C   UNL     1     -12.340  15.218  71.261  1.00  0.00    -0.424 A  
HETATM    6  C   UNL     1     -11.739  16.072  70.330  1.00  0.00    -0.304 A  
HETATM    7  C   UNL     1     -11.200  15.585  69.125  1.00  0.00    -0.300 A  
HETATM    8  C   UNL     1     -11.260  14.201  68.887  1.00  0.00    -0.294 A  
HETATM    9  C   UNL     1     -11.861  13.333  69.815  1.00  0.00    -0.394 A  
ENDROOT
BRANCH   7  10
HETATM   10  C   UNL     1     -10.624  16.527  68.161  1.00  0.00    -0.329 A  
HETATM   11  C   UNL     1     -11.135  17.616  67.479  1.00  0.00     0.076 A  
HETATM   12  C   UNL     1     -10.103  18.109  66.648  1.00  0.00    -0.376 A  
HETATM   13  C   UNL     1      -9.005  17.303  66.864  1.00  0.00    -0.240 A  
HETATM   14  O   UNL     1      -9.318  16.339  67.790  1.00  0.00    -0.213 OA 
BRANCH  13  15
HETATM   15  C   UNL     1      -7.683  17.306  66.295  1.00  0.00    -0.318 C  
BRANCH  15  16
HETATM   16  N   UNL     1      -6.857  18.282  66.525  1.00  0.00    -0.201 NA 
HETATM   17  H   UNL     1      -6.599  18.941  65.790  1.00  0.00     0.000 HD 
BRANCH  16  18
HETATM   18  N   UNL     1      -6.343  18.394  67.793  1.00  0.00    -0.188 N  
HETATM   19  C   UNL     1      -5.647  17.281  68.402  1.00  0.00    -0.141 C  
HETATM   20  C   UNL     1      -5.597  17.745  69.845  1.00  0.00    -0.241 C  
HETATM   21  N   UNL     1      -6.173  18.969  69.945  1.00  0.00    -0.236 NA 
HETATM   22  O   UNL     1      -5.130  17.115  70.784  1.00  0.00    -0.242 OA 
HETATM   23  C   UNL     1      -6.713  19.347  68.759  1.00  0.00    -0.303 C  
HETATM   24  O   UNL     1      -7.425  20.329  68.613  1.00  0.00    -0.149 OA 
ENDBRANCH  16  18
ENDBRANCH  15  16
ENDBRANCH  13  15
ENDBRANCH   7  10
TORSDOF 4
ENDMDL
MODEL      101
REMARK 921   NORMALIZED FREE ENERGY PREDICTED BY IDOCK:   -5.47 KCAL/MOL
REMARK 922        TOTAL FREE ENERGY PREDICTED BY IDOCK:   -7.30 KCAL/MOL
REMARK 923 INTER-LIGAND FREE ENERGY PREDICTED BY IDOCK:   -6.72 KCAL/MOL
REMARK 924 INTRA-LIGAND FREE ENERGY PREDICTED BY IDOCK:   -0.58 KCAL/MOL
REMARK 927      BINDING AFFINITY PREDICTED BY RF-SCORE:    0.00 PKD
ROOT
HETATM    1  O   UNL     1      -7.444  19.418  69.017  1.00  0.00    -0.358 OA 
HETATM    2  N   UNL     1      -8.401  19.311  68.239  1.00  0.00    -0.325 N  
HETATM    3  O   UNL     1      -8.906  20.251  67.611  1.00  0.00    -0.324 OA 
HETATM    4  C   UNL     1      -8.978  17.974  68.045  1.00  0.00    -0.272 A  
HETATM    5  C   UNL     1      -8.438  16.886  68.736  1.00  0.00    -0.244 A  
HETATM    6  C   UNL     1      -8.968  15.608  68.532  1.00  0.00    -0.192 A  
HETATM    7  C   UNL     1     -10.032  15.386  67.638  1.00  0.00    -0.225 A  
HETATM    8  C   UNL     1     -10.573  16.496  66.967  1.00  0.00    -0.255 A  
HETATM    9  C   UNL     1     -10.050  17.786  67.165  1.00  0.00    -0.338 A  
ENDROOT
BRANCH   7  10
HETATM   10  C   UNL     1     -10.519  14.020  67.423  1.00  0.00    -0.263 A  
HETATM   11  C   UNL     1     -11.484  13.478  66.596  1.00  0.00    -0.366 A  
HETATM   12  C   UNL     1     -11.534  12.091  66.867  1.00  0.00    -0.402 A  
HETATM   13  C   UNL     1     -10.592  11.847  67.844  1.00  0.00    -0.201 A  
HETATM   14  O   UNL     1      -9.967  13.021  68.183  1.00  0.00    -0.220 OA 
BRANCH  13  15
HETATM   15  C   UNL     1     -10.205  10.640  68.525  1.00  0.00    -0.175 C  
BRANCH  15  16
HETATM   16  N   UNL     1     -10.067  10.614  69.817  1.00  0.00    -0.442 NA 
HETATM   17  H   UNL     1      -9.439  11.260  70.295  1.00  0.00     0.000 HD 
BRANCH  16  18
HETATM   18  N   UNL     1     -10.798   9.685  70.514  1.00  0.00    -0.284 N  
HETATM   19  C   UNL     1     -10.410   8.291  70.507  1.00  0.00    -0.202 C  
HETATM   20  C   UNL     1     -11.660   7.654  71.083  1.00  0.00    -0.280 C  
HETATM   21  N   UNL     1     -12.564   8.622  71.377  1.00  0.00    -0.309 NA 
HETATM   22  O   UNL     1     -11.844   6.456  71.243  1.00  0.00    -0.327 OA 
HETATM   23  C   UNL     1     -12.122   9.837  70.965  1.00  0.00    -0.346 C  
HETATM   24  O   UNL     1     -12.805  10.850  70.966  1.00  0.00    -0.368 OA 
ENDBRANCH  16  18
ENDBRANCH  15  16
ENDBRANCH  13  15
ENDBRANCH   7  10
TORSDOF 4
ENDMDL
MODEL      102
REMARK 921   NORMALIZED FREE ENERGY PREDICTED BY IDOCK:   -5.45 KCAL/MOL
REMARK 922        TOTAL FREE ENERGY PREDICTED BY IDOCK:   -7.29 KCAL/MOL
REMARK 923 INTER-LIGAND FREE ENERGY PREDICTED BY IDOCK:   -6.56 KCAL/MOL
REMARK 924 INTRA-LIGAND FREE ENERGY PREDICTED BY IDOCK:   -0.73 KCAL/MOL
REMARK 927      BINDING AFFINITY PREDICTED BY RF-SCORE:    0.00 PKD
ROOT
HETATM    1  O   UNL     1     -12.178  13.937  71.949  1.00  0.00    -0.160 OA 
HETATM    2  N   UNL     1     -12.071  14.826  71.095  1.00  0.00    -0.313 N  
HETATM    3  O   UNL     1     -12.038  16.039  71.342  1.00  0.00    -0.426 OA 
HETATM    4  C   UNL     1     -11.975  14.413  69.688  1.00  0.00    -0.336 A  
HETATM    5  C   UNL     1     -12.011  13.054  69.367  1.00  0.00    -0.338 A  
HETATM    6  C   UNL     1     -11.891  12.658  68.031  1.00  0.00    -0.376 A  
HETATM    7  C   UNL     1     -11.730  13.598  66.996  1.00  0.00    -0.419 A  
HETATM    8  C   UNL     1     -11.716  14.961  67.338  1.00  0.00    -0.311 A  
HETATM    9  C   UNL     1     -11.836  15.372  68.677  1.00  0.00    -0.317 A  
ENDROOT
BRANCH   7  10
HETATM   10  C   UNL     1     -11.560  13.129  65.617  1.00  0.00    -0.338 A  
HETATM   11  C   UNL     1     -12.288  13.317  64.457  1.00  0.00    -0.428 A  
HETATM   12  C   UNL     1     -11.649  12.571  63.439  1.00  0.00    -0.547 A  
HETATM   13  C   UNL     1     -10.555  11.967  64.022  1.00  0.00    -0.374 A  
HETATM   14  O   UNL     1     -10.496  12.308  65.350  1.00  0.00    -0.255 OA 
BRANCH  13  15
HETATM   15  C   UNL     1      -9.550  11.083  63.494  1.00  0.00    -0.313 C  
BRANCH  15  16
HETATM   16  N   UNL     1      -8.449  10.855  64.144  1.00  0.00    -0.374 NA 
HETATM   17  H   UNL     1      -7.766  11.596  64.304  1.00  0.00     0.000 HD 
BRANCH  16  18
HETATM   18  N   UNL     1      -8.237   9.580  64.606  1.00  0.00    -0.136 N  
HETATM   19  C   UNL     1      -7.957   8.502  63.682  1.00  0.00    -0.161 C  
HETATM   20  C   UNL     1      -8.151   7.303  64.591  1.00  0.00    -0.081 C  
HETATM   21  N   UNL     1      -8.461   7.731  65.840  1.00  0.00    -0.136 NA 
HETATM   22  O   UNL     1      -8.064   6.130  64.256  1.00  0.00    -0.124 OA 
HETATM   23  C   UNL     1      -8.613   9.079  65.865  1.00  0.00    -0.154 C  
HETATM   24  O   UNL     1      -9.045   9.701  66.825  1.00  0.00    -0.142 OA 
ENDBRANCH  16  18
ENDBRANCH  15  16
ENDBRANCH  13  15
ENDBRANCH   7  10
TORSDOF 4
ENDMDL
MODEL      103
REMARK 921   NORMALIZED FREE ENERGY PREDICTED BY IDOCK:   -5.45 KCAL/MOL
REMARK 922        TOTAL FREE ENERGY PREDICTED BY IDOCK:   -7.28 KCAL/MOL
REMARK 923 INTER-LIGAND FREE ENERGY PREDICTED BY IDOCK:   -6.58 KCAL/MOL
REMARK 924 INTRA-LIGAND FREE ENERGY PREDICTED BY IDOCK:   -0.70 KCAL/MOL
REMARK 927      BINDING AFFINITY PREDICTED BY RF-SCORE:    0.00 PKD
ROOT
HETATM    1  O   UNL     1     -13.176  14.157  65.347  1.00  0.00    -0.741 OA 
HETATM    2  N   UNL     1     -12.458  13.255  64.896  1.00  0.00    -0.417 N  
HETATM    3  O   UNL     1     -12.315  13.006  63.692  1.00  0.00    -0.621 OA 
HETATM    4  C   UNL     1     -11.723  12.422  65.858  1.00  0.00    -0.419 A  
HETATM    5  C   UNL     1     -11.858  12.670  67.226  1.00  0.00    -0.395 A  
HETATM    6  C   UNL     1     -11.137  11.897  68.141  1.00  0.00    -0.294 A  
HETATM    7  C   UNL     1     -10.269  10.873  67.718  1.00  0.00    -0.209 A  
HETATM    8  C   UNL     1     -10.161  10.628  66.338  1.00  0.00    -0.291 A  
HETATM    9  C   UNL     1     -10.882  11.397  65.409  1.00  0.00    -0.292 A  
ENDROOT
BRANCH   7  10
HETATM   10  C   UNL     1      -9.499  10.124  68.715  1.00  0.00    -0.171 A  
HETATM   11  C   UNL     1      -8.254   9.522  68.694  1.00  0.00    -0.112 A  
HETATM   12  C   UNL     1      -8.068   8.908  69.954  1.00  0.00    -0.112 A  
HETATM   13  C   UNL     1      -9.205   9.167  70.691  1.00  0.00    -0.258 A  
HETATM   14  O   UNL     1     -10.079   9.913  69.939  1.00  0.00    -0.230 OA 
BRANCH  13  15
HETATM   15  C   UNL     1      -9.594   8.788  72.023  1.00  0.00    -0.286 C  
BRANCH  15  16
HETATM   16  N   UNL     1     -10.679   8.105  72.236  1.00  0.00    -0.287 NA 
HETATM   17  H   UNL     1     -11.548   8.565  72.509  1.00  0.00     0.000 HD 
BRANCH  16  18
HETATM   18  N   UNL     1     -10.613   6.744  72.080  1.00  0.00    -0.211 N  
HETATM   19  C   UNL     1      -9.834   5.938  72.995  1.00  0.00    -0.167 C  
HETATM   20  C   UNL     1      -9.784   4.627  72.233  1.00  0.00    -0.161 C  
HETATM   21  N   UNL     1     -10.487   4.749  71.080  1.00  0.00    -0.112 NA 
HETATM   22  O   UNL     1      -9.190   3.617  72.585  1.00  0.00    -0.102 OA 
HETATM   23  C   UNL     1     -10.917   6.025  70.909  1.00  0.00    -0.289 C  
HETATM   24  O   UNL     1     -11.434   6.442  69.883  1.00  0.00    -0.404 OA 
ENDBRANCH  16  18
ENDBRANCH  15  16
ENDBRANCH  13  15
ENDBRANCH   7  10
TORSDOF 4
ENDMDL
MODEL      104
REMARK 921   NORMALIZED FREE ENERGY PREDICTED BY IDOCK:   -5.44 KCAL/MOL
REMARK 922        TOTAL FREE ENERGY PREDICTED BY IDOCK:   -7.27 KCAL/MOL
REMARK 923 INTER-LIGAND FREE ENERGY PREDICTED BY IDOCK:   -6.62 KCAL/MOL
REMARK 924 INTRA-LIGAND FREE ENERGY PREDICTED BY IDOCK:   -0.65 KCAL/MOL
REMARK 927      BINDING AFFINITY PREDICTED BY RF-SCORE:    0.00 PKD
ROOT
HETATM    1  O   UNL     1      -9.155   2.018  71.829  1.00  0.00    -0.075 OA 
HETATM    2  N   UNL     1      -9.362   2.663  70.794  1.00  0.00    -0.135 N  
HETATM    3  O   UNL     1      -9.150   2.244  69.648  1.00  0.00    -0.089 OA 
HETATM    4  C   UNL     1      -9.899   4.024  70.934  1.00  0.00    -0.159 A  
HETATM    5  C   UNL     1     -10.150   4.536  72.209  1.00  0.00    -0.253 A  
HETATM    6  C   UNL     1     -10.688   5.820  72.343  1.00  0.00    -0.280 A  
HETATM    7  C   UNL     1     -10.989   6.613  71.220  1.00  0.00    -0.296 A  
HETATM    8  C   UNL     1     -10.711   6.087  69.947  1.00  0.00    -0.393 A  
HETATM    9  C   UNL     1     -10.170   4.798  69.799  1.00  0.00    -0.218 A  
ENDROOT
BRANCH   7  10
HETATM   10  C   UNL     1     -11.596   7.933  71.413  1.00  0.00    -0.272 A  
HETATM   11  C   UNL     1     -12.345   8.491  72.433  1.00  0.00    -0.424 A  
HETATM   12  C   UNL     1     -12.688   9.802  72.028  1.00  0.00    -0.463 A  
HETATM   13  C   UNL     1     -12.127   9.989  70.782  1.00  0.00    -0.327 A  
HETATM   14  O   UNL     1     -11.456   8.852  70.405  1.00  0.00    -0.246 OA 
BRANCH  13  15
HETATM   15  C   UNL     1     -12.151  11.105  69.875  1.00  0.00    -0.344 C  
BRANCH  15  16
HETATM   16  N   UNL     1     -12.360  10.932  68.604  1.00  0.00    -0.777 NA 
HETATM   17  H   UNL     1     -13.219  10.500  68.263  1.00  0.00     0.000 HD 
BRANCH  16  18
HETATM   18  N   UNL     1     -11.381  11.351  67.737  1.00  0.00    -0.279 N  
HETATM   19  C   UNL     1     -11.367  12.714  67.251  1.00  0.00    -0.318 C  
HETATM   20  C   UNL     1     -10.372  12.590  66.113  1.00  0.00    -0.253 C  
HETATM   21  N   UNL     1      -9.912  11.315  66.054  1.00  0.00    -0.222 NA 
HETATM   22  O   UNL     1     -10.044  13.487  65.349  1.00  0.00    -0.299 OA 
HETATM   23  C   UNL     1     -10.561  10.526  66.947  1.00  0.00    -0.243 C  
HETATM   24  O   UNL     1     -10.451   9.309  66.992  1.00  0.00    -0.253 OA 
ENDBRANCH  16  18
ENDBRANCH  15  16
ENDBRANCH  13  15
ENDBRANCH   7  10
TORSDOF 4
ENDMDL
MODEL      105
REMARK 921   NORMALIZED FREE ENERGY PREDICTED BY IDOCK:   -5.44 KCAL/MOL
REMARK 922        TOTAL FREE ENERGY PREDICTED BY IDOCK:   -7.27 KCAL/MOL
REMARK 923 INTER-LIGAND FREE ENERGY PREDICTED BY IDOCK:   -6.60 KCAL/MOL
REMARK 924 INTRA-LIGAND FREE ENERGY PREDICTED BY IDOCK:   -0.67 KCAL/MOL
REMARK 927      BINDING AFFINITY PREDICTED BY RF-SCORE:    0.00 PKD
ROOT
HETATM    1  O   UNL     1     -12.621  14.706  73.559  1.00  0.00    -0.464 OA 
HETATM    2  N   UNL     1     -12.214  15.532  72.733  1.00  0.00    -0.391 N  
HETATM    3  O   UNL     1     -11.916  16.704  72.998  1.00  0.00    -0.506 OA 
HETATM    4  C   UNL     1     -12.075  15.091  71.338  1.00  0.00    -0.339 A  
HETATM    5  C   UNL     1     -12.403  13.777  70.997  1.00  0.00    -0.452 A  
HETATM    6  C   UNL     1     -12.244  13.348  69.675  1.00  0.00    -0.279 A  
HETATM    7  C   UNL     1     -11.753  14.208  68.675  1.00  0.00    -0.385 A  
HETATM    8  C   UNL     1     -11.446  15.532  69.036  1.00  0.00    -0.361 A  
HETATM    9  C   UNL     1     -11.603  15.975  70.360  1.00  0.00    -0.364 A  
ENDROOT
BRANCH   7  10
HETATM   10  C   UNL     1     -11.559  13.696  67.316  1.00  0.00    -0.356 A  
HETATM   11  C   UNL     1     -12.218  13.910  66.120  1.00  0.00    -0.498 A  
HETATM   12  C   UNL     1     -11.593  13.095  65.148  1.00  0.00    -0.347 A  
HETATM   13  C   UNL     1     -10.575  12.424  65.793  1.00  0.00    -0.256 A  
HETATM   14  O   UNL     1     -10.549  12.791  67.115  1.00  0.00    -0.235 OA 
BRANCH  13  15
HETATM   15  C   UNL     1      -9.619  11.455  65.329  1.00  0.00    -0.228 C  
BRANCH  15  16
HETATM   16  N   UNL     1      -8.381  11.492  65.724  1.00  0.00    -0.376 NA 
HETATM   17  H   UNL     1      -7.673  12.005  65.198  1.00  0.00     0.000 HD 
BRANCH  16  18
HETATM   18  N   UNL     1      -8.062  10.814  66.874  1.00  0.00    -0.127 N  
HETATM   19  C   UNL     1      -8.791   9.622  67.249  1.00  0.00    -0.132 C  
HETATM   20  C   UNL     1      -8.336   9.463  68.687  1.00  0.00    -0.117 C  
HETATM   21  N   UNL     1      -7.452  10.445  68.991  1.00  0.00    -0.096 NA 
HETATM   22  O   UNL     1      -8.716   8.600  69.466  1.00  0.00    -0.135 OA 
HETATM   23  C   UNL     1      -7.335  11.325  67.964  1.00  0.00    -0.092 C  
HETATM   24  O   UNL     1      -6.728  12.383  68.035  1.00  0.00    -0.066 OA 
ENDBRANCH  16  18
ENDBRANCH  15  16
ENDBRANCH  13  15
ENDBRANCH   7  10
TORSDOF 4
ENDMDL
MODEL      106
REMARK 921   NORMALIZED FREE ENERGY PREDICTED BY IDOCK:   -5.43 KCAL/MOL
REMARK 922        TOTAL FREE ENERGY PREDICTED BY IDOCK:   -7.26 KCAL/MOL
REMARK 923 INTER-LIGAND FREE ENERGY PREDICTED BY IDOCK:   -6.75 KCAL/MOL
REMARK 924 INTRA-LIGAND FREE ENERGY PREDICTED BY IDOCK:   -0.51 KCAL/MOL
REMARK 927      BINDING AFFINITY PREDICTED BY RF-SCORE:    0.00 PKD
ROOT
HETATM    1  O   UNL     1     -11.423   5.557  73.178  1.00  0.00    -0.266 OA 
HETATM    2  N   UNL     1     -10.723   5.230  72.211  1.00  0.00    -0.225 N  
HETATM    3  O   UNL     1     -10.163   4.133  72.087  1.00  0.00    -0.182 OA 
HETATM    4  C   UNL     1     -10.546   6.212  71.133  1.00  0.00    -0.246 A  
HETATM    5  C   UNL     1     -11.161   7.463  71.235  1.00  0.00    -0.269 A  
HETATM    6  C   UNL     1     -11.017   8.388  70.197  1.00  0.00    -0.216 A  
HETATM    7  C   UNL     1     -10.269   8.090  69.042  1.00  0.00    -0.217 A  
HETATM    8  C   UNL     1      -9.643   6.834  68.968  1.00  0.00    -0.135 A  
HETATM    9  C   UNL     1      -9.780   5.895  70.005  1.00  0.00    -0.209 A  
ENDROOT
BRANCH   7  10
HETATM   10  C   UNL     1     -10.189   9.077  67.961  1.00  0.00    -0.212 A  
HETATM   11  C   UNL     1     -10.345   8.994  66.590  1.00  0.00    -0.289 A  
HETATM   12  C   UNL     1     -10.104  10.285  66.065  1.00  0.00    -0.311 A  
HETATM   13  C   UNL     1      -9.817  11.100  67.141  1.00  0.00    -0.187 A  
HETATM   14  O   UNL     1      -9.872  10.367  68.300  1.00  0.00    -0.149 OA 
BRANCH  13  15
HETATM   15  C   UNL     1      -9.476  12.495  67.225  1.00  0.00    -0.193 C  
BRANCH  15  16
HETATM   16  N   UNL     1      -9.178  13.178  66.160  1.00  0.00    -0.466 NA 
HETATM   17  H   UNL     1      -8.299  13.028  65.665  1.00  0.00     0.000 HD 
BRANCH  16  18
HETATM   18  N   UNL     1     -10.089  14.109  65.728  1.00  0.00    -0.323 N  
HETATM   19  C   UNL     1     -11.326  13.689  65.104  1.00  0.00    -0.309 C  
HETATM   20  C   UNL     1     -11.794  15.004  64.511  1.00  0.00    -0.371 C  
HETATM   21  N   UNL     1     -10.910  15.982  64.828  1.00  0.00    -0.629 NA 
HETATM   22  O   UNL     1     -12.800  15.166  63.833  1.00  0.00    -0.671 OA 
HETATM   23  C   UNL     1      -9.832  15.468  65.474  1.00  0.00    -0.313 C  
HETATM   24  O   UNL     1      -8.821  16.104  65.731  1.00  0.00    -0.362 OA 
ENDBRANCH  16  18
ENDBRANCH  15  16
ENDBRANCH  13  15
ENDBRANCH   7  10
TORSDOF 4
ENDMDL
MODEL      107
REMARK 921   NORMALIZED FREE ENERGY PREDICTED BY IDOCK:   -5.42 KCAL/MOL
REMARK 922        TOTAL FREE ENERGY PREDICTED BY IDOCK:   -7.25 KCAL/MOL
REMARK 923 INTER-LIGAND FREE ENERGY PREDICTED BY IDOCK:   -6.68 KCAL/MOL
REMARK 924 INTRA-LIGAND FREE ENERGY PREDICTED BY IDOCK:   -0.57 KCAL/MOL
REMARK 927      BINDING AFFINITY PREDICTED BY RF-SCORE:    0.00 PKD
ROOT
HETATM    1  O   UNL     1      -6.535  20.431  69.124  1.00  0.00    -0.297 OA 
HETATM    2  N   UNL     1      -6.337  19.217  69.251  1.00  0.00    -0.278 N  
HETATM    3  O   UNL     1      -5.470  18.717  69.979  1.00  0.00    -0.210 OA 
HETATM    4  C   UNL     1      -7.192  18.301  68.482  1.00  0.00    -0.283 A  
HETATM    5  C   UNL     1      -8.182  18.825  67.647  1.00  0.00    -0.282 A  
HETATM    6  C   UNL     1      -9.016  17.955  66.937  1.00  0.00    -0.265 A  
HETATM    7  C   UNL     1      -8.887  16.558  67.047  1.00  0.00    -0.217 A  
HETATM    8  C   UNL     1      -7.873  16.052  67.878  1.00  0.00    -0.148 A  
HETATM    9  C   UNL     1      -7.028  16.916  68.596  1.00  0.00    -0.191 A  
ENDROOT
BRANCH   7  10
HETATM   10  C   UNL     1      -9.817  15.689  66.319  1.00  0.00    -0.295 A  
HETATM   11  C   UNL     1     -10.663  15.897  65.245  1.00  0.00    -0.442 A  
HETATM   12  C   UNL     1     -11.350  14.683  65.015  1.00  0.00    -0.390 A  
HETATM   13  C   UNL     1     -10.888  13.785  65.955  1.00  0.00    -0.282 A  
HETATM   14  O   UNL     1      -9.950  14.395  66.750  1.00  0.00    -0.251 OA 
BRANCH  13  15
HETATM   15  C   UNL     1     -11.228  12.413  66.222  1.00  0.00    -0.317 C  
BRANCH  15  16
HETATM   16  N   UNL     1     -11.941  12.089  67.260  1.00  0.00    -0.590 NA 
HETATM   17  H   UNL     1     -12.895  12.432  67.374  1.00  0.00     0.000 HD 
BRANCH  16  18
HETATM   18  N   UNL     1     -11.363  11.267  68.195  1.00  0.00    -0.279 N  
HETATM   19  C   UNL     1     -10.789   9.998  67.801  1.00  0.00    -0.282 C  
HETATM   20  C   UNL     1     -10.616   9.343  69.158  1.00  0.00    -0.218 C  
HETATM   21  N   UNL     1     -11.026  10.198  70.127  1.00  0.00    -0.295 NA 
HETATM   22  O   UNL     1     -10.193   8.212  69.358  1.00  0.00    -0.201 OA 
HETATM   23  C   UNL     1     -11.565  11.319  69.586  1.00  0.00    -0.330 C  
HETATM   24  O   UNL     1     -12.152  12.177  70.229  1.00  0.00    -0.339 OA 
ENDBRANCH  16  18
ENDBRANCH  15  16
ENDBRANCH  13  15
ENDBRANCH   7  10
TORSDOF 4
ENDMDL
MODEL      108
REMARK 921   NORMALIZED FREE ENERGY PREDICTED BY IDOCK:   -5.42 KCAL/MOL
REMARK 922        TOTAL FREE ENERGY PREDICTED BY IDOCK:   -7.25 KCAL/MOL
REMARK 923 INTER-LIGAND FREE ENERGY PREDICTED BY IDOCK:   -6.69 KCAL/MOL
REMARK 924 INTRA-LIGAND FREE ENERGY PREDICTED BY IDOCK:   -0.56 KCAL/MOL
REMARK 927      BINDING AFFINITY PREDICTED BY RF-SCORE:    0.00 PKD
ROOT
HETATM    1  O   UNL     1      -6.983  19.779  68.885  1.00  0.00    -0.322 OA 
HETATM    2  N   UNL     1      -7.759  19.845  67.923  1.00  0.00    -0.292 N  
HETATM    3  O   UNL     1      -7.871  20.824  67.174  1.00  0.00    -0.320 OA 
HETATM    4  C   UNL     1      -8.608  18.676  67.650  1.00  0.00    -0.272 A  
HETATM    5  C   UNL     1      -8.514  17.552  68.473  1.00  0.00    -0.280 A  
HETATM    6  C   UNL     1      -9.300  16.428  68.197  1.00  0.00    -0.209 A  
HETATM    7  C   UNL     1     -10.185  16.399  67.104  1.00  0.00    -0.282 A  
HETATM    8  C   UNL     1     -10.279  17.548  66.300  1.00  0.00    -0.356 A  
HETATM    9  C   UNL     1      -9.494  18.683  66.567  1.00  0.00    -0.331 A  
ENDROOT
BRANCH   7  10
HETATM   10  C   UNL     1     -10.952  15.180  66.830  1.00  0.00    -0.323 A  
HETATM   11  C   UNL     1     -11.660  14.734  65.730  1.00  0.00    -0.290 A  
HETATM   12  C   UNL     1     -12.229  13.487  66.079  1.00  0.00    -0.493 A  
HETATM   13  C   UNL     1     -11.836  13.224  67.374  1.00  0.00    -0.366 A  
HETATM   14  O   UNL     1     -11.053  14.253  67.835  1.00  0.00    -0.263 OA 
BRANCH  13  15
HETATM   15  C   UNL     1     -12.117  12.125  68.259  1.00  0.00    -0.008 C  
BRANCH  15  16
HETATM   16  N   UNL     1     -11.967  10.894  67.869  1.00  0.00    -0.735 NA 
HETATM   17  H   UNL     1     -12.498  10.521  67.081  1.00  0.00     0.000 HD 
BRANCH  16  18
HETATM   18  N   UNL     1     -11.070  10.116  68.555  1.00  0.00    -0.237 N  
HETATM   19  C   UNL     1     -10.656  10.480  69.893  1.00  0.00    -0.211 C  
HETATM   20  C   UNL     1      -9.458   9.567  70.068  1.00  0.00    -0.232 C  
HETATM   21  N   UNL     1      -9.306   8.804  68.957  1.00  0.00    -0.145 NA 
HETATM   22  O   UNL     1      -8.724   9.528  71.046  1.00  0.00    -0.260 OA 
HETATM   23  C   UNL     1     -10.192   9.169  67.996  1.00  0.00    -0.211 C  
HETATM   24  O   UNL     1     -10.167   8.753  66.847  1.00  0.00    -0.249 OA 
ENDBRANCH  16  18
ENDBRANCH  15  16
ENDBRANCH  13  15
ENDBRANCH   7  10
TORSDOF 4
ENDMDL
MODEL      109
REMARK 921   NORMALIZED FREE ENERGY PREDICTED BY IDOCK:   -5.42 KCAL/MOL
REMARK 922        TOTAL FREE ENERGY PREDICTED BY IDOCK:   -7.24 KCAL/MOL
REMARK 923 INTER-LIGAND FREE ENERGY PREDICTED BY IDOCK:   -6.64 KCAL/MOL
REMARK 924 INTRA-LIGAND FREE ENERGY PREDICTED BY IDOCK:   -0.60 KCAL/MOL
REMARK 927      BINDING AFFINITY PREDICTED BY RF-SCORE:    0.00 PKD
ROOT
HETATM    1  O   UNL     1      -8.821   8.524  65.449  1.00  0.00    -0.179 OA 
HETATM    2  N   UNL     1      -9.774   8.781  66.196  1.00  0.00    -0.265 N  
HETATM    3  O   UNL     1     -10.512   7.933  66.714  1.00  0.00    -0.327 OA 
HETATM    4  C   UNL     1     -10.048  10.195  66.491  1.00  0.00    -0.234 A  
HETATM    5  C   UNL     1      -9.239  11.184  65.926  1.00  0.00    -0.225 A  
HETATM    6  C   UNL     1      -9.481  12.528  66.228  1.00  0.00    -0.210 A  
HETATM    7  C   UNL     1     -10.519  12.912  67.096  1.00  0.00    -0.241 A  
HETATM    8  C   UNL     1     -11.333  11.903  67.639  1.00  0.00    -0.372 A  
HETATM    9  C   UNL     1     -11.101  10.549  67.342  1.00  0.00    -0.322 A  
ENDROOT
BRANCH   7  10
HETATM   10  C   UNL     1     -10.700  14.331  67.418  1.00  0.00    -0.282 A  
HETATM   11  C   UNL     1     -11.251  14.994  68.499  1.00  0.00    -0.298 A  
HETATM   12  C   UNL     1     -11.180  16.378  68.219  1.00  0.00    -0.300 A  
HETATM   13  C   UNL     1     -10.582  16.499  66.982  1.00  0.00    -0.255 A  
HETATM   14  O   UNL     1     -10.285  15.252  66.492  1.00  0.00    -0.260 OA 
BRANCH  13  15
HETATM   15  C   UNL     1     -10.263  17.648  66.177  1.00  0.00    -0.343 C  
BRANCH  15  16
HETATM   16  N   UNL     1      -9.967  18.789  66.725  1.00  0.00    -0.336 NA 
HETATM   17  H   UNL     1     -10.645  19.550  66.763  1.00  0.00     0.000 HD 
BRANCH  16  18
HETATM   18  N   UNL     1      -8.707  18.932  67.249  1.00  0.00    -0.275 N  
HETATM   19  C   UNL     1      -8.521  19.114  68.673  1.00  0.00    -0.362 C  
HETATM   20  C   UNL     1      -7.073  19.563  68.706  1.00  0.00    -0.348 C  
HETATM   21  N   UNL     1      -6.575  19.574  67.444  1.00  0.00    -0.196 NA 
HETATM   22  O   UNL     1      -6.447  19.886  69.706  1.00  0.00    -0.343 OA 
HETATM   23  C   UNL     1      -7.547  19.294  66.539  1.00  0.00    -0.252 C  
HETATM   24  O   UNL     1      -7.405  19.393  65.330  1.00  0.00    -0.414 OA 
ENDBRANCH  16  18
ENDBRANCH  15  16
ENDBRANCH  13  15
ENDBRANCH   7  10
TORSDOF 4
ENDMDL
MODEL      110
REMARK 921   NORMALIZED FREE ENERGY PREDICTED BY IDOCK:   -5.40 KCAL/MOL
REMARK 922        TOTAL FREE ENERGY PREDICTED BY IDOCK:   -7.22 KCAL/MOL
REMARK 923 INTER-LIGAND FREE ENERGY PREDICTED BY IDOCK:   -6.57 KCAL/MOL
REMARK 924 INTRA-LIGAND FREE ENERGY PREDICTED BY IDOCK:   -0.65 KCAL/MOL
REMARK 927      BINDING AFFINITY PREDICTED BY RF-SCORE:    0.00 PKD
ROOT
HETATM    1  O   UNL     1     -13.139  15.654  71.993  1.00  0.00    -0.417 OA 
HETATM    2  N   UNL     1     -12.973  14.429  71.955  1.00  0.00    -0.335 N  
HETATM    3  O   UNL     1     -13.173  13.661  72.906  1.00  0.00    -0.498 OA 
HETATM    4  C   UNL     1     -12.506  13.841  70.691  1.00  0.00    -0.359 A  
HETATM    5  C   UNL     1     -12.267  14.673  69.595  1.00  0.00    -0.325 A  
HETATM    6  C   UNL     1     -11.851  14.112  68.383  1.00  0.00    -0.388 A  
HETATM    7  C   UNL     1     -11.670  12.724  68.237  1.00  0.00    -0.388 A  
HETATM    8  C   UNL     1     -11.898  11.907  69.358  1.00  0.00    -0.389 A  
HETATM    9  C   UNL     1     -12.316  12.459  70.581  1.00  0.00    -0.367 A  
ENDROOT
BRANCH   7  10
HETATM   10  C   UNL     1     -11.278  12.182  66.932  1.00  0.00    -0.320 A  
HETATM   11  C   UNL     1     -11.750  12.375  65.647  1.00  0.00    -0.468 A  
HETATM   12  C   UNL     1     -10.992  11.537  64.796  1.00  0.00    -0.338 A  
HETATM   13  C   UNL     1     -10.088  10.875  65.599  1.00  0.00    -0.261 A  
HETATM   14  O   UNL     1     -10.257  11.269  66.903  1.00  0.00    -0.206 OA 
BRANCH  13  15
HETATM   15  C   UNL     1      -9.080   9.892  65.303  1.00  0.00    -0.211 C  
BRANCH  15  16
HETATM   16  N   UNL     1      -8.503   9.216  66.251  1.00  0.00    -0.121 NA 
HETATM   17  H   UNL     1      -7.916   9.676  66.947  1.00  0.00     0.000 HD 
BRANCH  16  18
HETATM   18  N   UNL     1      -8.713   7.860  66.282  1.00  0.00    -0.147 N  
HETATM   19  C   UNL     1      -7.895   6.973  65.483  1.00  0.00    -0.115 C  
HETATM   20  C   UNL     1      -8.705   5.694  65.575  1.00  0.00    -0.150 C  
HETATM   21  N   UNL     1      -9.791   5.904  66.359  1.00  0.00    -0.147 NA 
HETATM   22  O   UNL     1      -8.440   4.638  65.017  1.00  0.00    -0.122 OA 
HETATM   23  C   UNL     1      -9.880   7.209  66.722  1.00  0.00    -0.205 C  
HETATM   24  O   UNL     1     -10.843   7.696  67.294  1.00  0.00    -0.293 OA 
ENDBRANCH  16  18
ENDBRANCH  15  16
ENDBRANCH  13  15
ENDBRANCH   7  10
TORSDOF 4
ENDMDL
MODEL      111
REMARK 921   NORMALIZED FREE ENERGY PREDICTED BY IDOCK:   -5.40 KCAL/MOL
REMARK 922        TOTAL FREE ENERGY PREDICTED BY IDOCK:   -7.21 KCAL/MOL
REMARK 923 INTER-LIGAND FREE ENERGY PREDICTED BY IDOCK:   -6.59 KCAL/MOL
REMARK 924 INTRA-LIGAND FREE ENERGY PREDICTED BY IDOCK:   -0.63 KCAL/MOL
REMARK 927      BINDING AFFINITY PREDICTED BY RF-SCORE:    0.00 PKD
ROOT
HETATM    1  O   UNL     1     -11.300   4.891  73.299  1.00  0.00    -0.324 OA 
HETATM    2  N   UNL     1     -10.860   6.048  73.306  1.00  0.00    -0.261 N  
HETATM    3  O   UNL     1     -10.457   6.642  74.315  1.00  0.00    -0.344 OA 
HETATM    4  C   UNL     1     -10.810   6.767  72.026  1.00  0.00    -0.227 A  
HETATM    5  C   UNL     1     -11.257   6.134  70.864  1.00  0.00    -0.365 A  
HETATM    6  C   UNL     1     -11.183   6.807  69.640  1.00  0.00    -0.345 A  
HETATM    7  C   UNL     1     -10.664   8.111  69.547  1.00  0.00    -0.180 A  
HETATM    8  C   UNL     1     -10.238   8.738  70.731  1.00  0.00    -0.262 A  
HETATM    9  C   UNL     1     -10.307   8.072  71.966  1.00  0.00    -0.298 A  
ENDROOT
BRANCH   7  10
HETATM   10  C   UNL     1     -10.565   8.755  68.233  1.00  0.00    -0.142 A  
HETATM   11  C   UNL     1     -10.312   8.276  66.961  1.00  0.00    -0.393 A  
HETATM   12  C   UNL     1     -10.299   9.391  66.092  1.00  0.00    -0.162 A  
HETATM   13  C   UNL     1     -10.552  10.501  66.871  1.00  0.00    -0.243 A  
HETATM   14  O   UNL     1     -10.719  10.115  68.178  1.00  0.00    -0.210 OA 
BRANCH  13  15
HETATM   15  C   UNL     1     -10.642  11.900  66.550  1.00  0.00    -0.243 C  
BRANCH  15  16
HETATM   16  N   UNL     1     -11.784  12.521  66.571  1.00  0.00    -0.429 NA 
HETATM   17  H   UNL     1     -12.619  12.107  66.156  1.00  0.00     0.000 HD 
BRANCH  16  18
HETATM   18  N   UNL     1     -11.825  13.754  67.172  1.00  0.00    -0.386 N  
HETATM   19  C   UNL     1     -11.286  14.916  66.499  1.00  0.00    -0.335 C  
HETATM   20  C   UNL     1     -11.239  15.903  67.650  1.00  0.00    -0.219 C  
HETATM   21  N   UNL     1     -11.730  15.314  68.769  1.00  0.00    -0.355 NA 
HETATM   22  O   UNL     1     -10.810  17.047  67.594  1.00  0.00    -0.331 OA 
HETATM   23  C   UNL     1     -12.002  14.004  68.545  1.00  0.00    -0.348 C  
HETATM   24  O   UNL     1     -12.304  13.208  69.422  1.00  0.00    -0.187 OA 
ENDBRANCH  16  18
ENDBRANCH  15  16
ENDBRANCH  13  15
ENDBRANCH   7  10
TORSDOF 4
ENDMDL
MODEL      112
REMARK 921   NORMALIZED FREE ENERGY PREDICTED BY IDOCK:   -5.38 KCAL/MOL
REMARK 922        TOTAL FREE ENERGY PREDICTED BY IDOCK:   -7.19 KCAL/MOL
REMARK 923 INTER-LIGAND FREE ENERGY PREDICTED BY IDOCK:   -6.67 KCAL/MOL
REMARK 924 INTRA-LIGAND FREE ENERGY PREDICTED BY IDOCK:   -0.52 KCAL/MOL
REMARK 927      BINDING AFFINITY PREDICTED BY RF-SCORE:    0.00 PKD
ROOT
HETATM    1  O   UNL     1     -10.697   7.205  69.198  1.00  0.00    -0.217 OA 
HETATM    2  N   UNL     1     -10.586   7.889  68.173  1.00  0.00    -0.165 N  
HETATM    3  O   UNL     1     -10.357   7.434  67.044  1.00  0.00    -0.259 OA 
HETATM    4  C   UNL     1     -10.737   9.346  68.304  1.00  0.00    -0.171 A  
HETATM    5  C   UNL     1     -10.993   9.899  69.560  1.00  0.00    -0.274 A  
HETATM    6  C   UNL     1     -11.166  11.282  69.682  1.00  0.00    -0.321 A  
HETATM    7  C   UNL     1     -11.092  12.134  68.564  1.00  0.00    -0.295 A  
HETATM    8  C   UNL     1     -10.815  11.559  67.312  1.00  0.00    -0.301 A  
HETATM    9  C   UNL     1     -10.639  10.171  67.178  1.00  0.00    -0.308 A  
ENDROOT
BRANCH   7  10
HETATM   10  C   UNL     1     -11.328  13.571  68.738  1.00  0.00    -0.290 A  
HETATM   11  C   UNL     1     -11.965  14.315  69.714  1.00  0.00    -0.394 A  
HETATM   12  C   UNL     1     -11.908  15.669  69.309  1.00  0.00    -0.378 A  
HETATM   13  C   UNL     1     -11.233  15.691  68.106  1.00  0.00    -0.345 A  
HETATM   14  O   UNL     1     -10.874  14.413  67.757  1.00  0.00    -0.252 OA 
BRANCH  13  15
HETATM   15  C   UNL     1     -10.889  16.770  67.218  1.00  0.00    -0.137 C  
BRANCH  15  16
HETATM   16  N   UNL     1     -10.854  17.999  67.637  1.00  0.00    -0.333 NA 
HETATM   17  H   UNL     1     -11.705  18.485  67.921  1.00  0.00     0.000 HD 
BRANCH  16  18
HETATM   18  N   UNL     1      -9.631  18.619  67.684  1.00  0.00    -0.295 N  
HETATM   19  C   UNL     1      -8.658  18.247  68.688  1.00  0.00    -0.283 C  
HETATM   20  C   UNL     1      -7.678  19.397  68.560  1.00  0.00    -0.345 C  
HETATM   21  N   UNL     1      -8.092  20.236  67.578  1.00  0.00    -0.320 NA 
HETATM   22  O   UNL     1      -6.676  19.563  69.242  1.00  0.00    -0.316 OA 
HETATM   23  C   UNL     1      -9.303  19.855  67.097  1.00  0.00    -0.364 C  
HETATM   24  O   UNL     1      -9.972  20.522  66.322  1.00  0.00    -0.309 OA 
ENDBRANCH  16  18
ENDBRANCH  15  16
ENDBRANCH  13  15
ENDBRANCH   7  10
TORSDOF 4
ENDMDL
MODEL      113
REMARK 921   NORMALIZED FREE ENERGY PREDICTED BY IDOCK:   -5.37 KCAL/MOL
REMARK 922        TOTAL FREE ENERGY PREDICTED BY IDOCK:   -7.18 KCAL/MOL
REMARK 923 INTER-LIGAND FREE ENERGY PREDICTED BY IDOCK:   -6.47 KCAL/MOL
REMARK 924 INTRA-LIGAND FREE ENERGY PREDICTED BY IDOCK:   -0.71 KCAL/MOL
REMARK 927      BINDING AFFINITY PREDICTED BY RF-SCORE:    0.00 PKD
ROOT
HETATM    1  O   UNL     1      -8.420   5.873  65.962  1.00  0.00    -0.126 OA 
HETATM    2  N   UNL     1      -8.006   6.291  67.050  1.00  0.00    -0.108 N  
HETATM    3  O   UNL     1      -6.946   5.940  67.583  1.00  0.00    -0.065 OA 
HETATM    4  C   UNL     1      -8.833   7.276  67.762  1.00  0.00    -0.124 A  
HETATM    5  C   UNL     1     -10.039   7.698  67.196  1.00  0.00    -0.323 A  
HETATM    6  C   UNL     1     -10.812   8.657  67.858  1.00  0.00    -0.061 A  
HETATM    7  C   UNL     1     -10.404   9.215  69.084  1.00  0.00    -0.223 A  
HETATM    8  C   UNL     1      -9.197   8.763  69.645  1.00  0.00    -0.150 A  
HETATM    9  C   UNL     1      -8.411   7.800  68.990  1.00  0.00    -0.131 A  
ENDROOT
BRANCH   7  10
HETATM   10  C   UNL     1     -11.227  10.252  69.713  1.00  0.00    -0.282 A  
HETATM   11  C   UNL     1     -12.237  10.216  70.657  1.00  0.00    -0.394 A  
HETATM   12  C   UNL     1     -12.685  11.545  70.838  1.00  0.00    -0.372 A  
HETATM   13  C   UNL     1     -11.925  12.334  70.000  1.00  0.00    -0.304 A  
HETATM   14  O   UNL     1     -11.032  11.549  69.315  1.00  0.00    -0.231 OA 
BRANCH  13  15
HETATM   15  C   UNL     1     -11.938  13.749  69.740  1.00  0.00    -0.344 C  
BRANCH  15  16
HETATM   16  N   UNL     1     -12.458  14.226  68.648  1.00  0.00    -0.516 NA 
HETATM   17  H   UNL     1     -13.459  14.410  68.576  1.00  0.00     0.000 HD 
BRANCH  16  18
HETATM   18  N   UNL     1     -11.611  14.473  67.597  1.00  0.00    -0.362 N  
HETATM   19  C   UNL     1     -10.968  15.762  67.460  1.00  0.00    -0.293 C  
HETATM   20  C   UNL     1     -10.456  15.664  66.036  1.00  0.00    -0.331 C  
HETATM   21  N   UNL     1     -10.776  14.449  65.525  1.00  0.00    -0.317 NA 
HETATM   22  O   UNL     1      -9.863  16.543  65.427  1.00  0.00    -0.530 OA 
HETATM   23  C   UNL     1     -11.547  13.747  66.394  1.00  0.00    -0.360 C  
HETATM   24  O   UNL     1     -12.101  12.693  66.119  1.00  0.00    -0.521 OA 
ENDBRANCH  16  18
ENDBRANCH  15  16
ENDBRANCH  13  15
ENDBRANCH   7  10
TORSDOF 4
ENDMDL
MODEL      114
REMARK 921   NORMALIZED FREE ENERGY PREDICTED BY IDOCK:   -5.37 KCAL/MOL
REMARK 922        TOTAL FREE ENERGY PREDICTED BY IDOCK:   -7.18 KCAL/MOL
REMARK 923 INTER-LIGAND FREE ENERGY PREDICTED BY IDOCK:   -6.68 KCAL/MOL
REMARK 924 INTRA-LIGAND FREE ENERGY PREDICTED BY IDOCK:   -0.50 KCAL/MOL
REMARK 927      BINDING AFFINITY PREDICTED BY RF-SCORE:    0.00 PKD
ROOT
HETATM    1  O   UNL     1      -8.184   3.965  71.940  1.00  0.00    -0.079 OA 
HETATM    2  N   UNL     1      -9.075   4.158  71.104  1.00  0.00    -0.117 N  
HETATM    3  O   UNL     1      -9.396   3.353  70.219  1.00  0.00    -0.142 OA 
HETATM    4  C   UNL     1      -9.806   5.432  71.165  1.00  0.00    -0.185 A  
HETATM    5  C   UNL     1      -9.473   6.368  72.147  1.00  0.00    -0.152 A  
HETATM    6  C   UNL     1     -10.186   7.568  72.225  1.00  0.00    -0.252 A  
HETATM    7  C   UNL     1     -11.240   7.858  71.338  1.00  0.00    -0.280 A  
HETATM    8  C   UNL     1     -11.546   6.911  70.346  1.00  0.00    -0.385 A  
HETATM    9  C   UNL     1     -10.836   5.701  70.257  1.00  0.00    -0.336 A  
ENDROOT
BRANCH   7  10
HETATM   10  C   UNL     1     -11.988   9.109  71.492  1.00  0.00    -0.352 A  
HETATM   11  C   UNL     1     -13.040   9.490  72.305  1.00  0.00    -0.492 A  
HETATM   12  C   UNL     1     -13.364  10.824  71.967  1.00  0.00    -0.403 A  
HETATM   13  C   UNL     1     -12.491  11.201  70.968  1.00  0.00    -0.403 A  
HETATM   14  O   UNL     1     -11.647  10.158  70.679  1.00  0.00    -0.291 OA 
BRANCH  13  15
HETATM   15  C   UNL     1     -12.353  12.425  70.225  1.00  0.00    -0.188 C  
BRANCH  15  16
HETATM   16  N   UNL     1     -12.031  12.412  68.966  1.00  0.00    -0.279 NA 
HETATM   17  H   UNL     1     -12.143  11.570  68.400  1.00  0.00     0.000 HD 
BRANCH  16  18
HETATM   18  N   UNL     1     -11.536  13.572  68.425  1.00  0.00    -0.319 N  
HETATM   19  C   UNL     1     -11.106  14.655  69.283  1.00  0.00    -0.269 C  
HETATM   20  C   UNL     1     -10.993  15.779  68.271  1.00  0.00    -0.325 C  
HETATM   21  N   UNL     1     -11.299  15.307  67.037  1.00  0.00    -0.282 NA 
HETATM   22  O   UNL     1     -10.692  16.938  68.520  1.00  0.00    -0.340 OA 
HETATM   23  C   UNL     1     -11.720  14.018  67.104  1.00  0.00    -0.393 C  
HETATM   24  O   UNL     1     -12.204  13.407  66.163  1.00  0.00    -0.416 OA 
ENDBRANCH  16  18
ENDBRANCH  15  16
ENDBRANCH  13  15
ENDBRANCH   7  10
TORSDOF 4
ENDMDL
MODEL      115
REMARK 921   NORMALIZED FREE ENERGY PREDICTED BY IDOCK:   -5.33 KCAL/MOL
REMARK 922        TOTAL FREE ENERGY PREDICTED BY IDOCK:   -7.14 KCAL/MOL
REMARK 923 INTER-LIGAND FREE ENERGY PREDICTED BY IDOCK:   -6.41 KCAL/MOL
REMARK 924 INTRA-LIGAND FREE ENERGY PREDICTED BY IDOCK:   -0.72 KCAL/MOL
REMARK 927      BINDING AFFINITY PREDICTED BY RF-SCORE:    0.00 PKD
ROOT
HETATM    1  O   UNL     1     -12.636  13.618  63.314  1.00  0.00    -0.816 OA 
HETATM    2  N   UNL     1     -12.601  13.539  64.549  1.00  0.00    -0.260 N  
HETATM    3  O   UNL     1     -13.218  14.286  65.320  1.00  0.00    -0.704 OA 
HETATM    4  C   UNL     1     -11.767  12.485  65.143  1.00  0.00    -0.378 A  
HETATM    5  C   UNL     1     -11.053  11.622  64.308  1.00  0.00    -0.406 A  
HETATM    6  C   UNL     1     -10.282  10.600  64.871  1.00  0.00    -0.395 A  
HETATM    7  C   UNL     1     -10.211  10.413  66.264  1.00  0.00    -0.286 A  
HETATM    8  C   UNL     1     -10.922  11.303  67.087  1.00  0.00    -0.348 A  
HETATM    9  C   UNL     1     -11.699  12.335  66.533  1.00  0.00    -0.420 A  
ENDROOT
BRANCH   7  10
HETATM   10  C   UNL     1      -9.427   9.297  66.801  1.00  0.00    -0.175 A  
HETATM   11  C   UNL     1      -9.113   8.040  66.317  1.00  0.00    -0.232 A  
HETATM   12  C   UNL     1      -8.352   7.388  67.314  1.00  0.00    -0.119 A  
HETATM   13  C   UNL     1      -8.230   8.278  68.361  1.00  0.00    -0.132 A  
HETATM   14  O   UNL     1      -8.881   9.445  68.049  1.00  0.00    -0.124 OA 
BRANCH  13  15
HETATM   15  C   UNL     1      -7.586   8.170  69.643  1.00  0.00    -0.099 C  
BRANCH  15  16
HETATM   16  N   UNL     1      -8.276   8.195  70.744  1.00  0.00    -0.107 NA 
HETATM   17  H   UNL     1      -8.186   8.965  71.408  1.00  0.00     0.000 HD 
BRANCH  16  18
HETATM   18  N   UNL     1      -9.130   7.147  70.981  1.00  0.00    -0.150 N  
HETATM   19  C   UNL     1      -8.621   5.797  71.093  1.00  0.00    -0.128 C  
HETATM   20  C   UNL     1      -9.912   5.008  70.995  1.00  0.00    -0.211 C  
HETATM   21  N   UNL     1     -10.957   5.864  70.880  1.00  0.00    -0.279 NA 
HETATM   22  O   UNL     1     -10.007   3.788  70.999  1.00  0.00    -0.167 OA 
HETATM   23  C   UNL     1     -10.521   7.145  70.773  1.00  0.00    -0.212 C  
HETATM   24  O   UNL     1     -11.243   8.093  70.502  1.00  0.00    -0.264 OA 
ENDBRANCH  16  18
ENDBRANCH  15  16
ENDBRANCH  13  15
ENDBRANCH   7  10
TORSDOF 4
ENDMDL
MODEL      116
REMARK 921   NORMALIZED FREE ENERGY PREDICTED BY IDOCK:   -5.32 KCAL/MOL
REMARK 922        TOTAL FREE ENERGY PREDICTED BY IDOCK:   -7.12 KCAL/MOL
REMARK 923 INTER-LIGAND FREE ENERGY PREDICTED BY IDOCK:   -6.64 KCAL/MOL
REMARK 924 INTRA-LIGAND FREE ENERGY PREDICTED BY IDOCK:   -0.48 KCAL/MOL
REMARK 927      BINDING AFFINITY PREDICTED BY RF-SCORE:    0.00 PKD
ROOT
HETATM    1  O   UNL     1      -5.667  18.098  70.323  1.00  0.00    -0.247 OA 
HETATM    2  N   UNL     1      -6.316  18.853  69.587  1.00  0.00    -0.262 N  
HETATM    3  O   UNL     1      -6.215  20.087  69.581  1.00  0.00    -0.308 OA 
HETATM    4  C   UNL     1      -7.274  18.242  68.656  1.00  0.00    -0.282 A  
HETATM    5  C   UNL     1      -7.420  16.853  68.633  1.00  0.00    -0.226 A  
HETATM    6  C   UNL     1      -8.310  16.268  67.727  1.00  0.00    -0.169 A  
HETATM    7  C   UNL     1      -9.063  17.046  66.828  1.00  0.00    -0.266 A  
HETATM    8  C   UNL     1      -8.916  18.443  66.880  1.00  0.00    -0.280 A  
HETATM    9  C   UNL     1      -8.025  19.042  67.786  1.00  0.00    -0.292 A  
ENDROOT
BRANCH   7  10
HETATM   10  C   UNL     1      -9.947  16.381  65.866  1.00  0.00    -0.332 A  
HETATM   11  C   UNL     1     -11.022  16.813  65.112  1.00  0.00    -0.109 A  
HETATM   12  C   UNL     1     -11.503  15.693  64.393  1.00  0.00    -0.266 A  
HETATM   13  C   UNL     1     -10.695  14.630  64.735  1.00  0.00    -0.377 A  
HETATM   14  O   UNL     1      -9.741  15.046  65.630  1.00  0.00    -0.339 OA 
BRANCH  13  15
HETATM   15  C   UNL     1     -10.709  13.246  64.339  1.00  0.00    -0.415 C  
BRANCH  15  16
HETATM   16  N   UNL     1      -9.957  12.370  64.936  1.00  0.00    -0.434 NA 
HETATM   17  H   UNL     1      -8.968  12.277  64.704  1.00  0.00     0.000 HD 
BRANCH  16  18
HETATM   18  N   UNL     1     -10.543  11.575  65.888  1.00  0.00    -0.261 N  
HETATM   19  C   UNL     1     -11.516  12.126  66.807  1.00  0.00    -0.356 C  
HETATM   20  C   UNL     1     -11.590  11.010  67.831  1.00  0.00    -0.226 C  
HETATM   21  N   UNL     1     -10.771   9.997  67.453  1.00  0.00    -0.280 NA 
HETATM   22  O   UNL     1     -12.264  11.020  68.852  1.00  0.00    -0.519 OA 
HETATM   23  C   UNL     1     -10.060  10.337  66.349  1.00  0.00    -0.234 C  
HETATM   24  O   UNL     1      -9.140   9.671  65.896  1.00  0.00    -0.156 OA 
ENDBRANCH  16  18
ENDBRANCH  15  16
ENDBRANCH  13  15
ENDBRANCH   7  10
TORSDOF 4
ENDMDL
MODEL      117
REMARK 921   NORMALIZED FREE ENERGY PREDICTED BY IDOCK:   -5.31 KCAL/MOL
REMARK 922        TOTAL FREE ENERGY PREDICTED BY IDOCK:   -7.11 KCAL/MOL
REMARK 923 INTER-LIGAND FREE ENERGY PREDICTED BY IDOCK:   -6.57 KCAL/MOL
REMARK 924 INTRA-LIGAND FREE ENERGY PREDICTED BY IDOCK:   -0.53 KCAL/MOL
REMARK 927      BINDING AFFINITY PREDICTED BY RF-SCORE:    0.00 PKD
ROOT
HETATM    1  O   UNL     1      -7.635   4.754  64.583  1.00  0.00    -0.073 OA 
HETATM    2  N   UNL     1      -8.607   4.591  65.332  1.00  0.00    -0.122 N  
HETATM    3  O   UNL     1      -9.129   3.497  65.580  1.00  0.00    -0.137 OA 
HETATM    4  C   UNL     1      -9.183   5.783  65.971  1.00  0.00    -0.141 A  
HETATM    5  C   UNL     1      -8.624   7.037  65.716  1.00  0.00    -0.138 A  
HETATM    6  C   UNL     1      -9.153   8.168  66.346  1.00  0.00    -0.226 A  
HETATM    7  C   UNL     1     -10.235   8.075  67.240  1.00  0.00    -0.345 A  
HETATM    8  C   UNL     1     -10.795   6.806  67.469  1.00  0.00    -0.388 A  
HETATM    9  C   UNL     1     -10.273   5.662  66.841  1.00  0.00    -0.272 A  
ENDROOT
BRANCH   7  10
HETATM   10  C   UNL     1     -10.721   9.284  67.912  1.00  0.00    -0.188 A  
HETATM   11  C   UNL     1     -11.004   9.586  69.231  1.00  0.00    -0.167 A  
HETATM   12  C   UNL     1     -11.486  10.915  69.260  1.00  0.00    -0.372 A  
HETATM   13  C   UNL     1     -11.470  11.368  67.957  1.00  0.00    -0.307 A  
HETATM   14  O   UNL     1     -11.000  10.376  67.132  1.00  0.00    -0.267 OA 
BRANCH  13  15
HETATM   15  C   UNL     1     -11.860  12.623  67.371  1.00  0.00    -0.328 C  
BRANCH  15  16
HETATM   16  N   UNL     1     -11.630  12.878  66.118  1.00  0.00    -0.352 NA 
HETATM   17  H   UNL     1     -11.804  12.180  65.396  1.00  0.00     0.000 HD 
BRANCH  16  18
HETATM   18  N   UNL     1     -11.143  14.122  65.803  1.00  0.00    -0.304 N  
HETATM   19  C   UNL     1     -10.473  14.922  66.805  1.00  0.00    -0.284 C  
HETATM   20  C   UNL     1     -10.449  16.270  66.109  1.00  0.00    -0.322 C  
HETATM   21  N   UNL     1     -11.013  16.153  64.882  1.00  0.00    -0.584 NA 
HETATM   22  O   UNL     1     -10.010  17.310  66.580  1.00  0.00    -0.279 OA 
HETATM   23  C   UNL     1     -11.524  14.909  64.701  1.00  0.00    -0.379 C  
HETATM   24  O   UNL     1     -12.221  14.587  63.751  1.00  0.00    -0.599 OA 
ENDBRANCH  16  18
ENDBRANCH  15  16
ENDBRANCH  13  15
ENDBRANCH   7  10
TORSDOF 4
ENDMDL
MODEL      118
REMARK 921   NORMALIZED FREE ENERGY PREDICTED BY IDOCK:   -5.30 KCAL/MOL
REMARK 922        TOTAL FREE ENERGY PREDICTED BY IDOCK:   -7.09 KCAL/MOL
REMARK 923 INTER-LIGAND FREE ENERGY PREDICTED BY IDOCK:   -6.58 KCAL/MOL
REMARK 924 INTRA-LIGAND FREE ENERGY PREDICTED BY IDOCK:   -0.51 KCAL/MOL
REMARK 927      BINDING AFFINITY PREDICTED BY RF-SCORE:    0.00 PKD
ROOT
HETATM    1  O   UNL     1      -6.931  21.291  66.580  1.00  0.00    -0.286 OA 
HETATM    2  N   UNL     1      -6.657  20.146  66.200  1.00  0.00    -0.219 N  
HETATM    3  O   UNL     1      -5.592  19.821  65.657  1.00  0.00    -0.159 OA 
HETATM    4  C   UNL     1      -7.665  19.098  66.407  1.00  0.00    -0.276 A  
HETATM    5  C   UNL     1      -8.880  19.423  67.014  1.00  0.00    -0.341 A  
HETATM    6  C   UNL     1      -9.830  18.421  67.238  1.00  0.00    -0.327 A  
HETATM    7  C   UNL     1      -9.590  17.084  66.870  1.00  0.00    -0.263 A  
HETATM    8  C   UNL     1      -8.368  16.781  66.244  1.00  0.00    -0.353 A  
HETATM    9  C   UNL     1      -7.407  17.779  66.013  1.00  0.00    -0.307 A  
ENDROOT
BRANCH   7  10
HETATM   10  C   UNL     1     -10.597  16.063  67.171  1.00  0.00    -0.305 A  
HETATM   11  C   UNL     1     -11.392  15.812  68.274  1.00  0.00    -0.354 A  
HETATM   12  C   UNL     1     -12.144  14.649  67.989  1.00  0.00    -0.206 A  
HETATM   13  C   UNL     1     -11.780  14.245  66.722  1.00  0.00    -0.405 A  
HETATM   14  O   UNL     1     -10.839  15.107  66.218  1.00  0.00    -0.324 OA 
BRANCH  13  15
HETATM   15  C   UNL     1     -12.192  13.127  65.914  1.00  0.00    -0.436 C  
BRANCH  15  16
HETATM   16  N   UNL     1     -11.525  12.012  65.922  1.00  0.00    -0.353 NA 
HETATM   17  H   UNL     1     -11.576  11.360  65.140  1.00  0.00     0.000 HD 
BRANCH  16  18
HETATM   18  N   UNL     1     -10.749  11.745  67.022  1.00  0.00    -0.234 N  
HETATM   19  C   UNL     1      -9.310  11.652  66.900  1.00  0.00    -0.188 C  
HETATM   20  C   UNL     1      -8.961  11.020  68.234  1.00  0.00    -0.155 C  
HETATM   21  N   UNL     1     -10.094  10.844  68.959  1.00  0.00    -0.205 NA 
HETATM   22  O   UNL     1      -7.840  10.696  68.601  1.00  0.00    -0.105 OA 
HETATM   23  C   UNL     1     -11.190  11.178  68.232  1.00  0.00    -0.279 C  
HETATM   24  O   UNL     1     -12.339  10.966  68.590  1.00  0.00    -0.501 OA 
ENDBRANCH  16  18
ENDBRANCH  15  16
ENDBRANCH  13  15
ENDBRANCH   7  10
TORSDOF 4
ENDMDL
MODEL      119
REMARK 921   NORMALIZED FREE ENERGY PREDICTED BY IDOCK:   -5.29 KCAL/MOL
REMARK 922        TOTAL FREE ENERGY PREDICTED BY IDOCK:   -7.09 KCAL/MOL
REMARK 923 INTER-LIGAND FREE ENERGY PREDICTED BY IDOCK:   -6.47 KCAL/MOL
REMARK 924 INTRA-LIGAND FREE ENERGY PREDICTED BY IDOCK:   -0.62 KCAL/MOL
REMARK 927      BINDING AFFINITY PREDICTED BY RF-SCORE:    0.00 PKD
ROOT
HETATM    1  O   UNL     1     -10.170  14.556  66.695  1.00  0.00    -0.266 OA 
HETATM    2  N   UNL     1     -10.839  14.808  67.705  1.00  0.00    -0.272 N  
HETATM    3  O   UNL     1     -11.169  15.945  68.066  1.00  0.00    -0.343 OA 
HETATM    4  C   UNL     1     -11.274  13.675  68.536  1.00  0.00    -0.280 A  
HETATM    5  C   UNL     1     -10.921  12.376  68.164  1.00  0.00    -0.263 A  
HETATM    6  C   UNL     1     -11.359  11.296  68.938  1.00  0.00    -0.340 A  
HETATM    7  C   UNL     1     -12.154  11.484  70.083  1.00  0.00    -0.432 A  
HETATM    8  C   UNL     1     -12.482  12.801  70.450  1.00  0.00    -0.231 A  
HETATM    9  C   UNL     1     -12.048  13.894  69.682  1.00  0.00    -0.404 A  
ENDROOT
BRANCH   7  10
HETATM   10  C   UNL     1     -12.626  10.315  70.832  1.00  0.00    -0.371 A  
HETATM   11  C   UNL     1     -13.525  10.156  71.870  1.00  0.00    -0.426 A  
HETATM   12  C   UNL     1     -13.535   8.782  72.205  1.00  0.00    -0.469 A  
HETATM   13  C   UNL     1     -12.646   8.163  71.351  1.00  0.00    -0.283 A  
HETATM   14  O   UNL     1     -12.093   9.095  70.509  1.00  0.00    -0.141 OA 
BRANCH  13  15
HETATM   15  C   UNL     1     -12.227   6.792  71.230  1.00  0.00    -0.364 C  
BRANCH  15  16
HETATM   16  N   UNL     1     -10.978   6.457  71.366  1.00  0.00    -0.256 NA 
HETATM   17  H   UNL     1     -10.462   6.675  72.218  1.00  0.00     0.000 HD 
BRANCH  16  18
HETATM   18  N   UNL     1     -10.380   5.801  70.320  1.00  0.00    -0.231 N  
HETATM   19  C   UNL     1     -10.817   6.036  68.960  1.00  0.00    -0.342 C  
HETATM   20  C   UNL     1     -10.141   4.879  68.250  1.00  0.00    -0.075 C  
HETATM   21  N   UNL     1      -9.418   4.161  69.145  1.00  0.00    -0.168 NA 
HETATM   22  O   UNL     1     -10.241   4.613  67.060  1.00  0.00    -0.196 OA 
HETATM   23  C   UNL     1      -9.612   4.626  70.406  1.00  0.00    -0.200 C  
HETATM   24  O   UNL     1      -9.206   4.064  71.412  1.00  0.00    -0.114 OA 
ENDBRANCH  16  18
ENDBRANCH  15  16
ENDBRANCH  13  15
ENDBRANCH   7  10
TORSDOF 4
ENDMDL
MODEL      120
REMARK 921   NORMALIZED FREE ENERGY PREDICTED BY IDOCK:   -5.27 KCAL/MOL
REMARK 922        TOTAL FREE ENERGY PREDICTED BY IDOCK:   -7.06 KCAL/MOL
REMARK 923 INTER-LIGAND FREE ENERGY PREDICTED BY IDOCK:   -6.51 KCAL/MOL
REMARK 924 INTRA-LIGAND FREE ENERGY PREDICTED BY IDOCK:   -0.54 KCAL/MOL
REMARK 927      BINDING AFFINITY PREDICTED BY RF-SCORE:    0.00 PKD
ROOT
HETATM    1  O   UNL     1      -9.232   2.464  71.483  1.00  0.00    -0.086 OA 
HETATM    2  N   UNL     1      -9.503   3.151  70.489  1.00  0.00    -0.168 N  
HETATM    3  O   UNL     1      -9.274   2.817  69.319  1.00  0.00    -0.122 OA 
HETATM    4  C   UNL     1     -10.142   4.455  70.715  1.00  0.00    -0.129 A  
HETATM    5  C   UNL     1     -10.415   4.869  72.020  1.00  0.00    -0.245 A  
HETATM    6  C   UNL     1     -11.050   6.097  72.235  1.00  0.00    -0.320 A  
HETATM    7  C   UNL     1     -11.427   6.928  71.164  1.00  0.00    -0.347 A  
HETATM    8  C   UNL     1     -11.126   6.501  69.859  1.00  0.00    -0.430 A  
HETATM    9  C   UNL     1     -10.488   5.270  69.631  1.00  0.00    -0.320 A  
ENDROOT
BRANCH   7  10
HETATM   10  C   UNL     1     -12.132   8.183  71.440  1.00  0.00    -0.297 A  
HETATM   11  C   UNL     1     -13.028   8.570  72.420  1.00  0.00    -0.354 A  
HETATM   12  C   UNL     1     -13.401   9.905  72.139  1.00  0.00    -0.498 A  
HETATM   13  C   UNL     1     -12.711  10.276  71.004  1.00  0.00    -0.396 A  
HETATM   14  O   UNL     1     -11.933   9.229  70.577  1.00  0.00    -0.199 OA 
BRANCH  13  15
HETATM   15  C   UNL     1     -12.698  11.497  70.244  1.00  0.00    -0.010 C  
BRANCH  15  16
HETATM   16  N   UNL     1     -11.797  12.409  70.455  1.00  0.00    -0.525 NA 
HETATM   17  H   UNL     1     -10.805  12.175  70.484  1.00  0.00     0.000 HD 
BRANCH  16  18
HETATM   18  N   UNL     1     -12.230  13.699  70.638  1.00  0.00    -0.358 N  
HETATM   19  C   UNL     1     -13.071  14.036  71.767  1.00  0.00    -0.370 C  
HETATM   20  C   UNL     1     -13.549  15.414  71.350  1.00  0.00    -0.518 C  
HETATM   21  N   UNL     1     -12.986  15.746  70.162  1.00  0.00    -0.166 NA 
HETATM   22  O   UNL     1     -14.335  16.116  71.971  1.00  0.00    -0.046 OA 
HETATM   23  C   UNL     1     -12.267  14.710  69.661  1.00  0.00    -0.283 C  
HETATM   24  O   UNL     1     -11.790  14.688  68.536  1.00  0.00    -0.325 OA 
ENDBRANCH  16  18
ENDBRANCH  15  16
ENDBRANCH  13  15
ENDBRANCH   7  10
TORSDOF 4
ENDMDL
MODEL      121
REMARK 921   NORMALIZED FREE ENERGY PREDICTED BY IDOCK:   -5.25 KCAL/MOL
REMARK 922        TOTAL FREE ENERGY PREDICTED BY IDOCK:   -7.04 KCAL/MOL
REMARK 923 INTER-LIGAND FREE ENERGY PREDICTED BY IDOCK:   -6.43 KCAL/MOL
REMARK 924 INTRA-LIGAND FREE ENERGY PREDICTED BY IDOCK:   -0.61 KCAL/MOL
REMARK 927      BINDING AFFINITY PREDICTED BY RF-SCORE:    0.00 PKD
ROOT
HETATM    1  O   UNL     1     -10.931  13.101  63.891  1.00  0.00    -0.381 OA 
HETATM    2  N   UNL     1     -11.249  13.735  64.905  1.00  0.00    -0.334 N  
HETATM    3  O   UNL     1     -11.470  14.953  64.933  1.00  0.00    -0.380 OA 
HETATM    4  C   UNL     1     -11.372  12.990  66.166  1.00  0.00    -0.314 A  
HETATM    5  C   UNL     1     -11.129  11.615  66.178  1.00  0.00    -0.335 A  
HETATM    6  C   UNL     1     -11.274  10.899  67.371  1.00  0.00    -0.345 A  
HETATM    7  C   UNL     1     -11.666  11.532  68.565  1.00  0.00    -0.379 A  
HETATM    8  C   UNL     1     -11.887  12.919  68.536  1.00  0.00    -0.350 A  
HETATM    9  C   UNL     1     -11.744  13.649  67.344  1.00  0.00    -0.416 A  
ENDROOT
BRANCH   7  10
HETATM   10  C   UNL     1     -11.850  10.728  69.778  1.00  0.00    -0.335 A  
HETATM   11  C   UNL     1     -12.909  10.562  70.652  1.00  0.00    -0.407 A  
HETATM   12  C   UNL     1     -12.473   9.683  71.670  1.00  0.00    -0.494 A  
HETATM   13  C   UNL     1     -11.170   9.347  71.369  1.00  0.00    -0.381 A  
HETATM   14  O   UNL     1     -10.788   9.980  70.213  1.00  0.00    -0.272 OA 
BRANCH  13  15
HETATM   15  C   UNL     1     -10.213   8.510  72.044  1.00  0.00    -0.321 C  
BRANCH  15  16
HETATM   16  N   UNL     1      -8.960   8.845  72.114  1.00  0.00    -0.384 NA 
HETATM   17  H   UNL     1      -8.654   9.628  72.692  1.00  0.00     0.000 HD 
BRANCH  16  18
HETATM   18  N   UNL     1      -8.064   8.109  71.380  1.00  0.00    -0.105 N  
HETATM   19  C   UNL     1      -7.839   8.408  69.982  1.00  0.00    -0.103 C  
HETATM   20  C   UNL     1      -7.085   7.164  69.553  1.00  0.00    -0.071 C  
HETATM   21  N   UNL     1      -6.920   6.346  70.622  1.00  0.00    -0.063 NA 
HETATM   22  O   UNL     1      -6.699   6.918  68.419  1.00  0.00    -0.062 OA 
HETATM   23  C   UNL     1      -7.572   6.832  71.708  1.00  0.00    -0.095 C  
HETATM   24  O   UNL     1      -7.717   6.215  72.752  1.00  0.00    -0.103 OA 
ENDBRANCH  16  18
ENDBRANCH  15  16
ENDBRANCH  13  15
ENDBRANCH   7  10
TORSDOF 4
ENDMDL
MODEL      122
REMARK 921   NORMALIZED FREE ENERGY PREDICTED BY IDOCK:   -5.25 KCAL/MOL
REMARK 922        TOTAL FREE ENERGY PREDICTED BY IDOCK:   -7.03 KCAL/MOL
REMARK 923 INTER-LIGAND FREE ENERGY PREDICTED BY IDOCK:   -6.94 KCAL/MOL
REMARK 924 INTRA-LIGAND FREE ENERGY PREDICTED BY IDOCK:   -0.09 KCAL/MOL
REMARK 927      BINDING AFFINITY PREDICTED BY RF-SCORE:    0.00 PKD
ROOT
HETATM    1  O   UNL     1     -10.805   5.496  70.451  1.00  0.00    -0.277 OA 
HETATM    2  N   UNL     1     -11.351   6.433  71.047  1.00  0.00    -0.314 N  
HETATM    3  O   UNL     1     -11.949   6.328  72.126  1.00  0.00    -0.329 OA 
HETATM    4  C   UNL     1     -11.286   7.766  70.431  1.00  0.00    -0.237 A  
HETATM    5  C   UNL     1     -10.622   7.927  69.212  1.00  0.00    -0.195 A  
HETATM    6  C   UNL     1     -10.534   9.200  68.639  1.00  0.00    -0.235 A  
HETATM    7  C   UNL     1     -11.095  10.329  69.263  1.00  0.00    -0.293 A  
HETATM    8  C   UNL     1     -11.774  10.142  70.479  1.00  0.00    -0.407 A  
HETATM    9  C   UNL     1     -11.870   8.868  71.065  1.00  0.00    -0.324 A  
ENDROOT
BRANCH   7  10
HETATM   10  C   UNL     1     -10.933  11.648  68.645  1.00  0.00    -0.220 A  
HETATM   11  C   UNL     1      -9.913  12.582  68.657  1.00  0.00    -0.111 A  
HETATM   12  C   UNL     1     -10.356  13.693  67.903  1.00  0.00    -0.249 A  
HETATM   13  C   UNL     1     -11.624  13.386  67.458  1.00  0.00    -0.344 A  
HETATM   14  O   UNL     1     -11.978  12.137  67.905  1.00  0.00    -0.489 OA 
BRANCH  13  15
HETATM   15  C   UNL     1     -12.572  14.128  66.669  1.00  0.00    -0.051 C  
BRANCH  15  16
HETATM   16  N   UNL     1     -12.926  13.720  65.487  1.00  0.00    -0.672 NA 
HETATM   17  H   UNL     1     -13.894  13.788  65.173  1.00  0.00     0.000 HD 
BRANCH  16  18
HETATM   18  N   UNL     1     -11.950  13.195  64.679  1.00  0.00    -0.368 N  
HETATM   19  C   UNL     1     -11.969  11.792  64.323  1.00  0.00    -0.185 C  
HETATM   20  C   UNL     1     -10.571  11.634  63.754  1.00  0.00    -0.416 C  
HETATM   21  N   UNL     1      -9.932  12.830  63.790  1.00  0.00    -0.274 NA 
HETATM   22  O   UNL     1     -10.080  10.592  63.344  1.00  0.00    -0.271 OA 
HETATM   23  C   UNL     1     -10.689  13.763  64.420  1.00  0.00    -0.316 C  
HETATM   24  O   UNL     1     -10.288  14.876  64.727  1.00  0.00    -0.368 OA 
ENDBRANCH  16  18
ENDBRANCH  15  16
ENDBRANCH  13  15
ENDBRANCH   7  10
TORSDOF 4
ENDMDL
MODEL      123
REMARK 921   NORMALIZED FREE ENERGY PREDICTED BY IDOCK:   -5.25 KCAL/MOL
REMARK 922        TOTAL FREE ENERGY PREDICTED BY IDOCK:   -7.03 KCAL/MOL
REMARK 923 INTER-LIGAND FREE ENERGY PREDICTED BY IDOCK:   -6.42 KCAL/MOL
REMARK 924 INTRA-LIGAND FREE ENERGY PREDICTED BY IDOCK:   -0.61 KCAL/MOL
REMARK 927      BINDING AFFINITY PREDICTED BY RF-SCORE:    0.00 PKD
ROOT
HETATM    1  O   UNL     1     -11.660  16.483  63.939  1.00  0.00    -1.175 OA 
HETATM    2  N   UNL     1     -11.918  15.302  64.207  1.00  0.00    -0.341 N  
HETATM    3  O   UNL     1     -12.869  14.665  63.736  1.00  0.00    -0.677 OA 
HETATM    4  C   UNL     1     -11.031  14.608  65.152  1.00  0.00    -0.386 A  
HETATM    5  C   UNL     1      -9.948  15.292  65.707  1.00  0.00    -0.391 A  
HETATM    6  C   UNL     1      -9.087  14.624  66.584  1.00  0.00    -0.285 A  
HETATM    7  C   UNL     1      -9.281  13.271  66.919  1.00  0.00    -0.242 A  
HETATM    8  C   UNL     1     -10.389  12.606  66.364  1.00  0.00    -0.264 A  
HETATM    9  C   UNL     1     -11.261  13.267  65.482  1.00  0.00    -0.307 A  
ENDROOT
BRANCH   7  10
HETATM   10  C   UNL     1      -8.323  12.604  67.805  1.00  0.00    -0.172 A  
HETATM   11  C   UNL     1      -7.002  12.853  68.130  1.00  0.00    -0.102 A  
HETATM   12  C   UNL     1      -6.592  11.829  69.016  1.00  0.00    -0.094 A  
HETATM   13  C   UNL     1      -7.683  11.005  69.197  1.00  0.00    -0.102 A  
HETATM   14  O   UNL     1      -8.742  11.477  68.463  1.00  0.00    -0.154 OA 
BRANCH  13  15
HETATM   15  C   UNL     1      -7.862   9.803  69.968  1.00  0.00    -0.178 C  
BRANCH  15  16
HETATM   16  N   UNL     1      -7.837   8.634  69.402  1.00  0.00    -0.095 NA 
HETATM   17  H   UNL     1      -6.973   8.249  69.020  1.00  0.00     0.000 HD 
BRANCH  16  18
HETATM   18  N   UNL     1      -9.017   7.936  69.337  1.00  0.00    -0.145 N  
HETATM   19  C   UNL     1     -10.063   8.172  70.308  1.00  0.00    -0.192 C  
HETATM   20  C   UNL     1     -10.957   6.975  70.047  1.00  0.00    -0.270 C  
HETATM   21  N   UNL     1     -10.437   6.237  69.035  1.00  0.00    -0.211 NA 
HETATM   22  O   UNL     1     -11.979   6.698  70.659  1.00  0.00    -0.395 OA 
HETATM   23  C   UNL     1      -9.231   6.727  68.650  1.00  0.00    -0.132 C  
HETATM   24  O   UNL     1      -8.479   6.161  67.870  1.00  0.00    -0.116 OA 
ENDBRANCH  16  18
ENDBRANCH  15  16
ENDBRANCH  13  15
ENDBRANCH   7  10
TORSDOF 4
ENDMDL
MODEL      124
REMARK 921   NORMALIZED FREE ENERGY PREDICTED BY IDOCK:   -5.25 KCAL/MOL
REMARK 922        TOTAL FREE ENERGY PREDICTED BY IDOCK:   -7.03 KCAL/MOL
REMARK 923 INTER-LIGAND FREE ENERGY PREDICTED BY IDOCK:   -6.52 KCAL/MOL
REMARK 924 INTRA-LIGAND FREE ENERGY PREDICTED BY IDOCK:   -0.50 KCAL/MOL
REMARK 927      BINDING AFFINITY PREDICTED BY RF-SCORE:    0.00 PKD
ROOT
HETATM    1  O   UNL     1     -10.187  14.500  66.726  1.00  0.00    -0.259 OA 
HETATM    2  N   UNL     1     -10.868  14.748  67.730  1.00  0.00    -0.272 N  
HETATM    3  O   UNL     1     -11.256  15.877  68.056  1.00  0.00    -0.343 OA 
HETATM    4  C   UNL     1     -11.244  13.621  68.595  1.00  0.00    -0.277 A  
HETATM    5  C   UNL     1     -10.825  12.330  68.263  1.00  0.00    -0.254 A  
HETATM    6  C   UNL     1     -11.206  11.253  69.070  1.00  0.00    -0.321 A  
HETATM    7  C   UNL     1     -12.010  11.435  70.211  1.00  0.00    -0.460 A  
HETATM    8  C   UNL     1     -12.405  12.744  70.537  1.00  0.00    -0.355 A  
HETATM    9  C   UNL     1     -12.028  13.835  69.735  1.00  0.00    -0.406 A  
ENDROOT
BRANCH   7  10
HETATM   10  C   UNL     1     -12.421  10.267  70.995  1.00  0.00    -0.384 A  
HETATM   11  C   UNL     1     -13.267  10.104  72.076  1.00  0.00    -0.534 A  
HETATM   12  C   UNL     1     -13.231   8.734  72.429  1.00  0.00    -0.441 A  
HETATM   13  C   UNL     1     -12.369   8.122  71.544  1.00  0.00    -0.306 A  
HETATM   14  O   UNL     1     -11.876   9.054  70.664  1.00  0.00    -0.255 OA 
BRANCH  13  15
HETATM   15  C   UNL     1     -11.926   6.759  71.421  1.00  0.00    -0.355 C  
BRANCH  15  16
HETATM   16  N   UNL     1     -10.661   6.461  71.439  1.00  0.00    -0.237 NA 
HETATM   17  H   UNL     1      -9.948   7.171  71.275  1.00  0.00     0.000 HD 
BRANCH  16  18
HETATM   18  N   UNL     1     -10.321   5.155  71.687  1.00  0.00    -0.211 N  
HETATM   19  C   UNL     1     -10.102   4.699  73.043  1.00  0.00    -0.162 C  
HETATM   20  C   UNL     1      -9.435   3.362  72.779  1.00  0.00    -0.107 C  
HETATM   21  N   UNL     1      -9.358   3.154  71.442  1.00  0.00    -0.124 NA 
HETATM   22  O   UNL     1      -9.012   2.593  73.631  1.00  0.00    -0.077 OA 
HETATM   23  C   UNL     1      -9.791   4.242  70.757  1.00  0.00    -0.195 C  
HETATM   24  O   UNL     1      -9.681   4.379  69.548  1.00  0.00    -0.190 OA 
ENDBRANCH  16  18
ENDBRANCH  15  16
ENDBRANCH  13  15
ENDBRANCH   7  10
TORSDOF 4
ENDMDL
MODEL      125
REMARK 921   NORMALIZED FREE ENERGY PREDICTED BY IDOCK:   -5.23 KCAL/MOL
REMARK 922        TOTAL FREE ENERGY PREDICTED BY IDOCK:   -7.01 KCAL/MOL
REMARK 923 INTER-LIGAND FREE ENERGY PREDICTED BY IDOCK:   -6.48 KCAL/MOL
REMARK 924 INTRA-LIGAND FREE ENERGY PREDICTED BY IDOCK:   -0.52 KCAL/MOL
REMARK 927      BINDING AFFINITY PREDICTED BY RF-SCORE:    0.00 PKD
ROOT
HETATM    1  O   UNL     1     -13.321  15.720  71.271  1.00  0.00    -0.532 OA 
HETATM    2  N   UNL     1     -13.459  14.595  71.768  1.00  0.00    -0.346 N  
HETATM    3  O   UNL     1     -14.085  14.357  72.809  1.00  0.00    -0.544 OA 
HETATM    4  C   UNL     1     -12.836  13.460  71.072  1.00  0.00    -0.251 A  
HETATM    5  C   UNL     1     -12.120  13.685  69.894  1.00  0.00    -0.406 A  
HETATM    6  C   UNL     1     -11.551  12.603  69.215  1.00  0.00    -0.376 A  
HETATM    7  C   UNL     1     -11.687  11.284  69.687  1.00  0.00    -0.420 A  
HETATM    8  C   UNL     1     -12.396  11.081  70.883  1.00  0.00    -0.503 A  
HETATM    9  C   UNL     1     -12.971  12.161  71.575  1.00  0.00    -0.398 A  
ENDROOT
BRANCH   7  10
HETATM   10  C   UNL     1     -11.113  10.180  68.912  1.00  0.00    -0.207 A  
HETATM   11  C   UNL     1     -10.761  10.038  67.583  1.00  0.00    -0.340 A  
HETATM   12  C   UNL     1     -10.293   8.714  67.415  1.00  0.00    -0.353 A  
HETATM   13  C   UNL     1     -10.376   8.108  68.651  1.00  0.00    -0.200 A  
HETATM   14  O   UNL     1     -10.872   9.001  69.568  1.00  0.00    -0.229 OA 
BRANCH  13  15
HETATM   15  C   UNL     1     -10.061   6.774  69.090  1.00  0.00    -0.171 C  
BRANCH  15  16
HETATM   16  N   UNL     1     -10.628   5.738  68.547  1.00  0.00    -0.232 NA 
HETATM   17  H   UNL     1     -11.643   5.648  68.513  1.00  0.00     0.000 HD 
BRANCH  16  18
HETATM   18  N   UNL     1      -9.809   4.771  68.020  1.00  0.00    -0.146 N  
HETATM   19  C   UNL     1      -8.581   4.404  68.693  1.00  0.00    -0.092 C  
HETATM   20  C   UNL     1      -7.896   3.608  67.599  1.00  0.00    -0.077 C  
HETATM   21  N   UNL     1      -8.702   3.553  66.509  1.00  0.00    -0.117 NA 
HETATM   22  O   UNL     1      -6.782   3.107  67.669  1.00  0.00    -0.043 OA 
HETATM   23  C   UNL     1      -9.811   4.314  66.690  1.00  0.00    -0.214 C  
HETATM   24  O   UNL     1     -10.620   4.564  65.809  1.00  0.00    -0.285 OA 
ENDBRANCH  16  18
ENDBRANCH  15  16
ENDBRANCH  13  15
ENDBRANCH   7  10
TORSDOF 4
ENDMDL
MODEL      126
REMARK 921   NORMALIZED FREE ENERGY PREDICTED BY IDOCK:   -5.23 KCAL/MOL
REMARK 922        TOTAL FREE ENERGY PREDICTED BY IDOCK:   -7.01 KCAL/MOL
REMARK 923 INTER-LIGAND FREE ENERGY PREDICTED BY IDOCK:   -6.62 KCAL/MOL
REMARK 924 INTRA-LIGAND FREE ENERGY PREDICTED BY IDOCK:   -0.38 KCAL/MOL
REMARK 927      BINDING AFFINITY PREDICTED BY RF-SCORE:    0.00 PKD
ROOT
HETATM    1  O   UNL     1     -13.032  15.774  63.966  1.00  0.00    -0.442 OA 
HETATM    2  N   UNL     1     -11.872  15.674  64.386  1.00  0.00    -0.295 N  
HETATM    3  O   UNL     1     -11.108  16.629  64.578  1.00  0.00    -0.886 OA 
HETATM    4  C   UNL     1     -11.365  14.326  64.678  1.00  0.00    -0.373 A  
HETATM    5  C   UNL     1     -12.195  13.221  64.473  1.00  0.00    -0.456 A  
HETATM    6  C   UNL     1     -11.724  11.940  64.777  1.00  0.00    -0.282 A  
HETATM    7  C   UNL     1     -10.431  11.733  65.293  1.00  0.00    -0.320 A  
HETATM    8  C   UNL     1      -9.606  12.856  65.474  1.00  0.00     0.012 A  
HETATM    9  C   UNL     1     -10.067  14.149  65.171  1.00  0.00    -0.348 A  
ENDROOT
BRANCH   7  10
HETATM   10  C   UNL     1     -10.003  10.375  65.641  1.00  0.00    -0.272 A  
HETATM   11  C   UNL     1      -9.090   9.498  65.085  1.00  0.00    -0.281 A  
HETATM   12  C   UNL     1      -9.145   8.305  65.842  1.00  0.00    -0.203 A  
HETATM   13  C   UNL     1     -10.084   8.509  66.831  1.00  0.00    -0.294 A  
HETATM   14  O   UNL     1     -10.607   9.773  66.714  1.00  0.00    -0.206 OA 
BRANCH  13  15
HETATM   15  C   UNL     1     -10.576   7.656  67.880  1.00  0.00    -0.168 C  
BRANCH  15  16
HETATM   16  N   UNL     1     -10.919   8.142  69.035  1.00  0.00    -0.428 NA 
HETATM   17  H   UNL     1     -11.493   8.982  69.105  1.00  0.00     0.000 HD 
BRANCH  16  18
HETATM   18  N   UNL     1     -10.481   7.483  70.156  1.00  0.00    -0.217 N  
HETATM   19  C   UNL     1     -11.381   7.240  71.263  1.00  0.00    -0.264 C  
HETATM   20  C   UNL     1     -10.391   6.833  72.337  1.00  0.00    -0.195 C  
HETATM   21  N   UNL     1      -9.137   6.839  71.821  1.00  0.00    -0.140 NA 
HETATM   22  O   UNL     1     -10.667   6.560  73.498  1.00  0.00    -0.285 OA 
HETATM   23  C   UNL     1      -9.141   7.311  70.549  1.00  0.00    -0.158 C  
HETATM   24  O   UNL     1      -8.131   7.567  69.910  1.00  0.00    -0.123 OA 
ENDBRANCH  16  18
ENDBRANCH  15  16
ENDBRANCH  13  15
ENDBRANCH   7  10
TORSDOF 4
ENDMDL
MODEL      127
REMARK 921   NORMALIZED FREE ENERGY PREDICTED BY IDOCK:   -5.23 KCAL/MOL
REMARK 922        TOTAL FREE ENERGY PREDICTED BY IDOCK:   -7.00 KCAL/MOL
REMARK 923 INTER-LIGAND FREE ENERGY PREDICTED BY IDOCK:   -6.55 KCAL/MOL
REMARK 924 INTRA-LIGAND FREE ENERGY PREDICTED BY IDOCK:   -0.45 KCAL/MOL
REMARK 927      BINDING AFFINITY PREDICTED BY RF-SCORE:    0.00 PKD
ROOT
HETATM    1  O   UNL     1      -6.626   7.070  63.619  1.00  0.00    -0.042 OA 
HETATM    2  N   UNL     1      -7.163   8.165  63.410  1.00  0.00    -0.087 N  
HETATM    3  O   UNL     1      -7.059   8.811  62.358  1.00  0.00    -0.098 OA 
HETATM    4  C   UNL     1      -7.983   8.740  64.485  1.00  0.00    -0.141 A  
HETATM    5  C   UNL     1      -8.125   8.044  65.688  1.00  0.00    -0.121 A  
HETATM    6  C   UNL     1      -8.928   8.576  66.702  1.00  0.00    -0.178 A  
HETATM    7  C   UNL     1      -9.606   9.799  66.539  1.00  0.00    -0.249 A  
HETATM    8  C   UNL     1      -9.435  10.492  65.329  1.00  0.00    -0.281 A  
HETATM    9  C   UNL     1      -8.630   9.968  64.303  1.00  0.00    -0.197 A  
ENDROOT
BRANCH   7  10
HETATM   10  C   UNL     1     -10.474  10.289  67.614  1.00  0.00    -0.239 A  
HETATM   11  C   UNL     1     -11.283   9.658  68.540  1.00  0.00    -0.005 A  
HETATM   12  C   UNL     1     -11.915  10.670  69.299  1.00  0.00    -0.269 A  
HETATM   13  C   UNL     1     -11.459  11.874  68.806  1.00  0.00    -0.290 A  
HETATM   14  O   UNL     1     -10.576  11.646  67.781  1.00  0.00    -0.184 OA 
BRANCH  13  15
HETATM   15  C   UNL     1     -11.759  13.235  69.165  1.00  0.00    -0.329 C  
BRANCH  15  16
HETATM   16  N   UNL     1     -11.416  13.715  70.323  1.00  0.00    -0.510 NA 
HETATM   17  H   UNL     1     -10.435  13.794  70.592  1.00  0.00     0.000 HD 
BRANCH  16  18
HETATM   18  N   UNL     1     -12.421  14.111  71.169  1.00  0.00    -0.351 N  
HETATM   19  C   UNL     1     -12.484  15.476  71.645  1.00  0.00    -0.406 C  
HETATM   20  C   UNL     1     -13.495  15.329  72.766  1.00  0.00    -0.518 C  
HETATM   21  N   UNL     1     -13.917  14.042  72.827  1.00  0.00    -0.644 NA 
HETATM   22  O   UNL     1     -13.864  16.221  73.518  1.00  0.00    -0.531 OA 
HETATM   23  C   UNL     1     -13.229  13.266  71.951  1.00  0.00    -0.431 C  
HETATM   24  O   UNL     1     -13.302  12.047  71.914  1.00  0.00    -0.456 OA 
ENDBRANCH  16  18
ENDBRANCH  15  16
ENDBRANCH  13  15
ENDBRANCH   7  10
TORSDOF 4
ENDMDL
MODEL      128
REMARK 921   NORMALIZED FREE ENERGY PREDICTED BY IDOCK:   -5.20 KCAL/MOL
REMARK 922        TOTAL FREE ENERGY PREDICTED BY IDOCK:   -6.98 KCAL/MOL
REMARK 923 INTER-LIGAND FREE ENERGY PREDICTED BY IDOCK:   -6.44 KCAL/MOL
REMARK 924 INTRA-LIGAND FREE ENERGY PREDICTED BY IDOCK:   -0.54 KCAL/MOL
REMARK 927      BINDING AFFINITY PREDICTED BY RF-SCORE:    0.00 PKD
ROOT
HETATM    1  O   UNL     1     -11.328   4.843  73.083  1.00  0.00    -0.310 OA 
HETATM    2  N   UNL     1     -10.964   5.997  73.342  1.00  0.00    -0.228 N  
HETATM    3  O   UNL     1     -10.608   6.388  74.462  1.00  0.00    -0.174 OA 
HETATM    4  C   UNL     1     -10.952   6.973  72.243  1.00  0.00    -0.245 A  
HETATM    5  C   UNL     1     -11.348   6.572  70.965  1.00  0.00    -0.378 A  
HETATM    6  C   UNL     1     -11.310   7.492  69.912  1.00  0.00    -0.054 A  
HETATM    7  C   UNL     1     -10.876   8.816  70.106  1.00  0.00    -0.241 A  
HETATM    8  C   UNL     1     -10.500   9.204  71.404  1.00  0.00    -0.414 A  
HETATM    9  C   UNL     1     -10.534   8.289  72.470  1.00  0.00    -0.406 A  
ENDROOT
BRANCH   7  10
HETATM   10  C   UNL     1     -10.809   9.728  68.960  1.00  0.00    -0.199 A  
HETATM   11  C   UNL     1     -10.731   9.527  67.594  1.00  0.00    -0.314 A  
HETATM   12  C   UNL     1     -10.650  10.803  66.990  1.00  0.00    -0.312 A  
HETATM   13  C   UNL     1     -10.689  11.726  68.014  1.00  0.00    -0.208 A  
HETATM   14  O   UNL     1     -10.790  11.074  69.217  1.00  0.00    -0.219 OA 
BRANCH  13  15
HETATM   15  C   UNL     1     -10.626  13.164  68.014  1.00  0.00    -0.236 C  
BRANCH  15  16
HETATM   16  N   UNL     1     -10.630  13.835  69.127  1.00  0.00    -0.414 NA 
HETATM   17  H   UNL     1     -10.878  13.391  70.011  1.00  0.00     0.000 HD 
BRANCH  16  18
HETATM   18  N   UNL     1     -10.289  15.163  69.068  1.00  0.00    -0.235 N  
HETATM   19  C   UNL     1     -11.224  16.138  68.548  1.00  0.00    -0.365 C  
HETATM   20  C   UNL     1     -10.303  17.329  68.363  1.00  0.00    -0.366 C  
HETATM   21  N   UNL     1      -9.053  17.001  68.774  1.00  0.00    -0.267 NA 
HETATM   22  O   UNL     1     -10.623  18.414  67.898  1.00  0.00    -0.394 OA 
HETATM   23  C   UNL     1      -8.985  15.689  69.113  1.00  0.00    -0.257 C  
HETATM   24  O   UNL     1      -7.944  15.101  69.366  1.00  0.00    -0.202 OA 
ENDBRANCH  16  18
ENDBRANCH  15  16
ENDBRANCH  13  15
ENDBRANCH   7  10
TORSDOF 4
ENDMDL
MODEL      129
REMARK 921   NORMALIZED FREE ENERGY PREDICTED BY IDOCK:   -5.19 KCAL/MOL
REMARK 922        TOTAL FREE ENERGY PREDICTED BY IDOCK:   -6.96 KCAL/MOL
REMARK 923 INTER-LIGAND FREE ENERGY PREDICTED BY IDOCK:   -6.45 KCAL/MOL
REMARK 924 INTRA-LIGAND FREE ENERGY PREDICTED BY IDOCK:   -0.51 KCAL/MOL
REMARK 927      BINDING AFFINITY PREDICTED BY RF-SCORE:    0.00 PKD
ROOT
HETATM    1  O   UNL     1      -8.596   4.433  66.277  1.00  0.00    -0.112 OA 
HETATM    2  N   UNL     1      -8.116   5.469  66.753  1.00  0.00    -0.105 N  
HETATM    3  O   UNL     1      -7.017   5.945  66.437  1.00  0.00    -0.057 OA 
HETATM    4  C   UNL     1      -8.905   6.186  67.764  1.00  0.00    -0.110 A  
HETATM    5  C   UNL     1     -10.149   5.681  68.150  1.00  0.00    -0.212 A  
HETATM    6  C   UNL     1     -10.914   6.378  69.091  1.00  0.00    -0.416 A  
HETATM    7  C   UNL     1     -10.463   7.583  69.660  1.00  0.00    -0.235 A  
HETATM    8  C   UNL     1      -9.200   8.064  69.273  1.00  0.00    -0.152 A  
HETATM    9  C   UNL     1      -8.422   7.373  68.328  1.00  0.00    -0.125 A  
ENDROOT
BRANCH   7  10
HETATM   10  C   UNL     1     -11.324   8.299  70.606  1.00  0.00    -0.244 A  
HETATM   11  C   UNL     1     -12.018   7.909  71.736  1.00  0.00    -0.337 A  
HETATM   12  C   UNL     1     -12.714   9.046  72.210  1.00  0.00    -0.457 A  
HETATM   13  C   UNL     1     -12.407  10.081  71.352  1.00  0.00    -0.415 A  
HETATM   14  O   UNL     1     -11.555   9.630  70.374  1.00  0.00    -0.258 OA 
BRANCH  13  15
HETATM   15  C   UNL     1     -12.827  11.457  71.317  1.00  0.00    -0.379 C  
BRANCH  15  16
HETATM   16  N   UNL     1     -11.962  12.419  71.189  1.00  0.00    -0.147 NA 
HETATM   17  H   UNL     1     -10.997  12.230  70.920  1.00  0.00     0.000 HD 
BRANCH  16  18
HETATM   18  N   UNL     1     -12.397  13.698  71.431  1.00  0.00    -0.282 N  
HETATM   19  C   UNL     1     -13.101  14.014  72.655  1.00  0.00    -0.459 C  
HETATM   20  C   UNL     1     -13.656  15.382  72.307  1.00  0.00    -0.503 C  
HETATM   21  N   UNL     1     -13.249  15.730  71.061  1.00  0.00    -0.527 NA 
HETATM   22  O   UNL     1     -14.375  16.066  73.023  1.00  0.00    -0.277 OA 
HETATM   23  C   UNL     1     -12.575  14.711  70.471  1.00  0.00    -0.350 C  
HETATM   24  O   UNL     1     -12.238  14.702  69.296  1.00  0.00    -0.288 OA 
ENDBRANCH  16  18
ENDBRANCH  15  16
ENDBRANCH  13  15
ENDBRANCH   7  10
TORSDOF 4
ENDMDL
MODEL      130
REMARK 921   NORMALIZED FREE ENERGY PREDICTED BY IDOCK:   -5.18 KCAL/MOL
REMARK 922        TOTAL FREE ENERGY PREDICTED BY IDOCK:   -6.95 KCAL/MOL
REMARK 923 INTER-LIGAND FREE ENERGY PREDICTED BY IDOCK:   -6.47 KCAL/MOL
REMARK 924 INTRA-LIGAND FREE ENERGY PREDICTED BY IDOCK:   -0.48 KCAL/MOL
REMARK 927      BINDING AFFINITY PREDICTED BY RF-SCORE:    0.00 PKD
ROOT
HETATM    1  O   UNL     1     -11.463   4.105  73.257  1.00  0.00    -0.224 OA 
HETATM    2  N   UNL     1     -10.634   5.013  73.396  1.00  0.00    -0.219 N  
HETATM    3  O   UNL     1      -9.573   4.908  74.026  1.00  0.00    -0.126 OA 
HETATM    4  C   UNL     1     -10.928   6.309  72.769  1.00  0.00    -0.260 A  
HETATM    5  C   UNL     1     -12.116   6.471  72.051  1.00  0.00    -0.358 A  
HETATM    6  C   UNL     1     -12.384   7.695  71.429  1.00  0.00    -0.358 A  
HETATM    7  C   UNL     1     -11.482   8.772  71.503  1.00  0.00    -0.375 A  
HETATM    8  C   UNL     1     -10.302   8.595  72.246  1.00  0.00    -0.376 A  
HETATM    9  C   UNL     1     -10.021   7.370  72.876  1.00  0.00    -0.281 A  
ENDROOT
BRANCH   7  10
HETATM   10  C   UNL     1     -11.788  10.018  70.794  1.00  0.00    -0.346 A  
HETATM   11  C   UNL     1     -12.545  11.129  71.115  1.00  0.00    -0.513 A  
HETATM   12  C   UNL     1     -12.501  11.999  70.001  1.00  0.00    -0.067 A  
HETATM   13  C   UNL     1     -11.713  11.383  69.051  1.00  0.00    -0.343 A  
HETATM   14  O   UNL     1     -11.273  10.175  69.533  1.00  0.00    -0.238 OA 
BRANCH  13  15
HETATM   15  C   UNL     1     -11.326  11.775  67.722  1.00  0.00    -0.289 C  
BRANCH  15  16
HETATM   16  N   UNL     1     -11.598  12.962  67.267  1.00  0.00    -0.339 NA 
HETATM   17  H   UNL     1     -12.498  13.169  66.836  1.00  0.00     0.000 HD 
BRANCH  16  18
HETATM   18  N   UNL     1     -10.628  13.925  67.389  1.00  0.00    -0.266 N  
HETATM   19  C   UNL     1     -10.543  14.732  68.588  1.00  0.00    -0.255 C  
HETATM   20  C   UNL     1      -9.603  15.826  68.116  1.00  0.00    -0.199 C  
HETATM   21  N   UNL     1      -9.231  15.579  66.835  1.00  0.00    -0.222 NA 
HETATM   22  O   UNL     1      -9.246  16.794  68.773  1.00  0.00    -0.250 OA 
HETATM   23  C   UNL     1      -9.896  14.505  66.338  1.00  0.00    -0.290 C  
HETATM   24  O   UNL     1      -9.866  14.166  65.164  1.00  0.00    -0.276 OA 
ENDBRANCH  16  18
ENDBRANCH  15  16
ENDBRANCH  13  15
ENDBRANCH   7  10
TORSDOF 4
ENDMDL
MODEL      131
REMARK 921   NORMALIZED FREE ENERGY PREDICTED BY IDOCK:   -5.18 KCAL/MOL
REMARK 922        TOTAL FREE ENERGY PREDICTED BY IDOCK:   -6.95 KCAL/MOL
REMARK 923 INTER-LIGAND FREE ENERGY PREDICTED BY IDOCK:   -6.18 KCAL/MOL
REMARK 924 INTRA-LIGAND FREE ENERGY PREDICTED BY IDOCK:   -0.77 KCAL/MOL
REMARK 927      BINDING AFFINITY PREDICTED BY RF-SCORE:    0.00 PKD
ROOT
HETATM    1  O   UNL     1      -5.259  12.307  71.637  1.00  0.00    -0.325 OA 
HETATM    2  N   UNL     1      -5.707  13.066  70.768  1.00  0.00    -0.187 N  
HETATM    3  O   UNL     1      -5.610  14.300  70.793  1.00  0.00    -0.136 OA 
HETATM    4  C   UNL     1      -6.402  12.459  69.625  1.00  0.00    -0.107 A  
HETATM    5  C   UNL     1      -6.534  11.070  69.559  1.00  0.00    -0.109 A  
HETATM    6  C   UNL     1      -7.171  10.489  68.457  1.00  0.00    -0.085 A  
HETATM    7  C   UNL     1      -7.679  11.272  67.404  1.00  0.00    -0.128 A  
HETATM    8  C   UNL     1      -7.553  12.668  67.498  1.00  0.00    -0.160 A  
HETATM    9  C   UNL     1      -6.916  13.264  68.601  1.00  0.00    -0.101 A  
ENDROOT
BRANCH   7  10
HETATM   10  C   UNL     1      -8.295  10.611  66.249  1.00  0.00    -0.155 A  
HETATM   11  C   UNL     1      -8.263   9.314  65.772  1.00  0.00    -0.117 A  
HETATM   12  C   UNL     1      -9.025   9.289  64.581  1.00  0.00    -0.202 A  
HETATM   13  C   UNL     1      -9.494  10.572  64.387  1.00  0.00    -0.281 A  
HETATM   14  O   UNL     1      -9.053  11.380  65.405  1.00  0.00    -0.190 OA 
BRANCH  13  15
HETATM   15  C   UNL     1     -10.300  11.154  63.347  1.00  0.00    -0.360 C  
BRANCH  15  16
HETATM   16  N   UNL     1     -11.590  11.243  63.469  1.00  0.00    -0.618 NA 
HETATM   17  H   UNL     1     -12.199  10.459  63.234  1.00  0.00     0.000 HD 
BRANCH  16  18
HETATM   18  N   UNL     1     -12.104  12.431  63.925  1.00  0.00    -0.456 N  
HETATM   19  C   UNL     1     -12.087  13.608  63.083  1.00  0.00     0.173 C  
HETATM   20  C   UNL     1     -12.411  14.681  64.105  1.00  0.00    -0.265 C  
HETATM   21  N   UNL     1     -12.601  14.105  65.318  1.00  0.00    -0.576 NA 
HETATM   22  O   UNL     1     -12.473  15.883  63.886  1.00  0.00    -0.760 OA 
HETATM   23  C   UNL     1     -12.334  12.775  65.269  1.00  0.00    -0.488 C  
HETATM   24  O   UNL     1     -12.275  12.052  66.252  1.00  0.00    -0.548 OA 
ENDBRANCH  16  18
ENDBRANCH  15  16
ENDBRANCH  13  15
ENDBRANCH   7  10
TORSDOF 4
ENDMDL
MODEL      132
REMARK 921   NORMALIZED FREE ENERGY PREDICTED BY IDOCK:   -5.18 KCAL/MOL
REMARK 922        TOTAL FREE ENERGY PREDICTED BY IDOCK:   -6.94 KCAL/MOL
REMARK 923 INTER-LIGAND FREE ENERGY PREDICTED BY IDOCK:   -6.22 KCAL/MOL
REMARK 924 INTRA-LIGAND FREE ENERGY PREDICTED BY IDOCK:   -0.73 KCAL/MOL
REMARK 927      BINDING AFFINITY PREDICTED BY RF-SCORE:    0.00 PKD
ROOT
HETATM    1  O   UNL     1     -11.015  17.937  67.902  1.00  0.00    -0.294 OA 
HETATM    2  N   UNL     1     -11.118  16.802  68.386  1.00  0.00    -0.330 N  
HETATM    3  O   UNL     1     -11.440  16.563  69.557  1.00  0.00    -0.188 OA 
HETATM    4  C   UNL     1     -10.839  15.657  67.508  1.00  0.00    -0.316 A  
HETATM    5  C   UNL     1     -10.470  15.884  66.180  1.00  0.00    -0.336 A  
HETATM    6  C   UNL     1     -10.232  14.794  65.336  1.00  0.00    -0.415 A  
HETATM    7  C   UNL     1     -10.360  13.469  65.790  1.00  0.00    -0.296 A  
HETATM    8  C   UNL     1     -10.714  13.263  67.134  1.00  0.00    -0.264 A  
HETATM    9  C   UNL     1     -10.955  14.349  67.993  1.00  0.00    -0.268 A  
ENDROOT
BRANCH   7  10
HETATM   10  C   UNL     1     -10.146  12.363  64.852  1.00  0.00    -0.236 A  
HETATM   11  C   UNL     1     -10.576  12.120  63.560  1.00  0.00    -0.501 A  
HETATM   12  C   UNL     1     -10.076  10.850  63.187  1.00  0.00    -0.317 A  
HETATM   13  C   UNL     1      -9.358  10.378  64.265  1.00  0.00    -0.277 A  
HETATM   14  O   UNL     1      -9.395  11.300  65.281  1.00  0.00    -0.219 OA 
BRANCH  13  15
HETATM   15  C   UNL     1      -8.643   9.148  64.479  1.00  0.00    -0.175 C  
BRANCH  15  16
HETATM   16  N   UNL     1      -8.291   8.775  65.673  1.00  0.00    -0.130 NA 
HETATM   17  H   UNL     1      -7.484   9.189  66.140  1.00  0.00     0.000 HD 
BRANCH  16  18
HETATM   18  N   UNL     1      -9.044   7.803  66.282  1.00  0.00    -0.180 N  
HETATM   19  C   UNL     1      -8.877   6.411  65.920  1.00  0.00    -0.131 C  
HETATM   20  C   UNL     1     -10.111   5.810  66.564  1.00  0.00    -0.171 C  
HETATM   21  N   UNL     1     -10.805   6.783  67.205  1.00  0.00    -0.348 NA 
HETATM   22  O   UNL     1     -10.449   4.636  66.505  1.00  0.00    -0.250 OA 
HETATM   23  C   UNL     1     -10.249   8.001  66.980  1.00  0.00    -0.303 C  
HETATM   24  O   UNL     1     -10.764   9.059  67.309  1.00  0.00    -0.269 OA 
ENDBRANCH  16  18
ENDBRANCH  15  16
ENDBRANCH  13  15
ENDBRANCH   7  10
TORSDOF 4
ENDMDL
MODEL      133
REMARK 921   NORMALIZED FREE ENERGY PREDICTED BY IDOCK:   -5.17 KCAL/MOL
REMARK 922        TOTAL FREE ENERGY PREDICTED BY IDOCK:   -6.94 KCAL/MOL
REMARK 923 INTER-LIGAND FREE ENERGY PREDICTED BY IDOCK:   -6.28 KCAL/MOL
REMARK 924 INTRA-LIGAND FREE ENERGY PREDICTED BY IDOCK:   -0.66 KCAL/MOL
REMARK 927      BINDING AFFINITY PREDICTED BY RF-SCORE:    0.00 PKD
ROOT
HETATM    1  O   UNL     1      -6.833   7.215  63.735  1.00  0.00    -0.046 OA 
HETATM    2  N   UNL     1      -7.421   7.394  64.809  1.00  0.00    -0.082 N  
HETATM    3  O   UNL     1      -7.295   6.675  65.809  1.00  0.00    -0.072 OA 
HETATM    4  C   UNL     1      -8.332   8.543  64.906  1.00  0.00    -0.160 A  
HETATM    5  C   UNL     1      -8.503   9.379  63.799  1.00  0.00    -0.200 A  
HETATM    6  C   UNL     1      -9.348  10.489  63.898  1.00  0.00    -0.314 A  
HETATM    7  C   UNL     1     -10.030  10.792  65.092  1.00  0.00    -0.351 A  
HETATM    8  C   UNL     1      -9.859   9.928  66.187  1.00  0.00    -0.324 A  
HETATM    9  C   UNL     1      -9.013   8.809  66.100  1.00  0.00    -0.225 A  
ENDROOT
BRANCH   7  10
HETATM   10  C   UNL     1     -10.866  11.994  65.158  1.00  0.00    -0.300 A  
HETATM   11  C   UNL     1     -11.393  12.835  64.196  1.00  0.00    -0.442 A  
HETATM   12  C   UNL     1     -12.088  13.862  64.876  1.00  0.00    -0.434 A  
HETATM   13  C   UNL     1     -11.960  13.598  66.223  1.00  0.00    -0.423 A  
HETATM   14  O   UNL     1     -11.218  12.457  66.399  1.00  0.00    -0.286 OA 
BRANCH  13  15
HETATM   15  C   UNL     1     -12.434  14.296  67.389  1.00  0.00     0.126 C  
BRANCH  15  16
HETATM   16  N   UNL     1     -11.653  14.517  68.403  1.00  0.00    -0.309 NA 
HETATM   17  H   UNL     1     -10.785  15.043  68.297  1.00  0.00     0.000 HD 
BRANCH  16  18
HETATM   18  N   UNL     1     -12.037  14.017  69.621  1.00  0.00    -0.340 N  
HETATM   19  C   UNL     1     -12.074  12.588  69.849  1.00  0.00    -0.252 C  
HETATM   20  C   UNL     1     -12.862  12.536  71.144  1.00  0.00    -0.211 C  
HETATM   21  N   UNL     1     -13.160  13.798  71.541  1.00  0.00    -0.353 NA 
HETATM   22  O   UNL     1     -13.199  11.520  71.736  1.00  0.00    -0.457 OA 
HETATM   23  C   UNL     1     -12.766  14.703  70.609  1.00  0.00    -0.357 C  
HETATM   24  O   UNL     1     -13.054  15.890  70.644  1.00  0.00    -0.467 OA 
ENDBRANCH  16  18
ENDBRANCH  15  16
ENDBRANCH  13  15
ENDBRANCH   7  10
TORSDOF 4
ENDMDL
MODEL      134
REMARK 921   NORMALIZED FREE ENERGY PREDICTED BY IDOCK:   -5.16 KCAL/MOL
REMARK 922        TOTAL FREE ENERGY PREDICTED BY IDOCK:   -6.93 KCAL/MOL
REMARK 923 INTER-LIGAND FREE ENERGY PREDICTED BY IDOCK:   -6.30 KCAL/MOL
REMARK 924 INTRA-LIGAND FREE ENERGY PREDICTED BY IDOCK:   -0.63 KCAL/MOL
REMARK 927      BINDING AFFINITY PREDICTED BY RF-SCORE:    0.00 PKD
ROOT
HETATM    1  O   UNL     1      -9.505   2.677  69.214  1.00  0.00    -0.141 OA 
HETATM    2  N   UNL     1      -9.439   3.275  68.132  1.00  0.00    -0.184 N  
HETATM    3  O   UNL     1      -9.182   2.739  67.046  1.00  0.00    -0.164 OA 
HETATM    4  C   UNL     1      -9.685   4.724  68.137  1.00  0.00    -0.143 A  
HETATM    5  C   UNL     1      -9.977   5.367  69.342  1.00  0.00    -0.280 A  
HETATM    6  C   UNL     1     -10.239   6.741  69.344  1.00  0.00    -0.204 A  
HETATM    7  C   UNL     1     -10.221   7.496  68.157  1.00  0.00    -0.228 A  
HETATM    8  C   UNL     1      -9.907   6.833  66.958  1.00  0.00    -0.217 A  
HETATM    9  C   UNL     1      -9.641   5.453  66.943  1.00  0.00    -0.150 A  
ENDROOT
BRANCH   7  10
HETATM   10  C   UNL     1     -10.550   8.924  68.207  1.00  0.00    -0.152 A  
HETATM   11  C   UNL     1     -10.829   9.796  69.243  1.00  0.00    -0.240 A  
HETATM   12  C   UNL     1     -11.116  11.053  68.662  1.00  0.00    -0.294 A  
HETATM   13  C   UNL     1     -10.993  10.894  67.298  1.00  0.00    -0.294 A  
HETATM   14  O   UNL     1     -10.643   9.597  67.017  1.00  0.00    -0.241 OA 
BRANCH  13  15
HETATM   15  C   UNL     1     -11.179  11.809  66.203  1.00  0.00    -0.306 C  
BRANCH  15  16
HETATM   16  N   UNL     1     -12.051  12.770  66.274  1.00  0.00    -0.527 NA 
HETATM   17  H   UNL     1     -13.052  12.578  66.264  1.00  0.00     0.000 HD 
BRANCH  16  18
HETATM   18  N   UNL     1     -11.574  14.054  66.361  1.00  0.00    -0.352 N  
HETATM   19  C   UNL     1     -10.802  14.624  65.277  1.00  0.00    -0.377 C  
HETATM   20  C   UNL     1     -10.232  15.852  65.963  1.00  0.00    -0.334 C  
HETATM   21  N   UNL     1     -10.691  15.910  67.237  1.00  0.00    -0.315 NA 
HETATM   22  O   UNL     1      -9.462  16.659  65.460  1.00  0.00    -0.482 OA 
HETATM   23  C   UNL     1     -11.419  14.805  67.540  1.00  0.00    -0.354 C  
HETATM   24  O   UNL     1     -11.814  14.532  68.664  1.00  0.00    -0.319 OA 
ENDBRANCH  16  18
ENDBRANCH  15  16
ENDBRANCH  13  15
ENDBRANCH   7  10
TORSDOF 4
ENDMDL
MODEL      135
REMARK 921   NORMALIZED FREE ENERGY PREDICTED BY IDOCK:   -5.16 KCAL/MOL
REMARK 922        TOTAL FREE ENERGY PREDICTED BY IDOCK:   -6.92 KCAL/MOL
REMARK 923 INTER-LIGAND FREE ENERGY PREDICTED BY IDOCK:   -6.47 KCAL/MOL
REMARK 924 INTRA-LIGAND FREE ENERGY PREDICTED BY IDOCK:   -0.46 KCAL/MOL
REMARK 927      BINDING AFFINITY PREDICTED BY RF-SCORE:    0.00 PKD
ROOT
HETATM    1  O   UNL     1      -8.425   5.522  66.118  1.00  0.00    -0.115 OA 
HETATM    2  N   UNL     1      -8.132   5.953  67.240  1.00  0.00    -0.102 N  
HETATM    3  O   UNL     1      -7.328   5.414  68.013  1.00  0.00    -0.071 OA 
HETATM    4  C   UNL     1      -8.784   7.191  67.689  1.00  0.00    -0.121 A  
HETATM    5  C   UNL     1      -9.699   7.829  66.848  1.00  0.00    -0.282 A  
HETATM    6  C   UNL     1     -10.298   9.023  67.261  1.00  0.00    -0.342 A  
HETATM    7  C   UNL     1      -9.998   9.606  68.507  1.00  0.00    -0.182 A  
HETATM    8  C   UNL     1      -9.089   8.938  69.346  1.00  0.00    -0.145 A  
HETATM    9  C   UNL     1      -8.481   7.737  68.942  1.00  0.00    -0.129 A  
ENDROOT
BRANCH   7  10
HETATM   10  C   UNL     1     -10.617  10.883  68.872  1.00  0.00    -0.210 A  
HETATM   11  C   UNL     1     -11.712  11.217  69.648  1.00  0.00    -0.420 A  
HETATM   12  C   UNL     1     -11.846  12.624  69.595  1.00  0.00    -0.379 A  
HETATM   13  C   UNL     1     -10.822  13.087  68.795  1.00  0.00    -0.244 A  
HETATM   14  O   UNL     1     -10.068  12.027  68.355  1.00  0.00    -0.204 OA 
BRANCH  13  15
HETATM   15  C   UNL     1     -10.461  14.412  68.367  1.00  0.00    -0.246 C  
BRANCH  15  16
HETATM   16  N   UNL     1     -11.212  15.078  67.540  1.00  0.00    -0.322 NA 
HETATM   17  H   UNL     1     -12.106  14.706  67.222  1.00  0.00     0.000 HD 
BRANCH  16  18
HETATM   18  N   UNL     1     -10.755  16.299  67.112  1.00  0.00    -0.288 N  
HETATM   19  C   UNL     1     -10.720  17.427  68.017  1.00  0.00    -0.359 C  
HETATM   20  C   UNL     1     -10.498  18.561  67.035  1.00  0.00    -0.402 C  
HETATM   21  N   UNL     1     -10.400  18.057  65.779  1.00  0.00    -0.618 NA 
HETATM   22  O   UNL     1     -10.436  19.750  67.316  1.00  0.00    -0.426 OA 
HETATM   23  C   UNL     1     -10.642  16.722  65.775  1.00  0.00    -0.250 C  
HETATM   24  O   UNL     1     -10.771  16.053  64.761  1.00  0.00    -0.611 OA 
ENDBRANCH  16  18
ENDBRANCH  15  16
ENDBRANCH  13  15
ENDBRANCH   7  10
TORSDOF 4
ENDMDL
MODEL      136
REMARK 921   NORMALIZED FREE ENERGY PREDICTED BY IDOCK:   -5.15 KCAL/MOL
REMARK 922        TOTAL FREE ENERGY PREDICTED BY IDOCK:   -6.91 KCAL/MOL
REMARK 923 INTER-LIGAND FREE ENERGY PREDICTED BY IDOCK:   -6.28 KCAL/MOL
REMARK 924 INTRA-LIGAND FREE ENERGY PREDICTED BY IDOCK:   -0.63 KCAL/MOL
REMARK 927      BINDING AFFINITY PREDICTED BY RF-SCORE:    0.00 PKD
ROOT
HETATM    1  O   UNL     1      -7.163   6.848  64.170  1.00  0.00    -0.058 OA 
HETATM    2  N   UNL     1      -7.932   7.791  64.396  1.00  0.00    -0.137 N  
HETATM    3  O   UNL     1      -8.145   8.727  63.614  1.00  0.00    -0.155 OA 
HETATM    4  C   UNL     1      -8.642   7.801  65.682  1.00  0.00    -0.127 A  
HETATM    5  C   UNL     1      -8.428   6.764  66.593  1.00  0.00    -0.120 A  
HETATM    6  C   UNL     1      -9.124   6.756  67.806  1.00  0.00    -0.117 A  
HETATM    7  C   UNL     1     -10.045   7.769  68.132  1.00  0.00    -0.220 A  
HETATM    8  C   UNL     1     -10.232   8.814  67.210  1.00  0.00    -0.332 A  
HETATM    9  C   UNL     1      -9.537   8.832  65.989  1.00  0.00    -0.297 A  
ENDROOT
BRANCH   7  10
HETATM   10  C   UNL     1     -10.785   7.690  69.395  1.00  0.00    -0.184 A  
HETATM   11  C   UNL     1     -11.255   6.633  70.153  1.00  0.00    -0.416 A  
HETATM   12  C   UNL     1     -11.939   7.186  71.260  1.00  0.00    -0.374 A  
HETATM   13  C   UNL     1     -11.851   8.556  71.132  1.00  0.00    -0.284 A  
HETATM   14  O   UNL     1     -11.144   8.867  69.998  1.00  0.00    -0.237 OA 
BRANCH  13  15
HETATM   15  C   UNL     1     -12.366   9.631  71.938  1.00  0.00    -0.357 C  
BRANCH  15  16
HETATM   16  N   UNL     1     -13.213  10.488  71.452  1.00  0.00    -0.370 NA 
HETATM   17  H   UNL     1     -14.120  10.190  71.092  1.00  0.00     0.000 HD 
BRANCH  16  18
HETATM   18  N   UNL     1     -12.842  11.809  71.439  1.00  0.00    -0.386 N  
HETATM   19  C   UNL     1     -13.524  12.770  72.279  1.00  0.00    -0.490 C  
HETATM   20  C   UNL     1     -13.025  14.068  71.672  1.00  0.00    -0.352 C  
HETATM   21  N   UNL     1     -12.163  13.791  70.662  1.00  0.00    -0.352 NA 
HETATM   22  O   UNL     1     -13.356  15.193  72.019  1.00  0.00    -0.338 OA 
HETATM   23  C   UNL     1     -12.102  12.455  70.432  1.00  0.00    -0.297 C  
HETATM   24  O   UNL     1     -11.526  11.950  69.480  1.00  0.00    -0.279 OA 
ENDBRANCH  16  18
ENDBRANCH  15  16
ENDBRANCH  13  15
ENDBRANCH   7  10
TORSDOF 4
ENDMDL
MODEL      137
REMARK 921   NORMALIZED FREE ENERGY PREDICTED BY IDOCK:   -5.15 KCAL/MOL
REMARK 922        TOTAL FREE ENERGY PREDICTED BY IDOCK:   -6.91 KCAL/MOL
REMARK 923 INTER-LIGAND FREE ENERGY PREDICTED BY IDOCK:   -6.30 KCAL/MOL
REMARK 924 INTRA-LIGAND FREE ENERGY PREDICTED BY IDOCK:   -0.61 KCAL/MOL
REMARK 927      BINDING AFFINITY PREDICTED BY RF-SCORE:    0.00 PKD
ROOT
HETATM    1  O   UNL     1      -7.082   7.636  62.335  1.00  0.00    -0.074 OA 
HETATM    2  N   UNL     1      -7.090   7.182  63.486  1.00  0.00    -0.064 N  
HETATM    3  O   UNL     1      -6.472   6.172  63.849  1.00  0.00    -0.029 OA 
HETATM    4  C   UNL     1      -7.888   7.892  64.495  1.00  0.00    -0.134 A  
HETATM    5  C   UNL     1      -8.602   9.035  64.127  1.00  0.00    -0.165 A  
HETATM    6  C   UNL     1      -9.339   9.728  65.092  1.00  0.00    -0.322 A  
HETATM    7  C   UNL     1      -9.377   9.305  66.434  1.00  0.00    -0.247 A  
HETATM    8  C   UNL     1      -8.667   8.143  66.780  1.00  0.00    -0.145 A  
HETATM    9  C   UNL     1      -7.923   7.437  65.819  1.00  0.00    -0.118 A  
ENDROOT
BRANCH   7  10
HETATM   10  C   UNL     1     -10.125  10.095  67.416  1.00  0.00    -0.205 A  
HETATM   11  C   UNL     1     -11.081   9.770  68.362  1.00  0.00    -0.142 A  
HETATM   12  C   UNL     1     -11.470  10.976  68.991  1.00  0.00    -0.368 A  
HETATM   13  C   UNL     1     -10.730  11.982  68.406  1.00  0.00    -0.229 A  
HETATM   14  O   UNL     1      -9.905  11.447  67.448  1.00  0.00    -0.180 OA 
BRANCH  13  15
HETATM   15  C   UNL     1     -10.705  13.404  68.619  1.00  0.00    -0.255 C  
BRANCH  15  16
HETATM   16  N   UNL     1     -11.608  14.177  68.093  1.00  0.00    -0.311 NA 
HETATM   17  H   UNL     1     -12.359  14.573  68.658  1.00  0.00     0.000 HD 
BRANCH  16  18
HETATM   18  N   UNL     1     -11.514  14.440  66.749  1.00  0.00    -0.357 N  
HETATM   19  C   UNL     1     -11.142  15.759  66.285  1.00  0.00    -0.073 C  
HETATM   20  C   UNL     1     -11.511  15.647  64.818  1.00  0.00    -0.283 C  
HETATM   21  N   UNL     1     -11.984  14.401  64.565  1.00  0.00    -0.460 NA 
HETATM   22  O   UNL     1     -11.419  16.540  63.987  1.00  0.00    -1.137 OA 
HETATM   23  C   UNL     1     -12.088  13.683  65.712  1.00  0.00    -0.428 C  
HETATM   24  O   UNL     1     -12.632  12.591  65.789  1.00  0.00    -0.569 OA 
ENDBRANCH  16  18
ENDBRANCH  15  16
ENDBRANCH  13  15
ENDBRANCH   7  10
TORSDOF 4
ENDMDL
MODEL      138
REMARK 921   NORMALIZED FREE ENERGY PREDICTED BY IDOCK:   -5.12 KCAL/MOL
REMARK 922        TOTAL FREE ENERGY PREDICTED BY IDOCK:   -6.88 KCAL/MOL
REMARK 923 INTER-LIGAND FREE ENERGY PREDICTED BY IDOCK:   -6.53 KCAL/MOL
REMARK 924 INTRA-LIGAND FREE ENERGY PREDICTED BY IDOCK:   -0.35 KCAL/MOL
REMARK 927      BINDING AFFINITY PREDICTED BY RF-SCORE:    0.00 PKD
ROOT
HETATM    1  O   UNL     1     -12.352  15.984  63.467  1.00  0.00    -0.440 OA 
HETATM    2  N   UNL     1     -11.621  16.153  64.452  1.00  0.00    -0.321 N  
HETATM    3  O   UNL     1     -10.971  17.183  64.676  1.00  0.00    -1.005 OA 
HETATM    4  C   UNL     1     -11.519  15.056  65.424  1.00  0.00    -0.287 A  
HETATM    5  C   UNL     1     -12.236  13.877  65.206  1.00  0.00    -0.449 A  
HETATM    6  C   UNL     1     -12.162  12.842  66.145  1.00  0.00    -0.385 A  
HETATM    7  C   UNL     1     -11.385  12.961  67.312  1.00  0.00    -0.356 A  
HETATM    8  C   UNL     1     -10.657  14.148  67.503  1.00  0.00    -0.257 A  
HETATM    9  C   UNL     1     -10.722  15.194  66.566  1.00  0.00    -0.310 A  
ENDROOT
BRANCH   7  10
HETATM   10  C   UNL     1     -11.380  11.867  68.288  1.00  0.00    -0.277 A  
HETATM   11  C   UNL     1     -11.800  11.767  69.601  1.00  0.00    -0.407 A  
HETATM   12  C   UNL     1     -11.493  10.457  70.038  1.00  0.00    -0.382 A  
HETATM   13  C   UNL     1     -10.906   9.813  68.969  1.00  0.00    -0.199 A  
HETATM   14  O   UNL     1     -10.839  10.669  67.898  1.00  0.00    -0.232 OA 
BRANCH  13  15
HETATM   15  C   UNL     1     -10.376   8.484  68.822  1.00  0.00    -0.213 C  
BRANCH  15  16
HETATM   16  N   UNL     1      -9.094   8.275  68.779  1.00  0.00    -0.144 NA 
HETATM   17  H   UNL     1      -8.706   7.341  68.915  1.00  0.00     0.000 HD 
BRANCH  16  18
HETATM   18  N   UNL     1      -8.282   9.356  68.545  1.00  0.00    -0.112 N  
HETATM   19  C   UNL     1      -7.813   9.645  67.207  1.00  0.00    -0.095 C  
HETATM   20  C   UNL     1      -6.724  10.656  67.510  1.00  0.00    -0.070 C  
HETATM   21  N   UNL     1      -6.673  10.877  68.847  1.00  0.00    -0.061 NA 
HETATM   22  O   UNL     1      -5.987  11.183  66.687  1.00  0.00    -0.100 OA 
HETATM   23  C   UNL     1      -7.523  10.049  69.506  1.00  0.00    -0.123 C  
HETATM   24  O   UNL     1      -7.559   9.931  70.722  1.00  0.00    -0.305 OA 
ENDBRANCH  16  18
ENDBRANCH  15  16
ENDBRANCH  13  15
ENDBRANCH   7  10
TORSDOF 4
ENDMDL
MODEL      139
REMARK 921   NORMALIZED FREE ENERGY PREDICTED BY IDOCK:   -5.12 KCAL/MOL
REMARK 922        TOTAL FREE ENERGY PREDICTED BY IDOCK:   -6.88 KCAL/MOL
REMARK 923 INTER-LIGAND FREE ENERGY PREDICTED BY IDOCK:   -6.37 KCAL/MOL
REMARK 924 INTRA-LIGAND FREE ENERGY PREDICTED BY IDOCK:   -0.50 KCAL/MOL
REMARK 927      BINDING AFFINITY PREDICTED BY RF-SCORE:    0.00 PKD
ROOT
HETATM    1  O   UNL     1     -11.248  17.127  64.552  1.00  0.00    -1.104 OA 
HETATM    2  N   UNL     1     -10.625  16.915  65.601  1.00  0.00    -0.297 N  
HETATM    3  O   UNL     1     -10.038  17.783  66.259  1.00  0.00    -0.334 OA 
HETATM    4  C   UNL     1     -10.581  15.533  66.101  1.00  0.00    -0.315 A  
HETATM    5  C   UNL     1     -11.230  14.523  65.387  1.00  0.00    -0.342 A  
HETATM    6  C   UNL     1     -11.213  13.213  65.876  1.00  0.00    -0.311 A  
HETATM    7  C   UNL     1     -10.560  12.885  67.079  1.00  0.00    -0.261 A  
HETATM    8  C   UNL     1      -9.898  13.912  67.772  1.00  0.00    -0.237 A  
HETATM    9  C   UNL     1      -9.907  15.232  67.290  1.00  0.00    -0.220 A  
ENDROOT
BRANCH   7  10
HETATM   10  C   UNL     1     -10.613  11.506  67.573  1.00  0.00    -0.206 A  
HETATM   11  C   UNL     1     -11.193  10.919  68.683  1.00  0.00    -0.326 A  
HETATM   12  C   UNL     1     -10.864   9.544  68.646  1.00  0.00    -0.177 A  
HETATM   13  C   UNL     1     -10.104   9.351  67.512  1.00  0.00    -0.215 A  
HETATM   14  O   UNL     1      -9.952  10.546  66.853  1.00  0.00    -0.186 OA 
BRANCH  13  15
HETATM   15  C   UNL     1      -9.475   8.178  66.964  1.00  0.00    -0.177 C  
BRANCH  15  16
HETATM   16  N   UNL     1     -10.178   7.244  66.397  1.00  0.00    -0.475 NA 
HETATM   17  H   UNL     1     -10.730   7.431  65.560  1.00  0.00     0.000 HD 
BRANCH  16  18
HETATM   18  N   UNL     1     -10.152   5.996  66.967  1.00  0.00    -0.160 N  
HETATM   19  C   UNL     1      -9.936   5.844  68.390  1.00  0.00    -0.150 C  
HETATM   20  C   UNL     1      -9.645   4.358  68.467  1.00  0.00    -0.143 C  
HETATM   21  N   UNL     1      -9.737   3.816  67.227  1.00  0.00    -0.170 NA 
HETATM   22  O   UNL     1      -9.354   3.737  69.480  1.00  0.00    -0.148 OA 
HETATM   23  C   UNL     1      -9.945   4.779  66.294  1.00  0.00    -0.242 C  
HETATM   24  O   UNL     1      -9.908   4.582  65.088  1.00  0.00    -0.177 OA 
ENDBRANCH  16  18
ENDBRANCH  15  16
ENDBRANCH  13  15
ENDBRANCH   7  10
TORSDOF 4
ENDMDL
MODEL      140
REMARK 921   NORMALIZED FREE ENERGY PREDICTED BY IDOCK:   -5.12 KCAL/MOL
REMARK 922        TOTAL FREE ENERGY PREDICTED BY IDOCK:   -6.87 KCAL/MOL
REMARK 923 INTER-LIGAND FREE ENERGY PREDICTED BY IDOCK:   -6.18 KCAL/MOL
REMARK 924 INTRA-LIGAND FREE ENERGY PREDICTED BY IDOCK:   -0.69 KCAL/MOL
REMARK 927      BINDING AFFINITY PREDICTED BY RF-SCORE:    0.00 PKD
ROOT
HETATM    1  O   UNL     1      -7.150   6.991  63.697  1.00  0.00    -0.054 OA 
HETATM    2  N   UNL     1      -7.594   8.120  63.457  1.00  0.00    -0.128 N  
HETATM    3  O   UNL     1      -7.457   8.717  62.380  1.00  0.00    -0.101 OA 
HETATM    4  C   UNL     1      -8.337   8.803  64.525  1.00  0.00    -0.162 A  
HETATM    5  C   UNL     1      -8.512   8.166  65.756  1.00  0.00    -0.162 A  
HETATM    6  C   UNL     1      -9.243   8.803  66.764  1.00  0.00    -0.211 A  
HETATM    7  C   UNL     1      -9.815  10.074  66.568  1.00  0.00    -0.267 A  
HETATM    8  C   UNL     1      -9.611  10.706  65.330  1.00  0.00    -0.293 A  
HETATM    9  C   UNL     1      -8.878  10.076  64.309  1.00  0.00    -0.245 A  
ENDROOT
BRANCH   7  10
HETATM   10  C   UNL     1     -10.613  10.677  67.640  1.00  0.00    -0.246 A  
HETATM   11  C   UNL     1     -11.192  10.170  68.789  1.00  0.00    -0.217 A  
HETATM   12  C   UNL     1     -11.881  11.237  69.412  1.00  0.00    -0.424 A  
HETATM   13  C   UNL     1     -11.685  12.348  68.620  1.00  0.00    -0.326 A  
HETATM   14  O   UNL     1     -10.908  12.011  67.540  1.00  0.00    -0.224 OA 
BRANCH  13  15
HETATM   15  C   UNL     1     -12.152  13.704  68.735  1.00  0.00    -0.297 C  
BRANCH  15  16
HETATM   16  N   UNL     1     -12.327  14.445  67.681  1.00  0.00    -0.601 NA 
HETATM   17  H   UNL     1     -13.181  14.382  67.127  1.00  0.00     0.000 HD 
BRANCH  16  18
HETATM   18  N   UNL     1     -11.321  15.314  67.342  1.00  0.00    -0.318 N  
HETATM   19  C   UNL     1     -11.097  16.515  68.117  1.00  0.00    -0.303 C  
HETATM   20  C   UNL     1     -10.173  17.275  67.185  1.00  0.00    -0.319 C  
HETATM   21  N   UNL     1      -9.932  16.527  66.080  1.00  0.00    -0.325 NA 
HETATM   22  O   UNL     1      -9.725  18.397  67.380  1.00  0.00    -0.288 OA 
HETATM   23  C   UNL     1     -10.674  15.391  66.096  1.00  0.00    -0.314 C  
HETATM   24  O   UNL     1     -10.766  14.621  65.151  1.00  0.00    -0.358 OA 
ENDBRANCH  16  18
ENDBRANCH  15  16
ENDBRANCH  13  15
ENDBRANCH   7  10
TORSDOF 4
ENDMDL
MODEL      141
REMARK 921   NORMALIZED FREE ENERGY PREDICTED BY IDOCK:   -5.11 KCAL/MOL
REMARK 922        TOTAL FREE ENERGY PREDICTED BY IDOCK:   -6.87 KCAL/MOL
REMARK 923 INTER-LIGAND FREE ENERGY PREDICTED BY IDOCK:   -6.54 KCAL/MOL
REMARK 924 INTRA-LIGAND FREE ENERGY PREDICTED BY IDOCK:   -0.32 KCAL/MOL
REMARK 927      BINDING AFFINITY PREDICTED BY RF-SCORE:    0.00 PKD
ROOT
HETATM    1  O   UNL     1      -9.691  20.463  67.290  1.00  0.00    -0.419 OA 
HETATM    2  N   UNL     1      -9.987  19.573  68.097  1.00  0.00    -0.392 N  
HETATM    3  O   UNL     1     -10.018  19.719  69.326  1.00  0.00    -0.412 OA 
HETATM    4  C   UNL     1     -10.325  18.247  67.559  1.00  0.00    -0.398 A  
HETATM    5  C   UNL     1     -10.300  18.040  66.178  1.00  0.00    -0.368 A  
HETATM    6  C   UNL     1     -10.650  16.788  65.662  1.00  0.00    -0.258 A  
HETATM    7  C   UNL     1     -11.034  15.727  66.503  1.00  0.00    -0.165 A  
HETATM    8  C   UNL     1     -11.034  15.950  67.890  1.00  0.00    -0.327 A  
HETATM    9  C   UNL     1     -10.684  17.204  68.420  1.00  0.00    -0.347 A  
ENDROOT
BRANCH   7  10
HETATM   10  C   UNL     1     -11.437  14.448  65.909  1.00  0.00    -0.341 A  
HETATM   11  C   UNL     1     -12.604  14.007  65.314  1.00  0.00    -0.495 A  
HETATM   12  C   UNL     1     -12.409  12.649  64.971  1.00  0.00    -0.561 A  
HETATM   13  C   UNL     1     -11.129  12.323  65.366  1.00  0.00    -0.311 A  
HETATM   14  O   UNL     1     -10.531  13.420  65.936  1.00  0.00    -0.277 OA 
BRANCH  13  15
HETATM   15  C   UNL     1     -10.384  11.094  65.295  1.00  0.00    -0.277 C  
BRANCH  15  16
HETATM   16  N   UNL     1      -9.105  11.071  65.520  1.00  0.00    -0.207 NA 
HETATM   17  H   UNL     1      -8.626  11.871  65.935  1.00  0.00     0.000 HD 
BRANCH  16  18
HETATM   18  N   UNL     1      -8.421   9.931  65.179  1.00  0.00    -0.141 N  
HETATM   19  C   UNL     1      -7.530   9.923  64.039  1.00  0.00    -0.135 C  
HETATM   20  C   UNL     1      -7.312   8.432  63.871  1.00  0.00    -0.102 C  
HETATM   21  N   UNL     1      -7.991   7.765  64.837  1.00  0.00    -0.133 NA 
HETATM   22  O   UNL     1      -6.647   7.901  62.992  1.00  0.00    -0.077 OA 
HETATM   23  C   UNL     1      -8.739   8.620  65.579  1.00  0.00    -0.186 C  
HETATM   24  O   UNL     1      -9.563   8.265  66.409  1.00  0.00    -0.217 OA 
ENDBRANCH  16  18
ENDBRANCH  15  16
ENDBRANCH  13  15
ENDBRANCH   7  10
TORSDOF 4
ENDMDL
MODEL      142
REMARK 921   NORMALIZED FREE ENERGY PREDICTED BY IDOCK:   -5.10 KCAL/MOL
REMARK 922        TOTAL FREE ENERGY PREDICTED BY IDOCK:   -6.85 KCAL/MOL
REMARK 923 INTER-LIGAND FREE ENERGY PREDICTED BY IDOCK:   -6.33 KCAL/MOL
REMARK 924 INTRA-LIGAND FREE ENERGY PREDICTED BY IDOCK:   -0.52 KCAL/MOL
REMARK 927      BINDING AFFINITY PREDICTED BY RF-SCORE:    0.00 PKD
ROOT
HETATM    1  O   UNL     1     -13.426  13.928  73.060  1.00  0.00    -0.637 OA 
HETATM    2  N   UNL     1     -13.174  14.686  72.115  1.00  0.00    -0.337 N  
HETATM    3  O   UNL     1     -13.307  15.917  72.144  1.00  0.00    -0.443 OA 
HETATM    4  C   UNL     1     -12.682  14.083  70.868  1.00  0.00    -0.350 A  
HETATM    5  C   UNL     1     -12.520  12.697  70.793  1.00  0.00    -0.357 A  
HETATM    6  C   UNL     1     -12.024  12.124  69.618  1.00  0.00    -0.351 A  
HETATM    7  C   UNL     1     -11.677  12.911  68.504  1.00  0.00    -0.374 A  
HETATM    8  C   UNL     1     -11.866  14.302  68.594  1.00  0.00    -0.379 A  
HETATM    9  C   UNL     1     -12.364  14.889  69.769  1.00  0.00    -0.283 A  
ENDROOT
BRANCH   7  10
HETATM   10  C   UNL     1     -11.116  12.266  67.313  1.00  0.00    -0.275 A  
HETATM   11  C   UNL     1     -11.586  12.085  66.025  1.00  0.00    -0.371 A  
HETATM   12  C   UNL     1     -10.605  11.342  65.326  1.00  0.00    -0.336 A  
HETATM   13  C   UNL     1      -9.579  11.110  66.217  1.00  0.00    -0.206 A  
HETATM   14  O   UNL     1      -9.885  11.676  67.429  1.00  0.00    -0.182 OA 
BRANCH  13  15
HETATM   15  C   UNL     1      -8.334  10.400  66.084  1.00  0.00    -0.149 C  
BRANCH  15  16
HETATM   16  N   UNL     1      -7.809   9.772  67.093  1.00  0.00    -0.099 NA 
HETATM   17  H   UNL     1      -6.934  10.085  67.514  1.00  0.00     0.000 HD 
BRANCH  16  18
HETATM   18  N   UNL     1      -8.476   8.672  67.571  1.00  0.00    -0.123 N  
HETATM   19  C   UNL     1      -9.277   7.857  66.684  1.00  0.00    -0.177 C  
HETATM   20  C   UNL     1     -10.052   7.032  67.693  1.00  0.00    -0.172 C  
HETATM   21  N   UNL     1      -9.661   7.370  68.947  1.00  0.00    -0.149 NA 
HETATM   22  O   UNL     1     -10.912   6.203  67.430  1.00  0.00    -0.321 OA 
HETATM   23  C   UNL     1      -8.791   8.411  68.917  1.00  0.00    -0.143 C  
HETATM   24  O   UNL     1      -8.408   9.011  69.910  1.00  0.00    -0.116 OA 
ENDBRANCH  16  18
ENDBRANCH  15  16
ENDBRANCH  13  15
ENDBRANCH   7  10
TORSDOF 4
ENDMDL
MODEL      143
REMARK 921   NORMALIZED FREE ENERGY PREDICTED BY IDOCK:   -5.10 KCAL/MOL
REMARK 922        TOTAL FREE ENERGY PREDICTED BY IDOCK:   -6.85 KCAL/MOL
REMARK 923 INTER-LIGAND FREE ENERGY PREDICTED BY IDOCK:   -6.26 KCAL/MOL
REMARK 924 INTRA-LIGAND FREE ENERGY PREDICTED BY IDOCK:   -0.59 KCAL/MOL
REMARK 927      BINDING AFFINITY PREDICTED BY RF-SCORE:    0.00 PKD
ROOT
HETATM    1  O   UNL     1     -14.020  15.827  72.258  1.00  0.00    -0.495 OA 
HETATM    2  N   UNL     1     -13.275  15.420  71.358  1.00  0.00    -0.470 N  
HETATM    3  O   UNL     1     -12.722  16.144  70.520  1.00  0.00    -0.220 OA 
HETATM    4  C   UNL     1     -13.027  13.973  71.279  1.00  0.00    -0.347 A  
HETATM    5  C   UNL     1     -13.632  13.121  72.206  1.00  0.00    -0.677 A  
HETATM    6  C   UNL     1     -13.375  11.748  72.150  1.00  0.00    -0.334 A  
HETATM    7  C   UNL     1     -12.512  11.199  71.183  1.00  0.00    -0.498 A  
HETATM    8  C   UNL     1     -11.927  12.071  70.249  1.00  0.00    -0.398 A  
HETATM    9  C   UNL     1     -12.179  13.453  70.294  1.00  0.00    -0.405 A  
ENDROOT
BRANCH   7  10
HETATM   10  C   UNL     1     -12.237   9.759  71.197  1.00  0.00    -0.362 A  
HETATM   11  C   UNL     1     -12.459   8.762  72.129  1.00  0.00    -0.460 A  
HETATM   12  C   UNL     1     -11.935   7.564  71.590  1.00  0.00    -0.333 A  
HETATM   13  C   UNL     1     -11.422   7.882  70.350  1.00  0.00    -0.145 A  
HETATM   14  O   UNL     1     -11.609   9.220  70.105  1.00  0.00    -0.182 OA 
BRANCH  13  15
HETATM   15  C   UNL     1     -10.754   7.087  69.354  1.00  0.00    -0.238 C  
BRANCH  15  16
HETATM   16  N   UNL     1      -9.847   7.605  68.580  1.00  0.00    -0.166 NA 
HETATM   17  H   UNL     1     -10.103   8.153  67.759  1.00  0.00     0.000 HD 
BRANCH  16  18
HETATM   18  N   UNL     1      -8.533   7.387  68.909  1.00  0.00    -0.129 N  
HETATM   19  C   UNL     1      -7.684   8.489  69.309  1.00  0.00    -0.093 C  
HETATM   20  C   UNL     1      -6.320   7.831  69.220  1.00  0.00    -0.035 C  
HETATM   21  N   UNL     1      -6.468   6.535  68.849  1.00  0.00    -0.041 NA 
HETATM   22  O   UNL     1      -5.247   8.379  69.429  1.00  0.00    -0.029 OA 
HETATM   23  C   UNL     1      -7.766   6.259  68.564  1.00  0.00    -0.101 C  
HETATM   24  O   UNL     1      -8.148   5.215  68.057  1.00  0.00    -0.097 OA 
ENDBRANCH  16  18
ENDBRANCH  15  16
ENDBRANCH  13  15
ENDBRANCH   7  10
TORSDOF 4
ENDMDL
MODEL      144
REMARK 921   NORMALIZED FREE ENERGY PREDICTED BY IDOCK:   -5.09 KCAL/MOL
REMARK 922        TOTAL FREE ENERGY PREDICTED BY IDOCK:   -6.84 KCAL/MOL
REMARK 923 INTER-LIGAND FREE ENERGY PREDICTED BY IDOCK:   -6.14 KCAL/MOL
REMARK 924 INTRA-LIGAND FREE ENERGY PREDICTED BY IDOCK:   -0.70 KCAL/MOL
REMARK 927      BINDING AFFINITY PREDICTED BY RF-SCORE:    0.00 PKD
ROOT
HETATM    1  O   UNL     1      -7.913   6.991  65.288  1.00  0.00    -0.114 OA 
HETATM    2  N   UNL     1      -8.081   7.582  64.214  1.00  0.00    -0.107 N  
HETATM    3  O   UNL     1      -7.724   7.151  63.110  1.00  0.00    -0.108 OA 
HETATM    4  C   UNL     1      -8.754   8.888  64.251  1.00  0.00    -0.063 A  
HETATM    5  C   UNL     1      -9.172   9.411  65.477  1.00  0.00    -0.292 A  
HETATM    6  C   UNL     1      -9.838  10.641  65.510  1.00  0.00    -0.316 A  
HETATM    7  C   UNL     1     -10.104  11.366  64.334  1.00  0.00    -0.341 A  
HETATM    8  C   UNL     1      -9.659  10.831  63.113  1.00  0.00    -0.385 A  
HETATM    9  C   UNL     1      -8.988   9.597  63.067  1.00  0.00    -0.257 A  
ENDROOT
BRANCH   7  10
HETATM   10  C   UNL     1     -10.848  12.627  64.419  1.00  0.00    -0.356 A  
HETATM   11  C   UNL     1     -12.126  12.999  64.046  1.00  0.00    -0.519 A  
HETATM   12  C   UNL     1     -12.262  14.375  64.344  1.00  0.00    -0.481 A  
HETATM   13  C   UNL     1     -11.063  14.780  64.892  1.00  0.00    -0.407 A  
HETATM   14  O   UNL     1     -10.199  13.715  64.943  1.00  0.00    -0.372 OA 
BRANCH  13  15
HETATM   15  C   UNL     1     -10.606  16.059  65.366  1.00  0.00    -0.408 C  
BRANCH  15  16
HETATM   16  N   UNL     1     -10.665  16.367  66.627  1.00  0.00    -0.233 NA 
HETATM   17  H   UNL     1     -11.517  16.748  67.039  1.00  0.00     0.000 HD 
BRANCH  16  18
HETATM   18  N   UNL     1      -9.538  16.162  67.383  1.00  0.00    -0.228 N  
HETATM   19  C   UNL     1      -8.226  16.215  66.773  1.00  0.00    -0.269 C  
HETATM   20  C   UNL     1      -7.386  15.600  67.876  1.00  0.00    -0.137 C  
HETATM   21  N   UNL     1      -8.179  15.302  68.934  1.00  0.00    -0.171 NA 
HETATM   22  O   UNL     1      -6.183  15.385  67.823  1.00  0.00    -0.140 OA 
HETATM   23  C   UNL     1      -9.484  15.537  68.641  1.00  0.00    -0.204 C  
HETATM   24  O   UNL     1     -10.416  15.206  69.359  1.00  0.00    -0.236 OA 
ENDBRANCH  16  18
ENDBRANCH  15  16
ENDBRANCH  13  15
ENDBRANCH   7  10
TORSDOF 4
ENDMDL
MODEL      145
REMARK 921   NORMALIZED FREE ENERGY PREDICTED BY IDOCK:   -5.07 KCAL/MOL
REMARK 922        TOTAL FREE ENERGY PREDICTED BY IDOCK:   -6.81 KCAL/MOL
REMARK 923 INTER-LIGAND FREE ENERGY PREDICTED BY IDOCK:   -6.27 KCAL/MOL
REMARK 924 INTRA-LIGAND FREE ENERGY PREDICTED BY IDOCK:   -0.55 KCAL/MOL
REMARK 927      BINDING AFFINITY PREDICTED BY RF-SCORE:    0.00 PKD
ROOT
HETATM    1  O   UNL     1     -12.615  15.872  63.589  1.00  0.00    -0.511 OA 
HETATM    2  N   UNL     1     -11.774  15.969  64.492  1.00  0.00    -0.245 N  
HETATM    3  O   UNL     1     -11.082  16.973  64.705  1.00  0.00    -0.997 OA 
HETATM    4  C   UNL     1     -11.583  14.810  65.375  1.00  0.00    -0.316 A  
HETATM    5  C   UNL     1     -12.343  13.656  65.168  1.00  0.00    -0.486 A  
HETATM    6  C   UNL     1     -12.183  12.562  66.025  1.00  0.00    -0.263 A  
HETATM    7  C   UNL     1     -11.276  12.596  67.101  1.00  0.00    -0.348 A  
HETATM    8  C   UNL     1     -10.508  13.759  67.280  1.00  0.00    -0.264 A  
HETATM    9  C   UNL     1     -10.659  14.864  66.425  1.00  0.00    -0.307 A  
ENDROOT
BRANCH   7  10
HETATM   10  C   UNL     1     -11.181  11.441  67.999  1.00  0.00    -0.281 A  
HETATM   11  C   UNL     1     -11.466  11.258  69.339  1.00  0.00    -0.370 A  
HETATM   12  C   UNL     1     -11.129   9.922  69.658  1.00  0.00    -0.279 A  
HETATM   13  C   UNL     1     -10.659   9.347  68.496  1.00  0.00    -0.197 A  
HETATM   14  O   UNL     1     -10.693  10.270  67.480  1.00  0.00    -0.255 OA 
BRANCH  13  15
HETATM   15  C   UNL     1     -10.157   8.029  68.211  1.00  0.00    -0.196 C  
BRANCH  15  16
HETATM   16  N   UNL     1      -8.881   7.805  68.106  1.00  0.00    -0.126 NA 
HETATM   17  H   UNL     1      -8.207   8.315  68.677  1.00  0.00     0.000 HD 
BRANCH  16  18
HETATM   18  N   UNL     1      -8.475   6.858  67.200  1.00  0.00    -0.120 N  
HETATM   19  C   UNL     1      -8.552   7.123  65.779  1.00  0.00    -0.133 C  
HETATM   20  C   UNL     1      -8.347   5.725  65.228  1.00  0.00    -0.146 C  
HETATM   21  N   UNL     1      -8.155   4.859  66.254  1.00  0.00    -0.107 NA 
HETATM   22  O   UNL     1      -8.368   5.412  64.045  1.00  0.00    -0.135 OA 
HETATM   23  C   UNL     1      -8.319   5.483  67.449  1.00  0.00    -0.103 C  
HETATM   24  O   UNL     1      -8.358   4.903  68.524  1.00  0.00    -0.084 OA 
ENDBRANCH  16  18
ENDBRANCH  15  16
ENDBRANCH  13  15
ENDBRANCH   7  10
TORSDOF 4
ENDMDL
MODEL      146
REMARK 921   NORMALIZED FREE ENERGY PREDICTED BY IDOCK:   -5.07 KCAL/MOL
REMARK 922        TOTAL FREE ENERGY PREDICTED BY IDOCK:   -6.81 KCAL/MOL
REMARK 923 INTER-LIGAND FREE ENERGY PREDICTED BY IDOCK:   -6.30 KCAL/MOL
REMARK 924 INTRA-LIGAND FREE ENERGY PREDICTED BY IDOCK:   -0.51 KCAL/MOL
REMARK 927      BINDING AFFINITY PREDICTED BY RF-SCORE:    0.00 PKD
ROOT
HETATM    1  O   UNL     1      -8.683   6.803  70.320  1.00  0.00    -0.142 OA 
HETATM    2  N   UNL     1      -8.702   6.601  69.099  1.00  0.00    -0.130 N  
HETATM    3  O   UNL     1      -8.418   5.523  68.560  1.00  0.00    -0.100 OA 
HETATM    4  C   UNL     1      -9.087   7.719  68.227  1.00  0.00    -0.130 A  
HETATM    5  C   UNL     1      -9.412   8.953  68.796  1.00  0.00    -0.144 A  
HETATM    6  C   UNL     1      -9.808  10.010  67.970  1.00  0.00    -0.164 A  
HETATM    7  C   UNL     1      -9.892   9.861  66.573  1.00  0.00    -0.274 A  
HETATM    8  C   UNL     1      -9.542   8.617  66.019  1.00  0.00    -0.265 A  
HETATM    9  C   UNL     1      -9.143   7.548  66.839  1.00  0.00    -0.166 A  
ENDROOT
BRANCH   7  10
HETATM   10  C   UNL     1     -10.357  10.986  65.756  1.00  0.00    -0.257 A  
HETATM   11  C   UNL     1     -10.445  11.193  64.392  1.00  0.00    -0.418 A  
HETATM   12  C   UNL     1     -10.938  12.504  64.200  1.00  0.00    -0.425 A  
HETATM   13  C   UNL     1     -11.137  13.037  65.457  1.00  0.00    -0.275 A  
HETATM   14  O   UNL     1     -10.787  12.112  66.408  1.00  0.00    -0.251 OA 
BRANCH  13  15
HETATM   15  C   UNL     1     -11.603  14.327  65.891  1.00  0.00    -0.358 C  
BRANCH  15  16
HETATM   16  N   UNL     1     -12.383  14.446  66.923  1.00  0.00    -0.547 NA 
HETATM   17  H   UNL     1     -13.390  14.303  66.844  1.00  0.00     0.000 HD 
BRANCH  16  18
HETATM   18  N   UNL     1     -11.802  14.773  68.123  1.00  0.00    -0.315 N  
HETATM   19  C   UNL     1     -12.152  14.051  69.327  1.00  0.00    -0.338 C  
HETATM   20  C   UNL     1     -11.557  14.967  70.379  1.00  0.00    -0.287 C  
HETATM   21  N   UNL     1     -10.948  16.016  69.772  1.00  0.00    -0.308 NA 
HETATM   22  O   UNL     1     -11.626  14.806  71.590  1.00  0.00    -0.330 OA 
HETATM   23  C   UNL     1     -11.155  15.983  68.431  1.00  0.00    -0.351 C  
HETATM   24  O   UNL     1     -10.851  16.889  67.669  1.00  0.00    -0.325 OA 
ENDBRANCH  16  18
ENDBRANCH  15  16
ENDBRANCH  13  15
ENDBRANCH   7  10
TORSDOF 4
ENDMDL
MODEL      147
REMARK 921   NORMALIZED FREE ENERGY PREDICTED BY IDOCK:   -5.06 KCAL/MOL
REMARK 922        TOTAL FREE ENERGY PREDICTED BY IDOCK:   -6.81 KCAL/MOL
REMARK 923 INTER-LIGAND FREE ENERGY PREDICTED BY IDOCK:   -6.25 KCAL/MOL
REMARK 924 INTRA-LIGAND FREE ENERGY PREDICTED BY IDOCK:   -0.55 KCAL/MOL
REMARK 927      BINDING AFFINITY PREDICTED BY RF-SCORE:    0.00 PKD
ROOT
HETATM    1  O   UNL     1      -7.390   6.309  65.471  1.00  0.00    -0.075 OA 
HETATM    2  N   UNL     1      -7.413   6.912  64.391  1.00  0.00    -0.092 N  
HETATM    3  O   UNL     1      -6.810   6.552  63.371  1.00  0.00    -0.046 OA 
HETATM    4  C   UNL     1      -8.214   8.141  64.312  1.00  0.00    -0.091 A  
HETATM    5  C   UNL     1      -8.909   8.582  65.441  1.00  0.00    -0.173 A  
HETATM    6  C   UNL     1      -9.695   9.736  65.360  1.00  0.00    -0.383 A  
HETATM    7  C   UNL     1      -9.809  10.467  64.162  1.00  0.00    -0.379 A  
HETATM    8  C   UNL     1      -9.087  10.017  63.043  1.00  0.00    -0.298 A  
HETATM    9  C   UNL     1      -8.294   8.859  63.113  1.00  0.00    -0.185 A  
ENDROOT
BRANCH   7  10
HETATM   10  C   UNL     1     -10.683  11.642  64.117  1.00  0.00    -0.362 A  
HETATM   11  C   UNL     1     -11.977  11.844  63.672  1.00  0.00    -0.578 A  
HETATM   12  C   UNL     1     -12.269  13.216  63.848  1.00  0.00    -0.503 A  
HETATM   13  C   UNL     1     -11.143  13.790  64.400  1.00  0.00    -0.345 A  
HETATM   14  O   UNL     1     -10.175  12.832  64.569  1.00  0.00    -0.334 OA 
BRANCH  13  15
HETATM   15  C   UNL     1     -10.843  15.145  64.780  1.00  0.00    -0.357 C  
BRANCH  15  16
HETATM   16  N   UNL     1     -11.019  15.554  66.001  1.00  0.00    -0.292 NA 
HETATM   17  H   UNL     1     -11.218  16.533  66.207  1.00  0.00     0.000 HD 
BRANCH  16  18
HETATM   18  N   UNL     1     -10.928  14.620  67.002  1.00  0.00    -0.309 N  
HETATM   19  C   UNL     1     -12.117  14.161  67.688  1.00  0.00    -0.302 C  
HETATM   20  C   UNL     1     -11.493  13.454  68.876  1.00  0.00    -0.304 C  
HETATM   21  N   UNL     1     -10.142  13.520  68.781  1.00  0.00    -0.161 NA 
HETATM   22  O   UNL     1     -12.104  12.921  69.792  1.00  0.00    -0.299 OA 
HETATM   23  C   UNL     1      -9.769  14.289  67.727  1.00  0.00    -0.222 C  
HETATM   24  O   UNL     1      -8.619  14.640  67.509  1.00  0.00    -0.165 OA 
ENDBRANCH  16  18
ENDBRANCH  15  16
ENDBRANCH  13  15
ENDBRANCH   7  10
TORSDOF 4
ENDMDL
MODEL      148
REMARK 921   NORMALIZED FREE ENERGY PREDICTED BY IDOCK:   -5.06 KCAL/MOL
REMARK 922        TOTAL FREE ENERGY PREDICTED BY IDOCK:   -6.80 KCAL/MOL
REMARK 923 INTER-LIGAND FREE ENERGY PREDICTED BY IDOCK:   -6.28 KCAL/MOL
REMARK 924 INTRA-LIGAND FREE ENERGY PREDICTED BY IDOCK:   -0.52 KCAL/MOL
REMARK 927      BINDING AFFINITY PREDICTED BY RF-SCORE:    0.00 PKD
ROOT
HETATM    1  O   UNL     1      -6.803  19.449  66.535  1.00  0.00    -0.189 OA 
HETATM    2  N   UNL     1      -8.032  19.450  66.679  1.00  0.00    -0.272 N  
HETATM    3  O   UNL     1      -8.716  20.460  66.892  1.00  0.00    -0.311 OA 
HETATM    4  C   UNL     1      -8.731  18.159  66.591  1.00  0.00    -0.264 A  
HETATM    5  C   UNL     1      -7.996  16.995  66.354  1.00  0.00    -0.342 A  
HETATM    6  C   UNL     1      -8.662  15.771  66.241  1.00  0.00    -0.358 A  
HETATM    7  C   UNL     1     -10.061  15.680  66.356  1.00  0.00    -0.301 A  
HETATM    8  C   UNL     1     -10.780  16.860  66.613  1.00  0.00    -0.094 A  
HETATM    9  C   UNL     1     -10.122  18.097  66.729  1.00  0.00    -0.367 A  
ENDROOT
BRANCH   7  10
HETATM   10  C   UNL     1     -10.715  14.380  66.182  1.00  0.00    -0.304 A  
HETATM   11  C   UNL     1     -11.532  13.855  65.197  1.00  0.00    -0.324 A  
HETATM   12  C   UNL     1     -11.891  12.549  65.607  1.00  0.00    -0.493 A  
HETATM   13  C   UNL     1     -11.272  12.334  66.820  1.00  0.00    -0.318 A  
HETATM   14  O   UNL     1     -10.550  13.447  67.172  1.00  0.00    -0.257 OA 
BRANCH  13  15
HETATM   15  C   UNL     1     -11.281  11.208  67.717  1.00  0.00    -0.294 C  
BRANCH  15  16
HETATM   16  N   UNL     1     -10.176  10.734  68.210  1.00  0.00    -0.161 NA 
HETATM   17  H   UNL     1      -9.358  11.329  68.342  1.00  0.00     0.000 HD 
BRANCH  16  18
HETATM   18  N   UNL     1     -10.151   9.403  68.545  1.00  0.00    -0.180 N  
HETATM   19  C   UNL     1     -10.403   8.390  67.543  1.00  0.00    -0.265 C  
HETATM   20  C   UNL     1     -10.612   7.176  68.427  1.00  0.00    -0.186 C  
HETATM   21  N   UNL     1     -10.450   7.530  69.726  1.00  0.00    -0.225 NA 
HETATM   22  O   UNL     1     -10.900   6.051  68.041  1.00  0.00    -0.283 OA 
HETATM   23  C   UNL     1     -10.267   8.870  69.841  1.00  0.00    -0.200 C  
HETATM   24  O   UNL     1     -10.254   9.470  70.906  1.00  0.00    -0.292 OA 
ENDBRANCH  16  18
ENDBRANCH  15  16
ENDBRANCH  13  15
ENDBRANCH   7  10
TORSDOF 4
ENDMDL
MODEL      149
REMARK 921   NORMALIZED FREE ENERGY PREDICTED BY IDOCK:   -5.04 KCAL/MOL
REMARK 922        TOTAL FREE ENERGY PREDICTED BY IDOCK:   -6.78 KCAL/MOL
REMARK 923 INTER-LIGAND FREE ENERGY PREDICTED BY IDOCK:   -6.08 KCAL/MOL
REMARK 924 INTRA-LIGAND FREE ENERGY PREDICTED BY IDOCK:   -0.70 KCAL/MOL
REMARK 927      BINDING AFFINITY PREDICTED BY RF-SCORE:    0.00 PKD
ROOT
HETATM    1  O   UNL     1     -10.891   5.998  72.225  1.00  0.00    -0.222 OA 
HETATM    2  N   UNL     1     -10.463   5.958  71.065  1.00  0.00    -0.226 N  
HETATM    3  O   UNL     1     -10.423   4.938  70.365  1.00  0.00    -0.221 OA 
HETATM    4  C   UNL     1      -9.968   7.210  70.475  1.00  0.00    -0.187 A  
HETATM    5  C   UNL     1      -9.995   8.383  71.233  1.00  0.00    -0.261 A  
HETATM    6  C   UNL     1      -9.550   9.581  70.664  1.00  0.00    -0.292 A  
HETATM    7  C   UNL     1      -9.080   9.637  69.339  1.00  0.00    -0.194 A  
HETATM    8  C   UNL     1      -9.044   8.442  68.600  1.00  0.00    -0.140 A  
HETATM    9  C   UNL     1      -9.487   7.232  69.161  1.00  0.00    -0.148 A  
ENDROOT
BRANCH   7  10
HETATM   10  C   UNL     1      -8.671  10.926  68.774  1.00  0.00    -0.158 A  
HETATM   11  C   UNL     1      -7.518  11.682  68.877  1.00  0.00    -0.092 A  
HETATM   12  C   UNL     1      -7.729  12.867  68.134  1.00  0.00    -0.138 A  
HETATM   13  C   UNL     1      -9.000  12.778  67.605  1.00  0.00    -0.191 A  
HETATM   14  O   UNL     1      -9.576  11.593  67.990  1.00  0.00    -0.172 OA 
BRANCH  13  15
HETATM   15  C   UNL     1      -9.765  13.681  66.786  1.00  0.00    -0.275 C  
BRANCH  15  16
HETATM   16  N   UNL     1      -9.523  13.802  65.515  1.00  0.00    -0.500 NA 
HETATM   17  H   UNL     1      -8.795  14.429  65.172  1.00  0.00     0.000 HD 
BRANCH  16  18
HETATM   18  N   UNL     1     -10.283  13.055  64.651  1.00  0.00    -0.329 N  
HETATM   19  C   UNL     1     -11.625  13.473  64.305  1.00  0.00    -0.397 C  
HETATM   20  C   UNL     1     -12.148  12.207  63.653  1.00  0.00    -0.551 C  
HETATM   21  N   UNL     1     -11.169  11.269  63.641  1.00  0.00    -0.278 NA 
HETATM   22  O   UNL     1     -13.279  12.041  63.219  1.00  0.00    -0.628 OA 
HETATM   23  C   UNL     1     -10.073  11.706  64.312  1.00  0.00    -0.287 C  
HETATM   24  O   UNL     1      -9.112  11.002  64.587  1.00  0.00    -0.189 OA 
ENDBRANCH  16  18
ENDBRANCH  15  16
ENDBRANCH  13  15
ENDBRANCH   7  10
TORSDOF 4
ENDMDL
MODEL      150
REMARK 921   NORMALIZED FREE ENERGY PREDICTED BY IDOCK:   -5.03 KCAL/MOL
REMARK 922        TOTAL FREE ENERGY PREDICTED BY IDOCK:   -6.77 KCAL/MOL
REMARK 923 INTER-LIGAND FREE ENERGY PREDICTED BY IDOCK:   -6.36 KCAL/MOL
REMARK 924 INTRA-LIGAND FREE ENERGY PREDICTED BY IDOCK:   -0.40 KCAL/MOL
REMARK 927      BINDING AFFINITY PREDICTED BY RF-SCORE:    0.00 PKD
ROOT
HETATM    1  O   UNL     1     -10.697   4.807  66.964  1.00  0.00    -0.054 OA 
HETATM    2  N   UNL     1     -10.162   5.297  67.967  1.00  0.00    -0.164 N  
HETATM    3  O   UNL     1      -9.956   4.687  69.024  1.00  0.00    -0.175 OA 
HETATM    4  C   UNL     1      -9.742   6.704  67.898  1.00  0.00    -0.122 A  
HETATM    5  C   UNL     1      -9.959   7.429  66.724  1.00  0.00    -0.300 A  
HETATM    6  C   UNL     1      -9.533   8.759  66.647  1.00  0.00    -0.263 A  
HETATM    7  C   UNL     1      -8.885   9.389  67.726  1.00  0.00    -0.124 A  
HETATM    8  C   UNL     1      -8.694   8.648  68.905  1.00  0.00    -0.131 A  
HETATM    9  C   UNL     1      -9.118   7.311  68.995  1.00  0.00    -0.133 A  
ENDROOT
BRANCH   7  10
HETATM   10  C   UNL     1      -8.416  10.770  67.578  1.00  0.00    -0.119 A  
HETATM   11  C   UNL     1      -7.229  11.406  67.890  1.00  0.00    -0.084 A  
HETATM   12  C   UNL     1      -7.385  12.769  67.550  1.00  0.00    -0.153 A  
HETATM   13  C   UNL     1      -8.658  12.904  67.038  1.00  0.00    -0.169 A  
HETATM   14  O   UNL     1      -9.289  11.685  67.050  1.00  0.00    -0.175 OA 
BRANCH  13  15
HETATM   15  C   UNL     1      -9.381  14.048  66.547  1.00  0.00    -0.255 C  
BRANCH  15  16
HETATM   16  N   UNL     1      -9.824  14.088  65.326  1.00  0.00    -0.579 NA 
HETATM   17  H   UNL     1      -9.355  14.645  64.612  1.00  0.00     0.000 HD 
BRANCH  16  18
HETATM   18  N   UNL     1     -10.945  13.353  65.034  1.00  0.00    -0.303 N  
HETATM   19  C   UNL     1     -11.055  12.652  63.773  1.00  0.00    -0.453 C  
HETATM   20  C   UNL     1     -12.533  12.313  63.775  1.00  0.00    -0.515 C  
HETATM   21  N   UNL     1     -13.098  12.763  64.923  1.00  0.00    -0.821 NA 
HETATM   22  O   UNL     1     -13.137  11.740  62.878  1.00  0.00    -0.387 OA 
HETATM   23  C   UNL     1     -12.202  13.471  65.656  1.00  0.00    -0.458 C  
HETATM   24  O   UNL     1     -12.491  14.117  66.652  1.00  0.00    -0.426 OA 
ENDBRANCH  16  18
ENDBRANCH  15  16
ENDBRANCH  13  15
ENDBRANCH   7  10
TORSDOF 4
ENDMDL
MODEL      151
REMARK 921   NORMALIZED FREE ENERGY PREDICTED BY IDOCK:   -5.01 KCAL/MOL
REMARK 922        TOTAL FREE ENERGY PREDICTED BY IDOCK:   -6.74 KCAL/MOL
REMARK 923 INTER-LIGAND FREE ENERGY PREDICTED BY IDOCK:   -6.17 KCAL/MOL
REMARK 924 INTRA-LIGAND FREE ENERGY PREDICTED BY IDOCK:   -0.57 KCAL/MOL
REMARK 927      BINDING AFFINITY PREDICTED BY RF-SCORE:    0.00 PKD
ROOT
HETATM    1  O   UNL     1      -7.971  21.160  67.401  1.00  0.00    -0.253 OA 
HETATM    2  N   UNL     1      -7.421  20.121  67.788  1.00  0.00    -0.290 N  
HETATM    3  O   UNL     1      -6.200  19.983  67.935  1.00  0.00    -0.215 OA 
HETATM    4  C   UNL     1      -8.280  18.968  68.095  1.00  0.00    -0.314 A  
HETATM    5  C   UNL     1      -9.664  19.082  67.941  1.00  0.00    -0.385 A  
HETATM    6  C   UNL     1     -10.484  17.995  68.261  1.00  0.00    -0.355 A  
HETATM    7  C   UNL     1      -9.950  16.785  68.741  1.00  0.00    -0.269 A  
HETATM    8  C   UNL     1      -8.554  16.685  68.871  1.00  0.00    -0.235 A  
HETATM    9  C   UNL     1      -7.719  17.770  68.553  1.00  0.00    -0.289 A  
ENDROOT
BRANCH   7  10
HETATM   10  C   UNL     1     -10.857  15.693  69.107  1.00  0.00    -0.246 A  
HETATM   11  C   UNL     1     -11.855  15.569  70.056  1.00  0.00    -0.379 A  
HETATM   12  C   UNL     1     -12.356  14.249  69.963  1.00  0.00    -0.403 A  
HETATM   13  C   UNL     1     -11.646  13.629  68.956  1.00  0.00    -0.312 A  
HETATM   14  O   UNL     1     -10.733  14.509  68.429  1.00  0.00    -0.233 OA 
BRANCH  13  15
HETATM   15  C   UNL     1     -11.699  12.293  68.426  1.00  0.00    -0.337 C  
BRANCH  15  16
HETATM   16  N   UNL     1     -11.691  12.080  67.144  1.00  0.00    -0.566 NA 
HETATM   17  H   UNL     1     -12.413  12.470  66.538  1.00  0.00     0.000 HD 
BRANCH  16  18
HETATM   18  N   UNL     1     -10.676  11.309  66.635  1.00  0.00    -0.263 N  
HETATM   19  C   UNL     1     -10.843   9.879  66.488  1.00  0.00     0.095 C  
HETATM   20  C   UNL     1      -9.406   9.458  66.245  1.00  0.00    -0.198 C  
HETATM   21  N   UNL     1      -8.610  10.556  66.238  1.00  0.00    -0.142 NA 
HETATM   22  O   UNL     1      -9.012   8.310  66.098  1.00  0.00    -0.162 OA 
HETATM   23  C   UNL     1      -9.318  11.668  66.560  1.00  0.00    -0.206 C  
HETATM   24  O   UNL     1      -8.815  12.760  66.778  1.00  0.00    -0.212 OA 
ENDBRANCH  16  18
ENDBRANCH  15  16
ENDBRANCH  13  15
ENDBRANCH   7  10
TORSDOF 4
ENDMDL
MODEL      152
REMARK 921   NORMALIZED FREE ENERGY PREDICTED BY IDOCK:   -5.01 KCAL/MOL
REMARK 922        TOTAL FREE ENERGY PREDICTED BY IDOCK:   -6.73 KCAL/MOL
REMARK 923 INTER-LIGAND FREE ENERGY PREDICTED BY IDOCK:   -6.05 KCAL/MOL
REMARK 924 INTRA-LIGAND FREE ENERGY PREDICTED BY IDOCK:   -0.68 KCAL/MOL
REMARK 927      BINDING AFFINITY PREDICTED BY RF-SCORE:    0.00 PKD
ROOT
HETATM    1  O   UNL     1      -8.774   9.242  62.733  1.00  0.00    -0.217 OA 
HETATM    2  N   UNL     1      -8.078   9.682  63.656  1.00  0.00    -0.140 N  
HETATM    3  O   UNL     1      -6.843   9.611  63.702  1.00  0.00    -0.102 OA 
HETATM    4  C   UNL     1      -8.766  10.338  64.777  1.00  0.00    -0.188 A  
HETATM    5  C   UNL     1     -10.159  10.438  64.765  1.00  0.00    -0.387 A  
HETATM    6  C   UNL     1     -10.813  11.087  65.817  1.00  0.00    -0.167 A  
HETATM    7  C   UNL     1     -10.100  11.650  66.892  1.00  0.00    -0.238 A  
HETATM    8  C   UNL     1      -8.701  11.522  66.895  1.00  0.00    -0.181 A  
HETATM    9  C   UNL     1      -8.032  10.872  65.843  1.00  0.00    -0.105 A  
ENDROOT
BRANCH   7  10
HETATM   10  C   UNL     1     -10.830  12.362  67.946  1.00  0.00    -0.222 A  
HETATM   11  C   UNL     1     -11.688  11.948  68.948  1.00  0.00    -0.381 A  
HETATM   12  C   UNL     1     -12.116  13.109  69.634  1.00  0.00    -0.317 A  
HETATM   13  C   UNL     1     -11.494  14.178  69.024  1.00  0.00    -0.285 A  
HETATM   14  O   UNL     1     -10.706  13.726  67.996  1.00  0.00    -0.241 OA 
BRANCH  13  15
HETATM   15  C   UNL     1     -11.557  15.594  69.271  1.00  0.00    -0.366 C  
BRANCH  15  16
HETATM   16  N   UNL     1     -11.744  16.437  68.300  1.00  0.00    -0.053 NA 
HETATM   17  H   UNL     1     -12.684  16.679  67.984  1.00  0.00     0.000 HD 
BRANCH  16  18
HETATM   18  N   UNL     1     -10.632  16.989  67.715  1.00  0.00    -0.352 N  
HETATM   19  C   UNL     1      -9.930  18.078  68.359  1.00  0.00    -0.378 C  
HETATM   20  C   UNL     1      -9.049  18.550  67.217  1.00  0.00    -0.277 C  
HETATM   21  N   UNL     1      -9.260  17.765  66.132  1.00  0.00    -0.495 NA 
HETATM   22  O   UNL     1      -8.280  19.500  67.253  1.00  0.00    -0.274 OA 
HETATM   23  C   UNL     1     -10.265  16.882  66.362  1.00  0.00    -0.321 C  
HETATM   24  O   UNL     1     -10.761  16.170  65.501  1.00  0.00    -0.366 OA 
ENDBRANCH  16  18
ENDBRANCH  15  16
ENDBRANCH  13  15
ENDBRANCH   7  10
TORSDOF 4
ENDMDL
MODEL      153
REMARK 921   NORMALIZED FREE ENERGY PREDICTED BY IDOCK:   -4.99 KCAL/MOL
REMARK 922        TOTAL FREE ENERGY PREDICTED BY IDOCK:   -6.71 KCAL/MOL
REMARK 923 INTER-LIGAND FREE ENERGY PREDICTED BY IDOCK:   -6.16 KCAL/MOL
REMARK 924 INTRA-LIGAND FREE ENERGY PREDICTED BY IDOCK:   -0.55 KCAL/MOL
REMARK 927      BINDING AFFINITY PREDICTED BY RF-SCORE:    0.00 PKD
ROOT
HETATM    1  O   UNL     1     -14.247  13.494  72.624  1.00  0.00    -0.751 OA 
HETATM    2  N   UNL     1     -13.448  13.410  71.683  1.00  0.00    -0.337 N  
HETATM    3  O   UNL     1     -13.046  14.370  71.013  1.00  0.00    -0.351 OA 
HETATM    4  C   UNL     1     -12.940  12.075  71.336  1.00  0.00    -0.262 A  
HETATM    5  C   UNL     1     -13.371  10.965  72.066  1.00  0.00    -0.394 A  
HETATM    6  C   UNL     1     -12.867   9.698  71.755  1.00  0.00    -0.514 A  
HETATM    7  C   UNL     1     -11.928   9.511  70.724  1.00  0.00    -0.326 A  
HETATM    8  C   UNL     1     -11.522  10.639  69.989  1.00  0.00    -0.404 A  
HETATM    9  C   UNL     1     -12.022  11.917  70.292  1.00  0.00    -0.416 A  
ENDROOT
BRANCH   7  10
HETATM   10  C   UNL     1     -11.394   8.170  70.470  1.00  0.00    -0.221 A  
HETATM   11  C   UNL     1     -11.757   6.909  70.906  1.00  0.00    -0.408 A  
HETATM   12  C   UNL     1     -10.831   5.995  70.351  1.00  0.00    -0.386 A  
HETATM   13  C   UNL     1      -9.949   6.738  69.595  1.00  0.00    -0.173 A  
HETATM   14  O   UNL     1     -10.292   8.066  69.663  1.00  0.00    -0.211 OA 
BRANCH  13  15
HETATM   15  C   UNL     1      -8.796   6.365  68.819  1.00  0.00    -0.124 C  
BRANCH  15  16
HETATM   16  N   UNL     1      -8.918   5.660  67.734  1.00  0.00    -0.109 NA 
HETATM   17  H   UNL     1      -9.416   4.770  67.735  1.00  0.00     0.000 HD 
BRANCH  16  18
HETATM   18  N   UNL     1      -8.353   6.159  66.587  1.00  0.00    -0.110 N  
HETATM   19  C   UNL     1      -8.657   7.502  66.144  1.00  0.00    -0.149 C  
HETATM   20  C   UNL     1      -8.111   7.455  64.729  1.00  0.00    -0.104 C  
HETATM   21  N   UNL     1      -7.563   6.236  64.498  1.00  0.00    -0.092 NA 
HETATM   22  O   UNL     1      -8.167   8.361  63.910  1.00  0.00    -0.155 OA 
HETATM   23  C   UNL     1      -7.772   5.405  65.551  1.00  0.00    -0.091 C  
HETATM   24  O   UNL     1      -7.522   4.209  65.539  1.00  0.00    -0.075 OA 
ENDBRANCH  16  18
ENDBRANCH  15  16
ENDBRANCH  13  15
ENDBRANCH   7  10
TORSDOF 4
ENDMDL
MODEL      154
REMARK 921   NORMALIZED FREE ENERGY PREDICTED BY IDOCK:   -4.98 KCAL/MOL
REMARK 922        TOTAL FREE ENERGY PREDICTED BY IDOCK:   -6.70 KCAL/MOL
REMARK 923 INTER-LIGAND FREE ENERGY PREDICTED BY IDOCK:   -6.47 KCAL/MOL
REMARK 924 INTRA-LIGAND FREE ENERGY PREDICTED BY IDOCK:   -0.22 KCAL/MOL
REMARK 927      BINDING AFFINITY PREDICTED BY RF-SCORE:    0.00 PKD
ROOT
HETATM    1  O   UNL     1      -8.309   2.665  66.143  1.00  0.00    -0.085 OA 
HETATM    2  N   UNL     1      -9.310   3.357  65.920  1.00  0.00    -0.159 N  
HETATM    3  O   UNL     1     -10.156   3.110  65.051  1.00  0.00     0.011 OA 
HETATM    4  C   UNL     1      -9.510   4.555  66.747  1.00  0.00    -0.174 A  
HETATM    5  C   UNL     1      -8.578   4.869  67.739  1.00  0.00    -0.103 A  
HETATM    6  C   UNL     1      -8.782   5.994  68.545  1.00  0.00    -0.110 A  
HETATM    7  C   UNL     1      -9.911   6.818  68.387  1.00  0.00    -0.153 A  
HETATM    8  C   UNL     1     -10.828   6.495  67.372  1.00  0.00    -0.449 A  
HETATM    9  C   UNL     1     -10.633   5.369  66.554  1.00  0.00    -0.353 A  
ENDROOT
BRANCH   7  10
HETATM   10  C   UNL     1     -10.103   7.957  69.290  1.00  0.00    -0.197 A  
HETATM   11  C   UNL     1      -9.648   8.243  70.564  1.00  0.00    -0.180 A  
HETATM   12  C   UNL     1     -10.207   9.487  70.937  1.00  0.00    -0.356 A  
HETATM   13  C   UNL     1     -10.974   9.909  69.871  1.00  0.00    -0.281 A  
HETATM   14  O   UNL     1     -10.909   8.980  68.863  1.00  0.00    -0.163 OA 
BRANCH  13  15
HETATM   15  C   UNL     1     -11.787  11.080  69.676  1.00  0.00    -0.342 C  
BRANCH  15  16
HETATM   16  N   UNL     1     -11.404  12.242  70.113  1.00  0.00    -0.477 NA 
HETATM   17  H   UNL     1     -10.448  12.570  69.976  1.00  0.00     0.000 HD 
BRANCH  16  18
HETATM   18  N   UNL     1     -12.334  13.012  70.766  1.00  0.00    -0.360 N  
HETATM   19  C   UNL     1     -12.234  14.455  70.749  1.00  0.00    -0.343 C  
HETATM   20  C   UNL     1     -13.219  14.812  71.846  1.00  0.00    -0.345 C  
HETATM   21  N   UNL     1     -13.777  13.678  72.337  1.00  0.00    -0.591 NA 
HETATM   22  O   UNL     1     -13.466  15.941  72.246  1.00  0.00    -0.451 OA 
HETATM   23  C   UNL     1     -13.205  12.579  71.783  1.00  0.00    -0.344 C  
HETATM   24  O   UNL     1     -13.410  11.435  72.162  1.00  0.00    -0.469 OA 
ENDBRANCH  16  18
ENDBRANCH  15  16
ENDBRANCH  13  15
ENDBRANCH   7  10
TORSDOF 4
ENDMDL
MODEL      155
REMARK 921   NORMALIZED FREE ENERGY PREDICTED BY IDOCK:   -4.97 KCAL/MOL
REMARK 922        TOTAL FREE ENERGY PREDICTED BY IDOCK:   -6.69 KCAL/MOL
REMARK 923 INTER-LIGAND FREE ENERGY PREDICTED BY IDOCK:   -6.23 KCAL/MOL
REMARK 924 INTRA-LIGAND FREE ENERGY PREDICTED BY IDOCK:   -0.46 KCAL/MOL
REMARK 927      BINDING AFFINITY PREDICTED BY RF-SCORE:    0.00 PKD
ROOT
HETATM    1  O   UNL     1      -9.445   3.421  69.971  1.00  0.00    -0.171 OA 
HETATM    2  N   UNL     1      -9.623   3.801  68.807  1.00  0.00    -0.143 N  
HETATM    3  O   UNL     1      -9.606   3.061  67.814  1.00  0.00    -0.196 OA 
HETATM    4  C   UNL     1      -9.871   5.233  68.587  1.00  0.00    -0.155 A  
HETATM    5  C   UNL     1      -9.896   6.102  69.680  1.00  0.00    -0.196 A  
HETATM    6  C   UNL     1     -10.161   7.460  69.475  1.00  0.00    -0.204 A  
HETATM    7  C   UNL     1     -10.410   7.976  68.190  1.00  0.00    -0.250 A  
HETATM    8  C   UNL     1     -10.362   7.088  67.101  1.00  0.00    -0.351 A  
HETATM    9  C   UNL     1     -10.096   5.722  67.294  1.00  0.00    -0.208 A  
ENDROOT
BRANCH   7  10
HETATM   10  C   UNL     1     -10.730   9.398  68.035  1.00  0.00    -0.190 A  
HETATM   11  C   UNL     1     -10.453  10.329  67.051  1.00  0.00    -0.304 A  
HETATM   12  C   UNL     1     -10.991  11.564  67.483  1.00  0.00    -0.308 A  
HETATM   13  C   UNL     1     -11.578  11.330  68.709  1.00  0.00    -0.316 A  
HETATM   14  O   UNL     1     -11.424  10.008  69.047  1.00  0.00    -0.142 OA 
BRANCH  13  15
HETATM   15  C   UNL     1     -12.261  12.200  69.629  1.00  0.00    -0.120 C  
BRANCH  15  16
HETATM   16  N   UNL     1     -12.154  13.492  69.536  1.00  0.00    -0.317 NA 
HETATM   17  H   UNL     1     -12.159  13.959  68.629  1.00  0.00     0.000 HD 
BRANCH  16  18
HETATM   18  N   UNL     1     -12.033  14.204  70.703  1.00  0.00    -0.321 N  
HETATM   19  C   UNL     1     -12.817  13.845  71.865  1.00  0.00    -0.322 C  
HETATM   20  C   UNL     1     -12.609  15.076  72.727  1.00  0.00    -0.390 C  
HETATM   21  N   UNL     1     -11.787  15.942  72.085  1.00  0.00    -0.474 NA 
HETATM   22  O   UNL     1     -13.115  15.275  73.823  1.00  0.00    -0.456 OA 
HETATM   23  C   UNL     1     -11.499  15.498  70.835  1.00  0.00    -0.375 C  
HETATM   24  O   UNL     1     -10.911  16.160  69.993  1.00  0.00    -0.325 OA 
ENDBRANCH  16  18
ENDBRANCH  15  16
ENDBRANCH  13  15
ENDBRANCH   7  10
TORSDOF 4
ENDMDL
MODEL      156
REMARK 921   NORMALIZED FREE ENERGY PREDICTED BY IDOCK:   -4.96 KCAL/MOL
REMARK 922        TOTAL FREE ENERGY PREDICTED BY IDOCK:   -6.68 KCAL/MOL
REMARK 923 INTER-LIGAND FREE ENERGY PREDICTED BY IDOCK:   -6.32 KCAL/MOL
REMARK 924 INTRA-LIGAND FREE ENERGY PREDICTED BY IDOCK:   -0.36 KCAL/MOL
REMARK 927      BINDING AFFINITY PREDICTED BY RF-SCORE:    0.00 PKD
ROOT
HETATM    1  O   UNL     1      -7.493   5.521  65.405  1.00  0.00    -0.071 OA 
HETATM    2  N   UNL     1      -8.568   5.327  65.988  1.00  0.00    -0.120 N  
HETATM    3  O   UNL     1      -9.144   4.234  66.056  1.00  0.00    -0.122 OA 
HETATM    4  C   UNL     1      -9.205   6.477  66.645  1.00  0.00    -0.153 A  
HETATM    5  C   UNL     1      -8.589   7.729  66.589  1.00  0.00    -0.138 A  
HETATM    6  C   UNL     1      -9.179   8.818  67.239  1.00  0.00    -0.165 A  
HETATM    7  C   UNL     1     -10.383   8.684  67.955  1.00  0.00    -0.277 A  
HETATM    8  C   UNL     1     -10.997   7.420  67.983  1.00  0.00    -0.037 A  
HETATM    9  C   UNL     1     -10.414   6.318  67.334  1.00  0.00    -0.308 A  
ENDROOT
BRANCH   7  10
HETATM   10  C   UNL     1     -10.936   9.845  68.658  1.00  0.00    -0.179 A  
HETATM   11  C   UNL     1     -11.368  10.049  69.956  1.00  0.00    -0.334 A  
HETATM   12  C   UNL     1     -11.841  11.380  70.032  1.00  0.00    -0.440 A  
HETATM   13  C   UNL     1     -11.670  11.931  68.779  1.00  0.00    -0.321 A  
HETATM   14  O   UNL     1     -11.114  10.998  67.940  1.00  0.00    -0.243 OA 
BRANCH  13  15
HETATM   15  C   UNL     1     -11.981  13.233  68.252  1.00  0.00    -0.302 C  
BRANCH  15  16
HETATM   16  N   UNL     1     -11.240  13.779  67.335  1.00  0.00    -0.299 NA 
HETATM   17  H   UNL     1     -10.621  14.561  67.551  1.00  0.00     0.000 HD 
BRANCH  16  18
HETATM   18  N   UNL     1     -11.322  13.266  66.065  1.00  0.00    -0.299 N  
HETATM   19  C   UNL     1     -10.128  12.833  65.371  1.00  0.00    -0.259 C  
HETATM   20  C   UNL     1     -10.666  12.697  63.959  1.00  0.00    -0.425 C  
HETATM   21  N   UNL     1     -11.988  12.996  63.949  1.00  0.00    -0.450 NA 
HETATM   22  O   UNL     1     -10.013  12.386  62.972  1.00  0.00    -0.250 OA 
HETATM   23  C   UNL     1     -12.394  13.430  65.169  1.00  0.00    -0.456 C  
HETATM   24  O   UNL     1     -13.495  13.911  65.393  1.00  0.00    -0.672 OA 
ENDBRANCH  16  18
ENDBRANCH  15  16
ENDBRANCH  13  15
ENDBRANCH   7  10
TORSDOF 4
ENDMDL
MODEL      157
REMARK 921   NORMALIZED FREE ENERGY PREDICTED BY IDOCK:   -4.95 KCAL/MOL
REMARK 922        TOTAL FREE ENERGY PREDICTED BY IDOCK:   -6.67 KCAL/MOL
REMARK 923 INTER-LIGAND FREE ENERGY PREDICTED BY IDOCK:   -6.28 KCAL/MOL
REMARK 924 INTRA-LIGAND FREE ENERGY PREDICTED BY IDOCK:   -0.38 KCAL/MOL
REMARK 927      BINDING AFFINITY PREDICTED BY RF-SCORE:    0.00 PKD
ROOT
HETATM    1  O   UNL     1      -6.994   6.431  68.682  1.00  0.00    -0.074 OA 
HETATM    2  N   UNL     1      -8.084   6.854  68.277  1.00  0.00    -0.118 N  
HETATM    3  O   UNL     1      -9.045   6.138  67.964  1.00  0.00    -0.117 OA 
HETATM    4  C   UNL     1      -8.250   8.309  68.158  1.00  0.00    -0.128 A  
HETATM    5  C   UNL     1      -7.190   9.152  68.498  1.00  0.00    -0.073 A  
HETATM    6  C   UNL     1      -7.356  10.538  68.413  1.00  0.00    -0.086 A  
HETATM    7  C   UNL     1      -8.573  11.110  67.996  1.00  0.00    -0.140 A  
HETATM    8  C   UNL     1      -9.621  10.244  67.640  1.00  0.00    -0.173 A  
HETATM    9  C   UNL     1      -9.466   8.849  67.720  1.00  0.00    -0.163 A  
ENDROOT
BRANCH   7  10
HETATM   10  C   UNL     1      -8.711  12.569  67.970  1.00  0.00    -0.186 A  
HETATM   11  C   UNL     1      -7.911  13.604  68.417  1.00  0.00    -0.147 A  
HETATM   12  C   UNL     1      -8.601  14.809  68.148  1.00  0.00    -0.159 A  
HETATM   13  C   UNL     1      -9.788  14.456  67.541  1.00  0.00    -0.220 A  
HETATM   14  O   UNL     1      -9.857  13.090  67.428  1.00  0.00    -0.209 OA 
BRANCH  13  15
HETATM   15  C   UNL     1     -10.893  15.243  67.062  1.00  0.00    -0.321 C  
BRANCH  15  16
HETATM   16  N   UNL     1     -12.055  14.704  66.844  1.00  0.00    -0.434 NA 
HETATM   17  H   UNL     1     -12.770  14.675  67.572  1.00  0.00     0.000 HD 
BRANCH  16  18
HETATM   18  N   UNL     1     -12.286  14.175  65.599  1.00  0.00    -0.422 N  
HETATM   19  C   UNL     1     -12.349  12.741  65.411  1.00  0.00    -0.470 C  
HETATM   20  C   UNL     1     -12.263  12.658  63.899  1.00  0.00    -0.481 C  
HETATM   21  N   UNL     1     -12.198  13.910  63.382  1.00  0.00    -0.650 NA 
HETATM   22  O   UNL     1     -12.236  11.628  63.240  1.00  0.00    -0.430 OA 
HETATM   23  C   UNL     1     -12.115  14.837  64.370  1.00  0.00    -0.440 C  
HETATM   24  O   UNL     1     -11.888  16.023  64.178  1.00  0.00    -0.643 OA 
ENDBRANCH  16  18
ENDBRANCH  15  16
ENDBRANCH  13  15
ENDBRANCH   7  10
TORSDOF 4
ENDMDL
MODEL      158
REMARK 921   NORMALIZED FREE ENERGY PREDICTED BY IDOCK:   -4.93 KCAL/MOL
REMARK 922        TOTAL FREE ENERGY PREDICTED BY IDOCK:   -6.64 KCAL/MOL
REMARK 923 INTER-LIGAND FREE ENERGY PREDICTED BY IDOCK:   -6.00 KCAL/MOL
REMARK 924 INTRA-LIGAND FREE ENERGY PREDICTED BY IDOCK:   -0.64 KCAL/MOL
REMARK 927      BINDING AFFINITY PREDICTED BY RF-SCORE:    0.00 PKD
ROOT
HETATM    1  O   UNL     1      -8.926   7.243  70.214  1.00  0.00    -0.150 OA 
HETATM    2  N   UNL     1      -9.237   7.333  69.020  1.00  0.00    -0.140 N  
HETATM    3  O   UNL     1      -9.148   6.412  68.197  1.00  0.00    -0.116 OA 
HETATM    4  C   UNL     1      -9.750   8.626  68.544  1.00  0.00    -0.163 A  
HETATM    5  C   UNL     1      -9.865   9.691  69.439  1.00  0.00    -0.203 A  
HETATM    6  C   UNL     1     -10.380  10.913  68.994  1.00  0.00    -0.230 A  
HETATM    7  C   UNL     1     -10.793  11.097  67.661  1.00  0.00    -0.295 A  
HETATM    8  C   UNL     1     -10.651  10.018  66.772  1.00  0.00    -0.229 A  
HETATM    9  C   UNL     1     -10.134   8.786  67.207  1.00  0.00    -0.301 A  
ENDROOT
BRANCH   7  10
HETATM   10  C   UNL     1     -11.370  12.383  67.257  1.00  0.00    -0.323 A  
HETATM   11  C   UNL     1     -12.008  12.815  66.109  1.00  0.00    -0.476 A  
HETATM   12  C   UNL     1     -12.305  14.186  66.290  1.00  0.00    -0.451 A  
HETATM   13  C   UNL     1     -11.841  14.528  67.543  1.00  0.00    -0.374 A  
HETATM   14  O   UNL     1     -11.274  13.428  68.138  1.00  0.00    -0.248 OA 
BRANCH  13  15
HETATM   15  C   UNL     1     -11.844  15.774  68.262  1.00  0.00    -0.105 C  
BRANCH  15  16
HETATM   16  N   UNL     1     -10.745  16.275  68.739  1.00  0.00    -0.288 NA 
HETATM   17  H   UNL     1     -10.532  16.230  69.736  1.00  0.00     0.000 HD 
BRANCH  16  18
HETATM   18  N   UNL     1      -9.881  16.869  67.854  1.00  0.00    -0.256 N  
HETATM   19  C   UNL     1      -8.575  16.295  67.608  1.00  0.00    -0.173 C  
HETATM   20  C   UNL     1      -7.904  17.444  66.878  1.00  0.00    -0.226 C  
HETATM   21  N   UNL     1      -8.784  18.467  66.743  1.00  0.00    -0.270 NA 
HETATM   22  O   UNL     1      -6.745  17.463  66.486  1.00  0.00    -0.199 OA 
HETATM   23  C   UNL     1      -9.943  18.197  67.395  1.00  0.00    -0.323 C  
HETATM   24  O   UNL     1     -10.839  19.011  67.564  1.00  0.00    -0.463 OA 
ENDBRANCH  16  18
ENDBRANCH  15  16
ENDBRANCH  13  15
ENDBRANCH   7  10
TORSDOF 4
ENDMDL
MODEL      159
REMARK 921   NORMALIZED FREE ENERGY PREDICTED BY IDOCK:   -4.93 KCAL/MOL
REMARK 922        TOTAL FREE ENERGY PREDICTED BY IDOCK:   -6.64 KCAL/MOL
REMARK 923 INTER-LIGAND FREE ENERGY PREDICTED BY IDOCK:   -6.14 KCAL/MOL
REMARK 924 INTRA-LIGAND FREE ENERGY PREDICTED BY IDOCK:   -0.50 KCAL/MOL
REMARK 927      BINDING AFFINITY PREDICTED BY RF-SCORE:    0.00 PKD
ROOT
HETATM    1  O   UNL     1     -14.038  14.494  72.053  1.00  0.00    -0.431 OA 
HETATM    2  N   UNL     1     -13.224  14.158  71.183  1.00  0.00    -0.327 N  
HETATM    3  O   UNL     1     -12.697  14.933  70.375  1.00  0.00    -0.350 OA 
HETATM    4  C   UNL     1     -12.857  12.737  71.104  1.00  0.00    -0.226 A  
HETATM    5  C   UNL     1     -13.431  11.828  71.996  1.00  0.00    -0.319 A  
HETATM    6  C   UNL     1     -13.061  10.480  71.941  1.00  0.00    -0.567 A  
HETATM    7  C   UNL     1     -12.116  10.014  71.008  1.00  0.00    -0.469 A  
HETATM    8  C   UNL     1     -11.565  10.940  70.107  1.00  0.00    -0.425 A  
HETATM    9  C   UNL     1     -11.929  12.297  70.152  1.00  0.00    -0.377 A  
ENDROOT
BRANCH   7  10
HETATM   10  C   UNL     1     -11.727   8.600  71.023  1.00  0.00    -0.278 A  
HETATM   11  C   UNL     1     -12.230   7.487  71.671  1.00  0.00    -0.352 A  
HETATM   12  C   UNL     1     -11.400   6.395  71.325  1.00  0.00    -0.361 A  
HETATM   13  C   UNL     1     -10.432   6.889  70.476  1.00  0.00    -0.211 A  
HETATM   14  O   UNL     1     -10.631   8.234  70.287  1.00  0.00    -0.218 OA 
BRANCH  13  15
HETATM   15  C   UNL     1      -9.316   6.260  69.821  1.00  0.00    -0.145 C  
BRANCH  15  16
HETATM   16  N   UNL     1      -9.136   4.975  69.890  1.00  0.00    -0.115 NA 
HETATM   17  H   UNL     1      -9.057   4.499  70.789  1.00  0.00     0.000 HD 
BRANCH  16  18
HETATM   18  N   UNL     1      -9.054   4.282  68.708  1.00  0.00    -0.118 N  
HETATM   19  C   UNL     1      -9.394   4.924  67.457  1.00  0.00    -0.133 C  
HETATM   20  C   UNL     1      -9.489   3.716  66.545  1.00  0.00    -0.170 C  
HETATM   21  N   UNL     1      -9.198   2.594  67.251  1.00  0.00    -0.166 NA 
HETATM   22  O   UNL     1      -9.799   3.735  65.362  1.00  0.00    -0.175 OA 
HETATM   23  C   UNL     1      -9.025   2.883  68.565  1.00  0.00    -0.141 C  
HETATM   24  O   UNL     1      -8.911   2.039  69.442  1.00  0.00    -0.066 OA 
ENDBRANCH  16  18
ENDBRANCH  15  16
ENDBRANCH  13  15
ENDBRANCH   7  10
TORSDOF 4
ENDMDL
MODEL      160
REMARK 921   NORMALIZED FREE ENERGY PREDICTED BY IDOCK:   -4.91 KCAL/MOL
REMARK 922        TOTAL FREE ENERGY PREDICTED BY IDOCK:   -6.62 KCAL/MOL
REMARK 923 INTER-LIGAND FREE ENERGY PREDICTED BY IDOCK:   -5.98 KCAL/MOL
REMARK 924 INTRA-LIGAND FREE ENERGY PREDICTED BY IDOCK:   -0.65 KCAL/MOL
REMARK 927      BINDING AFFINITY PREDICTED BY RF-SCORE:    0.00 PKD
ROOT
HETATM    1  O   UNL     1      -9.687   6.533  68.687  1.00  0.00    -0.128 OA 
HETATM    2  N   UNL     1     -10.247   7.172  67.786  1.00  0.00    -0.171 N  
HETATM    3  O   UNL     1     -11.118   6.713  67.035  1.00  0.00    -0.403 OA 
HETATM    4  C   UNL     1      -9.851   8.574  67.596  1.00  0.00    -0.174 A  
HETATM    5  C   UNL     1      -8.870   9.129  68.421  1.00  0.00    -0.129 A  
HETATM    6  C   UNL     1      -8.513  10.471  68.260  1.00  0.00    -0.123 A  
HETATM    7  C   UNL     1      -9.121  11.284  67.286  1.00  0.00    -0.156 A  
HETATM    8  C   UNL     1     -10.092  10.701  66.453  1.00  0.00    -0.279 A  
HETATM    9  C   UNL     1     -10.460   9.353  66.605  1.00  0.00    -0.238 A  
ENDROOT
BRANCH   7  10
HETATM   10  C   UNL     1      -8.745  12.697  67.189  1.00  0.00    -0.201 A  
HETATM   11  C   UNL     1      -7.671  13.426  67.667  1.00  0.00    -0.179 A  
HETATM   12  C   UNL     1      -7.880  14.772  67.287  1.00  0.00    -0.223 A  
HETATM   13  C   UNL     1      -9.069  14.804  66.590  1.00  0.00    -0.272 A  
HETATM   14  O   UNL     1      -9.598  13.539  66.524  1.00  0.00    -0.269 OA 
BRANCH  13  15
HETATM   15  C   UNL     1      -9.797  15.886  65.980  1.00  0.00    -0.337 C  
BRANCH  15  16
HETATM   16  N   UNL     1     -10.818  16.427  66.575  1.00  0.00    -0.153 NA 
HETATM   17  H   UNL     1     -11.736  15.983  66.558  1.00  0.00     0.000 HD 
BRANCH  16  18
HETATM   18  N   UNL     1     -10.614  17.617  67.227  1.00  0.00    -0.330 N  
HETATM   19  C   UNL     1     -10.232  18.802  66.488  1.00  0.00    -0.413 C  
HETATM   20  C   UNL     1      -9.799  19.707  67.625  1.00  0.00    -0.376 C  
HETATM   21  N   UNL     1      -9.975  19.063  68.806  1.00  0.00    -0.407 NA 
HETATM   22  O   UNL     1      -9.343  20.836  67.507  1.00  0.00    -0.359 OA 
HETATM   23  C   UNL     1     -10.371  17.781  68.602  1.00  0.00    -0.350 C  
HETATM   24  O   UNL     1     -10.448  16.940  69.486  1.00  0.00    -0.303 OA 
ENDBRANCH  16  18
ENDBRANCH  15  16
ENDBRANCH  13  15
ENDBRANCH   7  10
TORSDOF 4
ENDMDL
MODEL      161
REMARK 921   NORMALIZED FREE ENERGY PREDICTED BY IDOCK:   -4.91 KCAL/MOL
REMARK 922        TOTAL FREE ENERGY PREDICTED BY IDOCK:   -6.62 KCAL/MOL
REMARK 923 INTER-LIGAND FREE ENERGY PREDICTED BY IDOCK:   -6.00 KCAL/MOL
REMARK 924 INTRA-LIGAND FREE ENERGY PREDICTED BY IDOCK:   -0.61 KCAL/MOL
REMARK 927      BINDING AFFINITY PREDICTED BY RF-SCORE:    0.00 PKD
ROOT
HETATM    1  O   UNL     1     -12.605  12.557  63.531  1.00  0.00    -0.690 OA 
HETATM    2  N   UNL     1     -12.604  13.069  64.658  1.00  0.00    -0.392 N  
HETATM    3  O   UNL     1     -13.224  14.094  64.967  1.00  0.00    -0.691 OA 
HETATM    4  C   UNL     1     -11.808  12.411  65.705  1.00  0.00    -0.409 A  
HETATM    5  C   UNL     1     -11.092  11.252  65.397  1.00  0.00    -0.138 A  
HETATM    6  C   UNL     1     -10.358  10.610  66.399  1.00  0.00    -0.291 A  
HETATM    7  C   UNL     1     -10.326  11.099  67.718  1.00  0.00    -0.215 A  
HETATM    8  C   UNL     1     -11.039  12.277  68.002  1.00  0.00    -0.285 A  
HETATM    9  C   UNL     1     -11.779  12.932  67.004  1.00  0.00    -0.447 A  
ENDROOT
BRANCH   7  10
HETATM   10  C   UNL     1      -9.580  10.361  68.742  1.00  0.00    -0.177 A  
HETATM   11  C   UNL     1      -8.243  10.312  69.088  1.00  0.00    -0.152 A  
HETATM   12  C   UNL     1      -8.119   9.376  70.141  1.00  0.00    -0.167 A  
HETATM   13  C   UNL     1      -9.389   8.900  70.395  1.00  0.00    -0.193 A  
HETATM   14  O   UNL     1     -10.283   9.503  69.546  1.00  0.00    -0.191 OA 
BRANCH  13  15
HETATM   15  C   UNL     1      -9.880   7.927  71.334  1.00  0.00    -0.168 C  
BRANCH  15  16
HETATM   16  N   UNL     1     -10.521   6.871  70.931  1.00  0.00    -0.210 NA 
HETATM   17  H   UNL     1     -11.312   6.500  71.457  1.00  0.00     0.000 HD 
BRANCH  16  18
HETATM   18  N   UNL     1     -10.094   6.273  69.772  1.00  0.00    -0.170 N  
HETATM   19  C   UNL     1     -10.958   6.222  68.612  1.00  0.00    -0.346 C  
HETATM   20  C   UNL     1     -10.219   5.205  67.764  1.00  0.00    -0.132 C  
HETATM   21  N   UNL     1      -9.092   4.813  68.409  1.00  0.00    -0.112 NA 
HETATM   22  O   UNL     1     -10.582   4.782  66.675  1.00  0.00    -0.226 OA 
HETATM   23  C   UNL     1      -9.033   5.358  69.650  1.00  0.00    -0.109 C  
HETATM   24  O   UNL     1      -8.207   5.046  70.496  1.00  0.00    -0.096 OA 
ENDBRANCH  16  18
ENDBRANCH  15  16
ENDBRANCH  13  15
ENDBRANCH   7  10
TORSDOF 4
ENDMDL
MODEL      162
REMARK 921   NORMALIZED FREE ENERGY PREDICTED BY IDOCK:   -4.91 KCAL/MOL
REMARK 922        TOTAL FREE ENERGY PREDICTED BY IDOCK:   -6.62 KCAL/MOL
REMARK 923 INTER-LIGAND FREE ENERGY PREDICTED BY IDOCK:   -6.08 KCAL/MOL
REMARK 924 INTRA-LIGAND FREE ENERGY PREDICTED BY IDOCK:   -0.54 KCAL/MOL
REMARK 927      BINDING AFFINITY PREDICTED BY RF-SCORE:    0.00 PKD
ROOT
HETATM    1  O   UNL     1      -6.328  19.625  67.059  1.00  0.00    -0.188 OA 
HETATM    2  N   UNL     1      -6.435  18.849  68.017  1.00  0.00    -0.219 N  
HETATM    3  O   UNL     1      -5.776  18.927  69.063  1.00  0.00    -0.206 OA 
HETATM    4  C   UNL     1      -7.414  17.759  67.907  1.00  0.00    -0.210 A  
HETATM    5  C   UNL     1      -8.177  17.635  66.743  1.00  0.00    -0.270 A  
HETATM    6  C   UNL     1      -9.129  16.615  66.649  1.00  0.00    -0.277 A  
HETATM    7  C   UNL     1      -9.345  15.709  67.703  1.00  0.00    -0.206 A  
HETATM    8  C   UNL     1      -8.554  15.839  68.858  1.00  0.00    -0.220 A  
HETATM    9  C   UNL     1      -7.593  16.859  68.964  1.00  0.00    -0.210 A  
ENDROOT
BRANCH   7  10
HETATM   10  C   UNL     1     -10.388  14.688  67.572  1.00  0.00    -0.234 A  
HETATM   11  C   UNL     1     -11.402  14.482  66.655  1.00  0.00    -0.359 A  
HETATM   12  C   UNL     1     -12.124  13.343  67.081  1.00  0.00    -0.367 A  
HETATM   13  C   UNL     1     -11.514  12.899  68.235  1.00  0.00    -0.311 A  
HETATM   14  O   UNL     1     -10.452  13.715  68.536  1.00  0.00    -0.237 OA 
BRANCH  13  15
HETATM   15  C   UNL     1     -11.811  11.803  69.119  1.00  0.00    -0.326 C  
BRANCH  15  16
HETATM   16  N   UNL     1     -10.953  11.412  70.014  1.00  0.00    -0.454 NA 
HETATM   17  H   UNL     1     -10.392  12.083  70.538  1.00  0.00     0.000 HD 
BRANCH  16  18
HETATM   18  N   UNL     1     -10.831  10.062  70.227  1.00  0.00    -0.294 N  
HETATM   19  C   UNL     1      -9.964   9.263  69.387  1.00  0.00    -0.181 C  
HETATM   20  C   UNL     1     -10.426   7.868  69.766  1.00  0.00    -0.233 C  
HETATM   21  N   UNL     1     -11.392   7.954  70.713  1.00  0.00    -0.275 NA 
HETATM   22  O   UNL     1     -10.012   6.822  69.284  1.00  0.00    -0.156 OA 
HETATM   23  C   UNL     1     -11.726   9.249  70.945  1.00  0.00    -0.296 C  
HETATM   24  O   UNL     1     -12.674   9.598  71.633  1.00  0.00    -0.348 OA 
ENDBRANCH  16  18
ENDBRANCH  15  16
ENDBRANCH  13  15
ENDBRANCH   7  10
TORSDOF 4
ENDMDL
MODEL      163
REMARK 921   NORMALIZED FREE ENERGY PREDICTED BY IDOCK:   -4.90 KCAL/MOL
REMARK 922        TOTAL FREE ENERGY PREDICTED BY IDOCK:   -6.61 KCAL/MOL
REMARK 923 INTER-LIGAND FREE ENERGY PREDICTED BY IDOCK:   -5.99 KCAL/MOL
REMARK 924 INTRA-LIGAND FREE ENERGY PREDICTED BY IDOCK:   -0.61 KCAL/MOL
REMARK 927      BINDING AFFINITY PREDICTED BY RF-SCORE:    0.00 PKD
ROOT
HETATM    1  O   UNL     1      -9.369   3.613  65.655  1.00  0.00    -0.151 OA 
HETATM    2  N   UNL     1      -8.588   4.474  66.079  1.00  0.00    -0.114 N  
HETATM    3  O   UNL     1      -7.393   4.554  65.768  1.00  0.00    -0.074 OA 
HETATM    4  C   UNL     1      -9.117   5.472  67.019  1.00  0.00    -0.112 A  
HETATM    5  C   UNL     1     -10.461   5.416  67.397  1.00  0.00    -0.253 A  
HETATM    6  C   UNL     1     -10.973   6.383  68.269  1.00  0.00    -0.396 A  
HETATM    7  C   UNL     1     -10.167   7.420  68.773  1.00  0.00    -0.199 A  
HETATM    8  C   UNL     1      -8.813   7.448  68.395  1.00  0.00    -0.121 A  
HETATM    9  C   UNL     1      -8.287   6.482  67.521  1.00  0.00    -0.121 A  
ENDROOT
BRANCH   7  10
HETATM   10  C   UNL     1     -10.764   8.436  69.645  1.00  0.00    -0.198 A  
HETATM   11  C   UNL     1     -11.188   8.424  70.961  1.00  0.00    -0.304 A  
HETATM   12  C   UNL     1     -11.722   9.704  71.239  1.00  0.00    -0.458 A  
HETATM   13  C   UNL     1     -11.593  10.443  70.081  1.00  0.00    -0.312 A  
HETATM   14  O   UNL     1     -11.005   9.674  69.108  1.00  0.00    -0.218 OA 
BRANCH  13  15
HETATM   15  C   UNL     1     -11.970  11.793  69.756  1.00  0.00    -0.322 C  
BRANCH  15  16
HETATM   16  N   UNL     1     -11.087  12.658  69.357  1.00  0.00    -0.447 NA 
HETATM   17  H   UNL     1     -10.276  12.889  69.930  1.00  0.00     0.000 HD 
BRANCH  16  18
HETATM   18  N   UNL     1     -11.288  13.251  68.136  1.00  0.00    -0.270 N  
HETATM   19  C   UNL     1     -10.894  12.574  66.919  1.00  0.00    -0.248 C  
HETATM   20  C   UNL     1     -10.981  13.718  65.927  1.00  0.00    -0.283 C  
HETATM   21  N   UNL     1     -11.403  14.837  66.566  1.00  0.00    -0.351 NA 
HETATM   22  O   UNL     1     -10.699  13.658  64.738  1.00  0.00    -0.363 OA 
HETATM   23  C   UNL     1     -11.505  14.621  67.902  1.00  0.00    -0.329 C  
HETATM   24  O   UNL     1     -11.712  15.501  68.724  1.00  0.00    -0.348 OA 
ENDBRANCH  16  18
ENDBRANCH  15  16
ENDBRANCH  13  15
ENDBRANCH   7  10
TORSDOF 4
ENDMDL
MODEL      164
REMARK 921   NORMALIZED FREE ENERGY PREDICTED BY IDOCK:   -4.89 KCAL/MOL
REMARK 922        TOTAL FREE ENERGY PREDICTED BY IDOCK:   -6.59 KCAL/MOL
REMARK 923 INTER-LIGAND FREE ENERGY PREDICTED BY IDOCK:   -6.04 KCAL/MOL
REMARK 924 INTRA-LIGAND FREE ENERGY PREDICTED BY IDOCK:   -0.55 KCAL/MOL
REMARK 927      BINDING AFFINITY PREDICTED BY RF-SCORE:    0.00 PKD
ROOT
HETATM    1  O   UNL     1     -11.134   6.097  67.656  1.00  0.00    -0.328 OA 
HETATM    2  N   UNL     1     -10.984   6.808  68.657  1.00  0.00    -0.223 N  
HETATM    3  O   UNL     1     -11.116   6.418  69.824  1.00  0.00    -0.321 OA 
HETATM    4  C   UNL     1     -10.623   8.217  68.445  1.00  0.00    -0.099 A  
HETATM    5  C   UNL     1     -10.466   8.698  67.143  1.00  0.00    -0.360 A  
HETATM    6  C   UNL     1     -10.094  10.031  66.941  1.00  0.00    -0.287 A  
HETATM    7  C   UNL     1      -9.867  10.904  68.021  1.00  0.00    -0.185 A  
HETATM    8  C   UNL     1     -10.049  10.406  69.323  1.00  0.00    -0.248 A  
HETATM    9  C   UNL     1     -10.423   9.068  69.538  1.00  0.00    -0.223 A  
ENDROOT
BRANCH   7  10
HETATM   10  C   UNL     1      -9.432  12.279  67.756  1.00  0.00    -0.197 A  
HETATM   11  C   UNL     1      -8.207  12.843  67.453  1.00  0.00    -0.187 A  
HETATM   12  C   UNL     1      -8.405  14.239  67.348  1.00  0.00    -0.212 A  
HETATM   13  C   UNL     1      -9.745  14.465  67.586  1.00  0.00    -0.219 A  
HETATM   14  O   UNL     1     -10.375  13.271  67.831  1.00  0.00    -0.228 OA 
BRANCH  13  15
HETATM   15  C   UNL     1     -10.522  15.675  67.631  1.00  0.00    -0.283 C  
BRANCH  15  16
HETATM   16  N   UNL     1     -10.290  16.588  68.526  1.00  0.00    -0.271 NA 
HETATM   17  H   UNL     1     -10.631  16.490  69.482  1.00  0.00     0.000 HD 
BRANCH  16  18
HETATM   18  N   UNL     1      -9.569  17.689  68.136  1.00  0.00    -0.285 N  
HETATM   19  C   UNL     1      -8.217  17.886  68.613  1.00  0.00    -0.275 C  
HETATM   20  C   UNL     1      -7.996  19.334  68.219  1.00  0.00    -0.326 C  
HETATM   21  N   UNL     1      -9.100  19.803  67.586  1.00  0.00    -0.325 NA 
HETATM   22  O   UNL     1      -6.990  19.993  68.449  1.00  0.00    -0.294 OA 
HETATM   23  C   UNL     1     -10.094  18.879  67.601  1.00  0.00    -0.365 C  
HETATM   24  O   UNL     1     -11.240  19.102  67.241  1.00  0.00    -0.299 OA 
ENDBRANCH  16  18
ENDBRANCH  15  16
ENDBRANCH  13  15
ENDBRANCH   7  10
TORSDOF 4
ENDMDL
MODEL      165
REMARK 921   NORMALIZED FREE ENERGY PREDICTED BY IDOCK:   -4.87 KCAL/MOL
REMARK 922        TOTAL FREE ENERGY PREDICTED BY IDOCK:   -6.57 KCAL/MOL
REMARK 923 INTER-LIGAND FREE ENERGY PREDICTED BY IDOCK:   -5.98 KCAL/MOL
REMARK 924 INTRA-LIGAND FREE ENERGY PREDICTED BY IDOCK:   -0.59 KCAL/MOL
REMARK 927      BINDING AFFINITY PREDICTED BY RF-SCORE:    0.00 PKD
ROOT
HETATM    1  O   UNL     1     -10.953   9.040  68.245  1.00  0.00    -0.079 OA 
HETATM    2  N   UNL     1     -10.063   9.875  68.449  1.00  0.00    -0.161 N  
HETATM    3  O   UNL     1      -9.033   9.661  69.101  1.00  0.00    -0.138 OA 
HETATM    4  C   UNL     1     -10.240  11.216  67.874  1.00  0.00    -0.180 A  
HETATM    5  C   UNL     1     -11.389  11.499  67.133  1.00  0.00    -0.354 A  
HETATM    6  C   UNL     1     -11.546  12.766  66.561  1.00  0.00    -0.435 A  
HETATM    7  C   UNL     1     -10.568  13.767  66.710  1.00  0.00    -0.273 A  
HETATM    8  C   UNL     1      -9.428  13.468  67.476  1.00  0.00    -0.222 A  
HETATM    9  C   UNL     1      -9.260  12.199  68.056  1.00  0.00    -0.194 A  
ENDROOT
BRANCH   7  10
HETATM   10  C   UNL     1     -10.758  15.063  66.051  1.00  0.00    -0.326 A  
HETATM   11  C   UNL     1     -11.241  15.432  64.809  1.00  0.00    -0.404 A  
HETATM   12  C   UNL     1     -11.142  16.840  64.726  1.00  0.00    -0.025 A  
HETATM   13  C   UNL     1     -10.610  17.269  65.923  1.00  0.00    -0.204 A  
HETATM   14  O   UNL     1     -10.378  16.187  66.736  1.00  0.00    -0.282 OA 
BRANCH  13  15
HETATM   15  C   UNL     1     -10.268  18.580  66.408  1.00  0.00    -0.420 C  
BRANCH  15  16
HETATM   16  N   UNL     1      -9.217  19.205  65.968  1.00  0.00    -0.447 NA 
HETATM   17  H   UNL     1      -9.214  19.654  65.052  1.00  0.00     0.000 HD 
BRANCH  16  18
HETATM   18  N   UNL     1      -8.111  19.238  66.780  1.00  0.00    -0.264 N  
HETATM   19  C   UNL     1      -8.216  18.870  68.176  1.00  0.00    -0.311 C  
HETATM   20  C   UNL     1      -6.889  19.389  68.697  1.00  0.00    -0.305 C  
HETATM   21  N   UNL     1      -6.182  19.927  67.672  1.00  0.00    -0.197 NA 
HETATM   22  O   UNL     1      -6.513  19.351  69.860  1.00  0.00    -0.286 OA 
HETATM   23  C   UNL     1      -6.918  19.939  66.532  1.00  0.00    -0.230 C  
HETATM   24  O   UNL     1      -6.579  20.509  65.505  1.00  0.00    -0.246 OA 
ENDBRANCH  16  18
ENDBRANCH  15  16
ENDBRANCH  13  15
ENDBRANCH   7  10
TORSDOF 4
ENDMDL
MODEL      166
REMARK 921   NORMALIZED FREE ENERGY PREDICTED BY IDOCK:   -4.87 KCAL/MOL
REMARK 922        TOTAL FREE ENERGY PREDICTED BY IDOCK:   -6.57 KCAL/MOL
REMARK 923 INTER-LIGAND FREE ENERGY PREDICTED BY IDOCK:   -5.80 KCAL/MOL
REMARK 924 INTRA-LIGAND FREE ENERGY PREDICTED BY IDOCK:   -0.77 KCAL/MOL
REMARK 927      BINDING AFFINITY PREDICTED BY RF-SCORE:    0.00 PKD
ROOT
HETATM    1  O   UNL     1     -12.927  15.148  71.257  1.00  0.00    -0.341 OA 
HETATM    2  N   UNL     1     -12.546  15.258  70.085  1.00  0.00    -0.329 N  
HETATM    3  O   UNL     1     -12.516  16.321  69.452  1.00  0.00     0.064 OA 
HETATM    4  C   UNL     1     -12.098  14.040  69.395  1.00  0.00    -0.340 A  
HETATM    5  C   UNL     1     -12.118  12.819  70.074  1.00  0.00    -0.355 A  
HETATM    6  C   UNL     1     -11.665  11.664  69.428  1.00  0.00    -0.405 A  
HETATM    7  C   UNL     1     -11.181  11.701  68.107  1.00  0.00    -0.325 A  
HETATM    8  C   UNL     1     -11.187  12.936  67.436  1.00  0.00    -0.331 A  
HETATM    9  C   UNL     1     -11.641  14.103  68.074  1.00  0.00    -0.368 A  
ENDROOT
BRANCH   7  10
HETATM   10  C   UNL     1     -10.673  10.471  67.492  1.00  0.00    -0.276 A  
HETATM   11  C   UNL     1      -9.843  10.224  66.414  1.00  0.00    -0.272 A  
HETATM   12  C   UNL     1      -9.748   8.820  66.275  1.00  0.00    -0.342 A  
HETATM   13  C   UNL     1     -10.518   8.272  67.279  1.00  0.00    -0.303 A  
HETATM   14  O   UNL     1     -11.081   9.277  68.026  1.00  0.00    -0.082 OA 
BRANCH  13  15
HETATM   15  C   UNL     1     -10.815   6.908  67.627  1.00  0.00    -0.263 C  
BRANCH  15  16
HETATM   16  N   UNL     1     -10.181   6.307  68.589  1.00  0.00    -0.163 NA 
HETATM   17  H   UNL     1      -9.407   5.671  68.396  1.00  0.00     0.000 HD 
BRANCH  16  18
HETATM   18  N   UNL     1     -10.591   6.560  69.874  1.00  0.00    -0.214 N  
HETATM   19  C   UNL     1     -11.997   6.519  70.216  1.00  0.00    -0.185 C  
HETATM   20  C   UNL     1     -11.967   7.184  71.579  1.00  0.00    -0.326 C  
HETATM   21  N   UNL     1     -10.687   7.495  71.901  1.00  0.00    -0.214 NA 
HETATM   22  O   UNL     1     -12.941   7.425  72.279  1.00  0.00    -0.101 OA 
HETATM   23  C   UNL     1      -9.850   7.223  70.868  1.00  0.00    -0.184 C  
HETATM   24  O   UNL     1      -8.673   7.553  70.835  1.00  0.00    -0.139 OA 
ENDBRANCH  16  18
ENDBRANCH  15  16
ENDBRANCH  13  15
ENDBRANCH   7  10
TORSDOF 4
ENDMDL
MODEL      167
REMARK 921   NORMALIZED FREE ENERGY PREDICTED BY IDOCK:   -4.87 KCAL/MOL
REMARK 922        TOTAL FREE ENERGY PREDICTED BY IDOCK:   -6.56 KCAL/MOL
REMARK 923 INTER-LIGAND FREE ENERGY PREDICTED BY IDOCK:   -6.03 KCAL/MOL
REMARK 924 INTRA-LIGAND FREE ENERGY PREDICTED BY IDOCK:   -0.53 KCAL/MOL
REMARK 927      BINDING AFFINITY PREDICTED BY RF-SCORE:    0.00 PKD
ROOT
HETATM    1  O   UNL     1      -9.324   2.946  69.872  1.00  0.00    -0.142 OA 
HETATM    2  N   UNL     1      -9.307   3.069  68.640  1.00  0.00    -0.177 N  
HETATM    3  O   UNL     1      -9.432   2.134  67.838  1.00  0.00    -0.198 OA 
HETATM    4  C   UNL     1      -9.125   4.420  68.091  1.00  0.00    -0.127 A  
HETATM    5  C   UNL     1      -8.978   5.502  68.962  1.00  0.00    -0.118 A  
HETATM    6  C   UNL     1      -8.834   6.792  68.440  1.00  0.00    -0.122 A  
HETATM    7  C   UNL     1      -8.839   7.030  67.053  1.00  0.00    -0.124 A  
HETATM    8  C   UNL     1      -8.970   5.926  66.194  1.00  0.00    -0.157 A  
HETATM    9  C   UNL     1      -9.114   4.625  66.706  1.00  0.00    -0.121 A  
ENDROOT
BRANCH   7  10
HETATM   10  C   UNL     1      -8.733   8.406  66.559  1.00  0.00    -0.134 A  
HETATM   11  C   UNL     1      -7.916   9.471  66.890  1.00  0.00    -0.109 A  
HETATM   12  C   UNL     1      -8.316  10.567  66.092  1.00  0.00    -0.155 A  
HETATM   13  C   UNL     1      -9.356  10.121  65.304  1.00  0.00    -0.224 A  
HETATM   14  O   UNL     1      -9.611   8.801  65.584  1.00  0.00    -0.184 OA 
BRANCH  13  15
HETATM   15  C   UNL     1     -10.168  10.784  64.318  1.00  0.00    -0.354 C  
BRANCH  15  16
HETATM   16  N   UNL     1     -10.005  12.046  64.053  1.00  0.00    -0.467 NA 
HETATM   17  H   UNL     1      -9.255  12.364  63.439  1.00  0.00     0.000 HD 
BRANCH  16  18
HETATM   18  N   UNL     1     -10.878  12.933  64.630  1.00  0.00    -0.322 N  
HETATM   19  C   UNL     1     -10.601  13.489  65.938  1.00  0.00    -0.284 C  
HETATM   20  C   UNL     1     -11.953  14.090  66.272  1.00  0.00    -0.432 C  
HETATM   21  N   UNL     1     -12.805  13.889  65.236  1.00  0.00    -0.749 NA 
HETATM   22  O   UNL     1     -12.247  14.653  67.318  1.00  0.00    -0.294 OA 
HETATM   23  C   UNL     1     -12.227  13.121  64.278  1.00  0.00    -0.396 C  
HETATM   24  O   UNL     1     -12.824  12.661  63.316  1.00  0.00    -0.643 OA 
ENDBRANCH  16  18
ENDBRANCH  15  16
ENDBRANCH  13  15
ENDBRANCH   7  10
TORSDOF 4
ENDMDL
MODEL      168
REMARK 921   NORMALIZED FREE ENERGY PREDICTED BY IDOCK:   -4.86 KCAL/MOL
REMARK 922        TOTAL FREE ENERGY PREDICTED BY IDOCK:   -6.56 KCAL/MOL
REMARK 923 INTER-LIGAND FREE ENERGY PREDICTED BY IDOCK:   -6.10 KCAL/MOL
REMARK 924 INTRA-LIGAND FREE ENERGY PREDICTED BY IDOCK:   -0.46 KCAL/MOL
REMARK 927      BINDING AFFINITY PREDICTED BY RF-SCORE:    0.00 PKD
ROOT
HETATM    1  O   UNL     1     -11.443  16.804  64.029  1.00  0.00    -1.198 OA 
HETATM    2  N   UNL     1     -10.709  16.750  65.024  1.00  0.00    -0.220 N  
HETATM    3  O   UNL     1     -10.053  17.701  65.468  1.00  0.00    -0.566 OA 
HETATM    4  C   UNL     1     -10.609  15.464  65.729  1.00  0.00    -0.348 A  
HETATM    5  C   UNL     1     -11.332  14.365  65.260  1.00  0.00    -0.346 A  
HETATM    6  C   UNL     1     -11.261  13.149  65.947  1.00  0.00    -0.311 A  
HETATM    7  C   UNL     1     -10.480  13.004  67.108  1.00  0.00    -0.243 A  
HETATM    8  C   UNL     1      -9.746  14.117  67.554  1.00  0.00    -0.234 A  
HETATM    9  C   UNL     1      -9.809  15.344  66.871  1.00  0.00    -0.251 A  
ENDROOT
BRANCH   7  10
HETATM   10  C   UNL     1     -10.478  11.721  67.819  1.00  0.00    -0.194 A  
HETATM   11  C   UNL     1     -11.364  10.661  67.862  1.00  0.00    -0.342 A  
HETATM   12  C   UNL     1     -10.835   9.713  68.768  1.00  0.00    -0.199 A  
HETATM   13  C   UNL     1      -9.646  10.234  69.232  1.00  0.00    -0.224 A  
HETATM   14  O   UNL     1      -9.423  11.458  68.652  1.00  0.00    -0.192 OA 
BRANCH  13  15
HETATM   15  C   UNL     1      -8.682   9.735  70.178  1.00  0.00    -0.180 C  
BRANCH  15  16
HETATM   16  N   UNL     1      -7.852   8.790  69.854  1.00  0.00    -0.089 NA 
HETATM   17  H   UNL     1      -6.922   9.003  69.493  1.00  0.00     0.000 HD 
BRANCH  16  18
HETATM   18  N   UNL     1      -8.273   7.493  70.015  1.00  0.00    -0.128 N  
HETATM   19  C   UNL     1      -8.676   6.706  68.870  1.00  0.00    -0.128 C  
HETATM   20  C   UNL     1      -9.359   5.542  69.564  1.00  0.00    -0.130 C  
HETATM   21  N   UNL     1      -9.278   5.709  70.907  1.00  0.00    -0.153 NA 
HETATM   22  O   UNL     1      -9.915   4.605  69.008  1.00  0.00    -0.175 OA 
HETATM   23  C   UNL     1      -8.720   6.907  71.213  1.00  0.00    -0.134 C  
HETATM   24  O   UNL     1      -8.675   7.373  72.342  1.00  0.00    -0.117 OA 
ENDBRANCH  16  18
ENDBRANCH  15  16
ENDBRANCH  13  15
ENDBRANCH   7  10
TORSDOF 4
ENDMDL
MODEL      169
REMARK 921   NORMALIZED FREE ENERGY PREDICTED BY IDOCK:   -4.85 KCAL/MOL
REMARK 922        TOTAL FREE ENERGY PREDICTED BY IDOCK:   -6.54 KCAL/MOL
REMARK 923 INTER-LIGAND FREE ENERGY PREDICTED BY IDOCK:   -6.10 KCAL/MOL
REMARK 924 INTRA-LIGAND FREE ENERGY PREDICTED BY IDOCK:   -0.44 KCAL/MOL
REMARK 927      BINDING AFFINITY PREDICTED BY RF-SCORE:    0.00 PKD
ROOT
HETATM    1  O   UNL     1      -8.462   8.881  64.424  1.00  0.00    -0.172 OA 
HETATM    2  N   UNL     1      -8.119   9.850  65.114  1.00  0.00    -0.131 N  
HETATM    3  O   UNL     1      -7.117  10.545  64.904  1.00  0.00    -0.088 OA 
HETATM    4  C   UNL     1      -8.963  10.200  66.266  1.00  0.00    -0.148 A  
HETATM    5  C   UNL     1     -10.102   9.440  66.540  1.00  0.00    -0.332 A  
HETATM    6  C   UNL     1     -10.921   9.790  67.618  1.00  0.00    -0.226 A  
HETATM    7  C   UNL     1     -10.630  10.897  68.436  1.00  0.00    -0.225 A  
HETATM    8  C   UNL     1      -9.469  11.638  68.155  1.00  0.00    -0.191 A  
HETATM    9  C   UNL     1      -8.637  11.296  67.074  1.00  0.00    -0.148 A  
ENDROOT
BRANCH   7  10
HETATM   10  C   UNL     1     -11.547  11.250  69.524  1.00  0.00    -0.328 A  
HETATM   11  C   UNL     1     -11.907  12.451  70.106  1.00  0.00    -0.341 A  
HETATM   12  C   UNL     1     -12.811  12.152  71.152  1.00  0.00    -0.313 A  
HETATM   13  C   UNL     1     -12.968  10.781  71.156  1.00  0.00    -0.371 A  
HETATM   14  O   UNL     1     -12.201  10.228  70.161  1.00  0.00    -0.249 OA 
BRANCH  13  15
HETATM   15  C   UNL     1     -13.741   9.905  71.996  1.00  0.00    -0.211 C  
BRANCH  15  16
HETATM   16  N   UNL     1     -13.173   9.178  72.910  1.00  0.00    -0.746 NA 
HETATM   17  H   UNL     1     -13.282   9.395  73.901  1.00  0.00     0.000 HD 
BRANCH  16  18
HETATM   18  N   UNL     1     -12.421   8.109  72.494  1.00  0.00    -0.257 N  
HETATM   19  C   UNL     1     -10.995   8.075  72.740  1.00  0.00    -0.382 C  
HETATM   20  C   UNL     1     -10.586   6.935  71.826  1.00  0.00    -0.212 C  
HETATM   21  N   UNL     1     -11.686   6.431  71.214  1.00  0.00    -0.319 NA 
HETATM   22  O   UNL     1      -9.443   6.538  71.646  1.00  0.00    -0.157 OA 
HETATM   23  C   UNL     1     -12.786   7.166  71.516  1.00  0.00    -0.391 C  
HETATM   24  O   UNL     1     -13.874   7.024  70.976  1.00  0.00    -0.163 OA 
ENDBRANCH  16  18
ENDBRANCH  15  16
ENDBRANCH  13  15
ENDBRANCH   7  10
TORSDOF 4
ENDMDL
MODEL      170
REMARK 921   NORMALIZED FREE ENERGY PREDICTED BY IDOCK:   -4.82 KCAL/MOL
REMARK 922        TOTAL FREE ENERGY PREDICTED BY IDOCK:   -6.51 KCAL/MOL
REMARK 923 INTER-LIGAND FREE ENERGY PREDICTED BY IDOCK:   -5.89 KCAL/MOL
REMARK 924 INTRA-LIGAND FREE ENERGY PREDICTED BY IDOCK:   -0.61 KCAL/MOL
REMARK 927      BINDING AFFINITY PREDICTED BY RF-SCORE:    0.00 PKD
ROOT
HETATM    1  O   UNL     1      -8.659   8.709  63.817  1.00  0.00    -0.123 OA 
HETATM    2  N   UNL     1      -9.255   9.741  64.150  1.00  0.00    -0.255 N  
HETATM    3  O   UNL     1      -9.419  10.726  63.418  1.00  0.00    -0.252 OA 
HETATM    4  C   UNL     1      -9.808   9.802  65.510  1.00  0.00    -0.308 A  
HETATM    5  C   UNL     1      -9.643   8.712  66.368  1.00  0.00    -0.316 A  
HETATM    6  C   UNL     1     -10.194   8.757  67.653  1.00  0.00    -0.298 A  
HETATM    7  C   UNL     1     -10.918   9.876  68.105  1.00  0.00    -0.261 A  
HETATM    8  C   UNL     1     -11.056  10.970  67.233  1.00  0.00    -0.359 A  
HETATM    9  C   UNL     1     -10.507  10.937  65.940  1.00  0.00    -0.285 A  
ENDROOT
BRANCH   7  10
HETATM   10  C   UNL     1     -11.516   9.854  69.443  1.00  0.00    -0.026 A  
HETATM   11  C   UNL     1     -11.988  10.843  70.286  1.00  0.00    -0.448 A  
HETATM   12  C   UNL     1     -12.412  10.208  71.477  1.00  0.00    -0.526 A  
HETATM   13  C   UNL     1     -12.187   8.858  71.305  1.00  0.00    -0.299 A  
HETATM   14  O   UNL     1     -11.644   8.638  70.063  1.00  0.00    -0.033 OA 
BRANCH  13  15
HETATM   15  C   UNL     1     -12.401   7.730  72.172  1.00  0.00    -0.265 C  
BRANCH  15  16
HETATM   16  N   UNL     1     -11.531   7.410  73.082  1.00  0.00    -0.604 NA 
HETATM   17  H   UNL     1     -11.483   7.913  73.968  1.00  0.00     0.000 HD 
BRANCH  16  18
HETATM   18  N   UNL     1     -10.678   6.370  72.807  1.00  0.00    -0.228 N  
HETATM   19  C   UNL     1      -9.549   6.561  71.922  1.00  0.00    -0.150 C  
HETATM   20  C   UNL     1      -9.153   5.120  71.666  1.00  0.00    -0.141 C  
HETATM   21  N   UNL     1      -9.970   4.296  72.369  1.00  0.00    -0.162 NA 
HETATM   22  O   UNL     1      -8.253   4.746  70.928  1.00  0.00    -0.084 OA 
HETATM   23  C   UNL     1     -10.951   5.002  72.987  1.00  0.00    -0.295 C  
HETATM   24  O   UNL     1     -11.907   4.493  73.554  1.00  0.00    -0.173 OA 
ENDBRANCH  16  18
ENDBRANCH  15  16
ENDBRANCH  13  15
ENDBRANCH   7  10
TORSDOF 4
ENDMDL
MODEL      171
REMARK 921   NORMALIZED FREE ENERGY PREDICTED BY IDOCK:   -4.82 KCAL/MOL
REMARK 922        TOTAL FREE ENERGY PREDICTED BY IDOCK:   -6.50 KCAL/MOL
REMARK 923 INTER-LIGAND FREE ENERGY PREDICTED BY IDOCK:   -6.01 KCAL/MOL
REMARK 924 INTRA-LIGAND FREE ENERGY PREDICTED BY IDOCK:   -0.49 KCAL/MOL
REMARK 927      BINDING AFFINITY PREDICTED BY RF-SCORE:    0.00 PKD
ROOT
HETATM    1  O   UNL     1     -10.205   2.055  72.180  1.00  0.00    -0.158 OA 
HETATM    2  N   UNL     1     -10.617   3.000  72.865  1.00  0.00    -0.147 N  
HETATM    3  O   UNL     1     -11.061   2.895  74.015  1.00  0.00    -0.188 OA 
HETATM    4  C   UNL     1     -10.576   4.343  72.269  1.00  0.00    -0.071 A  
HETATM    5  C   UNL     1     -10.084   4.505  70.972  1.00  0.00    -0.222 A  
HETATM    6  C   UNL     1     -10.018   5.786  70.414  1.00  0.00    -0.257 A  
HETATM    7  C   UNL     1     -10.431   6.923  71.132  1.00  0.00    -0.234 A  
HETATM    8  C   UNL     1     -10.941   6.737  72.428  1.00  0.00    -0.280 A  
HETATM    9  C   UNL     1     -11.013   5.455  72.999  1.00  0.00    -0.348 A  
ENDROOT
BRANCH   7  10
HETATM   10  C   UNL     1     -10.297   8.249  70.520  1.00  0.00    -0.202 A  
HETATM   11  C   UNL     1      -9.208   8.994  70.106  1.00  0.00    -0.212 A  
HETATM   12  C   UNL     1      -9.707  10.229  69.628  1.00  0.00    -0.216 A  
HETATM   13  C   UNL     1     -11.078  10.179  69.766  1.00  0.00    -0.279 A  
HETATM   14  O   UNL     1     -11.442   8.970  70.306  1.00  0.00    -0.230 OA 
BRANCH  13  15
HETATM   15  C   UNL     1     -12.109  11.137  69.468  1.00  0.00    -0.326 C  
BRANCH  15  16
HETATM   16  N   UNL     1     -11.896  12.413  69.595  1.00  0.00    -0.319 NA 
HETATM   17  H   UNL     1     -11.698  12.828  70.505  1.00  0.00     0.000 HD 
BRANCH  16  18
HETATM   18  N   UNL     1     -11.947  13.180  68.458  1.00  0.00    -0.331 N  
HETATM   19  C   UNL     1     -11.674  12.593  67.164  1.00  0.00    -0.371 C  
HETATM   20  C   UNL     1     -11.508  13.844  66.324  1.00  0.00    -0.339 C  
HETATM   21  N   UNL     1     -11.707  14.938  67.100  1.00  0.00    -0.327 NA 
HETATM   22  O   UNL     1     -11.220  13.875  65.135  1.00  0.00    -0.307 OA 
HETATM   23  C   UNL     1     -11.878  14.584  68.399  1.00  0.00    -0.316 C  
HETATM   24  O   UNL     1     -11.919  15.379  69.326  1.00  0.00    -0.332 OA 
ENDBRANCH  16  18
ENDBRANCH  15  16
ENDBRANCH  13  15
ENDBRANCH   7  10
TORSDOF 4
ENDMDL
MODEL      172
REMARK 921   NORMALIZED FREE ENERGY PREDICTED BY IDOCK:   -4.81 KCAL/MOL
REMARK 922        TOTAL FREE ENERGY PREDICTED BY IDOCK:   -6.50 KCAL/MOL
REMARK 923 INTER-LIGAND FREE ENERGY PREDICTED BY IDOCK:   -5.95 KCAL/MOL
REMARK 924 INTRA-LIGAND FREE ENERGY PREDICTED BY IDOCK:   -0.55 KCAL/MOL
REMARK 927      BINDING AFFINITY PREDICTED BY RF-SCORE:    0.00 PKD
ROOT
HETATM    1  O   UNL     1      -9.747   5.734  70.116  1.00  0.00    -0.160 OA 
HETATM    2  N   UNL     1      -8.885   6.621  70.086  1.00  0.00    -0.141 N  
HETATM    3  O   UNL     1      -7.682   6.444  70.321  1.00  0.00    -0.094 OA 
HETATM    4  C   UNL     1      -9.320   7.984  69.746  1.00  0.00    -0.159 A  
HETATM    5  C   UNL     1     -10.668   8.227  69.476  1.00  0.00    -0.179 A  
HETATM    6  C   UNL     1     -11.079   9.517  69.125  1.00  0.00    -0.082 A  
HETATM    7  C   UNL     1     -10.163  10.582  69.031  1.00  0.00    -0.233 A  
HETATM    8  C   UNL     1      -8.814  10.319  69.325  1.00  0.00    -0.186 A  
HETATM    9  C   UNL     1      -8.389   9.028  69.679  1.00  0.00    -0.125 A  
ENDROOT
BRANCH   7  10
HETATM   10  C   UNL     1     -10.637  11.904  68.612  1.00  0.00    -0.234 A  
HETATM   11  C   UNL     1     -11.829  12.582  68.786  1.00  0.00    -0.347 A  
HETATM   12  C   UNL     1     -11.708  13.818  68.111  1.00  0.00    -0.392 A  
HETATM   13  C   UNL     1     -10.444  13.843  67.560  1.00  0.00    -0.248 A  
HETATM   14  O   UNL     1      -9.786  12.678  67.867  1.00  0.00    -0.205 OA 
BRANCH  13  15
HETATM   15  C   UNL     1      -9.766  14.825  66.755  1.00  0.00    -0.254 C  
BRANCH  15  16
HETATM   16  N   UNL     1      -9.760  14.740  65.458  1.00  0.00    -0.485 NA 
HETATM   17  H   UNL     1      -8.963  15.065  64.911  1.00  0.00     0.000 HD 
BRANCH  16  18
HETATM   18  N   UNL     1     -10.866  14.200  64.853  1.00  0.00    -0.389 N  
HETATM   19  C   UNL     1     -10.827  12.855  64.319  1.00  0.00    -0.397 C  
HETATM   20  C   UNL     1     -12.092  12.854  63.482  1.00  0.00    -0.555 C  
HETATM   21  N   UNL     1     -12.716  14.052  63.607  1.00  0.00    -0.655 NA 
HETATM   22  O   UNL     1     -12.488  11.931  62.785  1.00  0.00     0.034 OA 
HETATM   23  C   UNL     1     -11.966  14.913  64.341  1.00  0.00    -0.394 C  
HETATM   24  O   UNL     1     -12.220  16.101  64.473  1.00  0.00    -0.073 OA 
ENDBRANCH  16  18
ENDBRANCH  15  16
ENDBRANCH  13  15
ENDBRANCH   7  10
TORSDOF 4
ENDMDL
MODEL      173
REMARK 921   NORMALIZED FREE ENERGY PREDICTED BY IDOCK:   -4.78 KCAL/MOL
REMARK 922        TOTAL FREE ENERGY PREDICTED BY IDOCK:   -6.46 KCAL/MOL
REMARK 923 INTER-LIGAND FREE ENERGY PREDICTED BY IDOCK:   -5.80 KCAL/MOL
REMARK 924 INTRA-LIGAND FREE ENERGY PREDICTED BY IDOCK:   -0.66 KCAL/MOL
REMARK 927      BINDING AFFINITY PREDICTED BY RF-SCORE:    0.00 PKD
ROOT
HETATM    1  O   UNL     1     -12.029  16.058  70.054  1.00  0.00    -0.308 OA 
HETATM    2  N   UNL     1     -12.181  14.832  69.990  1.00  0.00    -0.326 N  
HETATM    3  O   UNL     1     -12.695  14.139  70.877  1.00  0.00    -0.330 OA 
HETATM    4  C   UNL     1     -11.718  14.149  68.773  1.00  0.00    -0.345 A  
HETATM    5  C   UNL     1     -11.130  14.895  67.749  1.00  0.00    -0.313 A  
HETATM    6  C   UNL     1     -10.715  14.251  66.578  1.00  0.00    -0.297 A  
HETATM    7  C   UNL     1     -10.881  12.864  66.402  1.00  0.00    -0.293 A  
HETATM    8  C   UNL     1     -11.457  12.130  67.453  1.00  0.00    -0.415 A  
HETATM    9  C   UNL     1     -11.877  12.765  68.634  1.00  0.00    -0.341 A  
ENDROOT
BRANCH   7  10
HETATM   10  C   UNL     1     -10.473  12.245  65.138  1.00  0.00    -0.288 A  
HETATM   11  C   UNL     1     -10.720  12.550  63.812  1.00  0.00    -0.483 A  
HETATM   12  C   UNL     1     -10.088  11.553  63.031  1.00  0.00    -0.330 A  
HETATM   13  C   UNL     1      -9.478  10.689  63.916  1.00  0.00    -0.282 A  
HETATM   14  O   UNL     1      -9.708  11.110  65.202  1.00  0.00    -0.226 OA 
BRANCH  13  15
HETATM   15  C   UNL     1      -8.710   9.490  63.712  1.00  0.00    -0.217 C  
BRANCH  15  16
HETATM   16  N   UNL     1      -8.067   8.930  64.693  1.00  0.00    -0.142 NA 
HETATM   17  H   UNL     1      -7.190   9.319  65.041  1.00  0.00     0.000 HD 
BRANCH  16  18
HETATM   18  N   UNL     1      -8.611   7.796  65.243  1.00  0.00    -0.095 N  
HETATM   19  C   UNL     1      -9.326   7.862  66.500  1.00  0.00    -0.200 C  
HETATM   20  C   UNL     1      -9.410   6.387  66.844  1.00  0.00    -0.134 C  
HETATM   21  N   UNL     1      -8.833   5.659  65.856  1.00  0.00    -0.150 NA 
HETATM   22  O   UNL     1      -9.902   5.917  67.861  1.00  0.00    -0.115 OA 
HETATM   23  C   UNL     1      -8.262   6.470  64.930  1.00  0.00    -0.097 C  
HETATM   24  O   UNL     1      -7.543   6.075  64.024  1.00  0.00    -0.074 OA 
ENDBRANCH  16  18
ENDBRANCH  15  16
ENDBRANCH  13  15
ENDBRANCH   7  10
TORSDOF 4
ENDMDL
MODEL      174
REMARK 921   NORMALIZED FREE ENERGY PREDICTED BY IDOCK:   -4.78 KCAL/MOL
REMARK 922        TOTAL FREE ENERGY PREDICTED BY IDOCK:   -6.45 KCAL/MOL
REMARK 923 INTER-LIGAND FREE ENERGY PREDICTED BY IDOCK:   -5.78 KCAL/MOL
REMARK 924 INTRA-LIGAND FREE ENERGY PREDICTED BY IDOCK:   -0.67 KCAL/MOL
REMARK 927      BINDING AFFINITY PREDICTED BY RF-SCORE:    0.00 PKD
ROOT
HETATM    1  O   UNL     1      -9.921   6.758  71.018  1.00  0.00    -0.182 OA 
HETATM    2  N   UNL     1      -9.096   7.542  70.533  1.00  0.00    -0.156 N  
HETATM    3  O   UNL     1      -7.875   7.343  70.493  1.00  0.00    -0.094 OA 
HETATM    4  C   UNL     1      -9.601   8.799  69.962  1.00  0.00    -0.169 A  
HETATM    5  C   UNL     1     -10.973   9.063  69.988  1.00  0.00    -0.230 A  
HETATM    6  C   UNL     1     -11.458  10.245  69.420  1.00  0.00    -0.248 A  
HETATM    7  C   UNL     1     -10.597  11.178  68.814  1.00  0.00    -0.233 A  
HETATM    8  C   UNL     1      -9.219  10.903  68.815  1.00  0.00    -0.187 A  
HETATM    9  C   UNL     1      -8.719   9.719  69.383  1.00  0.00    -0.178 A  
ENDROOT
BRANCH   7  10
HETATM   10  C   UNL     1     -11.162  12.379  68.190  1.00  0.00    -0.265 A  
HETATM   11  C   UNL     1     -11.798  12.609  66.985  1.00  0.00    -0.415 A  
HETATM   12  C   UNL     1     -12.080  13.994  66.921  1.00  0.00    -0.465 A  
HETATM   13  C   UNL     1     -11.608  14.546  68.093  1.00  0.00    -0.331 A  
HETATM   14  O   UNL     1     -11.051  13.562  68.872  1.00  0.00    -0.252 OA 
BRANCH  13  15
HETATM   15  C   UNL     1     -11.595  15.899  68.581  1.00  0.00    -0.380 C  
BRANCH  15  16
HETATM   16  N   UNL     1     -10.864  16.811  68.012  1.00  0.00    -0.358 NA 
HETATM   17  H   UNL     1     -11.277  17.668  67.647  1.00  0.00     0.000 HD 
BRANCH  16  18
HETATM   18  N   UNL     1      -9.515  16.576  67.920  1.00  0.00    -0.219 N  
HETATM   19  C   UNL     1      -8.707  16.466  69.116  1.00  0.00    -0.185 C  
HETATM   20  C   UNL     1      -7.317  16.565  68.518  1.00  0.00    -0.186 C  
HETATM   21  N   UNL     1      -7.413  16.678  67.170  1.00  0.00    -0.164 NA 
HETATM   22  O   UNL     1      -6.266  16.564  69.145  1.00  0.00    -0.152 OA 
HETATM   23  C   UNL     1      -8.710  16.783  66.786  1.00  0.00    -0.230 C  
HETATM   24  O   UNL     1      -9.067  17.052  65.648  1.00  0.00    -0.500 OA 
ENDBRANCH  16  18
ENDBRANCH  15  16
ENDBRANCH  13  15
ENDBRANCH   7  10
TORSDOF 4
ENDMDL
MODEL      175
REMARK 921   NORMALIZED FREE ENERGY PREDICTED BY IDOCK:   -4.76 KCAL/MOL
REMARK 922        TOTAL FREE ENERGY PREDICTED BY IDOCK:   -6.43 KCAL/MOL
REMARK 923 INTER-LIGAND FREE ENERGY PREDICTED BY IDOCK:   -5.93 KCAL/MOL
REMARK 924 INTRA-LIGAND FREE ENERGY PREDICTED BY IDOCK:   -0.50 KCAL/MOL
REMARK 927      BINDING AFFINITY PREDICTED BY RF-SCORE:    0.00 PKD
ROOT
HETATM    1  O   UNL     1      -5.449  18.923  64.517  1.00  0.00    -0.211 OA 
HETATM    2  N   UNL     1      -6.393  19.539  65.026  1.00  0.00    -0.270 N  
HETATM    3  O   UNL     1      -6.612  20.748  64.869  1.00  0.00    -0.264 OA 
HETATM    4  C   UNL     1      -7.323  18.783  65.877  1.00  0.00    -0.226 A  
HETATM    5  C   UNL     1      -7.111  17.418  66.082  1.00  0.00    -0.320 A  
HETATM    6  C   UNL     1      -8.011  16.691  66.868  1.00  0.00    -0.255 A  
HETATM    7  C   UNL     1      -9.133  17.301  67.458  1.00  0.00    -0.223 A  
HETATM    8  C   UNL     1      -9.318  18.680  67.255  1.00  0.00    -0.299 A  
HETATM    9  C   UNL     1      -8.420  19.421  66.468  1.00  0.00    -0.354 A  
ENDROOT
BRANCH   7  10
HETATM   10  C   UNL     1     -10.072  16.485  68.233  1.00  0.00    -0.259 A  
HETATM   11  C   UNL     1     -10.952  16.772  69.260  1.00  0.00    -0.197 A  
HETATM   12  C   UNL     1     -11.564  15.554  69.636  1.00  0.00    -0.359 A  
HETATM   13  C   UNL     1     -11.036  14.578  68.817  1.00  0.00    -0.250 A  
HETATM   14  O   UNL     1     -10.128  15.143  67.957  1.00  0.00    -0.220 OA 
BRANCH  13  15
HETATM   15  C   UNL     1     -11.261  13.159  68.744  1.00  0.00    -0.281 C  
BRANCH  15  16
HETATM   16  N   UNL     1     -10.266  12.323  68.706  1.00  0.00    -0.390 NA 
HETATM   17  H   UNL     1      -9.304  12.641  68.822  1.00  0.00     0.000 HD 
BRANCH  16  18
HETATM   18  N   UNL     1     -10.559  10.998  68.504  1.00  0.00    -0.179 N  
HETATM   19  C   UNL     1     -10.400  10.040  69.577  1.00  0.00    -0.235 C  
HETATM   20  C   UNL     1     -10.493   8.740  68.801  1.00  0.00    -0.191 C  
HETATM   21  N   UNL     1     -10.708   9.013  67.489  1.00  0.00    -0.235 NA 
HETATM   22  O   UNL     1     -10.375   7.616  69.270  1.00  0.00    -0.209 OA 
HETATM   23  C   UNL     1     -10.659  10.349  67.260  1.00  0.00    -0.267 C  
HETATM   24  O   UNL     1     -10.663  10.853  66.146  1.00  0.00    -0.235 OA 
ENDBRANCH  16  18
ENDBRANCH  15  16
ENDBRANCH  13  15
ENDBRANCH   7  10
TORSDOF 4
ENDMDL
MODEL      176
REMARK 921   NORMALIZED FREE ENERGY PREDICTED BY IDOCK:   -4.76 KCAL/MOL
REMARK 922        TOTAL FREE ENERGY PREDICTED BY IDOCK:   -6.43 KCAL/MOL
REMARK 923 INTER-LIGAND FREE ENERGY PREDICTED BY IDOCK:   -5.76 KCAL/MOL
REMARK 924 INTRA-LIGAND FREE ENERGY PREDICTED BY IDOCK:   -0.67 KCAL/MOL
REMARK 927      BINDING AFFINITY PREDICTED BY RF-SCORE:    0.00 PKD
ROOT
HETATM    1  O   UNL     1      -8.978   4.514  70.911  1.00  0.00    -0.112 OA 
HETATM    2  N   UNL     1      -9.369   4.510  69.737  1.00  0.00    -0.136 N  
HETATM    3  O   UNL     1      -9.534   3.491  69.054  1.00  0.00    -0.164 OA 
HETATM    4  C   UNL     1      -9.657   5.807  69.108  1.00  0.00    -0.135 A  
HETATM    5  C   UNL     1      -9.481   6.981  69.844  1.00  0.00    -0.157 A  
HETATM    6  C   UNL     1      -9.783   8.214  69.256  1.00  0.00    -0.170 A  
HETATM    7  C   UNL     1     -10.266   8.303  67.938  1.00  0.00    -0.276 A  
HETATM    8  C   UNL     1     -10.418   7.111  67.208  1.00  0.00    -0.372 A  
HETATM    9  C   UNL     1     -10.118   5.866  67.788  1.00  0.00    -0.190 A  
ENDROOT
BRANCH   7  10
HETATM   10  C   UNL     1     -10.612   9.616  67.385  1.00  0.00    -0.268 A  
HETATM   11  C   UNL     1     -10.598  10.138  66.105  1.00  0.00    -0.099 A  
HETATM   12  C   UNL     1     -11.003  11.490  66.202  1.00  0.00    -0.320 A  
HETATM   13  C   UNL     1     -11.253  11.730  67.537  1.00  0.00    -0.291 A  
HETATM   14  O   UNL     1     -11.019  10.588  68.261  1.00  0.00    -0.224 OA 
BRANCH  13  15
HETATM   15  C   UNL     1     -11.672  12.915  68.237  1.00  0.00    -0.350 C  
BRANCH  15  16
HETATM   16  N   UNL     1     -10.811  13.812  68.614  1.00  0.00    -0.256 NA 
HETATM   17  H   UNL     1     -10.486  13.861  69.580  1.00  0.00     0.000 HD 
BRANCH  16  18
HETATM   18  N   UNL     1     -10.354  14.691  67.665  1.00  0.00    -0.233 N  
HETATM   19  C   UNL     1     -11.275  15.564  66.970  1.00  0.00    -0.177 C  
HETATM   20  C   UNL     1     -10.392  16.050  65.837  1.00  0.00    -0.368 C  
HETATM   21  N   UNL     1      -9.155  15.509  65.966  1.00  0.00    -0.325 NA 
HETATM   22  O   UNL     1     -10.735  16.798  64.932  1.00  0.00    -0.721 OA 
HETATM   23  C   UNL     1      -9.121  14.620  66.990  1.00  0.00    -0.238 C  
HETATM   24  O   UNL     1      -8.178  13.878  67.222  1.00  0.00    -0.178 OA 
ENDBRANCH  16  18
ENDBRANCH  15  16
ENDBRANCH  13  15
ENDBRANCH   7  10
TORSDOF 4
ENDMDL
MODEL      177
REMARK 921   NORMALIZED FREE ENERGY PREDICTED BY IDOCK:   -4.75 KCAL/MOL
REMARK 922        TOTAL FREE ENERGY PREDICTED BY IDOCK:   -6.41 KCAL/MOL
REMARK 923 INTER-LIGAND FREE ENERGY PREDICTED BY IDOCK:   -5.77 KCAL/MOL
REMARK 924 INTRA-LIGAND FREE ENERGY PREDICTED BY IDOCK:   -0.65 KCAL/MOL
REMARK 927      BINDING AFFINITY PREDICTED BY RF-SCORE:    0.00 PKD
ROOT
HETATM    1  O   UNL     1      -8.306   2.198  66.120  1.00  0.00    -0.086 OA 
HETATM    2  N   UNL     1      -9.226   2.946  65.766  1.00  0.00    -0.141 N  
HETATM    3  O   UNL     1      -9.900   2.796  64.738  1.00  0.00    -0.084 OA 
HETATM    4  C   UNL     1      -9.542   4.095  66.627  1.00  0.00    -0.206 A  
HETATM    5  C   UNL     1      -8.804   4.301  67.795  1.00  0.00    -0.126 A  
HETATM    6  C   UNL     1      -9.122   5.377  68.630  1.00  0.00    -0.130 A  
HETATM    7  C   UNL     1     -10.176   6.259  68.326  1.00  0.00    -0.198 A  
HETATM    8  C   UNL     1     -10.893   6.045  67.137  1.00  0.00    -0.414 A  
HETATM    9  C   UNL     1     -10.583   4.968  66.289  1.00  0.00    -0.332 A  
ENDROOT
BRANCH   7  10
HETATM   10  C   UNL     1     -10.499   7.343  69.259  1.00  0.00    -0.220 A  
HETATM   11  C   UNL     1     -10.615   7.405  70.635  1.00  0.00    -0.234 A  
HETATM   12  C   UNL     1     -10.996   8.727  70.962  1.00  0.00    -0.328 A  
HETATM   13  C   UNL     1     -11.090   9.415  69.770  1.00  0.00    -0.172 A  
HETATM   14  O   UNL     1     -10.783   8.575  68.729  1.00  0.00    -0.169 OA 
BRANCH  13  15
HETATM   15  C   UNL     1     -11.451  10.776  69.472  1.00  0.00    -0.294 C  
BRANCH  15  16
HETATM   16  N   UNL     1     -11.913  11.106  68.304  1.00  0.00    -0.692 NA 
HETATM   17  H   UNL     1     -12.722  10.633  67.901  1.00  0.00     0.000 HD 
BRANCH  16  18
HETATM   18  N   UNL     1     -11.272  12.116  67.631  1.00  0.00    -0.266 N  
HETATM   19  C   UNL     1     -11.910  13.404  67.460  1.00  0.00    -0.366 C  
HETATM   20  C   UNL     1     -11.011  14.018  66.404  1.00  0.00    -0.308 C  
HETATM   21  N   UNL     1     -10.013  13.151  66.102  1.00  0.00    -0.287 NA 
HETATM   22  O   UNL     1     -11.163  15.115  65.885  1.00  0.00    -0.338 OA 
HETATM   23  C   UNL     1     -10.189  11.969  66.745  1.00  0.00    -0.202 C  
HETATM   24  O   UNL     1      -9.525  10.966  66.529  1.00  0.00    -0.178 OA 
ENDBRANCH  16  18
ENDBRANCH  15  16
ENDBRANCH  13  15
ENDBRANCH   7  10
TORSDOF 4
ENDMDL
MODEL      178
REMARK 921   NORMALIZED FREE ENERGY PREDICTED BY IDOCK:   -4.74 KCAL/MOL
REMARK 922        TOTAL FREE ENERGY PREDICTED BY IDOCK:   -6.41 KCAL/MOL
REMARK 923 INTER-LIGAND FREE ENERGY PREDICTED BY IDOCK:   -5.67 KCAL/MOL
REMARK 924 INTRA-LIGAND FREE ENERGY PREDICTED BY IDOCK:   -0.74 KCAL/MOL
REMARK 927      BINDING AFFINITY PREDICTED BY RF-SCORE:    0.00 PKD
ROOT
HETATM    1  O   UNL     1     -11.571   6.116  72.277  1.00  0.00    -0.296 OA 
HETATM    2  N   UNL     1     -12.449   6.963  72.072  1.00  0.00    -0.289 N  
HETATM    3  O   UNL     1     -13.605   6.900  72.511  1.00  0.00     0.327 OA 
HETATM    4  C   UNL     1     -12.095   8.128  71.248  1.00  0.00    -0.288 A  
HETATM    5  C   UNL     1     -10.802   8.237  70.732  1.00  0.00    -0.252 A  
HETATM    6  C   UNL     1     -10.455   9.359  69.973  1.00  0.00    -0.266 A  
HETATM    7  C   UNL     1     -11.378  10.390  69.718  1.00  0.00    -0.353 A  
HETATM    8  C   UNL     1     -12.679  10.252  70.231  1.00  0.00    -0.167 A  
HETATM    9  C   UNL     1     -13.040   9.129  70.995  1.00  0.00    -0.114 A  
ENDROOT
BRANCH   7  10
HETATM   10  C   UNL     1     -10.950  11.567  68.957  1.00  0.00    -0.234 A  
HETATM   11  C   UNL     1     -10.212  11.730  67.799  1.00  0.00    -0.205 A  
HETATM   12  C   UNL     1     -10.089  13.121  67.575  1.00  0.00    -0.222 A  
HETATM   13  C   UNL     1     -10.763  13.746  68.604  1.00  0.00    -0.256 A  
HETATM   14  O   UNL     1     -11.293  12.801  69.446  1.00  0.00    -0.250 OA 
BRANCH  13  15
HETATM   15  C   UNL     1     -10.964  15.136  68.915  1.00  0.00    -0.254 C  
BRANCH  15  16
HETATM   16  N   UNL     1     -12.138  15.586  69.242  1.00  0.00    -0.545 NA 
HETATM   17  H   UNL     1     -12.800  15.902  68.533  1.00  0.00     0.000 HD 
BRANCH  16  18
HETATM   18  N   UNL     1     -12.455  15.623  70.577  1.00  0.00    -0.419 N  
HETATM   19  C   UNL     1     -11.537  16.205  71.533  1.00  0.00    -0.430 C  
HETATM   20  C   UNL     1     -12.140  15.706  72.832  1.00  0.00    -0.475 C  
HETATM   21  N   UNL     1     -13.254  14.982  72.563  1.00  0.00    -0.367 NA 
HETATM   22  O   UNL     1     -11.689  15.903  73.952  1.00  0.00    -0.168 OA 
HETATM   23  C   UNL     1     -13.421  14.832  71.224  1.00  0.00    -0.411 C  
HETATM   24  O   UNL     1     -14.253  14.094  70.717  1.00  0.00     0.261 OA 
ENDBRANCH  16  18
ENDBRANCH  15  16
ENDBRANCH  13  15
ENDBRANCH   7  10
TORSDOF 4
ENDMDL
MODEL      179
REMARK 921   NORMALIZED FREE ENERGY PREDICTED BY IDOCK:   -4.73 KCAL/MOL
REMARK 922        TOTAL FREE ENERGY PREDICTED BY IDOCK:   -6.40 KCAL/MOL
REMARK 923 INTER-LIGAND FREE ENERGY PREDICTED BY IDOCK:   -5.86 KCAL/MOL
REMARK 924 INTRA-LIGAND FREE ENERGY PREDICTED BY IDOCK:   -0.54 KCAL/MOL
REMARK 927      BINDING AFFINITY PREDICTED BY RF-SCORE:    0.00 PKD
ROOT
HETATM    1  O   UNL     1     -10.731   7.324  70.637  1.00  0.00    -0.227 OA 
HETATM    2  N   UNL     1     -10.427   7.497  69.450  1.00  0.00    -0.220 N  
HETATM    3  O   UNL     1     -10.033   6.606  68.687  1.00  0.00    -0.141 OA 
HETATM    4  C   UNL     1     -10.540   8.859  68.908  1.00  0.00    -0.165 A  
HETATM    5  C   UNL     1     -10.978   9.894  69.737  1.00  0.00    -0.304 A  
HETATM    6  C   UNL     1     -11.114  11.184  69.215  1.00  0.00    -0.318 A  
HETATM    7  C   UNL     1     -10.825  11.468  67.868  1.00  0.00    -0.257 A  
HETATM    8  C   UNL     1     -10.368  10.416  67.055  1.00  0.00    -0.295 A  
HETATM    9  C   UNL     1     -10.226   9.115  67.568  1.00  0.00    -0.304 A  
ENDROOT
BRANCH   7  10
HETATM   10  C   UNL     1     -11.030  12.827  67.358  1.00  0.00    -0.253 A  
HETATM   11  C   UNL     1     -12.150  13.523  66.941  1.00  0.00    -0.417 A  
HETATM   12  C   UNL     1     -11.712  14.798  66.512  1.00  0.00    -0.278 A  
HETATM   13  C   UNL     1     -10.345  14.825  66.692  1.00  0.00    -0.273 A  
HETATM   14  O   UNL     1      -9.926  13.625  67.212  1.00  0.00    -0.234 OA 
BRANCH  13  15
HETATM   15  C   UNL     1      -9.360  15.838  66.421  1.00  0.00    -0.301 C  
BRANCH  15  16
HETATM   16  N   UNL     1      -8.100  15.632  66.665  1.00  0.00    -0.275 NA 
HETATM   17  H   UNL     1      -7.629  14.789  66.336  1.00  0.00     0.000 HD 
BRANCH  16  18
HETATM   18  N   UNL     1      -7.428  16.589  67.382  1.00  0.00    -0.138 N  
HETATM   19  C   UNL     1      -8.131  17.739  67.910  1.00  0.00    -0.235 C  
HETATM   20  C   UNL     1      -6.962  18.629  68.283  1.00  0.00    -0.246 C  
HETATM   21  N   UNL     1      -5.800  17.987  68.005  1.00  0.00    -0.162 NA 
HETATM   22  O   UNL     1      -7.041  19.759  68.745  1.00  0.00    -0.325 OA 
HETATM   23  C   UNL     1      -6.038  16.807  67.379  1.00  0.00    -0.160 C  
HETATM   24  O   UNL     1      -5.168  16.109  66.880  1.00  0.00    -0.333 OA 
ENDBRANCH  16  18
ENDBRANCH  15  16
ENDBRANCH  13  15
ENDBRANCH   7  10
TORSDOF 4
ENDMDL
MODEL      180
REMARK 921   NORMALIZED FREE ENERGY PREDICTED BY IDOCK:   -4.70 KCAL/MOL
REMARK 922        TOTAL FREE ENERGY PREDICTED BY IDOCK:   -6.36 KCAL/MOL
REMARK 923 INTER-LIGAND FREE ENERGY PREDICTED BY IDOCK:   -6.07 KCAL/MOL
REMARK 924 INTRA-LIGAND FREE ENERGY PREDICTED BY IDOCK:   -0.29 KCAL/MOL
REMARK 927      BINDING AFFINITY PREDICTED BY RF-SCORE:    0.00 PKD
ROOT
HETATM    1  O   UNL     1      -9.729   5.509  71.198  1.00  0.00    -0.164 OA 
HETATM    2  N   UNL     1     -10.149   6.635  71.495  1.00  0.00    -0.183 N  
HETATM    3  O   UNL     1     -10.494   6.979  72.633  1.00  0.00    -0.203 OA 
HETATM    4  C   UNL     1     -10.246   7.633  70.421  1.00  0.00    -0.203 A  
HETATM    5  C   UNL     1      -9.869   7.284  69.122  1.00  0.00    -0.166 A  
HETATM    6  C   UNL     1      -9.934   8.241  68.105  1.00  0.00    -0.224 A  
HETATM    7  C   UNL     1     -10.366   9.556  68.357  1.00  0.00    -0.237 A  
HETATM    8  C   UNL     1     -10.759   9.882  69.667  1.00  0.00    -0.277 A  
HETATM    9  C   UNL     1     -10.699   8.928  70.698  1.00  0.00    -0.282 A  
ENDROOT
BRANCH   7  10
HETATM   10  C   UNL     1     -10.370  10.535  67.266  1.00  0.00    -0.228 A  
HETATM   11  C   UNL     1      -9.612  10.676  66.118  1.00  0.00    -0.232 A  
HETATM   12  C   UNL     1     -10.055  11.852  65.469  1.00  0.00    -0.277 A  
HETATM   13  C   UNL     1     -11.069  12.372  66.246  1.00  0.00    -0.303 A  
HETATM   14  O   UNL     1     -11.266  11.569  67.342  1.00  0.00    -0.271 OA 
BRANCH  13  15
HETATM   15  C   UNL     1     -11.879  13.553  66.104  1.00  0.00    -0.389 C  
BRANCH  15  16
HETATM   16  N   UNL     1     -11.423  14.723  66.438  1.00  0.00    -0.343 NA 
HETATM   17  H   UNL     1     -11.178  15.417  65.731  1.00  0.00     0.000 HD 
BRANCH  16  18
HETATM   18  N   UNL     1     -11.283  14.991  67.776  1.00  0.00    -0.311 N  
HETATM   19  C   UNL     1     -12.089  14.291  68.753  1.00  0.00    -0.265 C  
HETATM   20  C   UNL     1     -11.840  15.147  69.980  1.00  0.00    -0.325 C  
HETATM   21  N   UNL     1     -10.979  16.146  69.665  1.00  0.00    -0.323 NA 
HETATM   22  O   UNL     1     -12.346  14.982  71.081  1.00  0.00    -0.283 OA 
HETATM   23  C   UNL     1     -10.699  16.142  68.337  1.00  0.00    -0.298 C  
HETATM   24  O   UNL     1     -10.078  17.026  67.766  1.00  0.00    -0.280 OA 
ENDBRANCH  16  18
ENDBRANCH  15  16
ENDBRANCH  13  15
ENDBRANCH   7  10
TORSDOF 4
ENDMDL
MODEL      181
REMARK 921   NORMALIZED FREE ENERGY PREDICTED BY IDOCK:   -4.70 KCAL/MOL
REMARK 922        TOTAL FREE ENERGY PREDICTED BY IDOCK:   -6.36 KCAL/MOL
REMARK 923 INTER-LIGAND FREE ENERGY PREDICTED BY IDOCK:   -5.85 KCAL/MOL
REMARK 924 INTRA-LIGAND FREE ENERGY PREDICTED BY IDOCK:   -0.51 KCAL/MOL
REMARK 927      BINDING AFFINITY PREDICTED BY RF-SCORE:    0.00 PKD
ROOT
HETATM    1  O   UNL     1      -9.944   2.400  64.111  1.00  0.00    -0.137 OA 
HETATM    2  N   UNL     1      -9.053   3.254  64.195  1.00  0.00    -0.111 N  
HETATM    3  O   UNL     1      -7.965   3.197  63.607  1.00  0.00    -0.079 OA 
HETATM    4  C   UNL     1      -9.303   4.420  65.054  1.00  0.00    -0.164 A  
HETATM    5  C   UNL     1     -10.517   4.522  65.737  1.00  0.00    -0.268 A  
HETATM    6  C   UNL     1     -10.769   5.645  66.532  1.00  0.00    -0.296 A  
HETATM    7  C   UNL     1      -9.827   6.684  66.659  1.00  0.00    -0.208 A  
HETATM    8  C   UNL     1      -8.605   6.553  65.978  1.00  0.00    -0.150 A  
HETATM    9  C   UNL     1      -8.340   5.429  65.177  1.00  0.00    -0.144 A  
ENDROOT
BRANCH   7  10
HETATM   10  C   UNL     1     -10.159   7.862  67.466  1.00  0.00    -0.213 A  
HETATM   11  C   UNL     1     -10.289   8.071  68.826  1.00  0.00    -0.223 A  
HETATM   12  C   UNL     1     -10.672   9.421  69.005  1.00  0.00    -0.209 A  
HETATM   13  C   UNL     1     -10.751   9.977  67.745  1.00  0.00    -0.280 A  
HETATM   14  O   UNL     1     -10.435   9.029  66.804  1.00  0.00    -0.257 OA 
BRANCH  13  15
HETATM   15  C   UNL     1     -11.107  11.298  67.299  1.00  0.00    -0.305 C  
BRANCH  15  16
HETATM   16  N   UNL     1     -12.124  11.927  67.808  1.00  0.00    -0.527 NA 
HETATM   17  H   UNL     1     -13.024  11.462  67.933  1.00  0.00     0.000 HD 
BRANCH  16  18
HETATM   18  N   UNL     1     -11.944  13.238  68.168  1.00  0.00    -0.339 N  
HETATM   19  C   UNL     1     -11.416  14.194  67.218  1.00  0.00    -0.350 C  
HETATM   20  C   UNL     1     -11.081  15.347  68.146  1.00  0.00    -0.309 C  
HETATM   21  N   UNL     1     -11.431  15.020  69.415  1.00  0.00    -0.281 NA 
HETATM   22  O   UNL     1     -10.559  16.402  67.815  1.00  0.00    -0.305 OA 
HETATM   23  C   UNL     1     -11.862  13.735  69.482  1.00  0.00    -0.339 C  
HETATM   24  O   UNL     1     -12.088  13.142  70.526  1.00  0.00    -0.357 OA 
ENDBRANCH  16  18
ENDBRANCH  15  16
ENDBRANCH  13  15
ENDBRANCH   7  10
TORSDOF 4
ENDMDL
MODEL      182
REMARK 921   NORMALIZED FREE ENERGY PREDICTED BY IDOCK:   -4.70 KCAL/MOL
REMARK 922        TOTAL FREE ENERGY PREDICTED BY IDOCK:   -6.35 KCAL/MOL
REMARK 923 INTER-LIGAND FREE ENERGY PREDICTED BY IDOCK:   -5.79 KCAL/MOL
REMARK 924 INTRA-LIGAND FREE ENERGY PREDICTED BY IDOCK:   -0.56 KCAL/MOL
REMARK 927      BINDING AFFINITY PREDICTED BY RF-SCORE:    0.00 PKD
ROOT
HETATM    1  O   UNL     1     -10.691   3.273  74.189  1.00  0.00    -0.187 OA 
HETATM    2  N   UNL     1      -9.636   3.458  73.569  1.00  0.00    -0.105 N  
HETATM    3  O   UNL     1      -8.682   2.669  73.551  1.00  0.00    -0.074 OA 
HETATM    4  C   UNL     1      -9.507   4.703  72.798  1.00  0.00    -0.132 A  
HETATM    5  C   UNL     1     -10.560   5.621  72.793  1.00  0.00    -0.266 A  
HETATM    6  C   UNL     1     -10.450   6.792  72.037  1.00  0.00    -0.226 A  
HETATM    7  C   UNL     1      -9.302   7.070  71.272  1.00  0.00    -0.160 A  
HETATM    8  C   UNL     1      -8.247   6.142  71.305  1.00  0.00    -0.123 A  
HETATM    9  C   UNL     1      -8.345   4.962  72.062  1.00  0.00    -0.123 A  
ENDROOT
BRANCH   7  10
HETATM   10  C   UNL     1      -9.257   8.289  70.459  1.00  0.00    -0.151 A  
HETATM   11  C   UNL     1      -8.418   9.388  70.446  1.00  0.00    -0.247 A  
HETATM   12  C   UNL     1      -8.905  10.271  69.455  1.00  0.00    -0.177 A  
HETATM   13  C   UNL     1     -10.015   9.669  68.901  1.00  0.00    -0.178 A  
HETATM   14  O   UNL     1     -10.230   8.457  69.508  1.00  0.00    -0.197 OA 
BRANCH  13  15
HETATM   15  C   UNL     1     -10.926  10.094  67.872  1.00  0.00    -0.277 C  
BRANCH  15  16
HETATM   16  N   UNL     1     -11.973  10.808  68.157  1.00  0.00    -0.801 NA 
HETATM   17  H   UNL     1     -12.895  10.381  68.251  1.00  0.00     0.000 HD 
BRANCH  16  18
HETATM   18  N   UNL     1     -11.794  12.158  68.325  1.00  0.00    -0.337 N  
HETATM   19  C   UNL     1     -12.002  12.769  69.620  1.00  0.00    -0.288 C  
HETATM   20  C   UNL     1     -12.034  14.235  69.230  1.00  0.00    -0.335 C  
HETATM   21  N   UNL     1     -11.831  14.350  67.894  1.00  0.00    -0.358 NA 
HETATM   22  O   UNL     1     -12.230  15.173  69.990  1.00  0.00    -0.321 OA 
HETATM   23  C   UNL     1     -11.777  13.128  67.307  1.00  0.00    -0.374 C  
HETATM   24  O   UNL     1     -11.761  12.950  66.098  1.00  0.00    -0.355 OA 
ENDBRANCH  16  18
ENDBRANCH  15  16
ENDBRANCH  13  15
ENDBRANCH   7  10
TORSDOF 4
ENDMDL
MODEL      183
REMARK 921   NORMALIZED FREE ENERGY PREDICTED BY IDOCK:   -4.70 KCAL/MOL
REMARK 922        TOTAL FREE ENERGY PREDICTED BY IDOCK:   -6.35 KCAL/MOL
REMARK 923 INTER-LIGAND FREE ENERGY PREDICTED BY IDOCK:   -6.04 KCAL/MOL
REMARK 924 INTRA-LIGAND FREE ENERGY PREDICTED BY IDOCK:   -0.31 KCAL/MOL
REMARK 927      BINDING AFFINITY PREDICTED BY RF-SCORE:    0.00 PKD
ROOT
HETATM    1  O   UNL     1      -8.856   6.112  72.906  1.00  0.00    -0.127 OA 
HETATM    2  N   UNL     1     -10.046   6.445  72.974  1.00  0.00    -0.181 N  
HETATM    3  O   UNL     1     -10.908   5.847  73.630  1.00  0.00    -0.262 OA 
HETATM    4  C   UNL     1     -10.466   7.637  72.222  1.00  0.00    -0.237 A  
HETATM    5  C   UNL     1      -9.524   8.340  71.468  1.00  0.00    -0.244 A  
HETATM    6  C   UNL     1      -9.915   9.490  70.775  1.00  0.00    -0.334 A  
HETATM    7  C   UNL     1     -11.240   9.964  70.823  1.00  0.00    -0.427 A  
HETATM    8  C   UNL     1     -12.176   9.231  71.573  1.00  0.00    -0.439 A  
HETATM    9  C   UNL     1     -11.795   8.073  72.273  1.00  0.00    -0.424 A  
ENDROOT
BRANCH   7  10
HETATM   10  C   UNL     1     -11.588  11.201  70.118  1.00  0.00    -0.323 A  
HETATM   11  C   UNL     1     -12.071  12.427  70.539  1.00  0.00    -0.363 A  
HETATM   12  C   UNL     1     -12.254  13.220  69.383  1.00  0.00    -0.210 A  
HETATM   13  C   UNL     1     -11.869  12.446  68.308  1.00  0.00    -0.309 A  
HETATM   14  O   UNL     1     -11.458  11.214  68.754  1.00  0.00    -0.246 OA 
BRANCH  13  15
HETATM   15  C   UNL     1     -11.852  12.706  66.893  1.00  0.00    -0.355 C  
BRANCH  15  16
HETATM   16  N   UNL     1     -10.849  12.334  66.155  1.00  0.00    -0.269 NA 
HETATM   17  H   UNL     1     -10.991  11.774  65.314  1.00  0.00     0.000 HD 
BRANCH  16  18
HETATM   18  N   UNL     1      -9.593  12.721  66.550  1.00  0.00    -0.254 N  
HETATM   19  C   UNL     1      -8.639  11.741  67.023  1.00  0.00    -0.173 C  
HETATM   20  C   UNL     1      -7.596  12.651  67.644  1.00  0.00    -0.152 C  
HETATM   21  N   UNL     1      -7.966  13.944  67.472  1.00  0.00    -0.169 NA 
HETATM   22  O   UNL     1      -6.584  12.286  68.227  1.00  0.00    -0.051 OA 
HETATM   23  C   UNL     1      -9.198  14.022  66.907  1.00  0.00    -0.260 C  
HETATM   24  O   UNL     1      -9.831  15.061  66.789  1.00  0.00    -0.232 OA 
ENDBRANCH  16  18
ENDBRANCH  15  16
ENDBRANCH  13  15
ENDBRANCH   7  10
TORSDOF 4
ENDMDL
MODEL      184
REMARK 921   NORMALIZED FREE ENERGY PREDICTED BY IDOCK:   -4.68 KCAL/MOL
REMARK 922        TOTAL FREE ENERGY PREDICTED BY IDOCK:   -6.33 KCAL/MOL
REMARK 923 INTER-LIGAND FREE ENERGY PREDICTED BY IDOCK:   -5.76 KCAL/MOL
REMARK 924 INTRA-LIGAND FREE ENERGY PREDICTED BY IDOCK:   -0.57 KCAL/MOL
REMARK 927      BINDING AFFINITY PREDICTED BY RF-SCORE:    0.00 PKD
ROOT
HETATM    1  O   UNL     1     -10.233   7.913  67.081  1.00  0.00    -0.231 OA 
HETATM    2  N   UNL     1      -9.296   8.703  67.251  1.00  0.00    -0.148 N  
HETATM    3  O   UNL     1      -8.157   8.377  67.614  1.00  0.00    -0.115 OA 
HETATM    4  C   UNL     1      -9.552  10.129  67.006  1.00  0.00    -0.171 A  
HETATM    5  C   UNL     1     -10.823  10.539  66.598  1.00  0.00    -0.166 A  
HETATM    6  C   UNL     1     -11.060  11.892  66.337  1.00  0.00    -0.359 A  
HETATM    7  C   UNL     1     -10.045  12.857  66.470  1.00  0.00    -0.263 A  
HETATM    8  C   UNL     1      -8.777  12.427  66.900  1.00  0.00    -0.191 A  
HETATM    9  C   UNL     1      -8.527  11.070  67.166  1.00  0.00    -0.137 A  
ENDROOT
BRANCH   7  10
HETATM   10  C   UNL     1     -10.332  14.256  66.138  1.00  0.00    -0.299 A  
HETATM   11  C   UNL     1     -10.678  14.898  64.963  1.00  0.00    -0.451 A  
HETATM   12  C   UNL     1     -10.785  16.277  65.259  1.00  0.00    -0.349 A  
HETATM   13  C   UNL     1     -10.507  16.414  66.602  1.00  0.00    -0.274 A  
HETATM   14  O   UNL     1     -10.234  15.182  67.143  1.00  0.00    -0.242 OA 
BRANCH  13  15
HETATM   15  C   UNL     1     -10.445  17.569  67.458  1.00  0.00    -0.355 C  
BRANCH  15  16
HETATM   16  N   UNL     1      -9.366  17.854  68.123  1.00  0.00    -0.277 NA 
HETATM   17  H   UNL     1      -9.270  17.603  69.107  1.00  0.00     0.000 HD 
BRANCH  16  18
HETATM   18  N   UNL     1      -8.362  18.506  67.453  1.00  0.00    -0.254 N  
HETATM   19  C   UNL     1      -8.668  19.371  66.334  1.00  0.00    -0.355 C  
HETATM   20  C   UNL     1      -7.284  19.554  65.741  1.00  0.00    -0.295 C  
HETATM   21  N   UNL     1      -6.378  18.884  66.496  1.00  0.00    -0.185 NA 
HETATM   22  O   UNL     1      -7.016  20.188  64.730  1.00  0.00    -0.286 OA 
HETATM   23  C   UNL     1      -6.996  18.170  67.471  1.00  0.00    -0.198 C  
HETATM   24  O   UNL     1      -6.430  17.358  68.188  1.00  0.00    -0.161 OA 
ENDBRANCH  16  18
ENDBRANCH  15  16
ENDBRANCH  13  15
ENDBRANCH   7  10
TORSDOF 4
ENDMDL
MODEL      185
REMARK 921   NORMALIZED FREE ENERGY PREDICTED BY IDOCK:   -4.66 KCAL/MOL
REMARK 922        TOTAL FREE ENERGY PREDICTED BY IDOCK:   -6.31 KCAL/MOL
REMARK 923 INTER-LIGAND FREE ENERGY PREDICTED BY IDOCK:   -5.75 KCAL/MOL
REMARK 924 INTRA-LIGAND FREE ENERGY PREDICTED BY IDOCK:   -0.57 KCAL/MOL
REMARK 927      BINDING AFFINITY PREDICTED BY RF-SCORE:    0.00 PKD
ROOT
HETATM    1  O   UNL     1      -9.222   4.709  65.048  1.00  0.00    -0.153 OA 
HETATM    2  N   UNL     1      -8.460   5.656  65.280  1.00  0.00    -0.146 N  
HETATM    3  O   UNL     1      -7.302   5.750  64.851  1.00  0.00    -0.064 OA 
HETATM    4  C   UNL     1      -8.965   6.747  66.125  1.00  0.00    -0.136 A  
HETATM    5  C   UNL     1     -10.266   6.679  66.631  1.00  0.00    -0.208 A  
HETATM    6  C   UNL     1     -10.758   7.731  67.411  1.00  0.00    -0.300 A  
HETATM    7  C   UNL     1      -9.975   8.864  67.697  1.00  0.00    -0.248 A  
HETATM    8  C   UNL     1      -8.663   8.905  67.194  1.00  0.00    -0.126 A  
HETATM    9  C   UNL     1      -8.157   7.854  66.410  1.00  0.00    -0.108 A  
ENDROOT
BRANCH   7  10
HETATM   10  C   UNL     1     -10.555   9.960  68.479  1.00  0.00    -0.217 A  
HETATM   11  C   UNL     1     -11.163  10.020  69.719  1.00  0.00    -0.307 A  
HETATM   12  C   UNL     1     -11.560  11.362  69.924  1.00  0.00    -0.402 A  
HETATM   13  C   UNL     1     -11.171  12.063  68.802  1.00  0.00    -0.263 A  
HETATM   14  O   UNL     1     -10.553  11.212  67.920  1.00  0.00    -0.180 OA 
BRANCH  13  15
HETATM   15  C   UNL     1     -11.318  13.446  68.434  1.00  0.00    -0.294 C  
BRANCH  15  16
HETATM   16  N   UNL     1     -10.301  14.255  68.442  1.00  0.00    -0.241 NA 
HETATM   17  H   UNL     1      -9.660  14.289  69.235  1.00  0.00     0.000 HD 
BRANCH  16  18
HETATM   18  N   UNL     1     -10.123  15.062  67.347  1.00  0.00    -0.228 N  
HETATM   19  C   UNL     1     -11.264  15.565  66.613  1.00  0.00    -0.118 C  
HETATM   20  C   UNL     1     -10.582  16.071  65.357  1.00  0.00    -0.408 C  
HETATM   21  N   UNL     1      -9.244  15.876  65.461  1.00  0.00    -0.289 NA 
HETATM   22  O   UNL     1     -11.142  16.564  64.387  1.00  0.00    -0.894 OA 
HETATM   23  C   UNL     1      -8.942  15.191  66.593  1.00  0.00    -0.287 C  
HETATM   24  O   UNL     1      -7.833  14.747  66.850  1.00  0.00    -0.128 OA 
ENDBRANCH  16  18
ENDBRANCH  15  16
ENDBRANCH  13  15
ENDBRANCH   7  10
TORSDOF 4
ENDMDL
MODEL      186
REMARK 921   NORMALIZED FREE ENERGY PREDICTED BY IDOCK:   -4.66 KCAL/MOL
REMARK 922        TOTAL FREE ENERGY PREDICTED BY IDOCK:   -6.31 KCAL/MOL
REMARK 923 INTER-LIGAND FREE ENERGY PREDICTED BY IDOCK:   -5.84 KCAL/MOL
REMARK 924 INTRA-LIGAND FREE ENERGY PREDICTED BY IDOCK:   -0.47 KCAL/MOL
REMARK 927      BINDING AFFINITY PREDICTED BY RF-SCORE:    0.00 PKD
ROOT
HETATM    1  O   UNL     1     -11.895  15.400  67.911  1.00  0.00    -0.275 OA 
HETATM    2  N   UNL     1     -11.642  14.465  67.141  1.00  0.00    -0.369 N  
HETATM    3  O   UNL     1     -11.462  14.586  65.922  1.00  0.00    -0.339 OA 
HETATM    4  C   UNL     1     -11.548  13.115  67.714  1.00  0.00    -0.337 A  
HETATM    5  C   UNL     1     -11.747  12.935  69.085  1.00  0.00    -0.376 A  
HETATM    6  C   UNL     1     -11.629  11.655  69.636  1.00  0.00    -0.401 A  
HETATM    7  C   UNL     1     -11.310  10.537  68.843  1.00  0.00    -0.313 A  
HETATM    8  C   UNL     1     -11.133  10.737  67.462  1.00  0.00    -0.374 A  
HETATM    9  C   UNL     1     -11.249  12.018  66.897  1.00  0.00    -0.375 A  
ENDROOT
BRANCH   7  10
HETATM   10  C   UNL     1     -11.151   9.225  69.477  1.00  0.00    -0.080 A  
HETATM   11  C   UNL     1     -10.744   7.990  69.008  1.00  0.00    -0.107 A  
HETATM   12  C   UNL     1     -10.837   7.083  70.090  1.00  0.00    -0.285 A  
HETATM   13  C   UNL     1     -11.291   7.807  71.172  1.00  0.00    -0.269 A  
HETATM   14  O   UNL     1     -11.480   9.116  70.803  1.00  0.00    -0.267 OA 
BRANCH  13  15
HETATM   15  C   UNL     1     -11.593   7.424  72.526  1.00  0.00    -0.275 C  
BRANCH  15  16
HETATM   16  N   UNL     1     -11.906   6.198  72.823  1.00  0.00    -0.516 NA 
HETATM   17  H   UNL     1     -12.814   5.809  72.571  1.00  0.00     0.000 HD 
BRANCH  16  18
HETATM   18  N   UNL     1     -10.968   5.448  73.487  1.00  0.00    -0.293 N  
HETATM   19  C   UNL     1      -9.605   5.917  73.607  1.00  0.00    -0.143 C  
HETATM   20  C   UNL     1      -8.918   4.648  74.076  1.00  0.00    -0.109 C  
HETATM   21  N   UNL     1      -9.838   3.661  74.208  1.00  0.00    -0.113 NA 
HETATM   22  O   UNL     1      -7.720   4.519  74.286  1.00  0.00    -0.086 OA 
HETATM   23  C   UNL     1     -11.056   4.074  73.776  1.00  0.00    -0.213 C  
HETATM   24  O   UNL     1     -12.020   3.336  73.639  1.00  0.00     0.077 OA 
ENDBRANCH  16  18
ENDBRANCH  15  16
ENDBRANCH  13  15
ENDBRANCH   7  10
TORSDOF 4
ENDMDL
MODEL      187
REMARK 921   NORMALIZED FREE ENERGY PREDICTED BY IDOCK:   -4.64 KCAL/MOL
REMARK 922        TOTAL FREE ENERGY PREDICTED BY IDOCK:   -6.28 KCAL/MOL
REMARK 923 INTER-LIGAND FREE ENERGY PREDICTED BY IDOCK:   -5.76 KCAL/MOL
REMARK 924 INTRA-LIGAND FREE ENERGY PREDICTED BY IDOCK:   -0.52 KCAL/MOL
REMARK 927      BINDING AFFINITY PREDICTED BY RF-SCORE:    0.00 PKD
ROOT
HETATM    1  O   UNL     1      -6.715   3.101  65.516  1.00  0.00    -0.042 OA 
HETATM    2  N   UNL     1      -7.785   3.708  65.379  1.00  0.00    -0.084 N  
HETATM    3  O   UNL     1      -8.342   3.918  64.294  1.00  0.00    -0.090 OA 
HETATM    4  C   UNL     1      -8.441   4.215  66.592  1.00  0.00    -0.104 A  
HETATM    5  C   UNL     1      -7.845   4.001  67.837  1.00  0.00    -0.078 A  
HETATM    6  C   UNL     1      -8.483   4.458  68.995  1.00  0.00    -0.096 A  
HETATM    7  C   UNL     1      -9.720   5.128  68.939  1.00  0.00    -0.220 A  
HETATM    8  C   UNL     1     -10.294   5.349  67.675  1.00  0.00    -0.235 A  
HETATM    9  C   UNL     1      -9.662   4.895  66.505  1.00  0.00    -0.199 A  
ENDROOT
BRANCH   7  10
HETATM   10  C   UNL     1     -10.370   5.544  70.185  1.00  0.00    -0.284 A  
HETATM   11  C   UNL     1     -10.513   4.947  71.424  1.00  0.00    -0.170 A  
HETATM   12  C   UNL     1     -11.285   5.823  72.222  1.00  0.00    -0.333 A  
HETATM   13  C   UNL     1     -11.573   6.920  71.436  1.00  0.00    -0.299 A  
HETATM   14  O   UNL     1     -11.013   6.754  70.194  1.00  0.00    -0.253 OA 
BRANCH  13  15
HETATM   15  C   UNL     1     -12.332   8.114  71.695  1.00  0.00    -0.314 C  
BRANCH  15  16
HETATM   16  N   UNL     1     -12.583   8.968  70.748  1.00  0.00    -0.494 NA 
HETATM   17  H   UNL     1     -12.819   8.658  69.805  1.00  0.00     0.000 HD 
BRANCH  16  18
HETATM   18  N   UNL     1     -12.517  10.302  71.063  1.00  0.00    -0.351 N  
HETATM   19  C   UNL     1     -13.366  10.854  72.097  1.00  0.00    -0.189 C  
HETATM   20  C   UNL     1     -13.193  12.337  71.832  1.00  0.00    -0.376 C  
HETATM   21  N   UNL     1     -12.329  12.513  70.802  1.00  0.00    -0.357 NA 
HETATM   22  O   UNL     1     -13.755  13.242  72.434  1.00  0.00    -0.577 OA 
HETATM   23  C   UNL     1     -11.978  11.321  70.257  1.00  0.00    -0.379 C  
HETATM   24  O   UNL     1     -11.338  11.203  69.222  1.00  0.00    -0.231 OA 
ENDBRANCH  16  18
ENDBRANCH  15  16
ENDBRANCH  13  15
ENDBRANCH   7  10
TORSDOF 4
ENDMDL
MODEL      188
REMARK 921   NORMALIZED FREE ENERGY PREDICTED BY IDOCK:   -4.63 KCAL/MOL
REMARK 922        TOTAL FREE ENERGY PREDICTED BY IDOCK:   -6.26 KCAL/MOL
REMARK 923 INTER-LIGAND FREE ENERGY PREDICTED BY IDOCK:   -5.70 KCAL/MOL
REMARK 924 INTRA-LIGAND FREE ENERGY PREDICTED BY IDOCK:   -0.56 KCAL/MOL
REMARK 927      BINDING AFFINITY PREDICTED BY RF-SCORE:    0.00 PKD
ROOT
HETATM    1  O   UNL     1     -13.048  14.642  71.694  1.00  0.00    -0.313 OA 
HETATM    2  N   UNL     1     -12.674  14.608  70.515  1.00  0.00    -0.346 N  
HETATM    3  O   UNL     1     -12.621  15.592  69.765  1.00  0.00    -0.251 OA 
HETATM    4  C   UNL     1     -12.263  13.308  69.966  1.00  0.00    -0.275 A  
HETATM    5  C   UNL     1     -12.309  12.173  70.779  1.00  0.00    -0.391 A  
HETATM    6  C   UNL     1     -11.891  10.941  70.266  1.00  0.00    -0.450 A  
HETATM    7  C   UNL     1     -11.417  10.814  68.948  1.00  0.00    -0.362 A  
HETATM    8  C   UNL     1     -11.395  11.965  68.140  1.00  0.00    -0.350 A  
HETATM    9  C   UNL     1     -11.813  13.208  68.644  1.00  0.00    -0.363 A  
ENDROOT
BRANCH   7  10
HETATM   10  C   UNL     1     -10.945   9.509  68.474  1.00  0.00    -0.065 A  
HETATM   11  C   UNL     1     -10.891   8.918  67.226  1.00  0.00    -0.084 A  
HETATM   12  C   UNL     1     -10.369   7.616  67.405  1.00  0.00    -0.347 A  
HETATM   13  C   UNL     1     -10.121   7.473  68.754  1.00  0.00    -0.185 A  
HETATM   14  O   UNL     1     -10.467   8.628  69.409  1.00  0.00    -0.216 OA 
BRANCH  13  15
HETATM   15  C   UNL     1      -9.609   6.371  69.525  1.00  0.00    -0.144 C  
BRANCH  15  16
HETATM   16  N   UNL     1     -10.259   5.249  69.606  1.00  0.00    -0.259 NA 
HETATM   17  H   UNL     1     -10.588   4.767  68.769  1.00  0.00     0.000 HD 
BRANCH  16  18
HETATM   18  N   UNL     1     -10.488   4.737  70.858  1.00  0.00    -0.111 N  
HETATM   19  C   UNL     1     -10.897   5.605  71.942  1.00  0.00    -0.242 C  
HETATM   20  C   UNL     1     -10.680   4.685  73.128  1.00  0.00    -0.239 C  
HETATM   21  N   UNL     1     -10.242   3.479  72.688  1.00  0.00    -0.167 NA 
HETATM   22  O   UNL     1     -10.851   4.980  74.303  1.00  0.00    -0.320 OA 
HETATM   23  C   UNL     1     -10.026   3.503  71.349  1.00  0.00    -0.081 C  
HETATM   24  O   UNL     1      -9.484   2.601  70.727  1.00  0.00    -0.140 OA 
ENDBRANCH  16  18
ENDBRANCH  15  16
ENDBRANCH  13  15
ENDBRANCH   7  10
TORSDOF 4
ENDMDL
MODEL      189
REMARK 921   NORMALIZED FREE ENERGY PREDICTED BY IDOCK:   -4.62 KCAL/MOL
REMARK 922        TOTAL FREE ENERGY PREDICTED BY IDOCK:   -6.25 KCAL/MOL
REMARK 923 INTER-LIGAND FREE ENERGY PREDICTED BY IDOCK:   -6.06 KCAL/MOL
REMARK 924 INTRA-LIGAND FREE ENERGY PREDICTED BY IDOCK:   -0.19 KCAL/MOL
REMARK 927      BINDING AFFINITY PREDICTED BY RF-SCORE:    0.00 PKD
ROOT
HETATM    1  O   UNL     1     -11.285  17.128  64.389  1.00  0.00    -1.143 OA 
HETATM    2  N   UNL     1     -10.698  16.824  65.435  1.00  0.00    -0.278 N  
HETATM    3  O   UNL     1     -10.273  17.638  66.265  1.00  0.00    -0.349 OA 
HETATM    4  C   UNL     1     -10.492  15.396  65.712  1.00  0.00    -0.355 A  
HETATM    5  C   UNL     1     -10.956  14.445  64.800  1.00  0.00    -0.409 A  
HETATM    6  C   UNL     1     -10.786  13.084  65.076  1.00  0.00    -0.328 A  
HETATM    7  C   UNL     1     -10.162  12.645  66.258  1.00  0.00    -0.264 A  
HETATM    8  C   UNL     1      -9.686  13.618  67.154  1.00  0.00    -0.245 A  
HETATM    9  C   UNL     1      -9.850  14.988  66.887  1.00  0.00    -0.244 A  
ENDROOT
BRANCH   7  10
HETATM   10  C   UNL     1     -10.052  11.207  66.523  1.00  0.00    -0.223 A  
HETATM   11  C   UNL     1     -10.663  10.362  67.430  1.00  0.00    -0.338 A  
HETATM   12  C   UNL     1     -10.113   9.074  67.234  1.00  0.00    -0.297 A  
HETATM   13  C   UNL     1      -9.196   9.189  66.211  1.00  0.00    -0.194 A  
HETATM   14  O   UNL     1      -9.159  10.489  65.772  1.00  0.00    -0.165 OA 
BRANCH  13  15
HETATM   15  C   UNL     1      -8.322   8.228  65.591  1.00  0.00    -0.148 C  
BRANCH  15  16
HETATM   16  N   UNL     1      -8.775   7.371  64.724  1.00  0.00    -0.344 NA 
HETATM   17  H   UNL     1      -9.351   7.669  63.938  1.00  0.00     0.000 HD 
BRANCH  16  18
HETATM   18  N   UNL     1      -8.447   6.051  64.908  1.00  0.00    -0.104 N  
HETATM   19  C   UNL     1      -8.442   5.135  63.787  1.00  0.00    -0.113 C  
HETATM   20  C   UNL     1      -8.378   3.808  64.519  1.00  0.00    -0.097 C  
HETATM   21  N   UNL     1      -8.324   4.032  65.855  1.00  0.00    -0.108 NA 
HETATM   22  O   UNL     1      -8.392   2.702  63.996  1.00  0.00    -0.082 OA 
HETATM   23  C   UNL     1      -8.458   5.354  66.129  1.00  0.00    -0.120 C  
HETATM   24  O   UNL     1      -8.602   5.809  67.254  1.00  0.00    -0.111 OA 
ENDBRANCH  16  18
ENDBRANCH  15  16
ENDBRANCH  13  15
ENDBRANCH   7  10
TORSDOF 4
ENDMDL
MODEL      190
REMARK 921   NORMALIZED FREE ENERGY PREDICTED BY IDOCK:   -4.61 KCAL/MOL
REMARK 922        TOTAL FREE ENERGY PREDICTED BY IDOCK:   -6.24 KCAL/MOL
REMARK 923 INTER-LIGAND FREE ENERGY PREDICTED BY IDOCK:   -5.70 KCAL/MOL
REMARK 924 INTRA-LIGAND FREE ENERGY PREDICTED BY IDOCK:   -0.55 KCAL/MOL
REMARK 927      BINDING AFFINITY PREDICTED BY RF-SCORE:    0.00 PKD
ROOT
HETATM    1  O   UNL     1      -6.472   5.484  72.882  1.00  0.00    -0.061 OA 
HETATM    2  N   UNL     1      -7.297   5.321  71.975  1.00  0.00    -0.086 N  
HETATM    3  O   UNL     1      -7.425   4.280  71.318  1.00  0.00    -0.056 OA 
HETATM    4  C   UNL     1      -8.189   6.445  71.654  1.00  0.00    -0.117 A  
HETATM    5  C   UNL     1      -8.075   7.638  72.371  1.00  0.00    -0.132 A  
HETATM    6  C   UNL     1      -8.942   8.698  72.086  1.00  0.00    -0.270 A  
HETATM    7  C   UNL     1      -9.935   8.592  71.095  1.00  0.00    -0.265 A  
HETATM    8  C   UNL     1     -10.021   7.389  70.372  1.00  0.00    -0.188 A  
HETATM    9  C   UNL     1      -9.155   6.317  70.649  1.00  0.00    -0.153 A  
ENDROOT
BRANCH   7  10
HETATM   10  C   UNL     1     -10.850   9.715  70.869  1.00  0.00    -0.339 A  
HETATM   11  C   UNL     1     -12.033  10.108  71.466  1.00  0.00    -0.404 A  
HETATM   12  C   UNL     1     -12.482  11.261  70.782  1.00  0.00    -0.471 A  
HETATM   13  C   UNL     1     -11.549  11.525  69.801  1.00  0.00    -0.326 A  
HETATM   14  O   UNL     1     -10.550  10.586  69.854  1.00  0.00    -0.259 OA 
BRANCH  13  15
HETATM   15  C   UNL     1     -11.479  12.548  68.792  1.00  0.00    -0.310 C  
BRANCH  15  16
HETATM   16  N   UNL     1     -10.488  13.389  68.757  1.00  0.00    -0.360 NA 
HETATM   17  H   UNL     1      -9.535  13.075  68.573  1.00  0.00     0.000 HD 
BRANCH  16  18
HETATM   18  N   UNL     1     -10.771  14.713  68.978  1.00  0.00    -0.244 N  
HETATM   19  C   UNL     1     -10.503  15.701  67.955  1.00  0.00    -0.263 C  
HETATM   20  C   UNL     1     -10.637  16.977  68.764  1.00  0.00    -0.346 C  
HETATM   21  N   UNL     1     -10.968  16.668  70.042  1.00  0.00    -0.263 NA 
HETATM   22  O   UNL     1     -10.457  18.112  68.345  1.00  0.00    -0.359 OA 
HETATM   23  C   UNL     1     -10.965  15.324  70.230  1.00  0.00    -0.289 C  
HETATM   24  O   UNL     1     -11.074  14.785  71.322  1.00  0.00    -0.137 OA 
ENDBRANCH  16  18
ENDBRANCH  15  16
ENDBRANCH  13  15
ENDBRANCH   7  10
TORSDOF 4
ENDMDL
MODEL      191
REMARK 921   NORMALIZED FREE ENERGY PREDICTED BY IDOCK:   -4.61 KCAL/MOL
REMARK 922        TOTAL FREE ENERGY PREDICTED BY IDOCK:   -6.24 KCAL/MOL
REMARK 923 INTER-LIGAND FREE ENERGY PREDICTED BY IDOCK:   -5.71 KCAL/MOL
REMARK 924 INTRA-LIGAND FREE ENERGY PREDICTED BY IDOCK:   -0.53 KCAL/MOL
REMARK 927      BINDING AFFINITY PREDICTED BY RF-SCORE:    0.00 PKD
ROOT
HETATM    1  O   UNL     1      -8.420  20.328  67.033  1.00  0.00    -0.326 OA 
HETATM    2  N   UNL     1      -7.882  19.247  67.301  1.00  0.00    -0.251 N  
HETATM    3  O   UNL     1      -6.829  19.124  67.941  1.00  0.00    -0.219 OA 
HETATM    4  C   UNL     1      -8.539  18.021  66.827  1.00  0.00    -0.255 A  
HETATM    5  C   UNL     1      -9.728  18.116  66.100  1.00  0.00    -0.217 A  
HETATM    6  C   UNL     1     -10.370  16.949  65.673  1.00  0.00    -0.254 A  
HETATM    7  C   UNL     1      -9.850  15.674  65.963  1.00  0.00    -0.362 A  
HETATM    8  C   UNL     1      -8.643  15.601  66.680  1.00  0.00    -0.330 A  
HETATM    9  C   UNL     1      -7.988  16.766  67.114  1.00  0.00    -0.210 A  
ENDROOT
BRANCH   7  10
HETATM   10  C   UNL     1     -10.587  14.481  65.535  1.00  0.00    -0.351 A  
HETATM   11  C   UNL     1     -11.871  14.280  65.064  1.00  0.00    -0.396 A  
HETATM   12  C   UNL     1     -12.024  12.889  64.854  1.00  0.00    -0.437 A  
HETATM   13  C   UNL     1     -10.824  12.305  65.200  1.00  0.00    -0.301 A  
HETATM   14  O   UNL     1      -9.943  13.274  65.612  1.00  0.00    -0.280 OA 
BRANCH  13  15
HETATM   15  C   UNL     1     -10.392  10.932  65.212  1.00  0.00    -0.268 C  
BRANCH  15  16
HETATM   16  N   UNL     1      -9.702  10.455  66.204  1.00  0.00    -0.199 NA 
HETATM   17  H   UNL     1      -9.465  11.033  67.010  1.00  0.00     0.000 HD 
BRANCH  16  18
HETATM   18  N   UNL     1      -9.303   9.144  66.127  1.00  0.00    -0.208 N  
HETATM   19  C   UNL     1      -8.351   8.726  65.120  1.00  0.00    -0.167 C  
HETATM   20  C   UNL     1      -8.505   7.219  65.207  1.00  0.00    -0.057 C  
HETATM   21  N   UNL     1      -9.407   6.913  66.172  1.00  0.00    -0.098 NA 
HETATM   22  O   UNL     1      -7.925   6.399  64.508  1.00  0.00    -0.117 OA 
HETATM   23  C   UNL     1      -9.974   8.037  66.677  1.00  0.00    -0.256 C  
HETATM   24  O   UNL     1     -10.926   8.039  67.443  1.00  0.00    -0.151 OA 
ENDBRANCH  16  18
ENDBRANCH  15  16
ENDBRANCH  13  15
ENDBRANCH   7  10
TORSDOF 4
ENDMDL
MODEL      192
REMARK 921   NORMALIZED FREE ENERGY PREDICTED BY IDOCK:   -4.58 KCAL/MOL
REMARK 922        TOTAL FREE ENERGY PREDICTED BY IDOCK:   -6.21 KCAL/MOL
REMARK 923 INTER-LIGAND FREE ENERGY PREDICTED BY IDOCK:   -5.71 KCAL/MOL
REMARK 924 INTRA-LIGAND FREE ENERGY PREDICTED BY IDOCK:   -0.50 KCAL/MOL
REMARK 927      BINDING AFFINITY PREDICTED BY RF-SCORE:    0.00 PKD
ROOT
HETATM    1  O   UNL     1      -8.693  10.445  63.590  1.00  0.00    -0.177 OA 
HETATM    2  N   UNL     1      -9.504  10.553  64.518  1.00  0.00    -0.249 N  
HETATM    3  O   UNL     1     -10.287  11.501  64.664  1.00  0.00    -0.261 OA 
HETATM    4  C   UNL     1      -9.542   9.477  65.520  1.00  0.00    -0.279 A  
HETATM    5  C   UNL     1      -8.674   8.390  65.393  1.00  0.00    -0.175 A  
HETATM    6  C   UNL     1      -8.729   7.352  66.329  1.00  0.00    -0.163 A  
HETATM    7  C   UNL     1      -9.644   7.372  67.398  1.00  0.00    -0.184 A  
HETATM    8  C   UNL     1     -10.496   8.484  67.518  1.00  0.00    -0.328 A  
HETATM    9  C   UNL     1     -10.450   9.533  66.584  1.00  0.00    -0.241 A  
ENDROOT
BRANCH   7  10
HETATM   10  C   UNL     1      -9.694   6.236  68.324  1.00  0.00    -0.120 A  
HETATM   11  C   UNL     1      -9.589   4.868  68.152  1.00  0.00    -0.191 A  
HETATM   12  C   UNL     1      -9.761   4.274  69.424  1.00  0.00    -0.257 A  
HETATM   13  C   UNL     1      -9.956   5.307  70.317  1.00  0.00    -0.240 A  
HETATM   14  O   UNL     1      -9.912   6.506  69.650  1.00  0.00    -0.161 OA 
BRANCH  13  15
HETATM   15  C   UNL     1     -10.200   5.317  71.735  1.00  0.00    -0.210 C  
BRANCH  15  16
HETATM   16  N   UNL     1     -11.394   5.511  72.209  1.00  0.00    -0.233 NA 
HETATM   17  H   UNL     1     -11.971   4.731  72.525  1.00  0.00     0.000 HD 
BRANCH  16  18
HETATM   18  N   UNL     1     -11.851   6.804  72.268  1.00  0.00    -0.271 N  
HETATM   19  C   UNL     1     -13.004   7.210  71.494  1.00  0.00    -0.383 C  
HETATM   20  C   UNL     1     -12.895   8.718  71.610  1.00  0.00    -0.348 C  
HETATM   21  N   UNL     1     -11.826   9.035  72.383  1.00  0.00    -0.240 NA 
HETATM   22  O   UNL     1     -13.637   9.533  71.078  1.00  0.00    -0.288 OA 
HETATM   23  C   UNL     1     -11.125   7.922  72.716  1.00  0.00    -0.400 C  
HETATM   24  O   UNL     1     -10.037   7.940  73.272  1.00  0.00    -0.313 OA 
ENDBRANCH  16  18
ENDBRANCH  15  16
ENDBRANCH  13  15
ENDBRANCH   7  10
TORSDOF 4
ENDMDL
MODEL      193
REMARK 921   NORMALIZED FREE ENERGY PREDICTED BY IDOCK:   -4.51 KCAL/MOL
REMARK 922        TOTAL FREE ENERGY PREDICTED BY IDOCK:   -6.12 KCAL/MOL
REMARK 923 INTER-LIGAND FREE ENERGY PREDICTED BY IDOCK:   -5.35 KCAL/MOL
REMARK 924 INTRA-LIGAND FREE ENERGY PREDICTED BY IDOCK:   -0.76 KCAL/MOL
REMARK 927      BINDING AFFINITY PREDICTED BY RF-SCORE:    0.00 PKD
ROOT
HETATM    1  O   UNL     1      -7.783   5.753  68.095  1.00  0.00    -0.093 OA 
HETATM    2  N   UNL     1      -8.538   6.256  67.253  1.00  0.00    -0.108 N  
HETATM    3  O   UNL     1      -9.250   5.612  66.471  1.00  0.00    -0.135 OA 
HETATM    4  C   UNL     1      -8.595   7.723  67.177  1.00  0.00    -0.128 A  
HETATM    5  C   UNL     1      -7.807   8.487  68.041  1.00  0.00    -0.103 A  
HETATM    6  C   UNL     1      -7.882   9.883  67.989  1.00  0.00    -0.086 A  
HETATM    7  C   UNL     1      -8.739  10.541  67.088  1.00  0.00    -0.130 A  
HETATM    8  C   UNL     1      -9.510   9.754  66.214  1.00  0.00    -0.250 A  
HETATM    9  C   UNL     1      -9.443   8.351  66.257  1.00  0.00    -0.292 A  
ENDROOT
BRANCH   7  10
HETATM   10  C   UNL     1      -8.816  12.005  67.106  1.00  0.00    -0.188 A  
HETATM   11  C   UNL     1      -7.905  12.997  67.419  1.00  0.00    -0.166 A  
HETATM   12  C   UNL     1      -8.577  14.235  67.292  1.00  0.00    -0.229 A  
HETATM   13  C   UNL     1      -9.867  13.943  66.900  1.00  0.00    -0.268 A  
HETATM   14  O   UNL     1     -10.015  12.584  66.782  1.00  0.00    -0.220 OA 
BRANCH  13  15
HETATM   15  C   UNL     1     -11.004  14.784  66.634  1.00  0.00    -0.326 C  
BRANCH  15  16
HETATM   16  N   UNL     1     -12.161  14.537  67.170  1.00  0.00    -0.558 NA 
HETATM   17  H   UNL     1     -12.960  14.259  66.599  1.00  0.00     0.000 HD 
BRANCH  16  18
HETATM   18  N   UNL     1     -12.270  14.664  68.532  1.00  0.00    -0.175 N  
HETATM   19  C   UNL     1     -12.030  15.940  69.171  1.00  0.00    -0.255 C  
HETATM   20  C   UNL     1     -11.921  15.505  70.620  1.00  0.00    -0.378 C  
HETATM   21  N   UNL     1     -12.118  14.166  70.705  1.00  0.00    -0.340 NA 
HETATM   22  O   UNL     1     -11.676  16.236  71.570  1.00  0.00    -0.469 OA 
HETATM   23  C   UNL     1     -12.235  13.616  69.470  1.00  0.00    -0.264 C  
HETATM   24  O   UNL     1     -12.261  12.413  69.256  1.00  0.00    -0.195 OA 
ENDBRANCH  16  18
ENDBRANCH  15  16
ENDBRANCH  13  15
ENDBRANCH   7  10
TORSDOF 4
ENDMDL
MODEL      194
REMARK 921   NORMALIZED FREE ENERGY PREDICTED BY IDOCK:   -4.49 KCAL/MOL
REMARK 922        TOTAL FREE ENERGY PREDICTED BY IDOCK:   -6.10 KCAL/MOL
REMARK 923 INTER-LIGAND FREE ENERGY PREDICTED BY IDOCK:   -5.49 KCAL/MOL
REMARK 924 INTRA-LIGAND FREE ENERGY PREDICTED BY IDOCK:   -0.61 KCAL/MOL
REMARK 927      BINDING AFFINITY PREDICTED BY RF-SCORE:    0.00 PKD
ROOT
HETATM    1  O   UNL     1      -7.016   6.696  63.411  1.00  0.00    -0.047 OA 
HETATM    2  N   UNL     1      -6.819   7.916  63.473  1.00  0.00    -0.073 N  
HETATM    3  O   UNL     1      -5.939   8.520  62.845  1.00  0.00    -0.084 OA 
HETATM    4  C   UNL     1      -7.690   8.704  64.356  1.00  0.00    -0.126 A  
HETATM    5  C   UNL     1      -8.694   8.061  65.084  1.00  0.00    -0.015 A  
HETATM    6  C   UNL     1      -9.543   8.813  65.901  1.00  0.00    -0.255 A  
HETATM    7  C   UNL     1      -9.416  10.211  66.007  1.00  0.00    -0.248 A  
HETATM    8  C   UNL     1      -8.387  10.837  65.281  1.00  0.00    -0.086 A  
HETATM    9  C   UNL     1      -7.528  10.091  64.456  1.00  0.00    -0.142 A  
ENDROOT
BRANCH   7  10
HETATM   10  C   UNL     1     -10.361  10.959  66.840  1.00  0.00    -0.238 A  
HETATM   11  C   UNL     1     -10.967  12.195  66.709  1.00  0.00    -0.325 A  
HETATM   12  C   UNL     1     -11.755  12.397  67.866  1.00  0.00    -0.421 A  
HETATM   13  C   UNL     1     -11.600  11.273  68.649  1.00  0.00    -0.318 A  
HETATM   14  O   UNL     1     -10.753  10.392  68.025  1.00  0.00    -0.210 OA 
BRANCH  13  15
HETATM   15  C   UNL     1     -12.136  10.917  69.936  1.00  0.00    -0.354 C  
BRANCH  15  16
HETATM   16  N   UNL     1     -11.363  10.495  70.892  1.00  0.00    -0.352 NA 
HETATM   17  H   UNL     1     -10.716  11.126  71.366  1.00  0.00     0.000 HD 
BRANCH  16  18
HETATM   18  N   UNL     1     -11.448   9.170  71.239  1.00  0.00    -0.306 N  
HETATM   19  C   UNL     1     -10.567   8.195  70.632  1.00  0.00    -0.215 C  
HETATM   20  C   UNL     1     -11.256   6.909  71.045  1.00  0.00    -0.282 C  
HETATM   21  N   UNL     1     -12.342   7.202  71.802  1.00  0.00    -0.336 NA 
HETATM   22  O   UNL     1     -10.907   5.778  70.734  1.00  0.00    -0.271 OA 
HETATM   23  C   UNL     1     -12.542   8.543  71.861  1.00  0.00    -0.354 C  
HETATM   24  O   UNL     1     -13.535   9.066  72.344  1.00  0.00    -0.430 OA 
ENDBRANCH  16  18
ENDBRANCH  15  16
ENDBRANCH  13  15
ENDBRANCH   7  10
TORSDOF 4
ENDMDL
MODEL      195
REMARK 921   NORMALIZED FREE ENERGY PREDICTED BY IDOCK:   -4.48 KCAL/MOL
REMARK 922        TOTAL FREE ENERGY PREDICTED BY IDOCK:   -6.09 KCAL/MOL
REMARK 923 INTER-LIGAND FREE ENERGY PREDICTED BY IDOCK:   -5.55 KCAL/MOL
REMARK 924 INTRA-LIGAND FREE ENERGY PREDICTED BY IDOCK:   -0.54 KCAL/MOL
REMARK 927      BINDING AFFINITY PREDICTED BY RF-SCORE:    0.00 PKD
ROOT
HETATM    1  O   UNL     1     -12.453   7.610  72.219  1.00  0.00    -0.250 OA 
HETATM    2  N   UNL     1     -12.838   8.778  72.081  1.00  0.00    -0.374 N  
HETATM    3  O   UNL     1     -13.716   9.315  72.770  1.00  0.00    -0.410 OA 
HETATM    4  C   UNL     1     -12.209   9.585  71.026  1.00  0.00    -0.304 A  
HETATM    5  C   UNL     1     -11.216   9.015  70.226  1.00  0.00    -0.232 A  
HETATM    6  C   UNL     1     -10.596   9.790  69.240  1.00  0.00    -0.240 A  
HETATM    7  C   UNL     1     -10.945  11.138  69.036  1.00  0.00    -0.286 A  
HETATM    8  C   UNL     1     -11.960  11.687  69.839  1.00  0.00    -0.414 A  
HETATM    9  C   UNL     1     -12.590  10.918  70.832  1.00  0.00    -0.494 A  
ENDROOT
BRANCH   7  10
HETATM   10  C   UNL     1     -10.231  11.921  68.022  1.00  0.00    -0.192 A  
HETATM   11  C   UNL     1      -9.949  11.705  66.686  1.00  0.00    -0.230 A  
HETATM   12  C   UNL     1      -9.183  12.808  66.240  1.00  0.00    -0.096 A  
HETATM   13  C   UNL     1      -9.038  13.650  67.322  1.00  0.00    -0.228 A  
HETATM   14  O   UNL     1      -9.680  13.113  68.410  1.00  0.00    -0.227 OA 
BRANCH  13  15
HETATM   15  C   UNL     1      -8.351  14.904  67.478  1.00  0.00    -0.180 C  
BRANCH  15  16
HETATM   16  N   UNL     1      -8.507  15.626  68.547  1.00  0.00    -0.167 NA 
HETATM   17  H   UNL     1      -9.305  15.487  69.167  1.00  0.00     0.000 HD 
BRANCH  16  18
HETATM   18  N   UNL     1      -7.560  16.583  68.811  1.00  0.00    -0.207 N  
HETATM   19  C   UNL     1      -7.354  17.684  67.894  1.00  0.00    -0.202 C  
HETATM   20  C   UNL     1      -6.037  18.229  68.410  1.00  0.00    -0.193 C  
HETATM   21  N   UNL     1      -5.640  17.506  69.487  1.00  0.00    -0.199 NA 
HETATM   22  O   UNL     1      -5.411  19.163  67.928  1.00  0.00    -0.176 OA 
HETATM   23  C   UNL     1      -6.475  16.457  69.698  1.00  0.00    -0.201 C  
HETATM   24  O   UNL     1      -6.260  15.562  70.502  1.00  0.00    -0.046 OA 
ENDBRANCH  16  18
ENDBRANCH  15  16
ENDBRANCH  13  15
ENDBRANCH   7  10
TORSDOF 4
ENDMDL
MODEL      196
REMARK 921   NORMALIZED FREE ENERGY PREDICTED BY IDOCK:   -4.48 KCAL/MOL
REMARK 922        TOTAL FREE ENERGY PREDICTED BY IDOCK:   -6.08 KCAL/MOL
REMARK 923 INTER-LIGAND FREE ENERGY PREDICTED BY IDOCK:   -5.30 KCAL/MOL
REMARK 924 INTRA-LIGAND FREE ENERGY PREDICTED BY IDOCK:   -0.78 KCAL/MOL
REMARK 927      BINDING AFFINITY PREDICTED BY RF-SCORE:    0.00 PKD
ROOT
HETATM    1  O   UNL     1     -11.106  17.072  68.706  1.00  0.00    -0.245 OA 
HETATM    2  N   UNL     1     -11.548  15.929  68.871  1.00  0.00    -0.389 N  
HETATM    3  O   UNL     1     -12.270  15.583  69.815  1.00  0.00    -0.355 OA 
HETATM    4  C   UNL     1     -11.191  14.908  67.876  1.00  0.00    -0.315 A  
HETATM    5  C   UNL     1     -10.376  15.257  66.796  1.00  0.00    -0.279 A  
HETATM    6  C   UNL     1     -10.059  14.294  65.832  1.00  0.00    -0.344 A  
HETATM    7  C   UNL     1     -10.546  12.976  65.919  1.00  0.00    -0.288 A  
HETATM    8  C   UNL     1     -11.349  12.641  67.024  1.00  0.00    -0.377 A  
HETATM    9  C   UNL     1     -11.674  13.600  67.999  1.00  0.00    -0.387 A  
ENDROOT
BRANCH   7  10
HETATM   10  C   UNL     1     -10.224  12.018  64.858  1.00  0.00    -0.270 A  
HETATM   11  C   UNL     1     -10.528  11.960  63.510  1.00  0.00    -0.505 A  
HETATM   12  C   UNL     1      -9.970  10.761  63.009  1.00  0.00    -0.291 A  
HETATM   13  C   UNL     1      -9.345  10.143  64.072  1.00  0.00    -0.287 A  
HETATM   14  O   UNL     1      -9.495  10.910  65.201  1.00  0.00    -0.204 OA 
BRANCH  13  15
HETATM   15  C   UNL     1      -8.628   8.900  64.175  1.00  0.00    -0.106 C  
BRANCH  15  16
HETATM   16  N   UNL     1      -7.346   8.881  64.388  1.00  0.00    -0.097 NA 
HETATM   17  H   UNL     1      -6.681   8.969  63.619  1.00  0.00     0.000 HD 
BRANCH  16  18
HETATM   18  N   UNL     1      -6.920   8.736  65.684  1.00  0.00    -0.078 N  
HETATM   19  C   UNL     1      -7.341   7.597  66.472  1.00  0.00    -0.087 C  
HETATM   20  C   UNL     1      -6.928   8.054  67.858  1.00  0.00    -0.078 C  
HETATM   21  N   UNL     1      -6.337   9.272  67.773  1.00  0.00    -0.058 NA 
HETATM   22  O   UNL     1      -7.113   7.439  68.899  1.00  0.00    -0.075 OA 
HETATM   23  C   UNL     1      -6.399   9.752  66.506  1.00  0.00    -0.069 C  
HETATM   24  O   UNL     1      -6.083  10.889  66.188  1.00  0.00    -0.120 OA 
ENDBRANCH  16  18
ENDBRANCH  15  16
ENDBRANCH  13  15
ENDBRANCH   7  10
TORSDOF 4
ENDMDL
MODEL      197
REMARK 921   NORMALIZED FREE ENERGY PREDICTED BY IDOCK:   -4.46 KCAL/MOL
REMARK 922        TOTAL FREE ENERGY PREDICTED BY IDOCK:   -6.06 KCAL/MOL
REMARK 923 INTER-LIGAND FREE ENERGY PREDICTED BY IDOCK:   -5.50 KCAL/MOL
REMARK 924 INTRA-LIGAND FREE ENERGY PREDICTED BY IDOCK:   -0.56 KCAL/MOL
REMARK 927      BINDING AFFINITY PREDICTED BY RF-SCORE:    0.00 PKD
ROOT
HETATM    1  O   UNL     1      -6.256   9.315  69.861  1.00  0.00    -0.037 OA 
HETATM    2  N   UNL     1      -7.250   8.936  69.230  1.00  0.00    -0.064 N  
HETATM    3  O   UNL     1      -7.579   7.752  69.078  1.00  0.00    -0.096 OA 
HETATM    4  C   UNL     1      -8.103   9.965  68.617  1.00  0.00    -0.099 A  
HETATM    5  C   UNL     1      -7.766  11.313  68.763  1.00  0.00    -0.138 A  
HETATM    6  C   UNL     1      -8.592  12.294  68.205  1.00  0.00    -0.181 A  
HETATM    7  C   UNL     1      -9.763  11.957  67.500  1.00  0.00    -0.185 A  
HETATM    8  C   UNL     1     -10.073  10.595  67.348  1.00  0.00    -0.231 A  
HETATM    9  C   UNL     1      -9.251   9.600  67.904  1.00  0.00    -0.134 A  
ENDROOT
BRANCH   7  10
HETATM   10  C   UNL     1     -10.620  13.025  66.976  1.00  0.00    -0.257 A  
HETATM   11  C   UNL     1     -11.950  13.074  66.602  1.00  0.00    -0.453 A  
HETATM   12  C   UNL     1     -12.201  14.383  66.128  1.00  0.00    -0.358 A  
HETATM   13  C   UNL     1     -11.014  15.076  66.240  1.00  0.00    -0.338 A  
HETATM   14  O   UNL     1     -10.048  14.252  66.761  1.00  0.00    -0.255 OA 
BRANCH  13  15
HETATM   15  C   UNL     1     -10.656  16.428  65.902  1.00  0.00    -0.285 C  
BRANCH  15  16
HETATM   16  N   UNL     1     -10.839  17.401  66.744  1.00  0.00    -0.073 NA 
HETATM   17  H   UNL     1     -11.759  17.589  67.142  1.00  0.00     0.000 HD 
BRANCH  16  18
HETATM   18  N   UNL     1      -9.749  18.165  67.077  1.00  0.00    -0.295 N  
HETATM   19  C   UNL     1      -9.030  17.920  68.308  1.00  0.00    -0.275 C  
HETATM   20  C   UNL     1      -8.189  19.180  68.391  1.00  0.00    -0.349 C  
HETATM   21  N   UNL     1      -8.433  19.957  67.307  1.00  0.00    -0.312 NA 
HETATM   22  O   UNL     1      -7.422  19.470  69.299  1.00  0.00    -0.351 OA 
HETATM   23  C   UNL     1      -9.427  19.429  66.549  1.00  0.00    -0.364 C  
HETATM   24  O   UNL     1      -9.948  20.005  65.606  1.00  0.00    -0.368 OA 
ENDBRANCH  16  18
ENDBRANCH  15  16
ENDBRANCH  13  15
ENDBRANCH   7  10
TORSDOF 4
ENDMDL
MODEL      198
REMARK 921   NORMALIZED FREE ENERGY PREDICTED BY IDOCK:   -4.45 KCAL/MOL
REMARK 922        TOTAL FREE ENERGY PREDICTED BY IDOCK:   -6.05 KCAL/MOL
REMARK 923 INTER-LIGAND FREE ENERGY PREDICTED BY IDOCK:   -5.57 KCAL/MOL
REMARK 924 INTRA-LIGAND FREE ENERGY PREDICTED BY IDOCK:   -0.47 KCAL/MOL
REMARK 927      BINDING AFFINITY PREDICTED BY RF-SCORE:    0.00 PKD
ROOT
HETATM    1  O   UNL     1      -6.801  19.452  66.542  1.00  0.00    -0.189 OA 
HETATM    2  N   UNL     1      -8.022  19.440  66.742  1.00  0.00    -0.261 N  
HETATM    3  O   UNL     1      -8.712  20.449  66.938  1.00  0.00    -0.311 OA 
HETATM    4  C   UNL     1      -8.701  18.137  66.749  1.00  0.00    -0.263 A  
HETATM    5  C   UNL     1      -7.958  16.974  66.534  1.00  0.00    -0.330 A  
HETATM    6  C   UNL     1      -8.607  15.735  66.512  1.00  0.00    -0.343 A  
HETATM    7  C   UNL     1      -9.998  15.630  66.695  1.00  0.00    -0.269 A  
HETATM    8  C   UNL     1     -10.725  16.810  66.928  1.00  0.00    -0.139 A  
HETATM    9  C   UNL     1     -10.084  18.060  66.954  1.00  0.00    -0.350 A  
ENDROOT
BRANCH   7  10
HETATM   10  C   UNL     1     -10.637  14.312  66.614  1.00  0.00    -0.278 A  
HETATM   11  C   UNL     1     -11.492  13.729  65.697  1.00  0.00    -0.318 A  
HETATM   12  C   UNL     1     -11.807  12.439  66.184  1.00  0.00    -0.442 A  
HETATM   13  C   UNL     1     -11.124  12.290  67.373  1.00  0.00    -0.282 A  
HETATM   14  O   UNL     1     -10.406  13.430  67.637  1.00  0.00    -0.233 OA 
BRANCH  13  15
HETATM   15  C   UNL     1     -11.069  11.208  68.320  1.00  0.00    -0.251 C  
BRANCH  15  16
HETATM   16  N   UNL     1      -9.932  10.774  68.777  1.00  0.00    -0.186 NA 
HETATM   17  H   UNL     1      -9.161  11.414  68.970  1.00  0.00     0.000 HD 
BRANCH  16  18
HETATM   18  N   UNL     1      -9.808   9.425  68.991  1.00  0.00    -0.164 N  
HETATM   19  C   UNL     1     -10.721   8.735  69.876  1.00  0.00    -0.223 C  
HETATM   20  C   UNL     1      -9.990   7.417  70.053  1.00  0.00    -0.185 C  
HETATM   21  N   UNL     1      -8.853   7.430  69.313  1.00  0.00    -0.137 NA 
HETATM   22  O   UNL     1     -10.350   6.489  70.764  1.00  0.00    -0.198 OA 
HETATM   23  C   UNL     1      -8.663   8.646  68.740  1.00  0.00    -0.135 C  
HETATM   24  O   UNL     1      -7.642   8.974  68.155  1.00  0.00    -0.090 OA 
ENDBRANCH  16  18
ENDBRANCH  15  16
ENDBRANCH  13  15
ENDBRANCH   7  10
TORSDOF 4
ENDMDL
MODEL      199
REMARK 921   NORMALIZED FREE ENERGY PREDICTED BY IDOCK:   -4.43 KCAL/MOL
REMARK 922        TOTAL FREE ENERGY PREDICTED BY IDOCK:   -6.02 KCAL/MOL
REMARK 923 INTER-LIGAND FREE ENERGY PREDICTED BY IDOCK:   -5.55 KCAL/MOL
REMARK 924 INTRA-LIGAND FREE ENERGY PREDICTED BY IDOCK:   -0.47 KCAL/MOL
REMARK 927      BINDING AFFINITY PREDICTED BY RF-SCORE:    0.00 PKD
ROOT
HETATM    1  O   UNL     1     -11.105   7.017  73.670  1.00  0.00    -0.174 OA 
HETATM    2  N   UNL     1     -10.580   6.554  72.649  1.00  0.00    -0.212 N  
HETATM    3  O   UNL     1     -10.384   5.349  72.443  1.00  0.00    -0.195 OA 
HETATM    4  C   UNL     1     -10.160   7.502  71.607  1.00  0.00    -0.180 A  
HETATM    5  C   UNL     1     -10.361   8.870  71.802  1.00  0.00    -0.426 A  
HETATM    6  C   UNL     1      -9.988   9.771  70.799  1.00  0.00    -0.151 A  
HETATM    7  C   UNL     1      -9.417   9.333  69.590  1.00  0.00    -0.188 A  
HETATM    8  C   UNL     1      -9.205   7.953  69.422  1.00  0.00    -0.145 A  
HETATM    9  C   UNL     1      -9.575   7.038  70.423  1.00  0.00    -0.169 A  
ENDROOT
BRANCH   7  10
HETATM   10  C   UNL     1      -9.088  10.314  68.552  1.00  0.00    -0.138 A  
HETATM   11  C   UNL     1      -8.467  10.217  67.320  1.00  0.00    -0.125 A  
HETATM   12  C   UNL     1      -8.395  11.524  66.786  1.00  0.00    -0.165 A  
HETATM   13  C   UNL     1      -8.980  12.361  67.714  1.00  0.00    -0.182 A  
HETATM   14  O   UNL     1      -9.408  11.625  68.790  1.00  0.00    -0.152 OA 
BRANCH  13  15
HETATM   15  C   UNL     1      -9.180  13.786  67.731  1.00  0.00    -0.206 C  
BRANCH  15  16
HETATM   16  N   UNL     1      -8.393  14.581  67.070  1.00  0.00    -0.323 NA 
HETATM   17  H   UNL     1      -7.434  14.313  66.849  1.00  0.00     0.000 HD 
BRANCH  16  18
HETATM   18  N   UNL     1      -8.901  15.795  66.681  1.00  0.00    -0.260 N  
HETATM   19  C   UNL     1     -10.216  15.883  66.082  1.00  0.00    -0.324 C  
HETATM   20  C   UNL     1     -10.172  17.294  65.529  1.00  0.00    -0.022 C  
HETATM   21  N   UNL     1      -8.983  17.865  65.842  1.00  0.00    -0.500 NA 
HETATM   22  O   UNL     1     -11.058  17.836  64.882  1.00  0.00    -0.821 OA 
HETATM   23  C   UNL     1      -8.162  16.969  66.448  1.00  0.00    -0.291 C  
HETATM   24  O   UNL     1      -6.983  17.177  66.691  1.00  0.00    -0.199 OA 
ENDBRANCH  16  18
ENDBRANCH  15  16
ENDBRANCH  13  15
ENDBRANCH   7  10
TORSDOF 4
ENDMDL
MODEL      200
REMARK 921   NORMALIZED FREE ENERGY PREDICTED BY IDOCK:   -4.41 KCAL/MOL
REMARK 922        TOTAL FREE ENERGY PREDICTED BY IDOCK:   -6.00 KCAL/MOL
REMARK 923 INTER-LIGAND FREE ENERGY PREDICTED BY IDOCK:   -5.72 KCAL/MOL
REMARK 924 INTRA-LIGAND FREE ENERGY PREDICTED BY IDOCK:   -0.28 KCAL/MOL
REMARK 927      BINDING AFFINITY PREDICTED BY RF-SCORE:    0.00 PKD
ROOT
HETATM    1  O   UNL     1      -5.207  14.730  70.956  1.00  0.00    -0.123 OA 
HETATM    2  N   UNL     1      -5.797  13.880  70.276  1.00  0.00    -0.137 N  
HETATM    3  O   UNL     1      -5.637  12.657  70.384  1.00  0.00    -0.138 OA 
HETATM    4  C   UNL     1      -6.755  14.357  69.269  1.00  0.00    -0.126 A  
HETATM    5  C   UNL     1      -6.963  15.730  69.114  1.00  0.00    -0.174 A  
HETATM    6  C   UNL     1      -7.896  16.184  68.176  1.00  0.00    -0.147 A  
HETATM    7  C   UNL     1      -8.639  15.289  67.383  1.00  0.00    -0.197 A  
HETATM    8  C   UNL     1      -8.401  13.913  67.542  1.00  0.00    -0.202 A  
HETATM    9  C   UNL     1      -7.466  13.444  68.480  1.00  0.00    -0.118 A  
ENDROOT
BRANCH   7  10
HETATM   10  C   UNL     1      -9.639  15.815  66.449  1.00  0.00    -0.285 A  
HETATM   11  C   UNL     1     -10.176  17.072  66.246  1.00  0.00    -0.336 A  
HETATM   12  C   UNL     1     -11.141  16.952  65.219  1.00  0.00     0.050 A  
HETATM   13  C   UNL     1     -11.145  15.627  64.837  1.00  0.00    -0.402 A  
HETATM   14  O   UNL     1     -10.226  14.931  65.582  1.00  0.00    -0.310 OA 
BRANCH  13  15
HETATM   15  C   UNL     1     -11.921  14.911  63.859  1.00  0.00     0.091 C  
BRANCH  15  16
HETATM   16  N   UNL     1     -12.409  13.735  64.120  1.00  0.00    -0.659 NA 
HETATM   17  H   UNL     1     -13.413  13.559  64.082  1.00  0.00     0.000 HD 
BRANCH  16  18
HETATM   18  N   UNL     1     -11.523  12.740  64.450  1.00  0.00    -0.333 N  
HETATM   19  C   UNL     1     -10.798  12.032  63.416  1.00  0.00    -0.405 C  
HETATM   20  C   UNL     1     -10.259  10.860  64.214  1.00  0.00    -0.364 C  
HETATM   21  N   UNL     1     -10.641  10.982  65.509  1.00  0.00    -0.234 NA 
HETATM   22  O   UNL     1      -9.597   9.934  63.765  1.00  0.00    -0.237 OA 
HETATM   23  C   UNL     1     -11.475  12.041  65.669  1.00  0.00    -0.316 C  
HETATM   24  O   UNL     1     -12.087  12.280  66.699  1.00  0.00    -0.612 OA 
ENDBRANCH  16  18
ENDBRANCH  15  16
ENDBRANCH  13  15
ENDBRANCH   7  10
TORSDOF 4
ENDMDL
MODEL      201
REMARK 921   NORMALIZED FREE ENERGY PREDICTED BY IDOCK:   -4.40 KCAL/MOL
REMARK 922        TOTAL FREE ENERGY PREDICTED BY IDOCK:   -5.98 KCAL/MOL
REMARK 923 INTER-LIGAND FREE ENERGY PREDICTED BY IDOCK:   -5.40 KCAL/MOL
REMARK 924 INTRA-LIGAND FREE ENERGY PREDICTED BY IDOCK:   -0.58 KCAL/MOL
REMARK 927      BINDING AFFINITY PREDICTED BY RF-SCORE:    0.00 PKD
ROOT
HETATM    1  O   UNL     1     -12.889  14.586  64.586  1.00  0.00    -0.614 OA 
HETATM    2  N   UNL     1     -12.317  13.921  65.459  1.00  0.00    -0.451 N  
HETATM    3  O   UNL     1     -12.429  14.114  66.677  1.00  0.00    -0.426 OA 
HETATM    4  C   UNL     1     -11.444  12.823  65.019  1.00  0.00    -0.321 A  
HETATM    5  C   UNL     1     -11.289  12.573  63.654  1.00  0.00    -0.555 A  
HETATM    6  C   UNL     1     -10.481  11.511  63.235  1.00  0.00    -0.421 A  
HETATM    7  C   UNL     1      -9.821  10.680  64.158  1.00  0.00    -0.396 A  
HETATM    8  C   UNL     1      -9.974  10.960  65.526  1.00  0.00    -0.315 A  
HETATM    9  C   UNL     1     -10.783  12.024  65.960  1.00  0.00    -0.317 A  
ENDROOT
BRANCH   7  10
HETATM   10  C   UNL     1      -9.024   9.551  63.668  1.00  0.00    -0.173 A  
HETATM   11  C   UNL     1      -8.710   9.092  62.402  1.00  0.00    -0.210 A  
HETATM   12  C   UNL     1      -7.933   7.921  62.564  1.00  0.00    -0.149 A  
HETATM   13  C   UNL     1      -7.801   7.722  63.923  1.00  0.00    -0.126 A  
HETATM   14  O   UNL     1      -8.462   8.717  64.599  1.00  0.00    -0.171 OA 
BRANCH  13  15
HETATM   15  C   UNL     1      -7.141   6.695  64.683  1.00  0.00    -0.057 C  
BRANCH  15  16
HETATM   16  N   UNL     1      -7.811   5.715  65.212  1.00  0.00    -0.095 NA 
HETATM   17  H   UNL     1      -7.767   5.524  66.213  1.00  0.00     0.000 HD 
BRANCH  16  18
HETATM   18  N   UNL     1      -8.581   4.948  64.374  1.00  0.00    -0.140 N  
HETATM   19  C   UNL     1      -9.984   4.737  64.655  1.00  0.00     0.228 C  
HETATM   20  C   UNL     1     -10.287   3.597  63.701  1.00  0.00    -0.241 C  
HETATM   21  N   UNL     1      -9.170   3.291  62.996  1.00  0.00    -0.091 NA 
HETATM   22  O   UNL     1     -11.362   3.023  63.591  1.00  0.00    -0.225 OA 
HETATM   23  C   UNL     1      -8.108   4.012  63.436  1.00  0.00    -0.089 C  
HETATM   24  O   UNL     1      -6.955   3.818  63.082  1.00  0.00    -0.041 OA 
ENDBRANCH  16  18
ENDBRANCH  15  16
ENDBRANCH  13  15
ENDBRANCH   7  10
TORSDOF 4
ENDMDL
MODEL      202
REMARK 921   NORMALIZED FREE ENERGY PREDICTED BY IDOCK:   -4.36 KCAL/MOL
REMARK 922        TOTAL FREE ENERGY PREDICTED BY IDOCK:   -5.94 KCAL/MOL
REMARK 923 INTER-LIGAND FREE ENERGY PREDICTED BY IDOCK:   -5.41 KCAL/MOL
REMARK 924 INTRA-LIGAND FREE ENERGY PREDICTED BY IDOCK:   -0.53 KCAL/MOL
REMARK 927      BINDING AFFINITY PREDICTED BY RF-SCORE:    0.00 PKD
ROOT
HETATM    1  O   UNL     1     -13.965  14.554  72.181  1.00  0.00    -0.419 OA 
HETATM    2  N   UNL     1     -13.226  14.253  71.235  1.00  0.00    -0.346 N  
HETATM    3  O   UNL     1     -12.782  15.057  70.405  1.00  0.00    -0.351 OA 
HETATM    4  C   UNL     1     -12.848  12.840  71.087  1.00  0.00    -0.226 A  
HETATM    5  C   UNL     1     -13.329  11.901  72.002  1.00  0.00    -0.425 A  
HETATM    6  C   UNL     1     -12.947  10.561  71.879  1.00  0.00    -0.553 A  
HETATM    7  C   UNL     1     -12.081  10.133  70.856  1.00  0.00    -0.453 A  
HETATM    8  C   UNL     1     -11.623  11.090  69.935  1.00  0.00    -0.416 A  
HETATM    9  C   UNL     1     -12.001  12.440  70.047  1.00  0.00    -0.372 A  
ENDROOT
BRANCH   7  10
HETATM   10  C   UNL     1     -11.673   8.726  70.800  1.00  0.00    -0.219 A  
HETATM   11  C   UNL     1     -12.108   7.587  71.453  1.00  0.00    -0.354 A  
HETATM   12  C   UNL     1     -11.294   6.518  71.012  1.00  0.00    -0.378 A  
HETATM   13  C   UNL     1     -10.402   7.051  70.105  1.00  0.00    -0.197 A  
HETATM   14  O   UNL     1     -10.634   8.397  69.970  1.00  0.00    -0.227 OA 
BRANCH  13  15
HETATM   15  C   UNL     1      -9.333   6.458  69.347  1.00  0.00    -0.141 C  
BRANCH  15  16
HETATM   16  N   UNL     1      -8.095   6.790  69.560  1.00  0.00    -0.124 NA 
HETATM   17  H   UNL     1      -7.787   7.760  69.485  1.00  0.00     0.000 HD 
BRANCH  16  18
HETATM   18  N   UNL     1      -7.216   5.789  69.889  1.00  0.00    -0.067 N  
HETATM   19  C   UNL     1      -7.703   4.526  70.403  1.00  0.00    -0.053 C  
HETATM   20  C   UNL     1      -6.412   3.927  70.927  1.00  0.00    -0.026 C  
HETATM   21  N   UNL     1      -5.386   4.777  70.675  1.00  0.00    -0.003 NA 
HETATM   22  O   UNL     1      -6.304   2.854  71.505  1.00  0.00    -0.017 OA 
HETATM   23  C   UNL     1      -5.841   5.939  70.142  1.00  0.00    -0.024 C  
HETATM   24  O   UNL     1      -5.148   6.930  69.969  1.00  0.00    -0.014 OA 
ENDBRANCH  16  18
ENDBRANCH  15  16
ENDBRANCH  13  15
ENDBRANCH   7  10
TORSDOF 4
ENDMDL
MODEL      203
REMARK 921   NORMALIZED FREE ENERGY PREDICTED BY IDOCK:   -4.36 KCAL/MOL
REMARK 922        TOTAL FREE ENERGY PREDICTED BY IDOCK:   -5.93 KCAL/MOL
REMARK 923 INTER-LIGAND FREE ENERGY PREDICTED BY IDOCK:   -5.42 KCAL/MOL
REMARK 924 INTRA-LIGAND FREE ENERGY PREDICTED BY IDOCK:   -0.51 KCAL/MOL
REMARK 927      BINDING AFFINITY PREDICTED BY RF-SCORE:    0.00 PKD
ROOT
HETATM    1  O   UNL     1     -13.359  14.221  73.062  1.00  0.00    -0.618 OA 
HETATM    2  N   UNL     1     -12.823  14.670  72.041  1.00  0.00    -0.317 N  
HETATM    3  O   UNL     1     -12.682  15.874  71.792  1.00  0.00    -0.447 OA 
HETATM    4  C   UNL     1     -12.319  13.705  71.054  1.00  0.00    -0.354 A  
HETATM    5  C   UNL     1     -12.461  12.337  71.296  1.00  0.00    -0.281 A  
HETATM    6  C   UNL     1     -11.956  11.417  70.371  1.00  0.00    -0.465 A  
HETATM    7  C   UNL     1     -11.300  11.836  69.199  1.00  0.00    -0.340 A  
HETATM    8  C   UNL     1     -11.184  13.217  68.965  1.00  0.00    -0.320 A  
HETATM    9  C   UNL     1     -11.688  14.151  69.886  1.00  0.00    -0.372 A  
ENDROOT
BRANCH   7  10
HETATM   10  C   UNL     1     -10.746  10.832  68.286  1.00  0.00    -0.213 A  
HETATM   11  C   UNL     1     -11.140  10.358  67.048  1.00  0.00    -0.141 A  
HETATM   12  C   UNL     1     -10.221   9.349  66.677  1.00  0.00    -0.319 A  
HETATM   13  C   UNL     1      -9.303   9.256  67.702  1.00  0.00    -0.128 A  
HETATM   14  O   UNL     1      -9.618  10.162  68.684  1.00  0.00    -0.153 OA 
BRANCH  13  15
HETATM   15  C   UNL     1      -8.160   8.404  67.894  1.00  0.00    -0.123 C  
BRANCH  15  16
HETATM   16  N   UNL     1      -8.262   7.281  68.541  1.00  0.00    -0.124 NA 
HETATM   17  H   UNL     1      -8.312   7.260  69.559  1.00  0.00     0.000 HD 
BRANCH  16  18
HETATM   18  N   UNL     1      -8.298   6.125  67.803  1.00  0.00    -0.116 N  
HETATM   19  C   UNL     1      -9.474   5.282  67.818  1.00  0.00    -0.124 C  
HETATM   20  C   UNL     1      -8.919   4.024  67.177  1.00  0.00    -0.133 C  
HETATM   21  N   UNL     1      -7.619   4.223  66.846  1.00  0.00    -0.081 NA 
HETATM   22  O   UNL     1      -9.533   2.981  67.000  1.00  0.00    -0.163 OA 
HETATM   23  C   UNL     1      -7.188   5.431  67.289  1.00  0.00    -0.075 C  
HETATM   24  O   UNL     1      -6.021   5.793  67.262  1.00  0.00    -0.017 OA 
ENDBRANCH  16  18
ENDBRANCH  15  16
ENDBRANCH  13  15
ENDBRANCH   7  10
TORSDOF 4
ENDMDL
MODEL      204
REMARK 921   NORMALIZED FREE ENERGY PREDICTED BY IDOCK:   -4.35 KCAL/MOL
REMARK 922        TOTAL FREE ENERGY PREDICTED BY IDOCK:   -5.93 KCAL/MOL
REMARK 923 INTER-LIGAND FREE ENERGY PREDICTED BY IDOCK:   -5.79 KCAL/MOL
REMARK 924 INTRA-LIGAND FREE ENERGY PREDICTED BY IDOCK:   -0.14 KCAL/MOL
REMARK 927      BINDING AFFINITY PREDICTED BY RF-SCORE:    0.00 PKD
ROOT
HETATM    1  O   UNL     1     -13.032  15.151  71.147  1.00  0.00    -0.354 OA 
HETATM    2  N   UNL     1     -12.455  14.413  70.339  1.00  0.00    -0.342 N  
HETATM    3  O   UNL     1     -11.887  14.803  69.310  1.00  0.00    -0.296 OA 
HETATM    4  C   UNL     1     -12.442  12.970  70.620  1.00  0.00    -0.268 A  
HETATM    5  C   UNL     1     -13.073  12.489  71.770  1.00  0.00    -0.450 A  
HETATM    6  C   UNL     1     -13.037  11.120  72.054  1.00  0.00    -0.433 A  
HETATM    7  C   UNL     1     -12.373  10.210  71.211  1.00  0.00    -0.501 A  
HETATM    8  C   UNL     1     -11.761  10.712  70.049  1.00  0.00    -0.405 A  
HETATM    9  C   UNL     1     -11.791  12.086  69.753  1.00  0.00    -0.401 A  
ENDROOT
BRANCH   7  10
HETATM   10  C   UNL     1     -12.324   8.792  71.579  1.00  0.00    -0.328 A  
HETATM   11  C   UNL     1     -13.221   7.748  71.449  1.00  0.00    -0.310 A  
HETATM   12  C   UNL     1     -12.622   6.609  72.034  1.00  0.00    -0.251 A  
HETATM   13  C   UNL     1     -11.382   7.006  72.489  1.00  0.00    -0.263 A  
HETATM   14  O   UNL     1     -11.195   8.337  72.209  1.00  0.00    -0.321 OA 
BRANCH  13  15
HETATM   15  C   UNL     1     -10.338   6.296  73.179  1.00  0.00    -0.222 C  
BRANCH  15  16
HETATM   16  N   UNL     1      -9.697   5.322  72.605  1.00  0.00    -0.150 NA 
HETATM   17  H   UNL     1     -10.061   4.369  72.617  1.00  0.00     0.000 HD 
BRANCH  16  18
HETATM   18  N   UNL     1      -8.512   5.623  71.982  1.00  0.00    -0.126 N  
HETATM   19  C   UNL     1      -7.857   4.645  71.141  1.00  0.00    -0.082 C  
HETATM   20  C   UNL     1      -6.490   5.285  70.989  1.00  0.00    -0.034 C  
HETATM   21  N   UNL     1      -6.471   6.468  71.651  1.00  0.00    -0.049 NA 
HETATM   22  O   UNL     1      -5.540   4.809  70.383  1.00  0.00    -0.014 OA 
HETATM   23  C   UNL     1      -7.628   6.659  72.333  1.00  0.00    -0.094 C  
HETATM   24  O   UNL     1      -7.809   7.564  73.134  1.00  0.00    -0.092 OA 
ENDBRANCH  16  18
ENDBRANCH  15  16
ENDBRANCH  13  15
ENDBRANCH   7  10
TORSDOF 4
ENDMDL
MODEL      205
REMARK 921   NORMALIZED FREE ENERGY PREDICTED BY IDOCK:   -4.34 KCAL/MOL
REMARK 922        TOTAL FREE ENERGY PREDICTED BY IDOCK:   -5.91 KCAL/MOL
REMARK 923 INTER-LIGAND FREE ENERGY PREDICTED BY IDOCK:   -5.33 KCAL/MOL
REMARK 924 INTRA-LIGAND FREE ENERGY PREDICTED BY IDOCK:   -0.58 KCAL/MOL
REMARK 927      BINDING AFFINITY PREDICTED BY RF-SCORE:    0.00 PKD
ROOT
HETATM    1  O   UNL     1     -11.046  18.071  64.866  1.00  0.00    -0.738 OA 
HETATM    2  N   UNL     1     -10.488  17.909  65.959  1.00  0.00    -0.357 N  
HETATM    3  O   UNL     1      -9.872  18.791  66.573  1.00  0.00    -0.331 OA 
HETATM    4  C   UNL     1     -10.561  16.575  66.571  1.00  0.00    -0.217 A  
HETATM    5  C   UNL     1     -11.244  15.552  65.910  1.00  0.00    -0.120 A  
HETATM    6  C   UNL     1     -11.339  14.290  66.505  1.00  0.00    -0.351 A  
HETATM    7  C   UNL     1     -10.765  14.023  67.762  1.00  0.00    -0.248 A  
HETATM    8  C   UNL     1     -10.066  15.061  68.402  1.00  0.00    -0.225 A  
HETATM    9  C   UNL     1      -9.963  16.333  67.814  1.00  0.00    -0.246 A  
ENDROOT
BRANCH   7  10
HETATM   10  C   UNL     1     -10.934  12.697  68.364  1.00  0.00    -0.257 A  
HETATM   11  C   UNL     1     -12.004  12.060  68.966  1.00  0.00    -0.321 A  
HETATM   12  C   UNL     1     -11.545  10.793  69.395  1.00  0.00    -0.380 A  
HETATM   13  C   UNL     1     -10.218  10.710  69.030  1.00  0.00    -0.215 A  
HETATM   14  O   UNL     1      -9.843  11.869  68.397  1.00  0.00    -0.198 OA 
BRANCH  13  15
HETATM   15  C   UNL     1      -9.233   9.678  69.214  1.00  0.00    -0.183 C  
BRANCH  15  16
HETATM   16  N   UNL     1      -8.059   9.764  68.663  1.00  0.00    -0.102 NA 
HETATM   17  H   UNL     1      -7.301  10.280  69.110  1.00  0.00     0.000 HD 
BRANCH  16  18
HETATM   18  N   UNL     1      -7.878   9.136  67.456  1.00  0.00    -0.099 N  
HETATM   19  C   UNL     1      -8.159   9.831  66.218  1.00  0.00    -0.113 C  
HETATM   20  C   UNL     1      -8.153   8.669  65.243  1.00  0.00    -0.136 C  
HETATM   21  N   UNL     1      -7.868   7.523  65.910  1.00  0.00    -0.101 NA 
HETATM   22  O   UNL     1      -8.387   8.739  64.045  1.00  0.00    -0.168 OA 
HETATM   23  C   UNL     1      -7.790   7.748  67.246  1.00  0.00    -0.117 C  
HETATM   24  O   UNL     1      -7.701   6.864  68.085  1.00  0.00    -0.108 OA 
ENDBRANCH  16  18
ENDBRANCH  15  16
ENDBRANCH  13  15
ENDBRANCH   7  10
TORSDOF 4
ENDMDL
MODEL      206
REMARK 921   NORMALIZED FREE ENERGY PREDICTED BY IDOCK:   -4.33 KCAL/MOL
REMARK 922        TOTAL FREE ENERGY PREDICTED BY IDOCK:   -5.90 KCAL/MOL
REMARK 923 INTER-LIGAND FREE ENERGY PREDICTED BY IDOCK:   -5.43 KCAL/MOL
REMARK 924 INTRA-LIGAND FREE ENERGY PREDICTED BY IDOCK:   -0.47 KCAL/MOL
REMARK 927      BINDING AFFINITY PREDICTED BY RF-SCORE:    0.00 PKD
ROOT
HETATM    1  O   UNL     1      -5.993   4.547  72.331  1.00  0.00    -0.015 OA 
HETATM    2  N   UNL     1      -7.037   4.283  71.722  1.00  0.00    -0.048 N  
HETATM    3  O   UNL     1      -7.308   3.177  71.235  1.00  0.00    -0.033 OA 
HETATM    4  C   UNL     1      -8.027   5.358  71.566  1.00  0.00    -0.115 A  
HETATM    5  C   UNL     1      -7.760   6.621  72.099  1.00  0.00    -0.096 A  
HETATM    6  C   UNL     1      -8.713   7.637  71.977  1.00  0.00    -0.146 A  
HETATM    7  C   UNL     1      -9.944   7.418  71.331  1.00  0.00    -0.195 A  
HETATM    8  C   UNL     1     -10.186   6.145  70.785  1.00  0.00    -0.249 A  
HETATM    9  C   UNL     1      -9.236   5.117  70.902  1.00  0.00    -0.188 A  
ENDROOT
BRANCH   7  10
HETATM   10  C   UNL     1     -10.929   8.502  71.272  1.00  0.00    -0.256 A  
HETATM   11  C   UNL     1     -11.853   8.993  72.176  1.00  0.00    -0.384 A  
HETATM   12  C   UNL     1     -12.558  10.033  71.527  1.00  0.00    -0.525 A  
HETATM   13  C   UNL     1     -12.029  10.135  70.257  1.00  0.00    -0.233 A  
HETATM   14  O   UNL     1     -11.032   9.205  70.100  1.00  0.00    -0.236 OA 
BRANCH  13  15
HETATM   15  C   UNL     1     -12.352  10.992  69.148  1.00  0.00    -0.009 C  
BRANCH  15  16
HETATM   16  N   UNL     1     -11.419  11.496  68.396  1.00  0.00    -0.270 NA 
HETATM   17  H   UNL     1     -10.454  11.176  68.466  1.00  0.00     0.000 HD 
BRANCH  16  18
HETATM   18  N   UNL     1     -11.783  12.475  67.506  1.00  0.00    -0.375 N  
HETATM   19  C   UNL     1     -11.871  12.184  66.091  1.00  0.00    -0.254 C  
HETATM   20  C   UNL     1     -11.946  13.589  65.525  1.00  0.00    -0.390 C  
HETATM   21  N   UNL     1     -11.930  14.486  66.543  1.00  0.00    -0.378 NA 
HETATM   22  O   UNL     1     -11.994  13.881  64.338  1.00  0.00    -0.412 OA 
HETATM   23  C   UNL     1     -11.739  13.863  67.733  1.00  0.00    -0.366 C  
HETATM   24  O   UNL     1     -11.527  14.447  68.785  1.00  0.00    -0.257 OA 
ENDBRANCH  16  18
ENDBRANCH  15  16
ENDBRANCH  13  15
ENDBRANCH   7  10
TORSDOF 4
ENDMDL
MODEL      207
REMARK 921   NORMALIZED FREE ENERGY PREDICTED BY IDOCK:   -4.32 KCAL/MOL
REMARK 922        TOTAL FREE ENERGY PREDICTED BY IDOCK:   -5.89 KCAL/MOL
REMARK 923 INTER-LIGAND FREE ENERGY PREDICTED BY IDOCK:   -5.30 KCAL/MOL
REMARK 924 INTRA-LIGAND FREE ENERGY PREDICTED BY IDOCK:   -0.59 KCAL/MOL
REMARK 927      BINDING AFFINITY PREDICTED BY RF-SCORE:    0.00 PKD
ROOT
HETATM    1  O   UNL     1      -8.247   4.853  66.386  1.00  0.00    -0.107 OA 
HETATM    2  N   UNL     1      -7.665   5.767  66.984  1.00  0.00    -0.100 N  
HETATM    3  O   UNL     1      -6.547   5.668  67.505  1.00  0.00    -0.049 OA 
HETATM    4  C   UNL     1      -8.352   7.063  67.084  1.00  0.00    -0.121 A  
HETATM    5  C   UNL     1      -9.617   7.216  66.511  1.00  0.00    -0.203 A  
HETATM    6  C   UNL     1     -10.258   8.457  66.580  1.00  0.00    -0.335 A  
HETATM    7  C   UNL     1      -9.658   9.563  67.210  1.00  0.00    -0.192 A  
HETATM    8  C   UNL     1      -8.393   9.383  67.796  1.00  0.00    -0.115 A  
HETATM    9  C   UNL     1      -7.738   8.140  67.734  1.00  0.00    -0.110 A  
ENDROOT
BRANCH   7  10
HETATM   10  C   UNL     1     -10.352  10.854  67.213  1.00  0.00    -0.216 A  
HETATM   11  C   UNL     1     -10.685  11.752  66.215  1.00  0.00    -0.312 A  
HETATM   12  C   UNL     1     -11.318  12.852  66.840  1.00  0.00    -0.358 A  
HETATM   13  C   UNL     1     -11.349  12.573  68.191  1.00  0.00    -0.295 A  
HETATM   14  O   UNL     1     -10.764  11.353  68.421  1.00  0.00    -0.183 OA 
BRANCH  13  15
HETATM   15  C   UNL     1     -11.848  13.319  69.315  1.00  0.00    -0.331 C  
BRANCH  15  16
HETATM   16  N   UNL     1     -11.083  14.145  69.964  1.00  0.00    -0.471 NA 
HETATM   17  H   UNL     1     -10.891  14.017  70.958  1.00  0.00     0.000 HD 
BRANCH  16  18
HETATM   18  N   UNL     1     -10.544  15.195  69.264  1.00  0.00    -0.243 N  
HETATM   19  C   UNL     1     -11.402  16.140  68.583  1.00  0.00    -0.365 C  
HETATM   20  C   UNL     1     -10.387  16.852  67.709  1.00  0.00    -0.327 C  
HETATM   21  N   UNL     1      -9.152  16.345  67.948  1.00  0.00    -0.200 NA 
HETATM   22  O   UNL     1     -10.635  17.734  66.899  1.00  0.00    -0.323 OA 
HETATM   23  C   UNL     1      -9.219  15.291  68.800  1.00  0.00    -0.203 C  
HETATM   24  O   UNL     1      -8.276  14.558  69.056  1.00  0.00    -0.145 OA 
ENDBRANCH  16  18
ENDBRANCH  15  16
ENDBRANCH  13  15
ENDBRANCH   7  10
TORSDOF 4
ENDMDL
MODEL      208
REMARK 921   NORMALIZED FREE ENERGY PREDICTED BY IDOCK:   -4.32 KCAL/MOL
REMARK 922        TOTAL FREE ENERGY PREDICTED BY IDOCK:   -5.88 KCAL/MOL
REMARK 923 INTER-LIGAND FREE ENERGY PREDICTED BY IDOCK:   -5.21 KCAL/MOL
REMARK 924 INTRA-LIGAND FREE ENERGY PREDICTED BY IDOCK:   -0.67 KCAL/MOL
REMARK 927      BINDING AFFINITY PREDICTED BY RF-SCORE:    0.00 PKD
ROOT
HETATM    1  O   UNL     1      -9.885  11.514  62.832  1.00  0.00    -0.358 OA 
HETATM    2  N   UNL     1     -10.496  11.441  63.906  1.00  0.00    -0.353 N  
HETATM    3  O   UNL     1     -11.607  11.944  64.120  1.00  0.00    -0.358 OA 
HETATM    4  C   UNL     1      -9.858  10.704  65.006  1.00  0.00    -0.293 A  
HETATM    5  C   UNL     1      -8.604  10.123  64.807  1.00  0.00    -0.191 A  
HETATM    6  C   UNL     1      -8.008   9.397  65.844  1.00  0.00    -0.106 A  
HETATM    7  C   UNL     1      -8.645   9.232  67.088  1.00  0.00    -0.130 A  
HETATM    8  C   UNL     1      -9.899   9.841  67.274  1.00  0.00    -0.228 A  
HETATM    9  C   UNL     1     -10.507  10.573  66.240  1.00  0.00    -0.250 A  
ENDROOT
BRANCH   7  10
HETATM   10  C   UNL     1      -8.000   8.422  68.125  1.00  0.00    -0.119 A  
HETATM   11  C   UNL     1      -6.932   7.543  68.113  1.00  0.00    -0.072 A  
HETATM   12  C   UNL     1      -6.803   7.027  69.423  1.00  0.00    -0.054 A  
HETATM   13  C   UNL     1      -7.794   7.619  70.179  1.00  0.00    -0.097 A  
HETATM   14  O   UNL     1      -8.523   8.473  69.391  1.00  0.00    -0.123 OA 
BRANCH  13  15
HETATM   15  C   UNL     1      -8.164   7.473  71.562  1.00  0.00    -0.103 C  
BRANCH  15  16
HETATM   16  N   UNL     1      -9.187   6.752  71.910  1.00  0.00    -0.143 NA 
HETATM   17  H   UNL     1      -9.067   5.865  72.400  1.00  0.00     0.000 HD 
BRANCH  16  18
HETATM   18  N   UNL     1     -10.435   7.226  71.593  1.00  0.00    -0.199 N  
HETATM   19  C   UNL     1     -11.111   8.157  72.471  1.00  0.00    -0.377 C  
HETATM   20  C   UNL     1     -12.516   8.100  71.903  1.00  0.00    -0.332 C  
HETATM   21  N   UNL     1     -12.538   7.261  70.838  1.00  0.00    -0.252 NA 
HETATM   22  O   UNL     1     -13.489   8.698  72.341  1.00  0.00    -0.369 OA 
HETATM   23  C   UNL     1     -11.337   6.649  70.680  1.00  0.00    -0.347 C  
HETATM   24  O   UNL     1     -11.133   5.733  69.898  1.00  0.00    -0.360 OA 
ENDBRANCH  16  18
ENDBRANCH  15  16
ENDBRANCH  13  15
ENDBRANCH   7  10
TORSDOF 4
ENDMDL
MODEL      209
REMARK 921   NORMALIZED FREE ENERGY PREDICTED BY IDOCK:   -4.31 KCAL/MOL
REMARK 922        TOTAL FREE ENERGY PREDICTED BY IDOCK:   -5.88 KCAL/MOL
REMARK 923 INTER-LIGAND FREE ENERGY PREDICTED BY IDOCK:   -5.25 KCAL/MOL
REMARK 924 INTRA-LIGAND FREE ENERGY PREDICTED BY IDOCK:   -0.62 KCAL/MOL
REMARK 927      BINDING AFFINITY PREDICTED BY RF-SCORE:    0.00 PKD
ROOT
HETATM    1  O   UNL     1      -7.660   3.000  64.670  1.00  0.00    -0.074 OA 
HETATM    2  N   UNL     1      -8.810   3.239  65.060  1.00  0.00    -0.122 N  
HETATM    3  O   UNL     1      -9.805   2.559  64.775  1.00  0.00    -0.046 OA 
HETATM    4  C   UNL     1      -9.009   4.412  65.923  1.00  0.00    -0.124 A  
HETATM    5  C   UNL     1      -7.913   5.206  66.267  1.00  0.00    -0.104 A  
HETATM    6  C   UNL     1      -8.096   6.306  67.111  1.00  0.00    -0.109 A  
HETATM    7  C   UNL     1      -9.362   6.632  67.631  1.00  0.00    -0.119 A  
HETATM    8  C   UNL     1     -10.456   5.831  67.258  1.00  0.00    -0.330 A  
HETATM    9  C   UNL     1     -10.284   4.724  66.409  1.00  0.00    -0.308 A  
ENDROOT
BRANCH   7  10
HETATM   10  C   UNL     1      -9.493   7.766  68.551  1.00  0.00    -0.148 A  
HETATM   11  C   UNL     1      -8.600   8.713  69.019  1.00  0.00    -0.129 A  
HETATM   12  C   UNL     1      -9.306   9.536  69.927  1.00  0.00    -0.247 A  
HETATM   13  C   UNL     1     -10.599   9.060  69.966  1.00  0.00    -0.228 A  
HETATM   14  O   UNL     1     -10.718   7.983  69.125  1.00  0.00    -0.199 OA 
BRANCH  13  15
HETATM   15  C   UNL     1     -11.755   9.479  70.715  1.00  0.00    -0.298 C  
BRANCH  15  16
HETATM   16  N   UNL     1     -12.640  10.275  70.193  1.00  0.00    -0.539 NA 
HETATM   17  H   UNL     1     -13.505   9.914  69.793  1.00  0.00     0.000 HD 
BRANCH  16  18
HETATM   18  N   UNL     1     -12.366  11.620  70.202  1.00  0.00    -0.252 N  
HETATM   19  C   UNL     1     -12.696  12.428  71.356  1.00  0.00    -0.243 C  
HETATM   20  C   UNL     1     -12.543  13.819  70.770  1.00  0.00    -0.340 C  
HETATM   21  N   UNL     1     -12.149  13.722  69.476  1.00  0.00    -0.338 NA 
HETATM   22  O   UNL     1     -12.759  14.870  71.357  1.00  0.00    -0.296 OA 
HETATM   23  C   UNL     1     -12.123  12.426  69.074  1.00  0.00    -0.136 C  
HETATM   24  O   UNL     1     -11.956  12.071  67.917  1.00  0.00    -0.526 OA 
ENDBRANCH  16  18
ENDBRANCH  15  16
ENDBRANCH  13  15
ENDBRANCH   7  10
TORSDOF 4
ENDMDL
MODEL      210
REMARK 921   NORMALIZED FREE ENERGY PREDICTED BY IDOCK:   -4.29 KCAL/MOL
REMARK 922        TOTAL FREE ENERGY PREDICTED BY IDOCK:   -5.85 KCAL/MOL
REMARK 923 INTER-LIGAND FREE ENERGY PREDICTED BY IDOCK:   -5.35 KCAL/MOL
REMARK 924 INTRA-LIGAND FREE ENERGY PREDICTED BY IDOCK:   -0.51 KCAL/MOL
REMARK 927      BINDING AFFINITY PREDICTED BY RF-SCORE:    0.00 PKD
ROOT
HETATM    1  O   UNL     1      -9.451   3.226  67.205  1.00  0.00    -0.200 OA 
HETATM    2  N   UNL     1      -8.687   3.957  67.847  1.00  0.00    -0.098 N  
HETATM    3  O   UNL     1      -7.510   3.681  68.117  1.00  0.00    -0.060 OA 
HETATM    4  C   UNL     1      -9.212   5.244  68.324  1.00  0.00    -0.114 A  
HETATM    5  C   UNL     1     -10.535   5.592  68.043  1.00  0.00    -0.264 A  
HETATM    6  C   UNL     1     -11.028   6.829  68.471  1.00  0.00    -0.258 A  
HETATM    7  C   UNL     1     -10.220   7.739  69.177  1.00  0.00    -0.210 A  
HETATM    8  C   UNL     1      -8.898   7.362  69.466  1.00  0.00    -0.137 A  
HETATM    9  C   UNL     1      -8.391   6.121  69.042  1.00  0.00    -0.112 A  
ENDROOT
BRANCH   7  10
HETATM   10  C   UNL     1     -10.771   9.043  69.561  1.00  0.00    -0.206 A  
HETATM   11  C   UNL     1     -11.209   9.569  70.763  1.00  0.00    -0.383 A  
HETATM   12  C   UNL     1     -11.676  10.877  70.499  1.00  0.00    -0.441 A  
HETATM   13  C   UNL     1     -11.496  11.094  69.149  1.00  0.00    -0.298 A  
HETATM   14  O   UNL     1     -10.940   9.978  68.574  1.00  0.00    -0.232 OA 
BRANCH  13  15
HETATM   15  C   UNL     1     -11.797  12.223  68.308  1.00  0.00    -0.310 C  
BRANCH  15  16
HETATM   16  N   UNL     1     -10.858  12.849  67.665  1.00  0.00    -0.228 NA 
HETATM   17  H   UNL     1     -10.376  12.415  66.878  1.00  0.00     0.000 HD 
BRANCH  16  18
HETATM   18  N   UNL     1     -10.538  14.116  68.085  1.00  0.00    -0.241 N  
HETATM   19  C   UNL     1     -11.460  15.212  67.875  1.00  0.00    -0.332 C  
HETATM   20  C   UNL     1     -10.553  16.393  68.164  1.00  0.00    -0.318 C  
HETATM   21  N   UNL     1      -9.322  15.941  68.512  1.00  0.00    -0.200 NA 
HETATM   22  O   UNL     1     -10.865  17.573  68.081  1.00  0.00    -0.361 OA 
HETATM   23  C   UNL     1      -9.249  14.592  68.385  1.00  0.00    -0.196 C  
HETATM   24  O   UNL     1      -8.214  13.950  68.482  1.00  0.00    -0.146 OA 
ENDBRANCH  16  18
ENDBRANCH  15  16
ENDBRANCH  13  15
ENDBRANCH   7  10
TORSDOF 4
ENDMDL
MODEL      211
REMARK 921   NORMALIZED FREE ENERGY PREDICTED BY IDOCK:   -4.28 KCAL/MOL
REMARK 922        TOTAL FREE ENERGY PREDICTED BY IDOCK:   -5.84 KCAL/MOL
REMARK 923 INTER-LIGAND FREE ENERGY PREDICTED BY IDOCK:   -5.42 KCAL/MOL
REMARK 924 INTRA-LIGAND FREE ENERGY PREDICTED BY IDOCK:   -0.42 KCAL/MOL
REMARK 927      BINDING AFFINITY PREDICTED BY RF-SCORE:    0.00 PKD
ROOT
HETATM    1  O   UNL     1      -8.155   6.035  64.150  1.00  0.00    -0.120 OA 
HETATM    2  N   UNL     1      -7.196   6.761  64.439  1.00  0.00    -0.064 N  
HETATM    3  O   UNL     1      -6.008   6.468  64.249  1.00  0.00    -0.032 OA 
HETATM    4  C   UNL     1      -7.487   8.066  65.050  1.00  0.00    -0.087 A  
HETATM    5  C   UNL     1      -8.814   8.434  65.283  1.00  0.00    -0.113 A  
HETATM    6  C   UNL     1      -9.094   9.687  65.839  1.00  0.00    -0.221 A  
HETATM    7  C   UNL     1      -8.068  10.593  66.166  1.00  0.00    -0.154 A  
HETATM    8  C   UNL     1      -6.739  10.196  65.941  1.00  0.00    -0.107 A  
HETATM    9  C   UNL     1      -6.445   8.939  65.384  1.00  0.00    -0.067 A  
ENDROOT
BRANCH   7  10
HETATM   10  C   UNL     1      -8.417  11.913  66.701  1.00  0.00    -0.143 A  
HETATM   11  C   UNL     1      -7.860  12.715  67.680  1.00  0.00    -0.162 A  
HETATM   12  C   UNL     1      -8.671  13.869  67.783  1.00  0.00    -0.187 A  
HETATM   13  C   UNL     1      -9.683  13.723  66.858  1.00  0.00    -0.265 A  
HETATM   14  O   UNL     1      -9.529  12.532  66.193  1.00  0.00    -0.237 OA 
BRANCH  13  15
HETATM   15  C   UNL     1     -10.804  14.559  66.520  1.00  0.00    -0.314 C  
BRANCH  15  16
HETATM   16  N   UNL     1     -11.072  15.631  67.204  1.00  0.00    -0.270 NA 
HETATM   17  H   UNL     1     -11.785  15.630  67.932  1.00  0.00     0.000 HD 
BRANCH  16  18
HETATM   18  N   UNL     1     -10.358  16.766  66.909  1.00  0.00    -0.299 N  
HETATM   19  C   UNL     1      -9.743  17.541  67.965  1.00  0.00    -0.287 C  
HETATM   20  C   UNL     1      -9.404  18.812  67.211  1.00  0.00    -0.290 C  
HETATM   21  N   UNL     1      -9.776  18.680  65.913  1.00  0.00    -0.479 NA 
HETATM   22  O   UNL     1      -8.893  19.814  67.692  1.00  0.00    -0.314 OA 
HETATM   23  C   UNL     1     -10.433  17.509  65.717  1.00  0.00    -0.207 C  
HETATM   24  O   UNL     1     -11.010  17.214  64.681  1.00  0.00    -1.005 OA 
ENDBRANCH  16  18
ENDBRANCH  15  16
ENDBRANCH  13  15
ENDBRANCH   7  10
TORSDOF 4
ENDMDL
MODEL      212
REMARK 921   NORMALIZED FREE ENERGY PREDICTED BY IDOCK:   -4.28 KCAL/MOL
REMARK 922        TOTAL FREE ENERGY PREDICTED BY IDOCK:   -5.84 KCAL/MOL
REMARK 923 INTER-LIGAND FREE ENERGY PREDICTED BY IDOCK:   -5.38 KCAL/MOL
REMARK 924 INTRA-LIGAND FREE ENERGY PREDICTED BY IDOCK:   -0.46 KCAL/MOL
REMARK 927      BINDING AFFINITY PREDICTED BY RF-SCORE:    0.00 PKD
ROOT
HETATM    1  O   UNL     1      -5.561  14.329  71.839  1.00  0.00    -0.200 OA 
HETATM    2  N   UNL     1      -6.032  13.603  70.954  1.00  0.00    -0.158 N  
HETATM    3  O   UNL     1      -5.872  12.377  70.890  1.00  0.00    -0.321 OA 
HETATM    4  C   UNL     1      -6.839  14.242  69.906  1.00  0.00    -0.019 A  
HETATM    5  C   UNL     1      -7.043  15.623  69.941  1.00  0.00    -0.016 A  
HETATM    6  C   UNL     1      -7.835  16.229  68.959  1.00  0.00    -0.235 A  
HETATM    7  C   UNL     1      -8.440  15.478  67.935  1.00  0.00    -0.146 A  
HETATM    8  C   UNL     1      -8.207  14.092  67.907  1.00  0.00    -0.158 A  
HETATM    9  C   UNL     1      -7.413  13.472  68.887  1.00  0.00    -0.017 A  
ENDROOT
BRANCH   7  10
HETATM   10  C   UNL     1      -9.300  16.153  66.959  1.00  0.00    -0.218 A  
HETATM   11  C   UNL     1     -10.073  15.702  65.905  1.00  0.00    -0.378 A  
HETATM   12  C   UNL     1     -10.648  16.840  65.293  1.00  0.00    -0.185 A  
HETATM   13  C   UNL     1     -10.206  17.935  66.005  1.00  0.00    -0.295 A  
HETATM   14  O   UNL     1      -9.386  17.520  67.024  1.00  0.00    -0.247 OA 
BRANCH  13  15
HETATM   15  C   UNL     1     -10.440  19.346  65.843  1.00  0.00    -0.472 C  
BRANCH  15  16
HETATM   16  N   UNL     1      -9.480  20.149  65.493  1.00  0.00    -0.445 NA 
HETATM   17  H   UNL     1      -9.599  20.812  64.727  1.00  0.00     0.000 HD 
BRANCH  16  18
HETATM   18  N   UNL     1      -8.302  20.072  66.192  1.00  0.00    -0.316 N  
HETATM   19  C   UNL     1      -8.118  20.838  67.405  1.00  0.00    -0.173 C  
HETATM   20  C   UNL     1      -6.619  20.703  67.591  1.00  0.00    -0.313 C  
HETATM   21  N   UNL     1      -6.110  19.927  66.601  1.00  0.00    -0.174 NA 
HETATM   22  O   UNL     1      -5.958  21.222  68.479  1.00  0.00    -0.288 OA 
HETATM   23  C   UNL     1      -7.070  19.610  65.695  1.00  0.00    -0.300 C  
HETATM   24  O   UNL     1      -6.848  19.057  64.629  1.00  0.00    -0.305 OA 
ENDBRANCH  16  18
ENDBRANCH  15  16
ENDBRANCH  13  15
ENDBRANCH   7  10
TORSDOF 4
ENDMDL
MODEL      213
REMARK 921   NORMALIZED FREE ENERGY PREDICTED BY IDOCK:   -4.27 KCAL/MOL
REMARK 922        TOTAL FREE ENERGY PREDICTED BY IDOCK:   -5.83 KCAL/MOL
REMARK 923 INTER-LIGAND FREE ENERGY PREDICTED BY IDOCK:   -5.14 KCAL/MOL
REMARK 924 INTRA-LIGAND FREE ENERGY PREDICTED BY IDOCK:   -0.68 KCAL/MOL
REMARK 927      BINDING AFFINITY PREDICTED BY RF-SCORE:    0.00 PKD
ROOT
HETATM    1  O   UNL     1      -5.822  12.510  70.723  1.00  0.00    -0.261 OA 
HETATM    2  N   UNL     1      -6.472  11.898  69.866  1.00  0.00    -0.099 N  
HETATM    3  O   UNL     1      -6.489  10.666  69.742  1.00  0.00    -0.078 OA 
HETATM    4  C   UNL     1      -7.281  12.689  68.928  1.00  0.00    -0.045 A  
HETATM    5  C   UNL     1      -7.288  14.082  69.032  1.00  0.00    -0.081 A  
HETATM    6  C   UNL     1      -8.080  14.835  68.159  1.00  0.00    -0.134 A  
HETATM    7  C   UNL     1      -8.879  14.222  67.176  1.00  0.00    -0.243 A  
HETATM    8  C   UNL     1      -8.844  12.820  67.076  1.00  0.00    -0.213 A  
HETATM    9  C   UNL     1      -8.051  12.053  67.947  1.00  0.00    -0.150 A  
ENDROOT
BRANCH   7  10
HETATM   10  C   UNL     1      -9.728  15.053  66.318  1.00  0.00    -0.291 A  
HETATM   11  C   UNL     1     -10.572  14.769  65.260  1.00  0.00    -0.414 A  
HETATM   12  C   UNL     1     -11.091  16.001  64.798  1.00  0.00    -0.378 A  
HETATM   13  C   UNL     1     -10.546  16.982  65.600  1.00  0.00    -0.197 A  
HETATM   14  O   UNL     1      -9.717  16.407  66.531  1.00  0.00    -0.241 OA 
BRANCH  13  15
HETATM   15  C   UNL     1     -10.689  18.414  65.598  1.00  0.00    -0.038 C  
BRANCH  15  16
HETATM   16  N   UNL     1     -10.656  19.093  66.705  1.00  0.00    -0.431 NA 
HETATM   17  H   UNL     1     -11.500  19.244  67.258  1.00  0.00     0.000 HD 
BRANCH  16  18
HETATM   18  N   UNL     1      -9.445  19.600  67.103  1.00  0.00    -0.324 N  
HETATM   19  C   UNL     1      -8.415  19.888  66.128  1.00  0.00    -0.319 C  
HETATM   20  C   UNL     1      -7.217  20.071  67.040  1.00  0.00    -0.241 C  
HETATM   21  N   UNL     1      -7.606  19.924  68.331  1.00  0.00    -0.296 NA 
HETATM   22  O   UNL     1      -6.070  20.296  66.678  1.00  0.00    -0.174 OA 
HETATM   23  C   UNL     1      -8.908  19.549  68.402  1.00  0.00    -0.342 C  
HETATM   24  O   UNL     1      -9.464  19.198  69.433  1.00  0.00    -0.154 OA 
ENDBRANCH  16  18
ENDBRANCH  15  16
ENDBRANCH  13  15
ENDBRANCH   7  10
TORSDOF 4
ENDMDL
MODEL      214
REMARK 921   NORMALIZED FREE ENERGY PREDICTED BY IDOCK:   -4.27 KCAL/MOL
REMARK 922        TOTAL FREE ENERGY PREDICTED BY IDOCK:   -5.82 KCAL/MOL
REMARK 923 INTER-LIGAND FREE ENERGY PREDICTED BY IDOCK:   -5.19 KCAL/MOL
REMARK 924 INTRA-LIGAND FREE ENERGY PREDICTED BY IDOCK:   -0.63 KCAL/MOL
REMARK 927      BINDING AFFINITY PREDICTED BY RF-SCORE:    0.00 PKD
ROOT
HETATM    1  O   UNL     1      -9.084   3.688  69.117  1.00  0.00    -0.109 OA 
HETATM    2  N   UNL     1      -9.142   4.141  67.967  1.00  0.00    -0.126 N  
HETATM    3  O   UNL     1      -9.496   3.494  66.973  1.00  0.00    -0.197 OA 
HETATM    4  C   UNL     1      -8.764   5.547  67.767  1.00  0.00    -0.106 A  
HETATM    5  C   UNL     1      -8.357   6.312  68.862  1.00  0.00    -0.120 A  
HETATM    6  C   UNL     1      -8.025   7.658  68.678  1.00  0.00    -0.122 A  
HETATM    7  C   UNL     1      -8.096   8.268  67.412  1.00  0.00    -0.121 A  
HETATM    8  C   UNL     1      -8.490   7.476  66.319  1.00  0.00    -0.141 A  
HETATM    9  C   UNL     1      -8.826   6.122  66.492  1.00  0.00    -0.134 A  
ENDROOT
BRANCH   7  10
HETATM   10  C   UNL     1      -7.783   9.694  67.280  1.00  0.00    -0.091 A  
HETATM   11  C   UNL     1      -6.626  10.385  66.974  1.00  0.00    -0.075 A  
HETATM   12  C   UNL     1      -6.935  11.764  67.041  1.00  0.00    -0.135 A  
HETATM   13  C   UNL     1      -8.269  11.852  67.377  1.00  0.00    -0.164 A  
HETATM   14  O   UNL     1      -8.791  10.591  67.521  1.00  0.00    -0.131 OA 
BRANCH  13  15
HETATM   15  C   UNL     1      -9.130  12.983  67.604  1.00  0.00    -0.198 C  
BRANCH  15  16
HETATM   16  N   UNL     1     -10.355  12.823  68.008  1.00  0.00    -0.223 NA 
HETATM   17  H   UNL     1     -10.564  12.562  68.971  1.00  0.00     0.000 HD 
BRANCH  16  18
HETATM   18  N   UNL     1     -11.356  13.018  67.090  1.00  0.00    -0.290 N  
HETATM   19  C   UNL     1     -11.656  12.001  66.104  1.00  0.00    -0.304 C  
HETATM   20  C   UNL     1     -12.535  12.791  65.153  1.00  0.00    -0.501 C  
HETATM   21  N   UNL     1     -12.688  14.054  65.625  1.00  0.00    -0.543 NA 
HETATM   22  O   UNL     1     -13.019  12.372  64.111  1.00  0.00    -0.744 OA 
HETATM   23  C   UNL     1     -11.923  14.253  66.728  1.00  0.00    -0.436 C  
HETATM   24  O   UNL     1     -11.754  15.342  67.256  1.00  0.00    -0.179 OA 
ENDBRANCH  16  18
ENDBRANCH  15  16
ENDBRANCH  13  15
ENDBRANCH   7  10
TORSDOF 4
ENDMDL
MODEL      215
REMARK 921   NORMALIZED FREE ENERGY PREDICTED BY IDOCK:   -4.26 KCAL/MOL
REMARK 922        TOTAL FREE ENERGY PREDICTED BY IDOCK:   -5.82 KCAL/MOL
REMARK 923 INTER-LIGAND FREE ENERGY PREDICTED BY IDOCK:   -5.24 KCAL/MOL
REMARK 924 INTRA-LIGAND FREE ENERGY PREDICTED BY IDOCK:   -0.58 KCAL/MOL
REMARK 927      BINDING AFFINITY PREDICTED BY RF-SCORE:    0.00 PKD
ROOT
HETATM    1  O   UNL     1     -10.191  14.107  66.537  1.00  0.00    -0.267 OA 
HETATM    2  N   UNL     1     -10.962  14.076  67.504  1.00  0.00    -0.273 N  
HETATM    3  O   UNL     1     -11.753  14.981  67.803  1.00  0.00    -0.339 OA 
HETATM    4  C   UNL     1     -10.939  12.880  68.358  1.00  0.00    -0.258 A  
HETATM    5  C   UNL     1     -10.060  11.837  68.056  1.00  0.00    -0.198 A  
HETATM    6  C   UNL     1     -10.057  10.687  68.852  1.00  0.00    -0.215 A  
HETATM    7  C   UNL     1     -10.925  10.549  69.951  1.00  0.00    -0.359 A  
HETATM    8  C   UNL     1     -11.788  11.618  70.249  1.00  0.00    -0.414 A  
HETATM    9  C   UNL     1     -11.800  12.779  69.458  1.00  0.00    -0.379 A  
ENDROOT
BRANCH   7  10
HETATM   10  C   UNL     1     -10.916   9.303  70.724  1.00  0.00    -0.284 A  
HETATM   11  C   UNL     1     -11.123   9.017  72.060  1.00  0.00    -0.371 A  
HETATM   12  C   UNL     1     -10.940   7.623  72.220  1.00  0.00    -0.328 A  
HETATM   13  C   UNL     1     -10.637   7.121  70.972  1.00  0.00    -0.221 A  
HETATM   14  O   UNL     1     -10.625   8.143  70.056  1.00  0.00    -0.231 OA 
BRANCH  13  15
HETATM   15  C   UNL     1     -10.334   5.788  70.521  1.00  0.00    -0.247 C  
BRANCH  15  16
HETATM   16  N   UNL     1      -9.162   5.492  70.044  1.00  0.00    -0.137 NA 
HETATM   17  H   UNL     1      -8.322   5.573  70.617  1.00  0.00     0.000 HD 
BRANCH  16  18
HETATM   18  N   UNL     1      -9.096   5.066  68.741  1.00  0.00    -0.106 N  
HETATM   19  C   UNL     1      -9.723   3.824  68.343  1.00  0.00    -0.024 C  
HETATM   20  C   UNL     1      -9.098   3.627  66.976  1.00  0.00    -0.167 C  
HETATM   21  N   UNL     1      -8.274   4.669  66.702  1.00  0.00    -0.107 NA 
HETATM   22  O   UNL     1      -9.284   2.671  66.235  1.00  0.00    -0.131 OA 
HETATM   23  C   UNL     1      -8.175   5.500  67.770  1.00  0.00    -0.100 C  
HETATM   24  O   UNL     1      -7.380   6.425  67.847  1.00  0.00    -0.084 OA 
ENDBRANCH  16  18
ENDBRANCH  15  16
ENDBRANCH  13  15
ENDBRANCH   7  10
TORSDOF 4
ENDMDL
MODEL      216
REMARK 921   NORMALIZED FREE ENERGY PREDICTED BY IDOCK:   -4.22 KCAL/MOL
REMARK 922        TOTAL FREE ENERGY PREDICTED BY IDOCK:   -5.76 KCAL/MOL
REMARK 923 INTER-LIGAND FREE ENERGY PREDICTED BY IDOCK:   -5.21 KCAL/MOL
REMARK 924 INTRA-LIGAND FREE ENERGY PREDICTED BY IDOCK:   -0.55 KCAL/MOL
REMARK 927      BINDING AFFINITY PREDICTED BY RF-SCORE:    0.00 PKD
ROOT
HETATM    1  O   UNL     1      -7.719  14.664  67.351  1.00  0.00    -0.182 OA 
HETATM    2  N   UNL     1      -8.761  14.310  66.786  1.00  0.00    -0.182 N  
HETATM    3  O   UNL     1      -9.459  15.043  66.074  1.00  0.00    -0.298 OA 
HETATM    4  C   UNL     1      -9.201  12.920  66.972  1.00  0.00    -0.226 A  
HETATM    5  C   UNL     1      -8.442  12.060  67.770  1.00  0.00    -0.157 A  
HETATM    6  C   UNL     1      -8.845  10.730  67.925  1.00  0.00    -0.132 A  
HETATM    7  C   UNL     1      -9.997  10.230  67.290  1.00  0.00    -0.233 A  
HETATM    8  C   UNL     1     -10.757  11.116  66.508  1.00  0.00    -0.314 A  
HETATM    9  C   UNL     1     -10.363  12.456  66.345  1.00  0.00    -0.255 A  
ENDROOT
BRANCH   7  10
HETATM   10  C   UNL     1     -10.348   8.815  67.446  1.00  0.00    -0.280 A  
HETATM   11  C   UNL     1     -10.507   7.774  66.550  1.00  0.00    -0.015 A  
HETATM   12  C   UNL     1     -10.897   6.638  67.296  1.00  0.00    -0.456 A  
HETATM   13  C   UNL     1     -10.952   7.034  68.616  1.00  0.00    -0.090 A  
HETATM   14  O   UNL     1     -10.614   8.361  68.712  1.00  0.00    -0.203 OA 
BRANCH  13  15
HETATM   15  C   UNL     1     -11.302   6.325  69.818  1.00  0.00    -0.436 C  
BRANCH  15  16
HETATM   16  N   UNL     1     -10.396   5.990  70.688  1.00  0.00    -0.211 NA 
HETATM   17  H   UNL     1     -10.180   5.011  70.875  1.00  0.00     0.000 HD 
BRANCH  16  18
HETATM   18  N   UNL     1      -9.742   7.002  71.344  1.00  0.00    -0.170 N  
HETATM   19  C   UNL     1      -8.298   7.090  71.302  1.00  0.00    -0.114 C  
HETATM   20  C   UNL     1      -8.052   8.097  72.410  1.00  0.00    -0.146 C  
HETATM   21  N   UNL     1      -9.240   8.496  72.928  1.00  0.00    -0.283 NA 
HETATM   22  O   UNL     1      -6.957   8.482  72.797  1.00  0.00    -0.186 OA 
HETATM   23  C   UNL     1     -10.265   7.794  72.382  1.00  0.00    -0.247 C  
HETATM   24  O   UNL     1     -11.419   7.844  72.782  1.00  0.00    -0.390 OA 
ENDBRANCH  16  18
ENDBRANCH  15  16
ENDBRANCH  13  15
ENDBRANCH   7  10
TORSDOF 4
ENDMDL
MODEL      217
REMARK 921   NORMALIZED FREE ENERGY PREDICTED BY IDOCK:   -4.21 KCAL/MOL
REMARK 922        TOTAL FREE ENERGY PREDICTED BY IDOCK:   -5.75 KCAL/MOL
REMARK 923 INTER-LIGAND FREE ENERGY PREDICTED BY IDOCK:   -5.57 KCAL/MOL
REMARK 924 INTRA-LIGAND FREE ENERGY PREDICTED BY IDOCK:   -0.18 KCAL/MOL
REMARK 927      BINDING AFFINITY PREDICTED BY RF-SCORE:    0.00 PKD
ROOT
HETATM    1  O   UNL     1      -7.219   6.592  64.286  1.00  0.00    -0.060 OA 
HETATM    2  N   UNL     1      -7.804   7.649  64.016  1.00  0.00    -0.132 N  
HETATM    3  O   UNL     1      -7.784   8.200  62.908  1.00  0.00    -0.119 OA 
HETATM    4  C   UNL     1      -8.576   8.295  65.087  1.00  0.00    -0.105 A  
HETATM    5  C   UNL     1      -8.622   7.706  66.352  1.00  0.00    -0.149 A  
HETATM    6  C   UNL     1      -9.380   8.304  67.364  1.00  0.00    -0.171 A  
HETATM    7  C   UNL     1     -10.106   9.488  67.138  1.00  0.00    -0.290 A  
HETATM    8  C   UNL     1     -10.032  10.074  65.863  1.00  0.00    -0.339 A  
HETATM    9  C   UNL     1      -9.273   9.483  64.838  1.00  0.00    -0.284 A  
ENDROOT
BRANCH   7  10
HETATM   10  C   UNL     1     -10.924  10.048  68.218  1.00  0.00    -0.227 A  
HETATM   11  C   UNL     1     -11.570  11.259  68.386  1.00  0.00    -0.378 A  
HETATM   12  C   UNL     1     -12.168  11.237  69.667  1.00  0.00    -0.340 A  
HETATM   13  C   UNL     1     -11.867  10.011  70.221  1.00  0.00    -0.216 A  
HETATM   14  O   UNL     1     -11.111   9.281  69.338  1.00  0.00    -0.170 OA 
BRANCH  13  15
HETATM   15  C   UNL     1     -12.185   9.430  71.499  1.00  0.00    -0.369 C  
BRANCH  15  16
HETATM   16  N   UNL     1     -11.249   8.999  72.291  1.00  0.00    -0.224 NA 
HETATM   17  H   UNL     1     -10.468   9.597  72.560  1.00  0.00     0.000 HD 
BRANCH  16  18
HETATM   18  N   UNL     1     -11.351   7.711  72.752  1.00  0.00    -0.372 N  
HETATM   19  C   UNL     1     -10.495   7.244  73.821  1.00  0.00    -0.288 C  
HETATM   20  C   UNL     1     -10.725   5.748  73.725  1.00  0.00    -0.217 C  
HETATM   21  N   UNL     1     -11.622   5.493  72.740  1.00  0.00    -0.290 NA 
HETATM   22  O   UNL     1     -10.179   4.895  74.410  1.00  0.00    -0.217 OA 
HETATM   23  C   UNL     1     -11.946   6.631  72.075  1.00  0.00    -0.319 C  
HETATM   24  O   UNL     1     -12.608   6.658  71.048  1.00  0.00    -0.294 OA 
ENDBRANCH  16  18
ENDBRANCH  15  16
ENDBRANCH  13  15
ENDBRANCH   7  10
TORSDOF 4
ENDMDL
MODEL      218
REMARK 921   NORMALIZED FREE ENERGY PREDICTED BY IDOCK:   -4.19 KCAL/MOL
REMARK 922        TOTAL FREE ENERGY PREDICTED BY IDOCK:   -5.72 KCAL/MOL
REMARK 923 INTER-LIGAND FREE ENERGY PREDICTED BY IDOCK:   -5.18 KCAL/MOL
REMARK 924 INTRA-LIGAND FREE ENERGY PREDICTED BY IDOCK:   -0.55 KCAL/MOL
REMARK 927      BINDING AFFINITY PREDICTED BY RF-SCORE:    0.00 PKD
ROOT
HETATM    1  O   UNL     1      -9.680  17.139  66.355  1.00  0.00    -0.269 OA 
HETATM    2  N   UNL     1     -10.404  16.356  65.728  1.00  0.00    -0.371 N  
HETATM    3  O   UNL     1     -11.048  16.652  64.713  1.00  0.00    -0.643 OA 
HETATM    4  C   UNL     1     -10.505  14.975  66.221  1.00  0.00    -0.304 A  
HETATM    5  C   UNL     1      -9.795  14.600  67.364  1.00  0.00    -0.222 A  
HETATM    6  C   UNL     1      -9.867  13.279  67.818  1.00  0.00    -0.224 A  
HETATM    7  C   UNL     1     -10.637  12.311  67.147  1.00  0.00    -0.250 A  
HETATM    8  C   UNL     1     -11.359  12.713  66.010  1.00  0.00    -0.369 A  
HETATM    9  C   UNL     1     -11.295  14.038  65.545  1.00  0.00    -0.313 A  
ENDROOT
BRANCH   7  10
HETATM   10  C   UNL     1     -10.641  10.929  67.637  1.00  0.00    -0.224 A  
HETATM   11  C   UNL     1     -10.714  10.372  68.900  1.00  0.00    -0.255 A  
HETATM   12  C   UNL     1     -10.630   8.969  68.742  1.00  0.00    -0.196 A  
HETATM   13  C   UNL     1     -10.517   8.732  67.388  1.00  0.00    -0.279 A  
HETATM   14  O   UNL     1     -10.528   9.926  66.710  1.00  0.00    -0.230 OA 
BRANCH  13  15
HETATM   15  C   UNL     1     -10.380   7.514  66.634  1.00  0.00    -0.182 C  
BRANCH  15  16
HETATM   16  N   UNL     1      -9.223   7.128  66.188  1.00  0.00    -0.321 NA 
HETATM   17  H   UNL     1      -8.993   7.185  65.195  1.00  0.00     0.000 HD 
BRANCH  16  18
HETATM   18  N   UNL     1      -8.322   6.639  67.100  1.00  0.00    -0.113 N  
HETATM   19  C   UNL     1      -7.242   7.473  67.583  1.00  0.00    -0.090 C  
HETATM   20  C   UNL     1      -6.366   6.429  68.249  1.00  0.00    -0.040 C  
HETATM   21  N   UNL     1      -6.954   5.212  68.142  1.00  0.00    -0.060 NA 
HETATM   22  O   UNL     1      -5.286   6.638  68.784  1.00  0.00    -0.014 OA 
HETATM   23  C   UNL     1      -8.076   5.283  67.382  1.00  0.00    -0.100 C  
HETATM   24  O   UNL     1      -8.707   4.309  66.999  1.00  0.00    -0.107 OA 
ENDBRANCH  16  18
ENDBRANCH  15  16
ENDBRANCH  13  15
ENDBRANCH   7  10
TORSDOF 4
ENDMDL
MODEL      219
REMARK 921   NORMALIZED FREE ENERGY PREDICTED BY IDOCK:   -4.16 KCAL/MOL
REMARK 922        TOTAL FREE ENERGY PREDICTED BY IDOCK:   -5.69 KCAL/MOL
REMARK 923 INTER-LIGAND FREE ENERGY PREDICTED BY IDOCK:   -5.07 KCAL/MOL
REMARK 924 INTRA-LIGAND FREE ENERGY PREDICTED BY IDOCK:   -0.62 KCAL/MOL
REMARK 927      BINDING AFFINITY PREDICTED BY RF-SCORE:    0.00 PKD
ROOT
HETATM    1  O   UNL     1     -12.593  15.994  70.272  1.00  0.00    -0.286 OA 
HETATM    2  N   UNL     1     -11.499  15.874  69.706  1.00  0.00    -0.330 N  
HETATM    3  O   UNL     1     -10.671  16.784  69.573  1.00  0.00    -0.330 OA 
HETATM    4  C   UNL     1     -11.159  14.555  69.151  1.00  0.00    -0.263 A  
HETATM    5  C   UNL     1     -12.067  13.502  69.279  1.00  0.00    -0.335 A  
HETATM    6  C   UNL     1     -11.732  12.239  68.777  1.00  0.00    -0.390 A  
HETATM    7  C   UNL     1     -10.496  12.000  68.149  1.00  0.00    -0.218 A  
HETATM    8  C   UNL     1      -9.605  13.079  68.014  1.00  0.00    -0.224 A  
HETATM    9  C   UNL     1      -9.930  14.352  68.514  1.00  0.00    -0.237 A  
ENDROOT
BRANCH   7  10
HETATM   10  C   UNL     1     -10.175  10.648  67.684  1.00  0.00    -0.194 A  
HETATM   11  C   UNL     1     -10.125  10.064  66.431  1.00  0.00    -0.307 A  
HETATM   12  C   UNL     1      -9.792   8.703  66.620  1.00  0.00    -0.336 A  
HETATM   13  C   UNL     1      -9.646   8.518  67.978  1.00  0.00    -0.149 A  
HETATM   14  O   UNL     1      -9.875   9.704  68.631  1.00  0.00    -0.154 OA 
BRANCH  13  15
HETATM   15  C   UNL     1      -9.333   7.352  68.761  1.00  0.00    -0.144 C  
BRANCH  15  16
HETATM   16  N   UNL     1     -10.185   6.379  68.887  1.00  0.00    -0.171 NA 
HETATM   17  H   UNL     1     -11.065   6.508  69.386  1.00  0.00     0.000 HD 
BRANCH  16  18
HETATM   18  N   UNL     1      -9.856   5.171  68.324  1.00  0.00    -0.152 N  
HETATM   19  C   UNL     1      -8.792   4.366  68.884  1.00  0.00    -0.098 C  
HETATM   20  C   UNL     1      -8.584   3.367  67.762  1.00  0.00    -0.101 C  
HETATM   21  N   UNL     1      -9.467   3.620  66.764  1.00  0.00    -0.194 NA 
HETATM   22  O   UNL     1      -7.742   2.480  67.741  1.00  0.00    -0.059 OA 
HETATM   23  C   UNL     1     -10.179   4.746  67.022  1.00  0.00    -0.158 C  
HETATM   24  O   UNL     1     -10.926   5.283  66.218  1.00  0.00    -0.237 OA 
ENDBRANCH  16  18
ENDBRANCH  15  16
ENDBRANCH  13  15
ENDBRANCH   7  10
TORSDOF 4
ENDMDL
MODEL      220
REMARK 921   NORMALIZED FREE ENERGY PREDICTED BY IDOCK:   -4.15 KCAL/MOL
REMARK 922        TOTAL FREE ENERGY PREDICTED BY IDOCK:   -5.68 KCAL/MOL
REMARK 923 INTER-LIGAND FREE ENERGY PREDICTED BY IDOCK:   -5.16 KCAL/MOL
REMARK 924 INTRA-LIGAND FREE ENERGY PREDICTED BY IDOCK:   -0.52 KCAL/MOL
REMARK 927      BINDING AFFINITY PREDICTED BY RF-SCORE:    0.00 PKD
ROOT
HETATM    1  O   UNL     1      -9.261  15.704  67.084  1.00  0.00    -0.202 OA 
HETATM    2  N   UNL     1     -10.223  15.011  66.728  1.00  0.00    -0.256 N  
HETATM    3  O   UNL     1     -11.174  15.422  66.051  1.00  0.00    -0.284 OA 
HETATM    4  C   UNL     1     -10.236  13.600  67.138  1.00  0.00    -0.244 A  
HETATM    5  C   UNL     1      -9.182  13.097  67.904  1.00  0.00    -0.207 A  
HETATM    6  C   UNL     1      -9.178  11.747  68.270  1.00  0.00    -0.188 A  
HETATM    7  C   UNL     1     -10.213  10.876  67.881  1.00  0.00    -0.205 A  
HETATM    8  C   UNL     1     -11.273  11.406  67.126  1.00  0.00    -0.363 A  
HETATM    9  C   UNL     1     -11.288  12.761  66.753  1.00  0.00    -0.362 A  
ENDROOT
BRANCH   7  10
HETATM   10  C   UNL     1     -10.138   9.459  68.250  1.00  0.00    -0.183 A  
HETATM   11  C   UNL     1      -9.580   8.788  69.323  1.00  0.00    -0.162 A  
HETATM   12  C   UNL     1      -9.791   7.407  69.106  1.00  0.00    -0.168 A  
HETATM   13  C   UNL     1     -10.475   7.296  67.913  1.00  0.00    -0.209 A  
HETATM   14  O   UNL     1     -10.692   8.547  67.391  1.00  0.00    -0.264 OA 
BRANCH  13  15
HETATM   15  C   UNL     1     -10.946   6.153  67.178  1.00  0.00    -0.331 C  
BRANCH  15  16
HETATM   16  N   UNL     1     -10.309   5.720  66.131  1.00  0.00    -0.442 NA 
HETATM   17  H   UNL     1     -10.062   6.347  65.365  1.00  0.00     0.000 HD 
BRANCH  16  18
HETATM   18  N   UNL     1      -9.980   4.388  66.094  1.00  0.00    -0.229 N  
HETATM   19  C   UNL     1      -9.337   3.759  67.227  1.00  0.00    -0.197 C  
HETATM   20  C   UNL     1      -8.879   2.458  66.597  1.00  0.00    -0.129 C  
HETATM   21  N   UNL     1      -9.277   2.421  65.300  1.00  0.00    -0.126 NA 
HETATM   22  O   UNL     1      -8.235   1.580  67.154  1.00  0.00    -0.069 OA 
HETATM   23  C   UNL     1      -9.854   3.595  64.939  1.00  0.00    -0.164 C  
HETATM   24  O   UNL     1     -10.156   3.884  63.790  1.00  0.00    -0.175 OA 
ENDBRANCH  16  18
ENDBRANCH  15  16
ENDBRANCH  13  15
ENDBRANCH   7  10
TORSDOF 4
ENDMDL
MODEL      221
REMARK 921   NORMALIZED FREE ENERGY PREDICTED BY IDOCK:   -4.10 KCAL/MOL
REMARK 922        TOTAL FREE ENERGY PREDICTED BY IDOCK:   -5.62 KCAL/MOL
REMARK 923 INTER-LIGAND FREE ENERGY PREDICTED BY IDOCK:   -5.54 KCAL/MOL
REMARK 924 INTRA-LIGAND FREE ENERGY PREDICTED BY IDOCK:   -0.07 KCAL/MOL
REMARK 927      BINDING AFFINITY PREDICTED BY RF-SCORE:    0.00 PKD
ROOT
HETATM    1  O   UNL     1     -10.351  16.208  68.472  1.00  0.00    -0.236 OA 
HETATM    2  N   UNL     1     -10.334  15.782  67.310  1.00  0.00    -0.283 N  
HETATM    3  O   UNL     1     -10.389  16.494  66.298  1.00  0.00    -0.308 OA 
HETATM    4  C   UNL     1     -10.243  14.328  67.117  1.00  0.00    -0.254 A  
HETATM    5  C   UNL     1     -10.181  13.490  68.233  1.00  0.00    -0.250 A  
HETATM    6  C   UNL     1     -10.064  12.108  68.051  1.00  0.00    -0.204 A  
HETATM    7  C   UNL     1     -10.002  11.537  66.766  1.00  0.00    -0.235 A  
HETATM    8  C   UNL     1     -10.085  12.396  65.657  1.00  0.00    -0.277 A  
HETATM    9  C   UNL     1     -10.203  13.786  65.827  1.00  0.00    -0.322 A  
ENDROOT
BRANCH   7  10
HETATM   10  C   UNL     1      -9.832  10.087  66.630  1.00  0.00    -0.203 A  
HETATM   11  C   UNL     1      -9.206   9.291  65.688  1.00  0.00    -0.291 A  
HETATM   12  C   UNL     1      -9.415   7.947  66.075  1.00  0.00    -0.086 A  
HETATM   13  C   UNL     1     -10.154   7.982  67.239  1.00  0.00    -0.240 A  
HETATM   14  O   UNL     1     -10.407   9.287  67.583  1.00  0.00    -0.222 OA 
BRANCH  13  15
HETATM   15  C   UNL     1     -10.678   6.936  68.076  1.00  0.00    -0.218 C  
BRANCH  15  16
HETATM   16  N   UNL     1     -11.068   7.181  69.291  1.00  0.00    -0.447 NA 
HETATM   17  H   UNL     1     -11.906   6.745  69.676  1.00  0.00     0.000 HD 
BRANCH  16  18
HETATM   18  N   UNL     1     -10.311   8.049  70.037  1.00  0.00    -0.213 N  
HETATM   19  C   UNL     1      -8.913   7.772  70.290  1.00  0.00    -0.148 C  
HETATM   20  C   UNL     1      -8.630   8.773  71.394  1.00  0.00    -0.194 C  
HETATM   21  N   UNL     1      -9.749   9.496  71.645  1.00  0.00    -0.038 NA 
HETATM   22  O   UNL     1      -7.567   8.904  71.985  1.00  0.00    -0.325 OA 
HETATM   23  C   UNL     1     -10.798   9.029  70.921  1.00  0.00    -0.258 C  
HETATM   24  O   UNL     1     -11.953   9.397  71.074  1.00  0.00    -0.293 OA 
ENDBRANCH  16  18
ENDBRANCH  15  16
ENDBRANCH  13  15
ENDBRANCH   7  10
TORSDOF 4
ENDMDL
MODEL      222
REMARK 921   NORMALIZED FREE ENERGY PREDICTED BY IDOCK:   -4.07 KCAL/MOL
REMARK 922        TOTAL FREE ENERGY PREDICTED BY IDOCK:   -5.58 KCAL/MOL
REMARK 923 INTER-LIGAND FREE ENERGY PREDICTED BY IDOCK:   -4.94 KCAL/MOL
REMARK 924 INTRA-LIGAND FREE ENERGY PREDICTED BY IDOCK:   -0.63 KCAL/MOL
REMARK 927      BINDING AFFINITY PREDICTED BY RF-SCORE:    0.00 PKD
ROOT
HETATM    1  O   UNL     1     -12.604  13.640  64.631  1.00  0.00    -0.597 OA 
HETATM    2  N   UNL     1     -12.381  13.633  65.848  1.00  0.00    -0.462 N  
HETATM    3  O   UNL     1     -12.784  14.492  66.643  1.00  0.00    -0.037 OA 
HETATM    4  C   UNL     1     -11.583  12.524  66.389  1.00  0.00    -0.391 A  
HETATM    5  C   UNL     1     -11.107  11.534  65.526  1.00  0.00    -0.254 A  
HETATM    6  C   UNL     1     -10.372  10.463  66.043  1.00  0.00    -0.262 A  
HETATM    7  C   UNL     1     -10.101  10.352  67.420  1.00  0.00    -0.237 A  
HETATM    8  C   UNL     1     -10.572  11.368  68.269  1.00  0.00    -0.224 A  
HETATM    9  C   UNL     1     -11.311  12.450  67.761  1.00  0.00    -0.356 A  
ENDROOT
BRANCH   7  10
HETATM   10  C   UNL     1      -9.366   9.185  67.917  1.00  0.00    -0.137 A  
HETATM   11  C   UNL     1      -8.030   8.832  67.906  1.00  0.00    -0.107 A  
HETATM   12  C   UNL     1      -7.932   7.553  68.503  1.00  0.00    -0.123 A  
HETATM   13  C   UNL     1      -9.213   7.187  68.859  1.00  0.00    -0.137 A  
HETATM   14  O   UNL     1     -10.090   8.182  68.507  1.00  0.00    -0.189 OA 
BRANCH  13  15
HETATM   15  C   UNL     1      -9.735   5.999  69.481  1.00  0.00    -0.147 C  
BRANCH  15  16
HETATM   16  N   UNL     1     -10.420   5.130  68.800  1.00  0.00    -0.105 NA 
HETATM   17  H   UNL     1     -11.336   4.814  69.116  1.00  0.00     0.000 HD 
BRANCH  16  18
HETATM   18  N   UNL     1      -9.865   4.655  67.638  1.00  0.00    -0.161 N  
HETATM   19  C   UNL     1     -10.448   4.988  66.356  1.00  0.00    -0.300 C  
HETATM   20  C   UNL     1      -9.738   3.989  65.463  1.00  0.00    -0.194 C  
HETATM   21  N   UNL     1      -8.870   3.258  66.206  1.00  0.00    -0.133 NA 
HETATM   22  O   UNL     1      -9.924   3.844  64.263  1.00  0.00    -0.173 OA 
HETATM   23  C   UNL     1      -8.986   3.562  67.523  1.00  0.00    -0.145 C  
HETATM   24  O   UNL     1      -8.437   2.941  68.420  1.00  0.00    -0.071 OA 
ENDBRANCH  16  18
ENDBRANCH  15  16
ENDBRANCH  13  15
ENDBRANCH   7  10
TORSDOF 4
ENDMDL
MODEL      223
REMARK 921   NORMALIZED FREE ENERGY PREDICTED BY IDOCK:   -4.03 KCAL/MOL
REMARK 922        TOTAL FREE ENERGY PREDICTED BY IDOCK:   -5.52 KCAL/MOL
REMARK 923 INTER-LIGAND FREE ENERGY PREDICTED BY IDOCK:   -4.94 KCAL/MOL
REMARK 924 INTRA-LIGAND FREE ENERGY PREDICTED BY IDOCK:   -0.58 KCAL/MOL
REMARK 927      BINDING AFFINITY PREDICTED BY RF-SCORE:    0.00 PKD
ROOT
HETATM    1  O   UNL     1      -6.894   2.839  64.175  1.00  0.00    -0.034 OA 
HETATM    2  N   UNL     1      -8.060   3.142  64.460  1.00  0.00    -0.082 N  
HETATM    3  O   UNL     1      -9.035   2.390  64.329  1.00  0.00    -0.098 OA 
HETATM    4  C   UNL     1      -8.304   4.490  64.992  1.00  0.00    -0.124 A  
HETATM    5  C   UNL     1      -7.231   5.370  65.154  1.00  0.00    -0.067 A  
HETATM    6  C   UNL     1      -7.458   6.642  65.688  1.00  0.00    -0.082 A  
HETATM    7  C   UNL     1      -8.745   7.061  66.073  1.00  0.00    -0.156 A  
HETATM    8  C   UNL     1      -9.814   6.167  65.885  1.00  0.00     0.198 A  
HETATM    9  C   UNL     1      -9.598   4.886  65.349  1.00  0.00    -0.115 A  
ENDROOT
BRANCH   7  10
HETATM   10  C   UNL     1      -8.922   8.387  66.672  1.00  0.00    -0.151 A  
HETATM   11  C   UNL     1      -8.094   9.488  66.797  1.00  0.00    -0.109 A  
HETATM   12  C   UNL     1      -8.813  10.470  67.516  1.00  0.00    -0.131 A  
HETATM   13  C   UNL     1     -10.051   9.928  67.792  1.00  0.00    -0.180 A  
HETATM   14  O   UNL     1     -10.122   8.658  67.275  1.00  0.00    -0.200 OA 
BRANCH  13  15
HETATM   15  C   UNL     1     -11.190  10.445  68.504  1.00  0.00    -0.251 C  
BRANCH  15  16
HETATM   16  N   UNL     1     -12.108  11.132  67.892  1.00  0.00    -0.631 NA 
HETATM   17  H   UNL     1     -13.016  10.723  67.673  1.00  0.00     0.000 HD 
BRANCH  16  18
HETATM   18  N   UNL     1     -11.810  12.427  67.551  1.00  0.00    -0.339 N  
HETATM   19  C   UNL     1     -11.606  13.427  68.577  1.00  0.00    -0.333 C  
HETATM   20  C   UNL     1     -11.662  14.692  67.742  1.00  0.00    -0.359 C  
HETATM   21  N   UNL     1     -11.840  14.365  66.438  1.00  0.00    -0.395 NA 
HETATM   22  O   UNL     1     -11.579  15.836  68.169  1.00  0.00    -0.344 OA 
HETATM   23  C   UNL     1     -12.027  13.028  66.298  1.00  0.00    -0.414 C  
HETATM   24  O   UNL     1     -12.364  12.490  65.253  1.00  0.00    -0.544 OA 
ENDBRANCH  16  18
ENDBRANCH  15  16
ENDBRANCH  13  15
ENDBRANCH   7  10
TORSDOF 4
ENDMDL
MODEL      224
REMARK 921   NORMALIZED FREE ENERGY PREDICTED BY IDOCK:   -4.02 KCAL/MOL
REMARK 922        TOTAL FREE ENERGY PREDICTED BY IDOCK:   -5.52 KCAL/MOL
REMARK 923 INTER-LIGAND FREE ENERGY PREDICTED BY IDOCK:   -5.65 KCAL/MOL
REMARK 924 INTRA-LIGAND FREE ENERGY PREDICTED BY IDOCK:    0.13 KCAL/MOL
REMARK 927      BINDING AFFINITY PREDICTED BY RF-SCORE:    0.00 PKD
ROOT
HETATM    1  O   UNL     1      -5.566  14.236  71.780  1.00  0.00    -0.202 OA 
HETATM    2  N   UNL     1      -5.770  13.214  71.113  1.00  0.00    -0.146 N  
HETATM    3  O   UNL     1      -5.293  12.100  71.367  1.00  0.00    -0.322 OA 
HETATM    4  C   UNL     1      -6.643  13.329  69.936  1.00  0.00     0.099 A  
HETATM    5  C   UNL     1      -7.201  14.569  69.614  1.00  0.00    -0.050 A  
HETATM    6  C   UNL     1      -8.055  14.674  68.511  1.00  0.00    -0.146 A  
HETATM    7  C   UNL     1      -8.372  13.558  67.716  1.00  0.00    -0.181 A  
HETATM    8  C   UNL     1      -7.786  12.324  68.046  1.00  0.00    -0.132 A  
HETATM    9  C   UNL     1      -6.926  12.205  69.152  1.00  0.00    -0.053 A  
ENDROOT
BRANCH   7  10
HETATM   10  C   UNL     1      -9.310  13.712  66.600  1.00  0.00    -0.254 A  
HETATM   11  C   UNL     1      -9.811  12.835  65.655  1.00  0.00    -0.190 A  
HETATM   12  C   UNL     1     -10.654  13.581  64.800  1.00  0.00    -0.429 A  
HETATM   13  C   UNL     1     -10.636  14.880  65.264  1.00  0.00    -0.401 A  
HETATM   14  O   UNL     1      -9.820  14.962  66.365  1.00  0.00    -0.247 OA 
BRANCH  13  15
HETATM   15  C   UNL     1     -11.280  16.077  64.794  1.00  0.00    -0.339 C  
BRANCH  15  16
HETATM   16  N   UNL     1     -10.738  17.245  64.974  1.00  0.00    -0.659 NA 
HETATM   17  H   UNL     1     -10.733  17.945  64.233  1.00  0.00     0.000 HD 
BRANCH  16  18
HETATM   18  N   UNL     1     -10.174  17.500  66.199  1.00  0.00    -0.353 N  
HETATM   19  C   UNL     1     -10.998  17.917  67.313  1.00  0.00    -0.038 C  
HETATM   20  C   UNL     1      -9.932  18.397  68.279  1.00  0.00    -0.369 C  
HETATM   21  N   UNL     1      -8.707  18.212  67.726  1.00  0.00    -0.252 NA 
HETATM   22  O   UNL     1     -10.134  18.893  69.379  1.00  0.00    -0.223 OA 
HETATM   23  C   UNL     1      -8.816  17.767  66.449  1.00  0.00    -0.231 C  
HETATM   24  O   UNL     1      -7.875  17.670  65.676  1.00  0.00    -0.533 OA 
ENDBRANCH  16  18
ENDBRANCH  15  16
ENDBRANCH  13  15
ENDBRANCH   7  10
TORSDOF 4
ENDMDL
MODEL      225
REMARK 921   NORMALIZED FREE ENERGY PREDICTED BY IDOCK:   -3.98 KCAL/MOL
REMARK 922        TOTAL FREE ENERGY PREDICTED BY IDOCK:   -5.47 KCAL/MOL
REMARK 923 INTER-LIGAND FREE ENERGY PREDICTED BY IDOCK:   -5.04 KCAL/MOL
REMARK 924 INTRA-LIGAND FREE ENERGY PREDICTED BY IDOCK:   -0.43 KCAL/MOL
REMARK 927      BINDING AFFINITY PREDICTED BY RF-SCORE:    0.00 PKD
ROOT
HETATM    1  O   UNL     1      -5.491   4.735  73.656  1.00  0.00    -0.008 OA 
HETATM    2  N   UNL     1      -6.262   4.281  72.802  1.00  0.00    -0.016 N  
HETATM    3  O   UNL     1      -6.146   3.170  72.268  1.00  0.00    -0.012 OA 
HETATM    4  C   UNL     1      -7.397   5.120  72.391  1.00  0.00    -0.093 A  
HETATM    5  C   UNL     1      -7.563   6.381  72.968  1.00  0.00    -0.095 A  
HETATM    6  C   UNL     1      -8.658   7.169  72.599  1.00  0.00    -0.136 A  
HETATM    7  C   UNL     1      -9.607   6.720  71.662  1.00  0.00    -0.163 A  
HETATM    8  C   UNL     1      -9.411   5.455  71.079  1.00  0.00    -0.205 A  
HETATM    9  C   UNL     1      -8.314   4.655  71.441  1.00  0.00    -0.108 A  
ENDROOT
BRANCH   7  10
HETATM   10  C   UNL     1     -10.763   7.564  71.346  1.00  0.00    -0.223 A  
HETATM   11  C   UNL     1     -12.109   7.476  71.646  1.00  0.00    -0.341 A  
HETATM   12  C   UNL     1     -12.747   8.574  71.024  1.00  0.00    -0.019 A  
HETATM   13  C   UNL     1     -11.760   9.287  70.376  1.00  0.00    -0.114 A  
HETATM   14  O   UNL     1     -10.547   8.675  70.574  1.00  0.00    -0.205 OA 
BRANCH  13  15
HETATM   15  C   UNL     1     -11.807  10.477  69.569  1.00  0.00    -0.215 C  
BRANCH  15  16
HETATM   16  N   UNL     1     -11.280  11.590  69.983  1.00  0.00    -0.489 NA 
HETATM   17  H   UNL     1     -10.268  11.707  70.042  1.00  0.00     0.000 HD 
BRANCH  16  18
HETATM   18  N   UNL     1     -12.135  12.603  70.339  1.00  0.00    -0.352 N  
HETATM   19  C   UNL     1     -11.973  13.929  69.782  1.00  0.00    -0.338 C  
HETATM   20  C   UNL     1     -12.875  14.726  70.705  1.00  0.00    -0.361 C  
HETATM   21  N   UNL     1     -13.452  13.890  71.604  1.00  0.00    -0.357 NA 
HETATM   22  O   UNL     1     -13.048  15.936  70.666  1.00  0.00    -0.467 OA 
HETATM   23  C   UNL     1     -12.962  12.631  71.477  1.00  0.00    -0.282 C  
HETATM   24  O   UNL     1     -13.194  11.724  72.262  1.00  0.00    -0.438 OA 
ENDBRANCH  16  18
ENDBRANCH  15  16
ENDBRANCH  13  15
ENDBRANCH   7  10
TORSDOF 4
ENDMDL
MODEL      226
REMARK 921   NORMALIZED FREE ENERGY PREDICTED BY IDOCK:   -3.88 KCAL/MOL
REMARK 922        TOTAL FREE ENERGY PREDICTED BY IDOCK:   -5.35 KCAL/MOL
REMARK 923 INTER-LIGAND FREE ENERGY PREDICTED BY IDOCK:   -5.21 KCAL/MOL
REMARK 924 INTRA-LIGAND FREE ENERGY PREDICTED BY IDOCK:   -0.14 KCAL/MOL
REMARK 927      BINDING AFFINITY PREDICTED BY RF-SCORE:    0.00 PKD
ROOT
HETATM    1  O   UNL     1     -13.987  14.830  72.073  1.00  0.00    -0.394 OA 
HETATM    2  N   UNL     1     -13.278  14.943  71.065  1.00  0.00    -0.391 N  
HETATM    3  O   UNL     1     -13.021  16.014  70.500  1.00  0.00    -0.337 OA 
HETATM    4  C   UNL     1     -12.698  13.717  70.498  1.00  0.00    -0.222 A  
HETATM    5  C   UNL     1     -12.964  12.487  71.103  1.00  0.00    -0.237 A  
HETATM    6  C   UNL     1     -12.390  11.323  70.582  1.00  0.00    -0.477 A  
HETATM    7  C   UNL     1     -11.542  11.359  69.460  1.00  0.00    -0.399 A  
HETATM    8  C   UNL     1     -11.302  12.605  68.854  1.00  0.00    -0.345 A  
HETATM    9  C   UNL     1     -11.874  13.781  69.368  1.00  0.00    -0.392 A  
ENDROOT
BRANCH   7  10
HETATM   10  C   UNL     1     -10.927  10.117  68.981  1.00  0.00    -0.226 A  
HETATM   11  C   UNL     1     -10.862   9.510  67.741  1.00  0.00    -0.258 A  
HETATM   12  C   UNL     1     -10.162   8.292  67.911  1.00  0.00    -0.276 A  
HETATM   13  C   UNL     1      -9.827   8.214  69.246  1.00  0.00    -0.182 A  
HETATM   14  O   UNL     1     -10.288   9.328  69.902  1.00  0.00    -0.198 OA 
BRANCH  13  15
HETATM   15  C   UNL     1      -9.133   7.207  70.005  1.00  0.00    -0.145 C  
BRANCH  15  16
HETATM   16  N   UNL     1      -9.762   6.176  70.484  1.00  0.00    -0.171 NA 
HETATM   17  H   UNL     1     -10.619   6.285  71.027  1.00  0.00     0.000 HD 
BRANCH  16  18
HETATM   18  N   UNL     1      -9.232   4.936  70.232  1.00  0.00    -0.129 N  
HETATM   19  C   UNL     1      -9.064   3.978  71.304  1.00  0.00    -0.118 C  
HETATM   20  C   UNL     1      -8.160   2.965  70.627  1.00  0.00    -0.045 C  
HETATM   21  N   UNL     1      -7.927   3.352  69.348  1.00  0.00    -0.050 NA 
HETATM   22  O   UNL     1      -7.693   1.962  71.149  1.00  0.00    -0.036 OA 
HETATM   23  C   UNL     1      -8.473   4.570  69.105  1.00  0.00    -0.079 C  
HETATM   24  O   UNL     1      -8.277   5.217  68.087  1.00  0.00    -0.098 OA 
ENDBRANCH  16  18
ENDBRANCH  15  16
ENDBRANCH  13  15
ENDBRANCH   7  10
TORSDOF 4
ENDMDL
MODEL      227
REMARK 921   NORMALIZED FREE ENERGY PREDICTED BY IDOCK:   -3.87 KCAL/MOL
REMARK 922        TOTAL FREE ENERGY PREDICTED BY IDOCK:   -5.34 KCAL/MOL
REMARK 923 INTER-LIGAND FREE ENERGY PREDICTED BY IDOCK:   -4.86 KCAL/MOL
REMARK 924 INTRA-LIGAND FREE ENERGY PREDICTED BY IDOCK:   -0.48 KCAL/MOL
REMARK 927      BINDING AFFINITY PREDICTED BY RF-SCORE:    0.00 PKD
ROOT
HETATM    1  O   UNL     1     -11.245  18.653  67.859  1.00  0.00    -0.057 OA 
HETATM    2  N   UNL     1     -10.363  17.960  67.335  1.00  0.00    -0.363 N  
HETATM    3  O   UNL     1      -9.417  18.408  66.673  1.00  0.00    -0.293 OA 
HETATM    4  C   UNL     1     -10.444  16.503  67.511  1.00  0.00    -0.310 A  
HETATM    5  C   UNL     1     -11.497  15.958  68.249  1.00  0.00    -0.320 A  
HETATM    6  C   UNL     1     -11.560  14.574  68.442  1.00  0.00    -0.356 A  
HETATM    7  C   UNL     1     -10.582  13.712  67.912  1.00  0.00    -0.255 A  
HETATM    8  C   UNL     1      -9.541  14.279  67.157  1.00  0.00    -0.245 A  
HETATM    9  C   UNL     1      -9.468  15.668  66.956  1.00  0.00    -0.236 A  
ENDROOT
BRANCH   7  10
HETATM   10  C   UNL     1     -10.667  12.274  68.183  1.00  0.00    -0.216 A  
HETATM   11  C   UNL     1     -11.584  11.490  68.860  1.00  0.00    -0.384 A  
HETATM   12  C   UNL     1     -11.103  10.161  68.822  1.00  0.00    -0.250 A  
HETATM   13  C   UNL     1      -9.917  10.191  68.119  1.00  0.00    -0.147 A  
HETATM   14  O   UNL     1      -9.650  11.478  67.724  1.00  0.00    -0.168 OA 
BRANCH  13  15
HETATM   15  C   UNL     1      -8.977   9.157  67.777  1.00  0.00    -0.127 C  
BRANCH  15  16
HETATM   16  N   UNL     1      -8.057   8.784  68.615  1.00  0.00    -0.114 NA 
HETATM   17  H   UNL     1      -7.072   8.771  68.349  1.00  0.00     0.000 HD 
BRANCH  16  18
HETATM   18  N   UNL     1      -8.459   8.406  69.871  1.00  0.00    -0.124 N  
HETATM   19  C   UNL     1      -7.870   9.015  71.044  1.00  0.00    -0.142 C  
HETATM   20  C   UNL     1      -8.352   8.062  72.121  1.00  0.00    -0.143 C  
HETATM   21  N   UNL     1      -9.125   7.100  71.558  1.00  0.00    -0.142 NA 
HETATM   22  O   UNL     1      -8.078   8.129  73.311  1.00  0.00    -0.169 OA 
HETATM   23  C   UNL     1      -9.134   7.218  70.206  1.00  0.00    -0.152 C  
HETATM   24  O   UNL     1      -9.621   6.390  69.450  1.00  0.00    -0.142 OA 
ENDBRANCH  16  18
ENDBRANCH  15  16
ENDBRANCH  13  15
ENDBRANCH   7  10
TORSDOF 4
ENDMDL
MODEL      228
REMARK 921   NORMALIZED FREE ENERGY PREDICTED BY IDOCK:   -3.87 KCAL/MOL
REMARK 922        TOTAL FREE ENERGY PREDICTED BY IDOCK:   -5.33 KCAL/MOL
REMARK 923 INTER-LIGAND FREE ENERGY PREDICTED BY IDOCK:   -4.66 KCAL/MOL
REMARK 924 INTRA-LIGAND FREE ENERGY PREDICTED BY IDOCK:   -0.67 KCAL/MOL
REMARK 927      BINDING AFFINITY PREDICTED BY RF-SCORE:    0.00 PKD
ROOT
HETATM    1  O   UNL     1     -10.598   6.260  73.277  1.00  0.00    -0.233 OA 
HETATM    2  N   UNL     1     -10.643   5.433  72.358  1.00  0.00    -0.216 N  
HETATM    3  O   UNL     1     -11.032   4.264  72.482  1.00  0.00    -0.066 OA 
HETATM    4  C   UNL     1     -10.205   5.868  71.024  1.00  0.00    -0.211 A  
HETATM    5  C   UNL     1      -9.757   7.179  70.842  1.00  0.00    -0.170 A  
HETATM    6  C   UNL     1      -9.367   7.603  69.568  1.00  0.00    -0.153 A  
HETATM    7  C   UNL     1      -9.418   6.741  68.457  1.00  0.00    -0.131 A  
HETATM    8  C   UNL     1      -9.854   5.421  68.665  1.00  0.00    -0.204 A  
HETATM    9  C   UNL     1     -10.248   4.983  69.941  1.00  0.00    -0.340 A  
ENDROOT
BRANCH   7  10
HETATM   10  C   UNL     1      -9.044   7.249  67.133  1.00  0.00    -0.130 A  
HETATM   11  C   UNL     1      -8.267   6.740  66.109  1.00  0.00    -0.124 A  
HETATM   12  C   UNL     1      -8.237   7.716  65.086  1.00  0.00    -0.130 A  
HETATM   13  C   UNL     1      -9.002   8.774  65.529  1.00  0.00    -0.181 A  
HETATM   14  O   UNL     1      -9.500   8.491  66.776  1.00  0.00    -0.165 OA 
BRANCH  13  15
HETATM   15  C   UNL     1      -9.321  10.045  64.933  1.00  0.00    -0.266 C  
BRANCH  15  16
HETATM   16  N   UNL     1      -8.998  11.159  65.519  1.00  0.00    -0.272 NA 
HETATM   17  H   UNL     1      -8.145  11.660  65.270  1.00  0.00     0.000 HD 
BRANCH  16  18
HETATM   18  N   UNL     1      -9.848  11.638  66.484  1.00  0.00    -0.200 N  
HETATM   19  C   UNL     1     -11.046  12.361  66.114  1.00  0.00    -0.302 C  
HETATM   20  C   UNL     1     -11.431  12.958  67.454  1.00  0.00    -0.336 C  
HETATM   21  N   UNL     1     -10.546  12.554  68.399  1.00  0.00    -0.236 NA 
HETATM   22  O   UNL     1     -12.378  13.704  67.659  1.00  0.00    -0.257 OA 
HETATM   23  C   UNL     1      -9.535  11.842  67.840  1.00  0.00    -0.191 C  
HETATM   24  O   UNL     1      -8.528  11.496  68.441  1.00  0.00    -0.149 OA 
ENDBRANCH  16  18
ENDBRANCH  15  16
ENDBRANCH  13  15
ENDBRANCH   7  10
TORSDOF 4
ENDMDL
MODEL      229
REMARK 921   NORMALIZED FREE ENERGY PREDICTED BY IDOCK:   -3.81 KCAL/MOL
REMARK 922        TOTAL FREE ENERGY PREDICTED BY IDOCK:   -5.26 KCAL/MOL
REMARK 923 INTER-LIGAND FREE ENERGY PREDICTED BY IDOCK:   -4.69 KCAL/MOL
REMARK 924 INTRA-LIGAND FREE ENERGY PREDICTED BY IDOCK:   -0.57 KCAL/MOL
REMARK 927      BINDING AFFINITY PREDICTED BY RF-SCORE:    0.00 PKD
ROOT
HETATM    1  O   UNL     1      -6.364   8.038  66.847  1.00  0.00    -0.053 OA 
HETATM    2  N   UNL     1      -7.403   8.679  66.648  1.00  0.00    -0.081 N  
HETATM    3  O   UNL     1      -8.470   8.188  66.258  1.00  0.00    -0.118 OA 
HETATM    4  C   UNL     1      -7.368  10.128  66.894  1.00  0.00    -0.092 A  
HETATM    5  C   UNL     1      -6.183  10.722  67.334  1.00  0.00    -0.055 A  
HETATM    6  C   UNL     1      -6.157  12.096  67.596  1.00  0.00    -0.110 A  
HETATM    7  C   UNL     1      -7.300  12.899  67.432  1.00  0.00    -0.132 A  
HETATM    8  C   UNL     1      -8.478  12.285  66.971  1.00  0.00    -0.181 A  
HETATM    9  C   UNL     1      -8.517  10.906  66.704  1.00  0.00    -0.151 A  
ENDROOT
BRANCH   7  10
HETATM   10  C   UNL     1      -7.233  14.325  67.767  1.00  0.00    -0.175 A  
HETATM   11  C   UNL     1      -6.183  15.205  67.950  1.00  0.00    -0.172 A  
HETATM   12  C   UNL     1      -6.744  16.455  68.303  1.00  0.00    -0.134 A  
HETATM   13  C   UNL     1      -8.113  16.282  68.313  1.00  0.00    -0.167 A  
HETATM   14  O   UNL     1      -8.414  14.985  67.982  1.00  0.00    -0.143 OA 
BRANCH  13  15
HETATM   15  C   UNL     1      -9.193  17.184  68.613  1.00  0.00    -0.263 C  
BRANCH  15  16
HETATM   16  N   UNL     1     -10.364  17.033  68.070  1.00  0.00    -0.324 NA 
HETATM   17  H   UNL     1     -10.662  17.614  67.287  1.00  0.00     0.000 HD 
BRANCH  16  18
HETATM   18  N   UNL     1     -11.183  16.063  68.590  1.00  0.00    -0.348 N  
HETATM   19  C   UNL     1     -11.284  15.878  70.022  1.00  0.00    -0.353 C  
HETATM   20  C   UNL     1     -11.985  14.535  70.077  1.00  0.00    -0.330 C  
HETATM   21  N   UNL     1     -12.238  14.106  68.815  1.00  0.00    -0.280 NA 
HETATM   22  O   UNL     1     -12.266  13.915  71.094  1.00  0.00    -0.344 OA 
HETATM   23  C   UNL     1     -11.691  14.947  67.901  1.00  0.00    -0.321 C  
HETATM   24  O   UNL     1     -11.636  14.712  66.703  1.00  0.00    -0.362 OA 
ENDBRANCH  16  18
ENDBRANCH  15  16
ENDBRANCH  13  15
ENDBRANCH   7  10
TORSDOF 4
ENDMDL
MODEL      230
REMARK 921   NORMALIZED FREE ENERGY PREDICTED BY IDOCK:   -3.81 KCAL/MOL
REMARK 922        TOTAL FREE ENERGY PREDICTED BY IDOCK:   -5.26 KCAL/MOL
REMARK 923 INTER-LIGAND FREE ENERGY PREDICTED BY IDOCK:   -4.71 KCAL/MOL
REMARK 924 INTRA-LIGAND FREE ENERGY PREDICTED BY IDOCK:   -0.55 KCAL/MOL
REMARK 927      BINDING AFFINITY PREDICTED BY RF-SCORE:    0.00 PKD
ROOT
HETATM    1  O   UNL     1     -12.522  12.546  69.774  1.00  0.00    -0.059 OA 
HETATM    2  N   UNL     1     -11.501  11.894  69.521  1.00  0.00    -0.291 N  
HETATM    3  O   UNL     1     -10.640  12.225  68.696  1.00  0.00    -0.228 OA 
HETATM    4  C   UNL     1     -11.297  10.635  70.252  1.00  0.00    -0.319 A  
HETATM    5  C   UNL     1     -12.246  10.224  71.190  1.00  0.00    -0.500 A  
HETATM    6  C   UNL     1     -12.039   9.041  71.908  1.00  0.00    -0.448 A  
HETATM    7  C   UNL     1     -10.890   8.253  71.712  1.00  0.00    -0.332 A  
HETATM    8  C   UNL     1      -9.956   8.675  70.750  1.00  0.00    -0.241 A  
HETATM    9  C   UNL     1     -10.154   9.861  70.022  1.00  0.00    -0.308 A  
ENDROOT
BRANCH   7  10
HETATM   10  C   UNL     1     -10.697   7.048  72.524  1.00  0.00    -0.242 A  
HETATM   11  C   UNL     1     -10.470   6.840  73.872  1.00  0.00    -0.356 A  
HETATM   12  C   UNL     1     -10.322   5.446  74.059  1.00  0.00    -0.299 A  
HETATM   13  C   UNL     1     -10.473   4.864  72.818  1.00  0.00    -0.205 A  
HETATM   14  O   UNL     1     -10.706   5.838  71.880  1.00  0.00    -0.227 OA 
BRANCH  13  15
HETATM   15  C   UNL     1     -10.410   3.493  72.386  1.00  0.00    -0.090 C  
BRANCH  15  16
HETATM   16  N   UNL     1      -9.271   2.878  72.270  1.00  0.00    -0.095 NA 
HETATM   17  H   UNL     1      -9.058   2.051  72.827  1.00  0.00     0.000 HD 
BRANCH  16  18
HETATM   18  N   UNL     1      -8.366   3.384  71.371  1.00  0.00    -0.067 N  
HETATM   19  C   UNL     1      -7.178   4.070  71.834  1.00  0.00    -0.058 C  
HETATM   20  C   UNL     1      -6.715   4.719  70.544  1.00  0.00    -0.036 C  
HETATM   21  N   UNL     1      -7.556   4.372  69.538  1.00  0.00    -0.054 NA 
HETATM   22  O   UNL     1      -5.747   5.457  70.421  1.00  0.00    -0.018 OA 
HETATM   23  C   UNL     1      -8.606   3.654  70.012  1.00  0.00    -0.061 C  
HETATM   24  O   UNL     1      -9.585   3.353  69.346  1.00  0.00    -0.172 OA 
ENDBRANCH  16  18
ENDBRANCH  15  16
ENDBRANCH  13  15
ENDBRANCH   7  10
TORSDOF 4
ENDMDL
MODEL      231
REMARK 921   NORMALIZED FREE ENERGY PREDICTED BY IDOCK:   -3.73 KCAL/MOL
REMARK 922        TOTAL FREE ENERGY PREDICTED BY IDOCK:   -5.16 KCAL/MOL
REMARK 923 INTER-LIGAND FREE ENERGY PREDICTED BY IDOCK:   -4.76 KCAL/MOL
REMARK 924 INTRA-LIGAND FREE ENERGY PREDICTED BY IDOCK:   -0.40 KCAL/MOL
REMARK 927      BINDING AFFINITY PREDICTED BY RF-SCORE:    0.00 PKD
ROOT
HETATM    1  O   UNL     1      -6.461  19.326  69.337  1.00  0.00    -0.290 OA 
HETATM    2  N   UNL     1      -5.899  18.508  70.076  1.00  0.00    -0.237 N  
HETATM    3  O   UNL     1      -5.319  18.795  71.132  1.00  0.00    -0.268 OA 
HETATM    4  C   UNL     1      -5.921  17.095  69.673  1.00  0.00    -0.239 A  
HETATM    5  C   UNL     1      -6.564  16.729  68.488  1.00  0.00    -0.161 A  
HETATM    6  C   UNL     1      -6.611  15.381  68.117  1.00  0.00    -0.141 A  
HETATM    7  C   UNL     1      -6.029  14.377  68.914  1.00  0.00    -0.086 A  
HETATM    8  C   UNL     1      -5.371  14.769  70.093  1.00  0.00    -0.107 A  
HETATM    9  C   UNL     1      -5.317  16.120  70.476  1.00  0.00    -0.169 A  
ENDROOT
BRANCH   7  10
HETATM   10  C   UNL     1      -6.148  12.974  68.505  1.00  0.00    -0.076 A  
HETATM   11  C   UNL     1      -5.895  12.309  67.320  1.00  0.00    -0.143 A  
HETATM   12  C   UNL     1      -6.243  10.953  67.522  1.00  0.00    -0.053 A  
HETATM   13  C   UNL     1      -6.688  10.850  68.823  1.00  0.00    -0.062 A  
HETATM   14  O   UNL     1      -6.627  12.081  69.428  1.00  0.00    -0.109 OA 
BRANCH  13  15
HETATM   15  C   UNL     1      -7.186   9.735  69.583  1.00  0.00    -0.097 C  
BRANCH  15  16
HETATM   16  N   UNL     1      -8.053   9.906  70.536  1.00  0.00    -0.405 NA 
HETATM   17  H   UNL     1      -7.755  10.093  71.494  1.00  0.00     0.000 HD 
BRANCH  16  18
HETATM   18  N   UNL     1      -9.382   9.826  70.207  1.00  0.00    -0.234 N  
HETATM   19  C   UNL     1      -9.923  10.640  69.139  1.00  0.00    -0.211 C  
HETATM   20  C   UNL     1     -11.409  10.470  69.390  1.00  0.00    -0.269 C  
HETATM   21  N   UNL     1     -11.596   9.638  70.444  1.00  0.00    -0.255 NA 
HETATM   22  O   UNL     1     -12.308  11.010  68.759  1.00  0.00    -0.533 OA 
HETATM   23  C   UNL     1     -10.410   9.308  71.015  1.00  0.00    -0.318 C  
HETATM   24  O   UNL     1     -10.304   8.702  72.071  1.00  0.00    -0.301 OA 
ENDBRANCH  16  18
ENDBRANCH  15  16
ENDBRANCH  13  15
ENDBRANCH   7  10
TORSDOF 4
ENDMDL
MODEL      232
REMARK 921   NORMALIZED FREE ENERGY PREDICTED BY IDOCK:   -3.71 KCAL/MOL
REMARK 922        TOTAL FREE ENERGY PREDICTED BY IDOCK:   -5.14 KCAL/MOL
REMARK 923 INTER-LIGAND FREE ENERGY PREDICTED BY IDOCK:   -4.51 KCAL/MOL
REMARK 924 INTRA-LIGAND FREE ENERGY PREDICTED BY IDOCK:   -0.62 KCAL/MOL
REMARK 927      BINDING AFFINITY PREDICTED BY RF-SCORE:    0.00 PKD
ROOT
HETATM    1  O   UNL     1      -7.044  17.866  69.164  1.00  0.00    -0.252 OA 
HETATM    2  N   UNL     1      -6.592  16.739  69.405  1.00  0.00    -0.226 N  
HETATM    3  O   UNL     1      -5.626  16.512  70.146  1.00  0.00    -0.187 OA 
HETATM    4  C   UNL     1      -7.247  15.590  68.766  1.00  0.00    -0.134 A  
HETATM    5  C   UNL     1      -8.339  15.803  67.921  1.00  0.00    -0.154 A  
HETATM    6  C   UNL     1      -8.981  14.708  67.335  1.00  0.00    -0.202 A  
HETATM    7  C   UNL     1      -8.559  13.388  67.580  1.00  0.00    -0.200 A  
HETATM    8  C   UNL     1      -7.447  13.196  68.418  1.00  0.00    -0.124 A  
HETATM    9  C   UNL     1      -6.792  14.289  69.012  1.00  0.00    -0.109 A  
ENDROOT
BRANCH   7  10
HETATM   10  C   UNL     1      -9.296  12.273  66.979  1.00  0.00    -0.205 A  
HETATM   11  C   UNL     1      -9.920  12.099  65.758  1.00  0.00    -0.271 A  
HETATM   12  C   UNL     1     -10.506  10.811  65.770  1.00  0.00    -0.256 A  
HETATM   13  C   UNL     1     -10.208  10.255  66.996  1.00  0.00    -0.228 A  
HETATM   14  O   UNL     1      -9.466  11.142  67.735  1.00  0.00    -0.163 OA 
BRANCH  13  15
HETATM   15  C   UNL     1     -10.546   8.985  67.582  1.00  0.00    -0.231 C  
BRANCH  15  16
HETATM   16  N   UNL     1      -9.686   8.327  68.300  1.00  0.00    -0.154 NA 
HETATM   17  H   UNL     1      -8.780   8.053  67.919  1.00  0.00     0.000 HD 
BRANCH  16  18
HETATM   18  N   UNL     1     -10.041   8.015  69.588  1.00  0.00    -0.194 N  
HETATM   19  C   UNL     1     -11.101   8.741  70.253  1.00  0.00    -0.222 C  
HETATM   20  C   UNL     1     -10.880   8.298  71.687  1.00  0.00    -0.256 C  
HETATM   21  N   UNL     1      -9.846   7.421  71.734  1.00  0.00    -0.167 NA 
HETATM   22  O   UNL     1     -11.516   8.680  72.660  1.00  0.00    -0.301 OA 
HETATM   23  C   UNL     1      -9.261   7.300  70.515  1.00  0.00    -0.158 C  
HETATM   24  O   UNL     1      -8.216   6.699  70.315  1.00  0.00    -0.122 OA 
ENDBRANCH  16  18
ENDBRANCH  15  16
ENDBRANCH  13  15
ENDBRANCH   7  10
TORSDOF 4
ENDMDL
MODEL      233
REMARK 921   NORMALIZED FREE ENERGY PREDICTED BY IDOCK:   -3.70 KCAL/MOL
REMARK 922        TOTAL FREE ENERGY PREDICTED BY IDOCK:   -5.12 KCAL/MOL
REMARK 923 INTER-LIGAND FREE ENERGY PREDICTED BY IDOCK:   -4.53 KCAL/MOL
REMARK 924 INTRA-LIGAND FREE ENERGY PREDICTED BY IDOCK:   -0.59 KCAL/MOL
REMARK 927      BINDING AFFINITY PREDICTED BY RF-SCORE:    0.00 PKD
ROOT
HETATM    1  O   UNL     1      -7.337  17.399  68.925  1.00  0.00    -0.249 OA 
HETATM    2  N   UNL     1      -6.869  16.308  69.276  1.00  0.00    -0.202 N  
HETATM    3  O   UNL     1      -5.991  16.162  70.136  1.00  0.00    -0.189 OA 
HETATM    4  C   UNL     1      -7.395  15.099  68.625  1.00  0.00    -0.121 A  
HETATM    5  C   UNL     1      -8.385  15.220  67.647  1.00  0.00    -0.176 A  
HETATM    6  C   UNL     1      -8.906  14.069  67.048  1.00  0.00    -0.234 A  
HETATM    7  C   UNL     1      -8.460  12.784  67.409  1.00  0.00    -0.191 A  
HETATM    8  C   UNL     1      -7.450  12.685  68.382  1.00  0.00    -0.127 A  
HETATM    9  C   UNL     1      -6.918  13.835  68.991  1.00  0.00    -0.104 A  
ENDROOT
BRANCH   7  10
HETATM   10  C   UNL     1      -9.073  11.608  66.786  1.00  0.00    -0.186 A  
HETATM   11  C   UNL     1      -9.443  11.309  65.487  1.00  0.00    -0.255 A  
HETATM   12  C   UNL     1     -10.030  10.023  65.507  1.00  0.00    -0.367 A  
HETATM   13  C   UNL     1      -9.986   9.591  66.816  1.00  0.00    -0.233 A  
HETATM   14  O   UNL     1      -9.399  10.554  67.598  1.00  0.00    -0.148 OA 
BRANCH  13  15
HETATM   15  C   UNL     1     -10.446   8.380  67.445  1.00  0.00    -0.283 C  
BRANCH  15  16
HETATM   16  N   UNL     1     -10.809   7.353  66.736  1.00  0.00    -0.521 NA 
HETATM   17  H   UNL     1     -11.592   7.411  66.084  1.00  0.00     0.000 HD 
BRANCH  16  18
HETATM   18  N   UNL     1     -10.102   6.188  66.898  1.00  0.00    -0.167 N  
HETATM   19  C   UNL     1     -10.274   5.386  68.090  1.00  0.00    -0.165 C  
HETATM   20  C   UNL     1      -9.081   4.456  67.969  1.00  0.00    -0.127 C  
HETATM   21  N   UNL     1      -8.404   4.737  66.828  1.00  0.00    -0.107 NA 
HETATM   22  O   UNL     1      -8.760   3.596  68.778  1.00  0.00    -0.086 OA 
HETATM   23  C   UNL     1      -8.929   5.826  66.211  1.00  0.00    -0.146 C  
HETATM   24  O   UNL     1      -8.414   6.384  65.254  1.00  0.00    -0.149 OA 
ENDBRANCH  16  18
ENDBRANCH  15  16
ENDBRANCH  13  15
ENDBRANCH   7  10
TORSDOF 4
ENDMDL
MODEL      234
REMARK 921   NORMALIZED FREE ENERGY PREDICTED BY IDOCK:   -3.64 KCAL/MOL
REMARK 922        TOTAL FREE ENERGY PREDICTED BY IDOCK:   -5.05 KCAL/MOL
REMARK 923 INTER-LIGAND FREE ENERGY PREDICTED BY IDOCK:   -4.48 KCAL/MOL
REMARK 924 INTRA-LIGAND FREE ENERGY PREDICTED BY IDOCK:   -0.57 KCAL/MOL
REMARK 927      BINDING AFFINITY PREDICTED BY RF-SCORE:    0.00 PKD
ROOT
HETATM    1  O   UNL     1      -5.586  13.047  71.495  1.00  0.00    -0.370 OA 
HETATM    2  N   UNL     1      -5.856  13.266  70.308  1.00  0.00    -0.155 N  
HETATM    3  O   UNL     1      -5.644  14.337  69.723  1.00  0.00    -0.093 OA 
HETATM    4  C   UNL     1      -6.471  12.178  69.535  1.00  0.00    -0.100 A  
HETATM    5  C   UNL     1      -6.729  10.954  70.158  1.00  0.00    -0.081 A  
HETATM    6  C   UNL     1      -7.287   9.908  69.416  1.00  0.00    -0.091 A  
HETATM    7  C   UNL     1      -7.594  10.055  68.051  1.00  0.00    -0.088 A  
HETATM    8  C   UNL     1      -7.345  11.300  67.448  1.00  0.00    -0.115 A  
HETATM    9  C   UNL     1      -6.784  12.359  68.183  1.00  0.00    -0.075 A  
ENDROOT
BRANCH   7  10
HETATM   10  C   UNL     1      -8.134   8.912  67.308  1.00  0.00    -0.104 A  
HETATM   11  C   UNL     1      -7.832   8.353  66.079  1.00  0.00    -0.098 A  
HETATM   12  C   UNL     1      -8.731   7.280  65.878  1.00  0.00    -0.150 A  
HETATM   13  C   UNL     1      -9.538   7.228  66.995  1.00  0.00    -0.166 A  
HETATM   14  O   UNL     1      -9.174   8.220  67.872  1.00  0.00    -0.132 OA 
BRANCH  13  15
HETATM   15  C   UNL     1     -10.635   6.367  67.349  1.00  0.00    -0.295 C  
BRANCH  15  16
HETATM   16  N   UNL     1     -11.391   6.629  68.373  1.00  0.00    -0.571 NA 
HETATM   17  H   UNL     1     -12.284   7.109  68.262  1.00  0.00     0.000 HD 
BRANCH  16  18
HETATM   18  N   UNL     1     -10.942   6.237  69.609  1.00  0.00    -0.337 N  
HETATM   19  C   UNL     1     -10.255   4.974  69.773  1.00  0.00    -0.266 C  
HETATM   20  C   UNL     1     -10.284   4.840  71.284  1.00  0.00    -0.158 C  
HETATM   21  N   UNL     1     -10.889   5.929  71.821  1.00  0.00    -0.252 NA 
HETATM   22  O   UNL     1      -9.851   3.893  71.926  1.00  0.00    -0.163 OA 
HETATM   23  C   UNL     1     -11.378   6.739  70.849  1.00  0.00    -0.315 C  
HETATM   24  O   UNL     1     -12.101   7.701  71.060  1.00  0.00    -0.305 OA 
ENDBRANCH  16  18
ENDBRANCH  15  16
ENDBRANCH  13  15
ENDBRANCH   7  10
TORSDOF 4
ENDMDL
MODEL      235
REMARK 921   NORMALIZED FREE ENERGY PREDICTED BY IDOCK:   -3.61 KCAL/MOL
REMARK 922        TOTAL FREE ENERGY PREDICTED BY IDOCK:   -5.01 KCAL/MOL
REMARK 923 INTER-LIGAND FREE ENERGY PREDICTED BY IDOCK:   -4.47 KCAL/MOL
REMARK 924 INTRA-LIGAND FREE ENERGY PREDICTED BY IDOCK:   -0.55 KCAL/MOL
REMARK 927      BINDING AFFINITY PREDICTED BY RF-SCORE:    0.00 PKD
ROOT
HETATM    1  O   UNL     1     -12.618  15.971  69.961  1.00  0.00    -0.226 OA 
HETATM    2  N   UNL     1     -11.518  15.861  69.406  1.00  0.00    -0.340 N  
HETATM    3  O   UNL     1     -10.658  16.752  69.364  1.00  0.00    -0.324 OA 
HETATM    4  C   UNL     1     -11.208  14.583  68.749  1.00  0.00    -0.261 A  
HETATM    5  C   UNL     1     -12.152  13.553  68.771  1.00  0.00    -0.305 A  
HETATM    6  C   UNL     1     -11.847  12.327  68.172  1.00  0.00    -0.372 A  
HETATM    7  C   UNL     1     -10.607  12.100  67.548  1.00  0.00    -0.240 A  
HETATM    8  C   UNL     1      -9.679  13.155  67.520  1.00  0.00    -0.213 A  
HETATM    9  C   UNL     1      -9.973  14.392  68.118  1.00  0.00    -0.223 A  
ENDROOT
BRANCH   7  10
HETATM   10  C   UNL     1     -10.319  10.781  66.976  1.00  0.00    -0.228 A  
HETATM   11  C   UNL     1     -10.729   9.500  67.297  1.00  0.00    -0.269 A  
HETATM   12  C   UNL     1     -10.077   8.618  66.404  1.00  0.00    -0.294 A  
HETATM   13  C   UNL     1      -9.303   9.401  65.573  1.00  0.00    -0.251 A  
HETATM   14  O   UNL     1      -9.452  10.722  65.917  1.00  0.00    -0.182 OA 
BRANCH  13  15
HETATM   15  C   UNL     1      -8.414   9.068  64.492  1.00  0.00    -0.175 C  
BRANCH  15  16
HETATM   16  N   UNL     1      -7.436   8.230  64.662  1.00  0.00    -0.093 NA 
HETATM   17  H   UNL     1      -6.657   8.446  65.284  1.00  0.00     0.000 HD 
BRANCH  16  18
HETATM   18  N   UNL     1      -7.489   7.044  63.974  1.00  0.00    -0.091 N  
HETATM   19  C   UNL     1      -8.221   5.917  64.511  1.00  0.00    -0.110 C  
HETATM   20  C   UNL     1      -7.707   4.804  63.617  1.00  0.00    -0.071 C  
HETATM   21  N   UNL     1      -6.839   5.319  62.710  1.00  0.00    -0.029 NA 
HETATM   22  O   UNL     1      -8.006   3.621  63.703  1.00  0.00    -0.084 OA 
HETATM   23  C   UNL     1      -6.613   6.635  62.952  1.00  0.00    -0.038 C  
HETATM   24  O   UNL     1      -5.757   7.298  62.385  1.00  0.00    -0.047 OA 
ENDBRANCH  16  18
ENDBRANCH  15  16
ENDBRANCH  13  15
ENDBRANCH   7  10
TORSDOF 4
ENDMDL
MODEL      236
REMARK 921   NORMALIZED FREE ENERGY PREDICTED BY IDOCK:   -3.59 KCAL/MOL
REMARK 922        TOTAL FREE ENERGY PREDICTED BY IDOCK:   -4.99 KCAL/MOL
REMARK 923 INTER-LIGAND FREE ENERGY PREDICTED BY IDOCK:   -4.44 KCAL/MOL
REMARK 924 INTRA-LIGAND FREE ENERGY PREDICTED BY IDOCK:   -0.55 KCAL/MOL
REMARK 927      BINDING AFFINITY PREDICTED BY RF-SCORE:    0.00 PKD
ROOT
HETATM    1  O   UNL     1      -8.331   5.636  64.091  1.00  0.00    -0.127 OA 
HETATM    2  N   UNL     1      -7.301   6.225  64.445  1.00  0.00    -0.068 N  
HETATM    3  O   UNL     1      -6.151   5.804  64.261  1.00  0.00    -0.024 OA 
HETATM    4  C   UNL     1      -7.454   7.516  65.130  1.00  0.00    -0.085 A  
HETATM    5  C   UNL     1      -8.734   8.025  65.359  1.00  0.00    -0.101 A  
HETATM    6  C   UNL     1      -8.881   9.267  65.986  1.00  0.00    -0.191 A  
HETATM    7  C   UNL     1      -7.765  10.024  66.390  1.00  0.00    -0.103 A  
HETATM    8  C   UNL     1      -6.486   9.485  66.168  1.00  0.00    -0.070 A  
HETATM    9  C   UNL     1      -6.326   8.238  65.539  1.00  0.00    -0.049 A  
ENDROOT
BRANCH   7  10
HETATM   10  C   UNL     1      -7.971  11.341  66.999  1.00  0.00    -0.150 A  
HETATM   11  C   UNL     1      -7.487  11.940  68.147  1.00  0.00    -0.100 A  
HETATM   12  C   UNL     1      -8.081  13.220  68.232  1.00  0.00    -0.156 A  
HETATM   13  C   UNL     1      -8.898  13.349  67.128  1.00  0.00    -0.222 A  
HETATM   14  O   UNL     1      -8.830  12.205  66.371  1.00  0.00    -0.184 OA 
BRANCH  13  15
HETATM   15  C   UNL     1      -9.761  14.413  66.690  1.00  0.00    -0.278 C  
BRANCH  15  16
HETATM   16  N   UNL     1     -10.998  14.478  67.082  1.00  0.00    -0.296 NA 
HETATM   17  H   UNL     1     -11.768  14.316  66.433  1.00  0.00     0.000 HD 
BRANCH  16  18
HETATM   18  N   UNL     1     -11.230  14.773  68.402  1.00  0.00    -0.271 N  
HETATM   19  C   UNL     1     -11.770  13.769  69.294  1.00  0.00    -0.327 C  
HETATM   20  C   UNL     1     -12.162  14.634  70.476  1.00  0.00    -0.324 C  
HETATM   21  N   UNL     1     -11.826  15.923  70.222  1.00  0.00    -0.346 NA 
HETATM   22  O   UNL     1     -12.713  14.244  71.497  1.00  0.00    -0.315 OA 
HETATM   23  C   UNL     1     -11.354  16.059  68.957  1.00  0.00    -0.363 C  
HETATM   24  O   UNL     1     -11.129  17.135  68.423  1.00  0.00    -0.291 OA 
ENDBRANCH  16  18
ENDBRANCH  15  16
ENDBRANCH  13  15
ENDBRANCH   7  10
TORSDOF 4
ENDMDL
MODEL      237
REMARK 921   NORMALIZED FREE ENERGY PREDICTED BY IDOCK:   -3.58 KCAL/MOL
REMARK 922        TOTAL FREE ENERGY PREDICTED BY IDOCK:   -4.98 KCAL/MOL
REMARK 923 INTER-LIGAND FREE ENERGY PREDICTED BY IDOCK:   -4.85 KCAL/MOL
REMARK 924 INTRA-LIGAND FREE ENERGY PREDICTED BY IDOCK:   -0.13 KCAL/MOL
REMARK 927      BINDING AFFINITY PREDICTED BY RF-SCORE:    0.00 PKD
ROOT
HETATM    1  O   UNL     1      -5.281  12.553  72.243  1.00  0.00    -0.371 OA 
HETATM    2  N   UNL     1      -5.444  13.317  71.283  1.00  0.00    -0.195 N  
HETATM    3  O   UNL     1      -5.432  14.553  71.356  1.00  0.00    -0.148 OA 
HETATM    4  C   UNL     1      -5.667  12.714  69.961  1.00  0.00    -0.138 A  
HETATM    5  C   UNL     1      -5.690  11.323  69.835  1.00  0.00    -0.092 A  
HETATM    6  C   UNL     1      -5.873  10.748  68.573  1.00  0.00    -0.043 A  
HETATM    7  C   UNL     1      -6.031  11.539  67.419  1.00  0.00    -0.082 A  
HETATM    8  C   UNL     1      -6.024  12.936  67.571  1.00  0.00    -0.130 A  
HETATM    9  C   UNL     1      -5.841  13.526  68.833  1.00  0.00    -0.076 A  
ENDROOT
BRANCH   7  10
HETATM   10  C   UNL     1      -6.172  10.887  66.114  1.00  0.00    -0.130 A  
HETATM   11  C   UNL     1      -5.275  10.582  65.106  1.00  0.00    -0.134 A  
HETATM   12  C   UNL     1      -6.015   9.985  64.059  1.00  0.00    -0.131 A  
HETATM   13  C   UNL     1      -7.328   9.947  64.476  1.00  0.00    -0.140 A  
HETATM   14  O   UNL     1      -7.427  10.492  65.732  1.00  0.00    -0.143 OA 
BRANCH  13  15
HETATM   15  C   UNL     1      -8.527   9.473  63.836  1.00  0.00    -0.190 C  
BRANCH  15  16
HETATM   16  N   UNL     1      -9.649   9.396  64.486  1.00  0.00    -0.367 NA 
HETATM   17  H   UNL     1     -10.147   8.511  64.578  1.00  0.00     0.000 HD 
BRANCH  16  18
HETATM   18  N   UNL     1     -10.140  10.551  65.043  1.00  0.00    -0.316 N  
HETATM   19  C   UNL     1     -10.654  10.551  66.396  1.00  0.00    -0.149 C  
HETATM   20  C   UNL     1     -11.368  11.889  66.418  1.00  0.00    -0.339 C  
HETATM   21  N   UNL     1     -11.203  12.507  65.222  1.00  0.00    -0.295 NA 
HETATM   22  O   UNL     1     -12.010  12.341  67.356  1.00  0.00    -0.530 OA 
HETATM   23  C   UNL     1     -10.556  11.699  64.345  1.00  0.00    -0.323 C  
HETATM   24  O   UNL     1     -10.420  11.948  63.157  1.00  0.00    -0.389 OA 
ENDBRANCH  16  18
ENDBRANCH  15  16
ENDBRANCH  13  15
ENDBRANCH   7  10
TORSDOF 4
ENDMDL
MODEL      238
REMARK 921   NORMALIZED FREE ENERGY PREDICTED BY IDOCK:   -3.58 KCAL/MOL
REMARK 922        TOTAL FREE ENERGY PREDICTED BY IDOCK:   -4.98 KCAL/MOL
REMARK 923 INTER-LIGAND FREE ENERGY PREDICTED BY IDOCK:   -4.35 KCAL/MOL
REMARK 924 INTRA-LIGAND FREE ENERGY PREDICTED BY IDOCK:   -0.62 KCAL/MOL
REMARK 927      BINDING AFFINITY PREDICTED BY RF-SCORE:    0.00 PKD
ROOT
HETATM    1  O   UNL     1      -9.765   8.635  72.872  1.00  0.00    -0.177 OA 
HETATM    2  N   UNL     1     -10.679   8.047  72.280  1.00  0.00    -0.271 N  
HETATM    3  O   UNL     1     -11.832   7.920  72.712  1.00  0.00    -0.340 OA 
HETATM    4  C   UNL     1     -10.373   7.458  70.968  1.00  0.00    -0.195 A  
HETATM    5  C   UNL     1      -9.084   7.577  70.445  1.00  0.00    -0.153 A  
HETATM    6  C   UNL     1      -8.799   7.041  69.185  1.00  0.00    -0.135 A  
HETATM    7  C   UNL     1      -9.785   6.386  68.423  1.00  0.00    -0.131 A  
HETATM    8  C   UNL     1     -11.071   6.261  68.976  1.00  0.00    -0.446 A  
HETATM    9  C   UNL     1     -11.369   6.794  70.242  1.00  0.00    -0.404 A  
ENDROOT
BRANCH   7  10
HETATM   10  C   UNL     1      -9.448   5.885  67.087  1.00  0.00    -0.117 A  
HETATM   11  C   UNL     1      -9.706   4.697  66.429  1.00  0.00    -0.212 A  
HETATM   12  C   UNL     1      -9.082   4.779  65.162  1.00  0.00    -0.155 A  
HETATM   13  C   UNL     1      -8.477   6.017  65.102  1.00  0.00    -0.112 A  
HETATM   14  O   UNL     1      -8.701   6.696  66.273  1.00  0.00    -0.135 OA 
BRANCH  13  15
HETATM   15  C   UNL     1      -7.687   6.651  64.079  1.00  0.00    -0.112 C  
BRANCH  15  16
HETATM   16  N   UNL     1      -8.053   7.783  63.555  1.00  0.00    -0.305 NA 
HETATM   17  H   UNL     1      -8.652   7.814  62.730  1.00  0.00     0.000 HD 
BRANCH  16  18
HETATM   18  N   UNL     1      -7.602   8.933  64.152  1.00  0.00    -0.114 N  
HETATM   19  C   UNL     1      -6.187   9.237  64.186  1.00  0.00    -0.085 C  
HETATM   20  C   UNL     1      -6.171  10.357  65.208  1.00  0.00    -0.122 C  
HETATM   21  N   UNL     1      -7.438  10.612  65.618  1.00  0.00    -0.129 NA 
HETATM   22  O   UNL     1      -5.175  10.935  65.621  1.00  0.00    -0.118 OA 
HETATM   23  C   UNL     1      -8.308   9.720  65.080  1.00  0.00    -0.142 C  
HETATM   24  O   UNL     1      -9.482   9.626  65.407  1.00  0.00    -0.242 OA 
ENDBRANCH  16  18
ENDBRANCH  15  16
ENDBRANCH  13  15
ENDBRANCH   7  10
TORSDOF 4
ENDMDL
MODEL      239
REMARK 921   NORMALIZED FREE ENERGY PREDICTED BY IDOCK:   -3.50 KCAL/MOL
REMARK 922        TOTAL FREE ENERGY PREDICTED BY IDOCK:   -4.87 KCAL/MOL
REMARK 923 INTER-LIGAND FREE ENERGY PREDICTED BY IDOCK:   -4.19 KCAL/MOL
REMARK 924 INTRA-LIGAND FREE ENERGY PREDICTED BY IDOCK:   -0.68 KCAL/MOL
REMARK 927      BINDING AFFINITY PREDICTED BY RF-SCORE:    0.00 PKD
ROOT
HETATM    1  O   UNL     1      -8.244  14.448  67.034  1.00  0.00    -0.189 OA 
HETATM    2  N   UNL     1      -9.335  13.980  66.686  1.00  0.00    -0.282 N  
HETATM    3  O   UNL     1     -10.034  14.431  65.769  1.00  0.00    -0.312 OA 
HETATM    4  C   UNL     1      -9.837  12.806  67.413  1.00  0.00    -0.210 A  
HETATM    5  C   UNL     1      -9.079  12.268  68.456  1.00  0.00    -0.076 A  
HETATM    6  C   UNL     1      -9.542  11.132  69.130  1.00  0.00    -0.024 A  
HETATM    7  C   UNL     1     -10.755  10.511  68.779  1.00  0.00    -0.249 A  
HETATM    8  C   UNL     1     -11.511  11.080  67.740  1.00  0.00    -0.339 A  
HETATM    9  C   UNL     1     -11.057  12.220  67.056  1.00  0.00    -0.339 A  
ENDROOT
BRANCH   7  10
HETATM   10  C   UNL     1     -11.171   9.296  69.485  1.00  0.00     0.004 A  
HETATM   11  C   UNL     1     -11.960   9.070  70.597  1.00  0.00    -0.138 A  
HETATM   12  C   UNL     1     -11.964   7.675  70.829  1.00  0.00    -0.192 A  
HETATM   13  C   UNL     1     -11.182   7.110  69.843  1.00  0.00    -0.208 A  
HETATM   14  O   UNL     1     -10.700   8.096  69.018  1.00  0.00    -0.185 OA 
BRANCH  13  15
HETATM   15  C   UNL     1     -10.807   5.747  69.577  1.00  0.00    -0.340 C  
BRANCH  15  16
HETATM   16  N   UNL     1      -9.665   5.275  69.978  1.00  0.00    -0.179 NA 
HETATM   17  H   UNL     1      -8.920   5.060  69.316  1.00  0.00     0.000 HD 
BRANCH  16  18
HETATM   18  N   UNL     1      -9.499   5.077  71.326  1.00  0.00    -0.148 N  
HETATM   19  C   UNL     1     -10.438   4.263  72.069  1.00  0.00    -0.026 C  
HETATM   20  C   UNL     1     -10.053   4.628  73.490  1.00  0.00    -0.156 C  
HETATM   21  N   UNL     1      -9.016   5.501  73.466  1.00  0.00    -0.126 NA 
HETATM   22  O   UNL     1     -10.599   4.219  74.506  1.00  0.00    -0.243 OA 
HETATM   23  C   UNL     1      -8.719   5.864  72.192  1.00  0.00    -0.136 C  
HETATM   24  O   UNL     1      -7.935   6.754  71.900  1.00  0.00    -0.100 OA 
ENDBRANCH  16  18
ENDBRANCH  15  16
ENDBRANCH  13  15
ENDBRANCH   7  10
TORSDOF 4
ENDMDL
MODEL      240
REMARK 921   NORMALIZED FREE ENERGY PREDICTED BY IDOCK:   -3.43 KCAL/MOL
REMARK 922        TOTAL FREE ENERGY PREDICTED BY IDOCK:   -4.79 KCAL/MOL
REMARK 923 INTER-LIGAND FREE ENERGY PREDICTED BY IDOCK:   -4.20 KCAL/MOL
REMARK 924 INTRA-LIGAND FREE ENERGY PREDICTED BY IDOCK:   -0.59 KCAL/MOL
REMARK 927      BINDING AFFINITY PREDICTED BY RF-SCORE:    0.00 PKD
ROOT
HETATM    1  O   UNL     1     -14.091   9.103  72.378  1.00  0.00    -0.465 OA 
HETATM    2  N   UNL     1     -13.164   9.640  71.758  1.00  0.00    -0.401 N  
HETATM    3  O   UNL     1     -13.278  10.662  71.069  1.00  0.00    -0.332 OA 
HETATM    4  C   UNL     1     -11.834   9.021  71.847  1.00  0.00    -0.376 A  
HETATM    5  C   UNL     1     -11.664   7.865  72.612  1.00  0.00    -0.398 A  
HETATM    6  C   UNL     1     -10.393   7.291  72.721  1.00  0.00    -0.282 A  
HETATM    7  C   UNL     1      -9.274   7.853  72.079  1.00  0.00    -0.207 A  
HETATM    8  C   UNL     1      -9.470   9.005  71.298  1.00  0.00    -0.339 A  
HETATM    9  C   UNL     1     -10.742   9.591  71.181  1.00  0.00    -0.408 A  
ENDROOT
BRANCH   7  10
HETATM   10  C   UNL     1      -7.955   7.240  72.264  1.00  0.00    -0.096 A  
HETATM   11  C   UNL     1      -6.838   7.599  72.996  1.00  0.00    -0.077 A  
HETATM   12  C   UNL     1      -5.844   6.625  72.743  1.00  0.00    -0.042 A  
HETATM   13  C   UNL     1      -6.401   5.712  71.872  1.00  0.00    -0.048 A  
HETATM   14  O   UNL     1      -7.690   6.082  71.581  1.00  0.00    -0.098 OA 
BRANCH  13  15
HETATM   15  C   UNL     1      -5.869   4.527  71.252  1.00  0.00    -0.016 C  
BRANCH  15  16
HETATM   16  N   UNL     1      -5.747   4.443  69.961  1.00  0.00    -0.013 NA 
HETATM   17  H   UNL     1      -4.831   4.484  69.513  1.00  0.00     0.000 HD 
BRANCH  16  18
HETATM   18  N   UNL     1      -6.895   4.295  69.224  1.00  0.00    -0.045 N  
HETATM   19  C   UNL     1      -7.628   3.048  69.250  1.00  0.00    -0.047 C  
HETATM   20  C   UNL     1      -8.554   3.249  68.066  1.00  0.00    -0.096 C  
HETATM   21  N   UNL     1      -8.336   4.473  67.526  1.00  0.00    -0.100 NA 
HETATM   22  O   UNL     1      -9.363   2.434  67.644  1.00  0.00    -0.184 OA 
HETATM   23  C   UNL     1      -7.288   5.088  68.131  1.00  0.00    -0.074 C  
HETATM   24  O   UNL     1      -6.783   6.128  67.735  1.00  0.00    -0.056 OA 
ENDBRANCH  16  18
ENDBRANCH  15  16
ENDBRANCH  13  15
ENDBRANCH   7  10
TORSDOF 4
ENDMDL
MODEL      241
REMARK 921   NORMALIZED FREE ENERGY PREDICTED BY IDOCK:   -3.37 KCAL/MOL
REMARK 922        TOTAL FREE ENERGY PREDICTED BY IDOCK:   -4.71 KCAL/MOL
REMARK 923 INTER-LIGAND FREE ENERGY PREDICTED BY IDOCK:   -4.43 KCAL/MOL
REMARK 924 INTRA-LIGAND FREE ENERGY PREDICTED BY IDOCK:   -0.28 KCAL/MOL
REMARK 927      BINDING AFFINITY PREDICTED BY RF-SCORE:    0.00 PKD
ROOT
HETATM    1  O   UNL     1     -10.994  16.961  66.571  1.00  0.00    -0.043 OA 
HETATM    2  N   UNL     1     -10.760  16.000  65.828  1.00  0.00    -0.325 N  
HETATM    3  O   UNL     1     -10.538  16.087  64.613  1.00  0.00    -0.564 OA 
HETATM    4  C   UNL     1     -10.742  14.659  66.430  1.00  0.00    -0.309 A  
HETATM    5  C   UNL     1     -10.988  14.517  67.798  1.00  0.00    -0.282 A  
HETATM    6  C   UNL     1     -10.943  13.245  68.378  1.00  0.00    -0.289 A  
HETATM    7  C   UNL     1     -10.648  12.099  67.617  1.00  0.00    -0.236 A  
HETATM    8  C   UNL     1     -10.422  12.261  66.239  1.00  0.00    -0.266 A  
HETATM    9  C   UNL     1     -10.465  13.534  65.644  1.00  0.00    -0.296 A  
ENDROOT
BRANCH   7  10
HETATM   10  C   UNL     1     -10.566  10.795  68.282  1.00  0.00    -0.200 A  
HETATM   11  C   UNL     1     -11.290  10.204  69.300  1.00  0.00    -0.211 A  
HETATM   12  C   UNL     1     -10.710   8.937  69.542  1.00  0.00    -0.206 A  
HETATM   13  C   UNL     1      -9.662   8.808  68.656  1.00  0.00    -0.162 A  
HETATM   14  O   UNL     1      -9.573   9.938  67.882  1.00  0.00    -0.137 OA 
BRANCH  13  15
HETATM   15  C   UNL     1      -8.705   7.754  68.446  1.00  0.00    -0.127 C  
BRANCH  15  16
HETATM   16  N   UNL     1      -7.911   7.369  69.400  1.00  0.00    -0.122 NA 
HETATM   17  H   UNL     1      -7.100   7.925  69.670  1.00  0.00     0.000 HD 
BRANCH  16  18
HETATM   18  N   UNL     1      -8.206   6.186  70.031  1.00  0.00    -0.121 N  
HETATM   19  C   UNL     1      -7.955   6.028  71.447  1.00  0.00    -0.113 C  
HETATM   20  C   UNL     1      -8.095   4.525  71.585  1.00  0.00    -0.101 C  
HETATM   21  N   UNL     1      -8.414   3.989  70.381  1.00  0.00    -0.064 NA 
HETATM   22  O   UNL     1      -7.930   3.882  72.613  1.00  0.00    -0.078 OA 
HETATM   23  C   UNL     1      -8.396   4.938  69.411  1.00  0.00    -0.084 C  
HETATM   24  O   UNL     1      -8.492   4.698  68.216  1.00  0.00    -0.097 OA 
ENDBRANCH  16  18
ENDBRANCH  15  16
ENDBRANCH  13  15
ENDBRANCH   7  10
TORSDOF 4
ENDMDL
MODEL      242
REMARK 921   NORMALIZED FREE ENERGY PREDICTED BY IDOCK:   -3.30 KCAL/MOL
REMARK 922        TOTAL FREE ENERGY PREDICTED BY IDOCK:   -4.63 KCAL/MOL
REMARK 923 INTER-LIGAND FREE ENERGY PREDICTED BY IDOCK:   -4.11 KCAL/MOL
REMARK 924 INTRA-LIGAND FREE ENERGY PREDICTED BY IDOCK:   -0.52 KCAL/MOL
REMARK 927      BINDING AFFINITY PREDICTED BY RF-SCORE:    0.00 PKD
ROOT
HETATM    1  O   UNL     1      -9.099  15.722  67.591  1.00  0.00    -0.190 OA 
HETATM    2  N   UNL     1      -9.873  15.032  66.915  1.00  0.00    -0.233 N  
HETATM    3  O   UNL     1     -10.684  15.482  66.095  1.00  0.00    -0.310 OA 
HETATM    4  C   UNL     1      -9.825  13.575  67.099  1.00  0.00    -0.245 A  
HETATM    5  C   UNL     1      -8.925  13.027  68.016  1.00  0.00    -0.199 A  
HETATM    6  C   UNL     1      -8.859  11.639  68.171  1.00  0.00    -0.164 A  
HETATM    7  C   UNL     1      -9.675  10.773  67.420  1.00  0.00    -0.194 A  
HETATM    8  C   UNL     1     -10.587  11.346  66.516  1.00  0.00    -0.309 A  
HETATM    9  C   UNL     1     -10.663  12.739  66.351  1.00  0.00    -0.282 A  
ENDROOT
BRANCH   7  10
HETATM   10  C   UNL     1      -9.533   9.324  67.585  1.00  0.00    -0.132 A  
HETATM   11  C   UNL     1     -10.029   8.238  66.888  1.00  0.00    -0.343 A  
HETATM   12  C   UNL     1      -9.578   7.075  67.554  1.00  0.00    -0.155 A  
HETATM   13  C   UNL     1      -8.821   7.502  68.625  1.00  0.00    -0.127 A  
HETATM   14  O   UNL     1      -8.788   8.875  68.644  1.00  0.00    -0.136 OA 
BRANCH  13  15
HETATM   15  C   UNL     1      -8.127   6.783  69.660  1.00  0.00    -0.126 C  
BRANCH  15  16
HETATM   16  N   UNL     1      -8.704   6.516  70.793  1.00  0.00    -0.142 NA 
HETATM   17  H   UNL     1      -9.184   7.241  71.326  1.00  0.00     0.000 HD 
BRANCH  16  18
HETATM   18  N   UNL     1      -8.641   5.222  71.247  1.00  0.00    -0.127 N  
HETATM   19  C   UNL     1      -9.326   4.162  70.538  1.00  0.00    -0.141 C  
HETATM   20  C   UNL     1      -9.261   3.054  71.571  1.00  0.00    -0.115 C  
HETATM   21  N   UNL     1      -8.591   3.495  72.664  1.00  0.00    -0.085 NA 
HETATM   22  O   UNL     1      -9.750   1.939  71.455  1.00  0.00    -0.131 OA 
HETATM   23  C   UNL     1      -8.288   4.813  72.545  1.00  0.00    -0.115 C  
HETATM   24  O   UNL     1      -7.828   5.493  73.450  1.00  0.00    -0.105 OA 
ENDBRANCH  16  18
ENDBRANCH  15  16
ENDBRANCH  13  15
ENDBRANCH   7  10
TORSDOF 4
ENDMDL
MODEL      243
REMARK 921   NORMALIZED FREE ENERGY PREDICTED BY IDOCK:   -3.27 KCAL/MOL
REMARK 922        TOTAL FREE ENERGY PREDICTED BY IDOCK:   -4.59 KCAL/MOL
REMARK 923 INTER-LIGAND FREE ENERGY PREDICTED BY IDOCK:   -4.06 KCAL/MOL
REMARK 924 INTRA-LIGAND FREE ENERGY PREDICTED BY IDOCK:   -0.54 KCAL/MOL
REMARK 927      BINDING AFFINITY PREDICTED BY RF-SCORE:    0.00 PKD
ROOT
HETATM    1  O   UNL     1      -9.656   5.134  72.097  1.00  0.00    -0.148 OA 
HETATM    2  N   UNL     1      -9.626   5.264  70.867  1.00  0.00    -0.167 N  
HETATM    3  O   UNL     1     -10.142   4.476  70.063  1.00  0.00    -0.227 OA 
HETATM    4  C   UNL     1      -8.931   6.438  70.321  1.00  0.00    -0.154 A  
HETATM    5  C   UNL     1      -8.334   7.351  71.194  1.00  0.00    -0.114 A  
HETATM    6  C   UNL     1      -7.697   8.484  70.677  1.00  0.00    -0.081 A  
HETATM    7  C   UNL     1      -7.646   8.732  69.292  1.00  0.00    -0.093 A  
HETATM    8  C   UNL     1      -8.236   7.792  68.430  1.00  0.00    -0.124 A  
HETATM    9  C   UNL     1      -8.878   6.650  68.938  1.00  0.00    -0.131 A  
ENDROOT
BRANCH   7  10
HETATM   10  C   UNL     1      -7.007   9.959  68.805  1.00  0.00    -0.062 A  
HETATM   11  C   UNL     1      -5.704  10.282  68.477  1.00  0.00    -0.037 A  
HETATM   12  C   UNL     1      -5.694  11.646  68.104  1.00  0.00    -0.046 A  
HETATM   13  C   UNL     1      -6.994  12.093  68.215  1.00  0.00    -0.080 A  
HETATM   14  O   UNL     1      -7.799  11.065  68.638  1.00  0.00    -0.119 OA 
BRANCH  13  15
HETATM   15  C   UNL     1      -7.589  13.384  67.989  1.00  0.00    -0.143 C  
BRANCH  15  16
HETATM   16  N   UNL     1      -8.369  13.594  66.971  1.00  0.00    -0.380 NA 
HETATM   17  H   UNL     1      -8.113  14.252  66.236  1.00  0.00     0.000 HD 
BRANCH  16  18
HETATM   18  N   UNL     1      -9.551  12.897  66.924  1.00  0.00    -0.234 N  
HETATM   19  C   UNL     1     -10.523  13.030  67.987  1.00  0.00    -0.228 C  
HETATM   20  C   UNL     1     -11.433  11.858  67.674  1.00  0.00    -0.317 C  
HETATM   21  N   UNL     1     -10.989  11.227  66.559  1.00  0.00    -0.272 NA 
HETATM   22  O   UNL     1     -12.408  11.514  68.329  1.00  0.00    -0.468 OA 
HETATM   23  C   UNL     1      -9.815  11.761  66.138  1.00  0.00    -0.229 C  
HETATM   24  O   UNL     1      -9.122  11.280  65.253  1.00  0.00    -0.200 OA 
ENDBRANCH  16  18
ENDBRANCH  15  16
ENDBRANCH  13  15
ENDBRANCH   7  10
TORSDOF 4
ENDMDL
MODEL      244
REMARK 921   NORMALIZED FREE ENERGY PREDICTED BY IDOCK:   -3.22 KCAL/MOL
REMARK 922        TOTAL FREE ENERGY PREDICTED BY IDOCK:   -4.53 KCAL/MOL
REMARK 923 INTER-LIGAND FREE ENERGY PREDICTED BY IDOCK:   -4.18 KCAL/MOL
REMARK 924 INTRA-LIGAND FREE ENERGY PREDICTED BY IDOCK:   -0.35 KCAL/MOL
REMARK 927      BINDING AFFINITY PREDICTED BY RF-SCORE:    0.00 PKD
ROOT
HETATM    1  O   UNL     1     -11.022   7.055  73.491  1.00  0.00    -0.302 OA 
HETATM    2  N   UNL     1     -10.472   6.540  72.509  1.00  0.00    -0.199 N  
HETATM    3  O   UNL     1     -10.306   5.323  72.352  1.00  0.00    -0.194 OA 
HETATM    4  C   UNL     1      -9.982   7.437  71.452  1.00  0.00    -0.186 A  
HETATM    5  C   UNL     1     -10.148   8.817  71.591  1.00  0.00    -0.390 A  
HETATM    6  C   UNL     1      -9.707   9.669  70.573  1.00  0.00    -0.280 A  
HETATM    7  C   UNL     1      -9.103   9.170  69.404  1.00  0.00    -0.148 A  
HETATM    8  C   UNL     1      -8.929   7.780  69.293  1.00  0.00    -0.139 A  
HETATM    9  C   UNL     1      -9.367   6.913  70.309  1.00  0.00    -0.162 A  
ENDROOT
BRANCH   7  10
HETATM   10  C   UNL     1      -8.703  10.103  68.346  1.00  0.00    -0.123 A  
HETATM   11  C   UNL     1      -9.206  10.381  67.089  1.00  0.00    -0.159 A  
HETATM   12  C   UNL     1      -8.363  11.358  66.510  1.00  0.00    -0.164 A  
HETATM   13  C   UNL     1      -7.387  11.637  67.443  1.00  0.00    -0.128 A  
HETATM   14  O   UNL     1      -7.593  10.877  68.566  1.00  0.00    -0.097 OA 
BRANCH  13  15
HETATM   15  C   UNL     1      -6.256  12.527  67.413  1.00  0.00    -0.158 C  
BRANCH  15  16
HETATM   16  N   UNL     1      -6.338  13.698  66.856  1.00  0.00    -0.084 NA 
HETATM   17  H   UNL     1      -6.128  13.829  65.867  1.00  0.00     0.000 HD 
BRANCH  16  18
HETATM   18  N   UNL     1      -6.718  14.752  67.649  1.00  0.00    -0.176 N  
HETATM   19  C   UNL     1      -7.994  14.733  68.332  1.00  0.00    -0.138 C  
HETATM   20  C   UNL     1      -8.100  16.186  68.756  1.00  0.00    -0.218 C  
HETATM   21  N   UNL     1      -6.987  16.853  68.360  1.00  0.00    -0.166 NA 
HETATM   22  O   UNL     1      -9.044  16.692  69.346  1.00  0.00    -0.122 OA 
HETATM   23  C   UNL     1      -6.183  16.052  67.615  1.00  0.00    -0.159 C  
HETATM   24  O   UNL     1      -5.200  16.447  67.006  1.00  0.00    -0.290 OA 
ENDBRANCH  16  18
ENDBRANCH  15  16
ENDBRANCH  13  15
ENDBRANCH   7  10
TORSDOF 4
ENDMDL
MODEL      245
REMARK 921   NORMALIZED FREE ENERGY PREDICTED BY IDOCK:   -3.18 KCAL/MOL
REMARK 922        TOTAL FREE ENERGY PREDICTED BY IDOCK:   -4.48 KCAL/MOL
REMARK 923 INTER-LIGAND FREE ENERGY PREDICTED BY IDOCK:   -3.86 KCAL/MOL
REMARK 924 INTRA-LIGAND FREE ENERGY PREDICTED BY IDOCK:   -0.62 KCAL/MOL
REMARK 927      BINDING AFFINITY PREDICTED BY RF-SCORE:    0.00 PKD
ROOT
HETATM    1  O   UNL     1      -5.632  13.129  71.792  1.00  0.00    -0.396 OA 
HETATM    2  N   UNL     1      -5.966  13.589  70.693  1.00  0.00    -0.162 N  
HETATM    3  O   UNL     1      -5.929  14.789  70.392  1.00  0.00    -0.143 OA 
HETATM    4  C   UNL     1      -6.441  12.644  69.673  1.00  0.00    -0.050 A  
HETATM    5  C   UNL     1      -6.500  11.281  69.974  1.00  0.00    -0.114 A  
HETATM    6  C   UNL     1      -6.924  10.377  68.994  1.00  0.00    -0.071 A  
HETATM    7  C   UNL     1      -7.290  10.806  67.705  1.00  0.00    -0.094 A  
HETATM    8  C   UNL     1      -7.241  12.183  67.428  1.00  0.00    -0.147 A  
HETATM    9  C   UNL     1      -6.817  13.101  68.404  1.00  0.00    -0.098 A  
ENDROOT
BRANCH   7  10
HETATM   10  C   UNL     1      -7.681   9.813  66.700  1.00  0.00    -0.102 A  
HETATM   11  C   UNL     1      -7.600   9.779  65.320  1.00  0.00    -0.119 A  
HETATM   12  C   UNL     1      -8.185   8.563  64.898  1.00  0.00    -0.166 A  
HETATM   13  C   UNL     1      -8.592   7.906  66.040  1.00  0.00    -0.150 A  
HETATM   14  O   UNL     1      -8.283   8.663  67.141  1.00  0.00    -0.106 OA 
BRANCH  13  15
HETATM   15  C   UNL     1      -9.260   6.646  66.237  1.00  0.00    -0.127 C  
BRANCH  15  16
HETATM   16  N   UNL     1      -8.870   5.817  67.158  1.00  0.00    -0.108 NA 
HETATM   17  H   UNL     1      -7.975   5.333  67.089  1.00  0.00     0.000 HD 
BRANCH  16  18
HETATM   18  N   UNL     1      -9.707   5.617  68.227  1.00  0.00    -0.124 N  
HETATM   19  C   UNL     1     -10.826   6.506  68.459  1.00  0.00    -0.288 C  
HETATM   20  C   UNL     1     -11.202   6.109  69.874  1.00  0.00    -0.414 C  
HETATM   21  N   UNL     1     -10.387   5.110  70.294  1.00  0.00    -0.275 NA 
HETATM   22  O   UNL     1     -12.089   6.617  70.547  1.00  0.00    -0.390 OA 
HETATM   23  C   UNL     1      -9.423   4.855  69.374  1.00  0.00    -0.152 C  
HETATM   24  O   UNL     1      -8.470   4.115  69.569  1.00  0.00    -0.067 OA 
ENDBRANCH  16  18
ENDBRANCH  15  16
ENDBRANCH  13  15
ENDBRANCH   7  10
TORSDOF 4
ENDMDL
MODEL      246
REMARK 921   NORMALIZED FREE ENERGY PREDICTED BY IDOCK:   -3.14 KCAL/MOL
REMARK 922        TOTAL FREE ENERGY PREDICTED BY IDOCK:   -4.43 KCAL/MOL
REMARK 923 INTER-LIGAND FREE ENERGY PREDICTED BY IDOCK:   -3.91 KCAL/MOL
REMARK 924 INTRA-LIGAND FREE ENERGY PREDICTED BY IDOCK:   -0.52 KCAL/MOL
REMARK 927      BINDING AFFINITY PREDICTED BY RF-SCORE:    0.00 PKD
ROOT
HETATM    1  O   UNL     1      -8.148   6.746  63.625  1.00  0.00    -0.094 OA 
HETATM    2  N   UNL     1      -7.116   7.402  63.436  1.00  0.00    -0.066 N  
HETATM    3  O   UNL     1      -6.279   7.160  62.557  1.00  0.00    -0.050 OA 
HETATM    4  C   UNL     1      -6.867   8.552  64.317  1.00  0.00    -0.074 A  
HETATM    5  C   UNL     1      -7.786   8.859  65.323  1.00  0.00    -0.104 A  
HETATM    6  C   UNL     1      -7.565   9.970  66.143  1.00  0.00    -0.109 A  
HETATM    7  C   UNL     1      -6.437  10.794  65.978  1.00  0.00    -0.117 A  
HETATM    8  C   UNL     1      -5.514  10.457  64.973  1.00  0.00    -0.136 A  
HETATM    9  C   UNL     1      -5.725   9.343  64.142  1.00  0.00    -0.072 A  
ENDROOT
BRANCH   7  10
HETATM   10  C   UNL     1      -6.276  11.974  66.834  1.00  0.00    -0.073 A  
HETATM   11  C   UNL     1      -5.171  12.634  67.338  1.00  0.00    -0.043 A  
HETATM   12  C   UNL     1      -5.650  13.692  68.144  1.00  0.00    -0.115 A  
HETATM   13  C   UNL     1      -7.027  13.635  68.091  1.00  0.00    -0.119 A  
HETATM   14  O   UNL     1      -7.412  12.590  67.289  1.00  0.00    -0.150 OA 
BRANCH  13  15
HETATM   15  C   UNL     1      -8.047  14.433  68.717  1.00  0.00    -0.127 C  
BRANCH  15  16
HETATM   16  N   UNL     1      -8.931  15.069  68.007  1.00  0.00    -0.171 NA 
HETATM   17  H   UNL     1      -8.726  15.983  67.602  1.00  0.00     0.000 HD 
BRANCH  16  18
HETATM   18  N   UNL     1     -10.150  14.466  67.824  1.00  0.00    -0.225 N  
HETATM   19  C   UNL     1     -10.452  13.209  68.475  1.00  0.00    -0.251 C  
HETATM   20  C   UNL     1     -11.699  12.800  67.715  1.00  0.00    -0.359 C  
HETATM   21  N   UNL     1     -12.010  13.758  66.808  1.00  0.00    -0.413 NA 
HETATM   22  O   UNL     1     -12.325  11.760  67.875  1.00  0.00    -0.399 OA 
HETATM   23  C   UNL     1     -11.056  14.723  66.779  1.00  0.00    -0.338 C  
HETATM   24  O   UNL     1     -11.009  15.615  65.945  1.00  0.00    -0.308 OA 
ENDBRANCH  16  18
ENDBRANCH  15  16
ENDBRANCH  13  15
ENDBRANCH   7  10
TORSDOF 4
ENDMDL
MODEL      247
REMARK 921   NORMALIZED FREE ENERGY PREDICTED BY IDOCK:   -3.01 KCAL/MOL
REMARK 922        TOTAL FREE ENERGY PREDICTED BY IDOCK:   -4.27 KCAL/MOL
REMARK 923 INTER-LIGAND FREE ENERGY PREDICTED BY IDOCK:   -3.83 KCAL/MOL
REMARK 924 INTRA-LIGAND FREE ENERGY PREDICTED BY IDOCK:   -0.44 KCAL/MOL
REMARK 927      BINDING AFFINITY PREDICTED BY RF-SCORE:    0.00 PKD
ROOT
HETATM    1  O   UNL     1      -5.135  12.847  74.042  1.00  0.00    -0.389 OA 
HETATM    2  N   UNL     1      -5.334  13.676  73.145  1.00  0.00    -0.082 N  
HETATM    3  O   UNL     1      -5.284  14.904  73.297  1.00  0.00    -0.180 OA 
HETATM    4  C   UNL     1      -5.651  13.167  71.803  1.00  0.00     0.124 A  
HETATM    5  C   UNL     1      -5.719  11.788  71.590  1.00  0.00     0.664 A  
HETATM    6  C   UNL     1      -5.992  11.302  70.307  1.00  0.00    -0.154 A  
HETATM    7  C   UNL     1      -6.197  12.169  69.218  1.00  0.00    -0.097 A  
HETATM    8  C   UNL     1      -6.142  13.553  69.458  1.00  0.00    -0.112 A  
HETATM    9  C   UNL     1      -5.869  14.054  70.742  1.00  0.00    -0.206 A  
ENDROOT
BRANCH   7  10
HETATM   10  C   UNL     1      -6.432  11.608  67.885  1.00  0.00    -0.061 A  
HETATM   11  C   UNL     1      -5.594  11.271  66.838  1.00  0.00    -0.101 A  
HETATM   12  C   UNL     1      -6.414  10.810  65.781  1.00  0.00    -0.074 A  
HETATM   13  C   UNL     1      -7.715  10.881  66.233  1.00  0.00    -0.147 A  
HETATM   14  O   UNL     1      -7.730  11.363  67.518  1.00  0.00    -0.114 OA 
BRANCH  13  15
HETATM   15  C   UNL     1      -8.969  10.566  65.602  1.00  0.00    -0.180 C  
BRANCH  15  16
HETATM   16  N   UNL     1     -10.081  10.579  66.275  1.00  0.00    -0.224 NA 
HETATM   17  H   UNL     1     -10.453   9.729  66.699  1.00  0.00     0.000 HD 
BRANCH  16  18
HETATM   18  N   UNL     1     -10.735  11.779  66.395  1.00  0.00    -0.256 N  
HETATM   19  C   UNL     1     -10.236  12.958  65.719  1.00  0.00    -0.288 C  
HETATM   20  C   UNL     1     -11.044  14.036  66.415  1.00  0.00    -0.316 C  
HETATM   21  N   UNL     1     -11.879  13.463  67.317  1.00  0.00    -0.372 NA 
HETATM   22  O   UNL     1     -10.951  15.240  66.216  1.00  0.00    -0.322 OA 
HETATM   23  C   UNL     1     -11.657  12.127  67.400  1.00  0.00    -0.340 C  
HETATM   24  O   UNL     1     -12.160  11.401  68.243  1.00  0.00    -0.606 OA 
ENDBRANCH  16  18
ENDBRANCH  15  16
ENDBRANCH  13  15
ENDBRANCH   7  10
TORSDOF 4
ENDMDL
MODEL      248
REMARK 921   NORMALIZED FREE ENERGY PREDICTED BY IDOCK:   -2.75 KCAL/MOL
REMARK 922        TOTAL FREE ENERGY PREDICTED BY IDOCK:   -3.95 KCAL/MOL
REMARK 923 INTER-LIGAND FREE ENERGY PREDICTED BY IDOCK:   -3.40 KCAL/MOL
REMARK 924 INTRA-LIGAND FREE ENERGY PREDICTED BY IDOCK:   -0.56 KCAL/MOL
REMARK 927      BINDING AFFINITY PREDICTED BY RF-SCORE:    0.00 PKD
ROOT
HETATM    1  O   UNL     1      -5.927  12.942  67.108  1.00  0.00    -0.325 OA 
HETATM    2  N   UNL     1      -6.261  12.502  68.215  1.00  0.00    -0.060 N  
HETATM    3  O   UNL     1      -5.952  13.014  69.299  1.00  0.00    -0.080 OA 
HETATM    4  C   UNL     1      -7.086  11.286  68.245  1.00  0.00    -0.074 A  
HETATM    5  C   UNL     1      -7.455  10.676  67.044  1.00  0.00    -0.106 A  
HETATM    6  C   UNL     1      -8.263   9.535  67.070  1.00  0.00    -0.113 A  
HETATM    7  C   UNL     1      -8.721   8.984  68.282  1.00  0.00    -0.130 A  
HETATM    8  C   UNL     1      -8.323   9.602  69.480  1.00  0.00    -0.154 A  
HETATM    9  C   UNL     1      -7.510  10.749  69.466  1.00  0.00    -0.113 A  
ENDROOT
BRANCH   7  10
HETATM   10  C   UNL     1      -9.605   7.816  68.253  1.00  0.00    -0.155 A  
HETATM   11  C   UNL     1     -10.487   7.272  69.169  1.00  0.00    -0.222 A  
HETATM   12  C   UNL     1     -11.028   6.104  68.583  1.00  0.00    -0.415 A  
HETATM   13  C   UNL     1     -10.458   5.990  67.333  1.00  0.00    -0.246 A  
HETATM   14  O   UNL     1      -9.592   7.035  67.126  1.00  0.00    -0.136 OA 
BRANCH  13  15
HETATM   15  C   UNL     1     -10.607   5.005  66.295  1.00  0.00    -0.276 C  
BRANCH  15  16
HETATM   16  N   UNL     1      -9.644   4.179  66.011  1.00  0.00    -0.179 NA 
HETATM   17  H   UNL     1      -9.613   3.692  65.115  1.00  0.00     0.000 HD 
BRANCH  16  18
HETATM   18  N   UNL     1      -8.672   3.987  66.960  1.00  0.00    -0.109 N  
HETATM   19  C   UNL     1      -7.334   4.498  66.753  1.00  0.00    -0.081 C  
HETATM   20  C   UNL     1      -6.586   3.759  67.847  1.00  0.00    -0.042 C  
HETATM   21  N   UNL     1      -7.456   2.989  68.547  1.00  0.00    -0.049 NA 
HETATM   22  O   UNL     1      -5.384   3.824  68.061  1.00  0.00    -0.011 OA 
HETATM   23  C   UNL     1      -8.692   3.027  67.988  1.00  0.00    -0.109 C  
HETATM   24  O   UNL     1      -9.618   2.305  68.325  1.00  0.00    -0.211 OA 
ENDBRANCH  16  18
ENDBRANCH  15  16
ENDBRANCH  13  15
ENDBRANCH   7  10
TORSDOF 4
ENDMDL
MODEL      249
REMARK 921   NORMALIZED FREE ENERGY PREDICTED BY IDOCK:   -2.64 KCAL/MOL
REMARK 922        TOTAL FREE ENERGY PREDICTED BY IDOCK:   -3.81 KCAL/MOL
REMARK 923 INTER-LIGAND FREE ENERGY PREDICTED BY IDOCK:   -3.37 KCAL/MOL
REMARK 924 INTRA-LIGAND FREE ENERGY PREDICTED BY IDOCK:   -0.44 KCAL/MOL
REMARK 927      BINDING AFFINITY PREDICTED BY RF-SCORE:    0.00 PKD
ROOT
HETATM    1  O   UNL     1      -6.596  11.316  65.584  1.00  0.00     0.136 OA 
HETATM    2  N   UNL     1      -6.222  11.599  66.729  1.00  0.00    -0.144 N  
HETATM    3  O   UNL     1      -5.389  12.474  67.001  1.00  0.00    -0.327 OA 
HETATM    4  C   UNL     1      -6.808  10.844  67.846  1.00  0.00    -0.068 A  
HETATM    5  C   UNL     1      -7.750   9.848  67.581  1.00  0.00    -0.091 A  
HETATM    6  C   UNL     1      -8.330   9.148  68.645  1.00  0.00    -0.126 A  
HETATM    7  C   UNL     1      -7.991   9.427  69.982  1.00  0.00    -0.142 A  
HETATM    8  C   UNL     1      -7.027  10.420  70.225  1.00  0.00    -0.104 A  
HETATM    9  C   UNL     1      -6.437  11.130  69.165  1.00  0.00    -0.074 A  
ENDROOT
BRANCH   7  10
HETATM   10  C   UNL     1      -8.664   8.698  71.062  1.00  0.00    -0.186 A  
HETATM   11  C   UNL     1      -8.515   8.693  72.436  1.00  0.00    -0.121 A  
HETATM   12  C   UNL     1      -9.427   7.742  72.950  1.00  0.00    -0.294 A  
HETATM   13  C   UNL     1     -10.096   7.213  71.866  1.00  0.00    -0.182 A  
HETATM   14  O   UNL     1      -9.636   7.798  70.713  1.00  0.00    -0.165 OA 
BRANCH  13  15
HETATM   15  C   UNL     1     -11.116   6.203  71.766  1.00  0.00    -0.274 C  
BRANCH  15  16
HETATM   16  N   UNL     1     -11.183   5.231  72.625  1.00  0.00    -0.263 NA 
HETATM   17  H   UNL     1     -11.737   5.315  73.478  1.00  0.00     0.000 HD 
BRANCH  16  18
HETATM   18  N   UNL     1     -10.481   4.086  72.344  1.00  0.00    -0.133 N  
HETATM   19  C   UNL     1      -9.802   3.936  71.074  1.00  0.00    -0.149 C  
HETATM   20  C   UNL     1      -9.499   2.450  71.099  1.00  0.00    -0.150 C  
HETATM   21  N   UNL     1      -9.946   1.918  72.263  1.00  0.00    -0.133 NA 
HETATM   22  O   UNL     1      -8.955   1.816  70.205  1.00  0.00    -0.064 OA 
HETATM   23  C   UNL     1     -10.621   2.844  72.990  1.00  0.00    -0.149 C  
HETATM   24  O   UNL     1     -11.259   2.589  74.001  1.00  0.00    -0.170 OA 
ENDBRANCH  16  18
ENDBRANCH  15  16
ENDBRANCH  13  15
ENDBRANCH   7  10
TORSDOF 4
ENDMDL
MODEL      250
REMARK 921   NORMALIZED FREE ENERGY PREDICTED BY IDOCK:   -2.63 KCAL/MOL
REMARK 922        TOTAL FREE ENERGY PREDICTED BY IDOCK:   -3.80 KCAL/MOL
REMARK 923 INTER-LIGAND FREE ENERGY PREDICTED BY IDOCK:   -3.12 KCAL/MOL
REMARK 924 INTRA-LIGAND FREE ENERGY PREDICTED BY IDOCK:   -0.68 KCAL/MOL
REMARK 927      BINDING AFFINITY PREDICTED BY RF-SCORE:    0.00 PKD
ROOT
HETATM    1  O   UNL     1      -5.133  11.974  73.075  1.00  0.00    -0.339 OA 
HETATM    2  N   UNL     1      -5.341  12.779  72.158  1.00  0.00     0.118 N  
HETATM    3  O   UNL     1      -5.304  14.011  72.280  1.00  0.00    -0.197 OA 
HETATM    4  C   UNL     1      -5.653  12.235  70.829  1.00  0.00    -0.139 A  
HETATM    5  C   UNL     1      -5.706  10.851  70.649  1.00  0.00    -0.123 A  
HETATM    6  C   UNL     1      -5.975  10.331  69.379  1.00  0.00    -0.038 A  
HETATM    7  C   UNL     1      -6.189  11.170  68.269  1.00  0.00    -0.049 A  
HETATM    8  C   UNL     1      -6.150  12.560  68.476  1.00  0.00    -0.061 A  
HETATM    9  C   UNL     1      -5.881  13.094  69.748  1.00  0.00    -0.124 A  
ENDROOT
BRANCH   7  10
HETATM   10  C   UNL     1      -6.419  10.574  66.950  1.00  0.00    -0.080 A  
HETATM   11  C   UNL     1      -5.699  10.581  65.769  1.00  0.00    -0.124 A  
HETATM   12  C   UNL     1      -6.456   9.860  64.816  1.00  0.00    -0.120 A  
HETATM   13  C   UNL     1      -7.601   9.441  65.459  1.00  0.00    -0.099 A  
HETATM   14  O   UNL     1      -7.580   9.871  66.763  1.00  0.00    -0.094 OA 
BRANCH  13  15
HETATM   15  C   UNL     1      -8.741   8.691  65.001  1.00  0.00    -0.118 C  
BRANCH  15  16
HETATM   16  N   UNL     1      -8.913   7.452  65.351  1.00  0.00    -0.376 NA 
HETATM   17  H   UNL     1      -8.766   6.690  64.689  1.00  0.00     0.000 HD 
BRANCH  16  18
HETATM   18  N   UNL     1      -9.300   7.206  66.645  1.00  0.00    -0.161 N  
HETATM   19  C   UNL     1     -10.546   7.740  67.151  1.00  0.00    -0.331 C  
HETATM   20  C   UNL     1     -10.357   7.514  68.639  1.00  0.00    -0.200 C  
HETATM   21  N   UNL     1      -9.165   6.905  68.855  1.00  0.00    -0.133 NA 
HETATM   22  O   UNL     1     -11.142   7.844  69.518  1.00  0.00    -0.131 OA 
HETATM   23  C   UNL     1      -8.465   6.790  67.697  1.00  0.00    -0.122 C  
HETATM   24  O   UNL     1      -7.301   6.423  67.635  1.00  0.00    -0.084 OA 
ENDBRANCH  16  18
ENDBRANCH  15  16
ENDBRANCH  13  15
ENDBRANCH   7  10
TORSDOF 4
ENDMDL
MODEL      251
REMARK 921   NORMALIZED FREE ENERGY PREDICTED BY IDOCK:   -2.61 KCAL/MOL
REMARK 922        TOTAL FREE ENERGY PREDICTED BY IDOCK:   -3.77 KCAL/MOL
REMARK 923 INTER-LIGAND FREE ENERGY PREDICTED BY IDOCK:   -3.27 KCAL/MOL
REMARK 924 INTRA-LIGAND FREE ENERGY PREDICTED BY IDOCK:   -0.51 KCAL/MOL
REMARK 927      BINDING AFFINITY PREDICTED BY RF-SCORE:    0.00 PKD
ROOT
HETATM    1  O   UNL     1      -5.648  13.086  67.294  1.00  0.00    -0.338 OA 
HETATM    2  N   UNL     1      -5.965  12.647  68.407  1.00  0.00    -0.056 N  
HETATM    3  O   UNL     1      -5.597  13.131  69.485  1.00  0.00    -0.079 OA 
HETATM    4  C   UNL     1      -6.841  11.468  68.452  1.00  0.00    -0.070 A  
HETATM    5  C   UNL     1      -7.278  10.891  67.257  1.00  0.00    -0.098 A  
HETATM    6  C   UNL     1      -8.135   9.787  67.298  1.00  0.00    -0.117 A  
HETATM    7  C   UNL     1      -8.577   9.242  68.519  1.00  0.00    -0.128 A  
HETATM    8  C   UNL     1      -8.111   9.826  69.709  1.00  0.00    -0.174 A  
HETATM    9  C   UNL     1      -7.248  10.936  69.681  1.00  0.00    -0.098 A  
ENDROOT
BRANCH   7  10
HETATM   10  C   UNL     1      -9.513   8.114  68.507  1.00  0.00    -0.143 A  
HETATM   11  C   UNL     1     -10.391   7.622  67.559  1.00  0.00    -0.326 A  
HETATM   12  C   UNL     1     -11.065   6.526  68.145  1.00  0.00    -0.332 A  
HETATM   13  C   UNL     1     -10.564   6.394  69.423  1.00  0.00    -0.257 A  
HETATM   14  O   UNL     1      -9.614   7.359  69.646  1.00  0.00    -0.157 OA 
BRANCH  13  15
HETATM   15  C   UNL     1     -10.876   5.477  70.487  1.00  0.00    -0.196 C  
BRANCH  15  16
HETATM   16  N   UNL     1     -10.229   4.358  70.619  1.00  0.00    -0.120 NA 
HETATM   17  H   UNL     1     -10.480   3.685  71.344  1.00  0.00     0.000 HD 
BRANCH  16  18
HETATM   18  N   UNL     1      -9.197   4.115  69.748  1.00  0.00    -0.126 N  
HETATM   19  C   UNL     1      -9.409   3.303  68.569  1.00  0.00    -0.174 C  
HETATM   20  C   UNL     1      -7.973   3.044  68.153  1.00  0.00    -0.062 C  
HETATM   21  N   UNL     1      -7.134   3.682  69.007  1.00  0.00    -0.049 NA 
HETATM   22  O   UNL     1      -7.615   2.354  67.209  1.00  0.00    -0.060 OA 
HETATM   23  C   UNL     1      -7.825   4.253  70.026  1.00  0.00    -0.052 C  
HETATM   24  O   UNL     1      -7.303   4.752  71.012  1.00  0.00    -0.056 OA 
ENDBRANCH  16  18
ENDBRANCH  15  16
ENDBRANCH  13  15
ENDBRANCH   7  10
TORSDOF 4
ENDMDL
MODEL      252
REMARK 921   NORMALIZED FREE ENERGY PREDICTED BY IDOCK:   -2.60 KCAL/MOL
REMARK 922        TOTAL FREE ENERGY PREDICTED BY IDOCK:   -3.76 KCAL/MOL
REMARK 923 INTER-LIGAND FREE ENERGY PREDICTED BY IDOCK:   -3.18 KCAL/MOL
REMARK 924 INTRA-LIGAND FREE ENERGY PREDICTED BY IDOCK:   -0.58 KCAL/MOL
REMARK 927      BINDING AFFINITY PREDICTED BY RF-SCORE:    0.00 PKD
ROOT
HETATM    1  O   UNL     1      -8.430   9.688  66.202  1.00  0.00    -0.118 OA 
HETATM    2  N   UNL     1      -8.075  10.131  67.301  1.00  0.00    -0.113 N  
HETATM    3  O   UNL     1      -7.352  11.123  67.460  1.00  0.00    -0.095 OA 
HETATM    4  C   UNL     1      -8.545   9.430  68.504  1.00  0.00    -0.123 A  
HETATM    5  C   UNL     1      -9.362   8.304  68.368  1.00  0.00    -0.136 A  
HETATM    6  C   UNL     1      -9.834   7.653  69.512  1.00  0.00    -0.178 A  
HETATM    7  C   UNL     1      -9.510   8.107  70.804  1.00  0.00    -0.180 A  
HETATM    8  C   UNL     1      -8.672   9.230  70.919  1.00  0.00    -0.234 A  
HETATM    9  C   UNL     1      -8.191   9.892  69.777  1.00  0.00    -0.191 A  
ENDROOT
BRANCH   7  10
HETATM   10  C   UNL     1     -10.070   7.417  71.971  1.00  0.00    -0.182 A  
HETATM   11  C   UNL     1     -10.353   7.820  73.263  1.00  0.00    -0.364 A  
HETATM   12  C   UNL     1     -10.845   6.687  73.953  1.00  0.00     0.012 A  
HETATM   13  C   UNL     1     -10.847   5.646  73.049  1.00  0.00    -0.271 A  
HETATM   14  O   UNL     1     -10.378   6.089  71.837  1.00  0.00    -0.199 OA 
BRANCH  13  15
HETATM   15  C   UNL     1     -11.220   4.262  73.178  1.00  0.00    -0.178 C  
BRANCH  15  16
HETATM   16  N   UNL     1     -10.562   3.460  73.960  1.00  0.00    -0.186 NA 
HETATM   17  H   UNL     1     -11.010   3.018  74.763  1.00  0.00     0.000 HD 
BRANCH  16  18
HETATM   18  N   UNL     1      -9.241   3.230  73.667  1.00  0.00    -0.089 N  
HETATM   19  C   UNL     1      -8.197   3.914  74.400  1.00  0.00    -0.090 C  
HETATM   20  C   UNL     1      -7.001   3.619  73.514  1.00  0.00    -0.046 C  
HETATM   21  N   UNL     1      -7.393   2.845  72.471  1.00  0.00    -0.043 NA 
HETATM   22  O   UNL     1      -5.861   4.025  73.693  1.00  0.00    -0.007 OA 
HETATM   23  C   UNL     1      -8.739   2.672  72.478  1.00  0.00    -0.074 C  
HETATM   24  O   UNL     1      -9.366   2.151  71.567  1.00  0.00    -0.093 OA 
ENDBRANCH  16  18
ENDBRANCH  15  16
ENDBRANCH  13  15
ENDBRANCH   7  10
TORSDOF 4
ENDMDL
MODEL      253
REMARK 921   NORMALIZED FREE ENERGY PREDICTED BY IDOCK:   -2.58 KCAL/MOL
REMARK 922        TOTAL FREE ENERGY PREDICTED BY IDOCK:   -3.75 KCAL/MOL
REMARK 923 INTER-LIGAND FREE ENERGY PREDICTED BY IDOCK:   -3.29 KCAL/MOL
REMARK 924 INTRA-LIGAND FREE ENERGY PREDICTED BY IDOCK:   -0.46 KCAL/MOL
REMARK 927      BINDING AFFINITY PREDICTED BY RF-SCORE:    0.00 PKD
ROOT
HETATM    1  O   UNL     1      -5.897  13.999  69.839  1.00  0.00    -0.106 OA 
HETATM    2  N   UNL     1      -6.911  14.021  69.130  1.00  0.00    -0.111 N  
HETATM    3  O   UNL     1      -7.431  15.050  68.678  1.00  0.00    -0.110 OA 
HETATM    4  C   UNL     1      -7.543  12.736  68.802  1.00  0.00    -0.025 A  
HETATM    5  C   UNL     1      -6.989  11.552  69.294  1.00  0.00    -0.098 A  
HETATM    6  C   UNL     1      -7.572  10.326  68.958  1.00  0.00    -0.102 A  
HETATM    7  C   UNL     1      -8.707  10.253  68.129  1.00  0.00    -0.123 A  
HETATM    8  C   UNL     1      -9.261  11.457  67.660  1.00  0.00    -0.158 A  
HETATM    9  C   UNL     1      -8.683  12.695  67.991  1.00  0.00    -0.190 A  
ENDROOT
BRANCH   7  10
HETATM   10  C   UNL     1      -9.252   8.940  67.769  1.00  0.00    -0.141 A  
HETATM   11  C   UNL     1      -9.258   8.207  66.596  1.00  0.00    -0.225 A  
HETATM   12  C   UNL     1      -9.981   7.019  66.852  1.00  0.00    -0.283 A  
HETATM   13  C   UNL     1     -10.379   7.077  68.171  1.00  0.00    -0.191 A  
HETATM   14  O   UNL     1      -9.931   8.246  68.735  1.00  0.00    -0.173 OA 
BRANCH  13  15
HETATM   15  C   UNL     1     -11.150   6.173  68.983  1.00  0.00    -0.367 C  
BRANCH  15  16
HETATM   16  N   UNL     1     -10.672   5.694  70.092  1.00  0.00    -0.311 NA 
HETATM   17  H   UNL     1     -11.178   5.792  70.973  1.00  0.00     0.000 HD 
BRANCH  16  18
HETATM   18  N   UNL     1      -9.461   5.051  70.036  1.00  0.00    -0.152 N  
HETATM   19  C   UNL     1      -8.275   5.671  70.585  1.00  0.00    -0.118 C  
HETATM   20  C   UNL     1      -7.199   4.784  69.988  1.00  0.00    -0.054 C  
HETATM   21  N   UNL     1      -7.780   3.807  69.248  1.00  0.00    -0.052 NA 
HETATM   22  O   UNL     1      -5.992   4.929  70.129  1.00  0.00    -0.016 OA 
HETATM   23  C   UNL     1      -9.123   3.989  69.177  1.00  0.00    -0.136 C  
HETATM   24  O   UNL     1      -9.863   3.346  68.447  1.00  0.00    -0.043 OA 
ENDBRANCH  16  18
ENDBRANCH  15  16
ENDBRANCH  13  15
ENDBRANCH   7  10
TORSDOF 4
ENDMDL
MODEL      254
REMARK 921   NORMALIZED FREE ENERGY PREDICTED BY IDOCK:   -2.55 KCAL/MOL
REMARK 922        TOTAL FREE ENERGY PREDICTED BY IDOCK:   -3.71 KCAL/MOL
REMARK 923 INTER-LIGAND FREE ENERGY PREDICTED BY IDOCK:   -3.37 KCAL/MOL
REMARK 924 INTRA-LIGAND FREE ENERGY PREDICTED BY IDOCK:   -0.33 KCAL/MOL
REMARK 927      BINDING AFFINITY PREDICTED BY RF-SCORE:    0.00 PKD
ROOT
HETATM    1  O   UNL     1      -6.428  12.590  66.620  1.00  0.00     0.044 OA 
HETATM    2  N   UNL     1      -6.434  12.155  67.778  1.00  0.00    -0.082 N  
HETATM    3  O   UNL     1      -5.839  12.678  68.730  1.00  0.00    -0.064 OA 
HETATM    4  C   UNL     1      -7.203  10.931  68.044  1.00  0.00    -0.086 A  
HETATM    5  C   UNL     1      -7.887  10.309  66.997  1.00  0.00    -0.107 A  
HETATM    6  C   UNL     1      -8.643   9.160  67.253  1.00  0.00    -0.118 A  
HETATM    7  C   UNL     1      -8.737   8.614  68.547  1.00  0.00    -0.139 A  
HETATM    8  C   UNL     1      -8.025   9.244  69.583  1.00  0.00    -0.096 A  
HETATM    9  C   UNL     1      -7.262  10.399  69.337  1.00  0.00    -0.109 A  
ENDROOT
BRANCH   7  10
HETATM   10  C   UNL     1      -9.580   7.437  68.772  1.00  0.00    -0.147 A  
HETATM   11  C   UNL     1     -10.878   7.119  68.415  1.00  0.00    -0.148 A  
HETATM   12  C   UNL     1     -11.159   5.844  68.958  1.00  0.00    -0.295 A  
HETATM   13  C   UNL     1     -10.018   5.437  69.617  1.00  0.00    -0.227 A  
HETATM   14  O   UNL     1      -9.051   6.405  69.502  1.00  0.00    -0.138 OA 
BRANCH  13  15
HETATM   15  C   UNL     1      -9.715   4.248  70.368  1.00  0.00    -0.209 C  
BRANCH  15  16
HETATM   16  N   UNL     1      -9.506   4.298  71.650  1.00  0.00    -0.139 NA 
HETATM   17  H   UNL     1      -9.145   3.492  72.159  1.00  0.00     0.000 HD 
BRANCH  16  18
HETATM   18  N   UNL     1      -9.789   5.478  72.292  1.00  0.00    -0.159 N  
HETATM   19  C   UNL     1      -8.723   6.376  72.680  1.00  0.00    -0.126 C  
HETATM   20  C   UNL     1      -9.472   7.301  73.621  1.00  0.00    -0.249 C  
HETATM   21  N   UNL     1     -10.776   6.930  73.674  1.00  0.00    -0.333 NA 
HETATM   22  O   UNL     1      -8.983   8.227  74.253  1.00  0.00     0.063 OA 
HETATM   23  C   UNL     1     -10.983   5.790  72.968  1.00  0.00    -0.278 C  
HETATM   24  O   UNL     1     -12.028   5.157  72.981  1.00  0.00    -0.231 OA 
ENDBRANCH  16  18
ENDBRANCH  15  16
ENDBRANCH  13  15
ENDBRANCH   7  10
TORSDOF 4
ENDMDL
MODEL      255
REMARK 921   NORMALIZED FREE ENERGY PREDICTED BY IDOCK:   -2.20 KCAL/MOL
REMARK 922        TOTAL FREE ENERGY PREDICTED BY IDOCK:   -3.28 KCAL/MOL
REMARK 923 INTER-LIGAND FREE ENERGY PREDICTED BY IDOCK:   -2.50 KCAL/MOL
REMARK 924 INTRA-LIGAND FREE ENERGY PREDICTED BY IDOCK:   -0.78 KCAL/MOL
REMARK 927      BINDING AFFINITY PREDICTED BY RF-SCORE:    0.00 PKD
ROOT
HETATM    1  O   UNL     1      -5.261  12.842  74.159  1.00  0.00    -0.408 OA 
HETATM    2  N   UNL     1      -5.297  13.641  73.214  1.00  0.00    -0.088 N  
HETATM    3  O   UNL     1      -5.137  14.864  73.321  1.00  0.00    -0.207 OA 
HETATM    4  C   UNL     1      -5.546  13.100  71.871  1.00  0.00     0.200 A  
HETATM    5  C   UNL     1      -5.734  11.726  71.708  1.00  0.00     0.801 A  
HETATM    6  C   UNL     1      -5.943  11.206  70.426  1.00  0.00    -0.144 A  
HETATM    7  C   UNL     1      -5.963  12.035  69.289  1.00  0.00    -0.081 A  
HETATM    8  C   UNL     1      -5.791  13.417  69.477  1.00  0.00    -0.102 A  
HETATM    9  C   UNL     1      -5.581  13.951  70.760  1.00  0.00    -0.180 A  
ENDROOT
BRANCH   7  10
HETATM   10  C   UNL     1      -6.138  11.434  67.964  1.00  0.00    -0.046 A  
HETATM   11  C   UNL     1      -5.268  10.826  67.077  1.00  0.00    -0.046 A  
HETATM   12  C   UNL     1      -6.017  10.482  65.929  1.00  0.00    -0.121 A  
HETATM   13  C   UNL     1      -7.313  10.889  66.168  1.00  0.00    -0.103 A  
HETATM   14  O   UNL     1      -7.391  11.467  67.410  1.00  0.00    -0.104 OA 
BRANCH  13  15
HETATM   15  C   UNL     1      -8.505  10.821  65.364  1.00  0.00    -0.132 C  
BRANCH  15  16
HETATM   16  N   UNL     1      -9.318   9.811  65.454  1.00  0.00    -0.232 NA 
HETATM   17  H   UNL     1      -9.342   9.087  64.736  1.00  0.00     0.000 HD 
BRANCH  16  18
HETATM   18  N   UNL     1     -10.143   9.756  66.549  1.00  0.00    -0.236 N  
HETATM   19  C   UNL     1     -11.138  10.784  66.770  1.00  0.00    -0.082 C  
HETATM   20  C   UNL     1     -11.521  10.491  68.208  1.00  0.00    -0.199 C  
HETATM   21  N   UNL     1     -10.821   9.417  68.651  1.00  0.00    -0.159 NA 
HETATM   22  O   UNL     1     -12.319  11.129  68.880  1.00  0.00    -0.512 OA 
HETATM   23  C   UNL     1      -9.921   9.010  67.720  1.00  0.00    -0.187 C  
HETATM   24  O   UNL     1      -9.060   8.167  67.924  1.00  0.00    -0.133 OA 
ENDBRANCH  16  18
ENDBRANCH  15  16
ENDBRANCH  13  15
ENDBRANCH   7  10
TORSDOF 4
ENDMDL
MODEL      256
REMARK 921   NORMALIZED FREE ENERGY PREDICTED BY IDOCK:   -2.16 KCAL/MOL
REMARK 922        TOTAL FREE ENERGY PREDICTED BY IDOCK:   -3.22 KCAL/MOL
REMARK 923 INTER-LIGAND FREE ENERGY PREDICTED BY IDOCK:   -2.73 KCAL/MOL
REMARK 924 INTRA-LIGAND FREE ENERGY PREDICTED BY IDOCK:   -0.49 KCAL/MOL
REMARK 927      BINDING AFFINITY PREDICTED BY RF-SCORE:    0.00 PKD
ROOT
HETATM    1  O   UNL     1      -5.321  19.241  62.439  1.00  0.00    -0.306 OA 
HETATM    2  N   UNL     1      -5.580  20.138  63.252  1.00  0.00    -0.246 N  
HETATM    3  O   UNL     1      -5.201  21.312  63.150  1.00  0.00    -0.198 OA 
HETATM    4  C   UNL     1      -6.395  19.783  64.422  1.00  0.00    -0.099 A  
HETATM    5  C   UNL     1      -6.841  18.468  64.576  1.00  0.00     1.782 A  
HETATM    6  C   UNL     1      -7.641  18.136  65.674  1.00  0.00     0.081 A  
HETATM    7  C   UNL     1      -8.015  19.097  66.631  1.00  0.00    -0.283 A  
HETATM    8  C   UNL     1      -7.541  20.410  66.468  1.00  0.00    -0.256 A  
HETATM    9  C   UNL     1      -6.736  20.757  65.369  1.00  0.00    -0.146 A  
ENDROOT
BRANCH   7  10
HETATM   10  C   UNL     1      -8.895  18.708  67.737  1.00  0.00    -0.275 A  
HETATM   11  C   UNL     1      -9.267  19.330  68.914  1.00  0.00    -0.383 A  
HETATM   12  C   UNL     1     -10.115  18.435  69.608  1.00  0.00     0.417 A  
HETATM   13  C   UNL     1     -10.227  17.309  68.819  1.00  0.00    -0.353 A  
HETATM   14  O   UNL     1      -9.487  17.474  67.675  1.00  0.00    -0.251 OA 
BRANCH  13  15
HETATM   15  C   UNL     1     -10.935  16.070  69.008  1.00  0.00    -0.296 C  
BRANCH  15  16
HETATM   16  N   UNL     1     -11.263  15.324  67.995  1.00  0.00    -0.315 NA 
HETATM   17  H   UNL     1     -12.057  15.560  67.400  1.00  0.00     0.000 HD 
BRANCH  16  18
HETATM   18  N   UNL     1     -10.501  14.208  67.758  1.00  0.00    -0.244 N  
HETATM   19  C   UNL     1      -9.136  14.137  68.232  1.00  0.00    -0.190 C  
HETATM   20  C   UNL     1      -8.636  12.936  67.452  1.00  0.00    -0.195 C  
HETATM   21  N   UNL     1      -9.646  12.438  66.696  1.00  0.00    -0.224 NA 
HETATM   22  O   UNL     1      -7.498  12.489  67.478  1.00  0.00    -0.129 OA 
HETATM   23  C   UNL     1     -10.747  13.227  66.780  1.00  0.00    -0.276 C  
HETATM   24  O   UNL     1     -11.739  13.094  66.079  1.00  0.00    -0.343 OA 
ENDBRANCH  16  18
ENDBRANCH  15  16
ENDBRANCH  13  15
ENDBRANCH   7  10
TORSDOF 4
ENDMDL
MODEL      257
REMARK 921   NORMALIZED FREE ENERGY PREDICTED BY IDOCK:    3.98 KCAL/MOL
REMARK 922        TOTAL FREE ENERGY PREDICTED BY IDOCK:    4.35 KCAL/MOL
REMARK 923 INTER-LIGAND FREE ENERGY PREDICTED BY IDOCK:    2.78 KCAL/MOL
REMARK 924 INTRA-LIGAND FREE ENERGY PREDICTED BY IDOCK:    1.57 KCAL/MOL
REMARK 927      BINDING AFFINITY PREDICTED BY RF-SCORE:    0.00 PKD
ROOT
HETATM    1  O   UNL     1     -12.230   5.889  72.208  1.00  0.00    -0.245 OA 
HETATM    2  N   UNL     1     -12.250   5.886  70.971  1.00  0.00     0.594 N  
HETATM    3  O   UNL     1     -13.114   6.440  70.280  1.00  0.00     1.169 OA 
HETATM    4  C   UNL     1     -11.171   5.173  70.273  1.00  0.00     0.998 A  
HETATM    5  C   UNL     1     -10.177   4.532  71.016  1.00  0.00    -0.167 A  
HETATM    6  C   UNL     1      -9.134   3.878  70.352  1.00  0.00    -0.188 A  
HETATM    7  C   UNL     1      -9.056   3.853  68.947  1.00  0.00    -0.196 A  
HETATM    8  C   UNL     1     -10.076   4.487  68.218  1.00  0.00    -0.030 A  
HETATM    9  C   UNL     1     -11.130   5.147  68.873  1.00  0.00     0.991 A  
ENDROOT
BRANCH   7  10
HETATM   10  C   UNL     1      -7.916   3.195  68.301  1.00  0.00    -0.058 A  
HETATM   11  C   UNL     1      -7.315   1.961  68.470  1.00  0.00    -0.043 A  
HETATM   12  C   UNL     1      -6.218   1.908  67.580  1.00  0.00    -0.024 A  
HETATM   13  C   UNL     1      -6.202   3.109  66.902  1.00  0.00    -0.025 A  
HETATM   14  O   UNL     1      -7.240   3.895  67.337  1.00  0.00    -0.065 OA 
BRANCH  13  15
HETATM   15  C   UNL     1      -5.318   3.633  65.895  1.00  0.00    -0.009 C  
BRANCH  15  16
HETATM   16  N   UNL     1      -5.542   4.786  65.340  1.00  0.00    -0.013 NA 
HETATM   17  H   UNL     1      -4.829   5.516  65.332  1.00  0.00     0.000 HD 
BRANCH  16  18
HETATM   18  N   UNL     1      -6.772   4.985  64.766  1.00  0.00    -0.047 N  
HETATM   19  C   UNL     1      -7.934   5.235  65.591  1.00  0.00    -0.106 C  
HETATM   20  C   UNL     1      -9.041   5.037  64.573  1.00  0.00     0.002 C  
HETATM   21  N   UNL     1      -8.496   4.752  63.364  1.00  0.00    -0.116 NA 
HETATM   22  O   UNL     1     -10.242   5.101  64.799  1.00  0.00     0.428 OA 
HETATM   23  C   UNL     1      -7.149   4.620  63.461  1.00  0.00    -0.048 C  
HETATM   24  O   UNL     1      -6.435   4.212  62.557  1.00  0.00    -0.021 OA 
ENDBRANCH  16  18
ENDBRANCH  15  16
ENDBRANCH  13  15
ENDBRANCH   7  10
TORSDOF 4
ENDMDL
MODEL      258
REMARK 921   NORMALIZED FREE ENERGY PREDICTED BY IDOCK:   11.24 KCAL/MOL
REMARK 922        TOTAL FREE ENERGY PREDICTED BY IDOCK:   13.31 KCAL/MOL
REMARK 923 INTER-LIGAND FREE ENERGY PREDICTED BY IDOCK:   11.46 KCAL/MOL
REMARK 924 INTRA-LIGAND FREE ENERGY PREDICTED BY IDOCK:    1.84 KCAL/MOL
REMARK 927      BINDING AFFINITY PREDICTED BY RF-SCORE:    0.00 PKD
ROOT
HETATM    1  O   UNL     1     -12.281   5.878  72.190  1.00  0.00    -0.224 OA 
HETATM    2  N   UNL     1     -12.611   5.968  71.001  1.00  0.00     0.835 N  
HETATM    3  O   UNL     1     -13.624   6.550  70.594  1.00  0.00     0.815 OA 
HETATM    4  C   UNL     1     -11.738   5.337  70.001  1.00  0.00     2.740 A  
HETATM    5  C   UNL     1     -10.586   4.668  70.419  1.00  0.00     0.256 A  
HETATM    6  C   UNL     1      -9.739   4.092  69.466  1.00  0.00    -0.254 A  
HETATM    7  C   UNL     1     -10.016   4.174  68.089  1.00  0.00     0.002 A  
HETATM    8  C   UNL     1     -11.190   4.836  67.690  1.00  0.00     2.332 A  
HETATM    9  C   UNL     1     -12.049   5.418  68.638  1.00  0.00     5.618 A  
ENDROOT
BRANCH   7  10
HETATM   10  C   UNL     1      -9.071   3.596  67.129  1.00  0.00    -0.168 A  
HETATM   11  C   UNL     1      -9.080   3.467  65.752  1.00  0.00    -0.152 A  
HETATM   12  C   UNL     1      -7.900   2.775  65.392  1.00  0.00    -0.081 A  
HETATM   13  C   UNL     1      -7.220   2.519  66.564  1.00  0.00    -0.064 A  
HETATM   14  O   UNL     1      -7.930   3.022  67.626  1.00  0.00    -0.074 OA 
BRANCH  13  15
HETATM   15  C   UNL     1      -5.980   1.839  66.827  1.00  0.00    -0.019 C  
BRANCH  15  16
HETATM   16  N   UNL     1      -5.496   1.766  68.031  1.00  0.00    -0.017 NA 
HETATM   17  H   UNL     1      -5.255   0.869  68.451  1.00  0.00     0.000 HD 
BRANCH  16  18
HETATM   18  N   UNL     1      -5.321   2.943  68.715  1.00  0.00    -0.012 N  
HETATM   19  C   UNL     1      -5.439   2.976  70.157  1.00  0.00    -0.016 C  
HETATM   20  C   UNL     1      -5.518   4.472  70.392  1.00  0.00    -0.011 C  
HETATM   21  N   UNL     1      -5.418   5.121  69.205  1.00  0.00    -0.007 NA 
HETATM   22  O   UNL     1      -5.669   5.020  71.476  1.00  0.00    -0.011 OA 
HETATM   23  C   UNL     1      -5.394   4.239  68.174  1.00  0.00    -0.012 C  
HETATM   24  O   UNL     1      -5.466   4.560  66.997  1.00  0.00    -0.012 OA 
ENDBRANCH  16  18
ENDBRANCH  15  16
ENDBRANCH  13  15
ENDBRANCH   7  10
TORSDOF 4
ENDMDL
