MODEL        1
REMARK 921   NORMALIZED FREE ENERGY PREDICTED BY IDOCK:   -8.48 KCAL/MOL
REMARK 922        TOTAL FREE ENERGY PREDICTED BY IDOCK:  -12.42 KCAL/MOL
REMARK 923 INTER-LIGAND FREE ENERGY PREDICTED BY IDOCK:  -11.46 KCAL/MOL
REMARK 924 INTRA-LIGAND FREE ENERGY PREDICTED BY IDOCK:   -0.97 KCAL/MOL
REMARK 927      BINDING AFFINITY PREDICTED BY RF-SCORE:    0.00 PKD
ROOT
HETATM    1  C   UNL     1     -12.294  15.444  74.381  1.00  0.00    -0.766 C  
HETATM    2  C   UNL     1     -13.091  15.857  73.158  1.00  0.00    -0.572 C  
ENDROOT
BRANCH   2   3
HETATM    3  O   UNL     1     -13.921  14.761  72.777  1.00  0.00    -0.484 OA 
BRANCH   3   4
HETATM    4  C   UNL     1     -13.353  13.802  71.985  1.00  0.00    -0.447 A  
HETATM    5  C   UNL     1     -12.564  14.033  70.860  1.00  0.00    -0.431 A  
HETATM    6  C   UNL     1     -12.034  12.957  70.140  1.00  0.00    -0.373 A  
HETATM    7  C   UNL     1     -12.283  11.635  70.530  1.00  0.00    -0.451 A  
HETATM    8  C   UNL     1     -13.617  12.486  72.370  1.00  0.00    -0.353 A  
HETATM    9  C   UNL     1     -13.090  11.409  71.651  1.00  0.00    -0.498 A  
BRANCH   7  10
HETATM   10  C   UNL     1     -11.753  10.493  69.697  1.00  0.00    -0.328 C  
BRANCH  10  11
HETATM   11  C   UNL     1     -10.548  10.785  68.829  1.00  0.00    -0.229 A  
HETATM   12  C   UNL     1      -9.249  10.366  69.144  1.00  0.00    -0.191 A  
HETATM   13 CL   UNL     1      -8.924   9.321  70.479  1.00  0.00    -0.273 Cl 
HETATM   14  C   UNL     1      -8.157  10.830  68.399  1.00  0.00    -0.127 A  
HETATM   15  C   UNL     1      -8.340  11.730  67.344  1.00  0.00    -0.159 A  
HETATM   16  C   UNL     1      -9.628  12.144  66.990  1.00  0.00    -0.207 A  
HETATM   17  C   UNL     1     -10.719  11.626  67.715  1.00  0.00    -0.244 A  
BRANCH  16  18
HETATM   18  C   UNL     1      -9.892  13.225  65.948  1.00  0.00    -0.231 C  
HETATM   19  O   UNL     1     -10.053  14.511  66.575  1.00  0.00    -0.259 OA 
HETATM   20  C   UNL     1     -10.238  15.574  65.624  1.00  0.00    -0.376 C  
HETATM   21  H   UNL     1     -11.734  11.392  63.895  1.00  0.00     0.000 HD 
HETATM   22  C   UNL     1     -11.499  15.344  64.788  1.00  0.00    -0.336 C  
HETATM   23  O   UNL     1     -10.968  11.613  64.412  1.00  0.00    -0.319 OA 
HETATM   24  O   UNL     1     -11.688  16.353  63.786  1.00  0.00    -1.553 OA 
HETATM   25  C   UNL     1     -11.423  13.983  64.093  1.00  0.00    -0.209 C  
HETATM   26  H   UNL     1     -12.593  12.885  62.952  1.00  0.00     0.000 HD 
HETATM   27  O   UNL     1     -12.640  13.730  63.384  1.00  0.00    -0.842 OA 
HETATM   28  H   UNL     1     -12.471  16.210  63.267  1.00  0.00     0.000 HD 
HETATM   29  C   UNL     1     -11.145  12.862  65.102  1.00  0.00    -0.292 C  
BRANCH  20  30
HETATM   30  C   UNL     1     -10.333  16.903  66.390  1.00  0.00    -0.300 C  
HETATM   31  O   UNL     1     -10.406  17.986  65.465  1.00  0.00    -0.606 OA 
HETATM   32  H   UNL     1     -10.464  18.808  65.938  1.00  0.00     0.000 HD 
ENDBRANCH  20  30
ENDBRANCH  16  18
ENDBRANCH  10  11
ENDBRANCH   7  10
ENDBRANCH   3   4
ENDBRANCH   2   3
TORSDOF 6
ENDMDL
MODEL        2
REMARK 921   NORMALIZED FREE ENERGY PREDICTED BY IDOCK:   -7.75 KCAL/MOL
REMARK 922        TOTAL FREE ENERGY PREDICTED BY IDOCK:  -11.44 KCAL/MOL
REMARK 923 INTER-LIGAND FREE ENERGY PREDICTED BY IDOCK:  -10.55 KCAL/MOL
REMARK 924 INTRA-LIGAND FREE ENERGY PREDICTED BY IDOCK:   -0.89 KCAL/MOL
REMARK 927      BINDING AFFINITY PREDICTED BY RF-SCORE:    0.00 PKD
ROOT
HETATM    1  C   UNL     1     -10.792   5.190  73.624  1.00  0.00    -0.363 C  
HETATM    2  C   UNL     1     -10.521   5.652  72.204  1.00  0.00    -0.216 C  
ENDROOT
BRANCH   2   3
HETATM    3  O   UNL     1     -11.754   6.092  71.638  1.00  0.00    -0.296 OA 
BRANCH   3   4
HETATM    4  C   UNL     1     -11.958   7.443  71.576  1.00  0.00    -0.307 A  
HETATM    5  C   UNL     1     -10.964   8.417  71.496  1.00  0.00    -0.326 A  
HETATM    6  C   UNL     1     -11.310   9.771  71.430  1.00  0.00    -0.407 A  
HETATM    7  C   UNL     1     -12.651  10.174  71.444  1.00  0.00    -0.526 A  
HETATM    8  C   UNL     1     -13.296   7.840  71.606  1.00  0.00    -0.386 A  
HETATM    9  C   UNL     1     -13.644   9.192  71.542  1.00  0.00    -0.406 A  
BRANCH   7  10
HETATM   10  C   UNL     1     -12.994  11.644  71.436  1.00  0.00    -0.426 C  
BRANCH  10  11
HETATM   11  C   UNL     1     -12.340  12.490  70.366  1.00  0.00    -0.311 A  
HETATM   12  C   UNL     1     -12.101  13.864  70.505  1.00  0.00    -0.356 A  
HETATM   13 CL   UNL     1     -12.380  14.693  71.993  1.00  0.00    -0.401 Cl 
HETATM   14  C   UNL     1     -11.668  14.620  69.409  1.00  0.00    -0.355 A  
HETATM   15  C   UNL     1     -11.484  14.026  68.156  1.00  0.00    -0.341 A  
HETATM   16  C   UNL     1     -11.687  12.652  67.994  1.00  0.00    -0.402 A  
HETATM   17  C   UNL     1     -12.071  11.897  69.120  1.00  0.00    -0.261 A  
BRANCH  16  18
HETATM   18  C   UNL     1     -11.642  11.963  66.635  1.00  0.00    -0.264 C  
HETATM   19  O   UNL     1     -10.339  11.398  66.391  1.00  0.00    -0.226 OA 
HETATM   20  C   UNL     1     -10.269  10.681  65.147  1.00  0.00    -0.299 C  
HETATM   21  H   UNL     1     -13.593  14.094  65.017  1.00  0.00     0.000 HD 
HETATM   22  C   UNL     1     -10.563  11.607  63.965  1.00  0.00    -0.373 C  
HETATM   23  O   UNL     1     -13.357  13.481  65.703  1.00  0.00    -0.412 OA 
HETATM   24  O   UNL     1     -10.561  10.915  62.708  1.00  0.00    -0.780 OA 
HETATM   25  C   UNL     1     -11.930  12.268  64.148  1.00  0.00    -0.432 C  
HETATM   26  H   UNL     1     -13.015  13.613  63.203  1.00  0.00     0.000 HD 
HETATM   27  O   UNL     1     -12.166  13.202  63.089  1.00  0.00    -0.631 OA 
HETATM   28  H   UNL     1     -10.744  11.491  61.974  1.00  0.00     0.000 HD 
HETATM   29  C   UNL     1     -12.029  12.965  65.511  1.00  0.00    -0.436 C  
BRANCH  20  30
HETATM   30  C   UNL     1      -8.866  10.067  65.016  1.00  0.00    -0.186 C  
HETATM   31  O   UNL     1      -8.942   8.846  64.282  1.00  0.00    -0.422 OA 
HETATM   32  H   UNL     1      -8.075   8.467  64.201  1.00  0.00     0.000 HD 
ENDBRANCH  20  30
ENDBRANCH  16  18
ENDBRANCH  10  11
ENDBRANCH   7  10
ENDBRANCH   3   4
ENDBRANCH   2   3
TORSDOF 6
ENDMDL
MODEL        3
REMARK 921   NORMALIZED FREE ENERGY PREDICTED BY IDOCK:   -7.46 KCAL/MOL
REMARK 922        TOTAL FREE ENERGY PREDICTED BY IDOCK:  -11.04 KCAL/MOL
REMARK 923 INTER-LIGAND FREE ENERGY PREDICTED BY IDOCK:  -10.00 KCAL/MOL
REMARK 924 INTRA-LIGAND FREE ENERGY PREDICTED BY IDOCK:   -1.04 KCAL/MOL
REMARK 927      BINDING AFFINITY PREDICTED BY RF-SCORE:    0.00 PKD
ROOT
HETATM    1  C   UNL     1     -12.419  15.672  74.547  1.00  0.00    -0.749 C  
HETATM    2  C   UNL     1     -12.972  15.850  73.145  1.00  0.00    -0.549 C  
ENDROOT
BRANCH   2   3
HETATM    3  O   UNL     1     -11.885  16.161  72.275  1.00  0.00    -0.486 OA 
BRANCH   3   4
HETATM    4  C   UNL     1     -11.846  15.505  71.076  1.00  0.00    -0.382 A  
HETATM    5  C   UNL     1     -11.324  16.008  69.886  1.00  0.00    -0.340 A  
HETATM    6  C   UNL     1     -11.338  15.227  68.726  1.00  0.00    -0.318 A  
HETATM    7  C   UNL     1     -11.873  13.932  68.735  1.00  0.00    -0.396 A  
HETATM    8  C   UNL     1     -12.394  14.221  71.088  1.00  0.00    -0.440 A  
HETATM    9  C   UNL     1     -12.410  13.439  69.930  1.00  0.00    -0.259 A  
BRANCH   7  10
HETATM   10  C   UNL     1     -11.933  13.135  67.455  1.00  0.00    -0.379 C  
BRANCH  10  11
HETATM   11  C   UNL     1     -11.068  11.895  67.382  1.00  0.00    -0.336 A  
HETATM   12  C   UNL     1     -10.463  11.443  66.203  1.00  0.00    -0.255 A  
HETATM   13 CL   UNL     1     -10.510  12.362  64.742  1.00  0.00    -0.318 Cl 
HETATM   14  C   UNL     1      -9.835  10.192  66.165  1.00  0.00    -0.297 A  
HETATM   15  C   UNL     1      -9.815   9.367  67.295  1.00  0.00    -0.232 A  
HETATM   16  C   UNL     1     -10.387   9.803  68.494  1.00  0.00    -0.228 A  
HETATM   17  C   UNL     1     -10.967  11.087  68.528  1.00  0.00    -0.276 A  
BRANCH  16  18
HETATM   18  C   UNL     1     -10.526   8.907  69.719  1.00  0.00    -0.212 C  
HETATM   19  O   UNL     1     -11.836   9.039  70.303  1.00  0.00    -0.087 OA 
HETATM   20  C   UNL     1     -12.035   8.161  71.425  1.00  0.00    -0.298 C  
HETATM   21  H   UNL     1      -7.431   9.247  70.845  1.00  0.00     0.000 HD 
HETATM   22  C   UNL     1     -11.034   8.465  72.541  1.00  0.00    -0.318 C  
HETATM   23  O   UNL     1      -8.106   9.042  70.210  1.00  0.00    -0.105 OA 
HETATM   24  O   UNL     1     -11.162   7.570  73.656  1.00  0.00    -0.583 OA 
HETATM   25  C   UNL     1      -9.606   8.364  72.003  1.00  0.00    -0.274 C  
HETATM   26  H   UNL     1      -7.786   8.672  72.689  1.00  0.00     0.000 HD 
HETATM   27  O   UNL     1      -8.673   8.735  73.023  1.00  0.00    -0.368 OA 
HETATM   28  H   UNL     1     -10.540   7.760  74.349  1.00  0.00     0.000 HD 
HETATM   29  C   UNL     1      -9.420   9.241  70.759  1.00  0.00    -0.271 C  
BRANCH  20  30
HETATM   30  C   UNL     1     -13.477   8.334  71.930  1.00  0.00    -0.346 C  
HETATM   31  O   UNL     1     -13.477   9.110  73.126  1.00  0.00    -0.899 OA 
HETATM   32  H   UNL     1     -14.367   9.217  73.438  1.00  0.00     0.000 HD 
ENDBRANCH  20  30
ENDBRANCH  16  18
ENDBRANCH  10  11
ENDBRANCH   7  10
ENDBRANCH   3   4
ENDBRANCH   2   3
TORSDOF 6
ENDMDL
MODEL        4
REMARK 921   NORMALIZED FREE ENERGY PREDICTED BY IDOCK:   -7.36 KCAL/MOL
REMARK 922        TOTAL FREE ENERGY PREDICTED BY IDOCK:  -10.91 KCAL/MOL
REMARK 923 INTER-LIGAND FREE ENERGY PREDICTED BY IDOCK:  -10.43 KCAL/MOL
REMARK 924 INTRA-LIGAND FREE ENERGY PREDICTED BY IDOCK:   -0.48 KCAL/MOL
REMARK 927      BINDING AFFINITY PREDICTED BY RF-SCORE:    0.00 PKD
ROOT
HETATM    1  C   UNL     1      -8.826   4.644  74.509  1.00  0.00    -0.107 C  
HETATM    2  C   UNL     1     -10.192   5.275  74.311  1.00  0.00    -0.266 C  
ENDROOT
BRANCH   2   3
HETATM    3  O   UNL     1     -10.024   6.691  74.266  1.00  0.00    -0.293 OA 
BRANCH   3   4
HETATM    4  C   UNL     1     -10.468   7.330  73.141  1.00  0.00    -0.339 A  
HETATM    5  C   UNL     1     -11.619   7.015  72.422  1.00  0.00    -0.284 A  
HETATM    6  C   UNL     1     -11.966   7.757  71.288  1.00  0.00    -0.324 A  
HETATM    7  C   UNL     1     -11.169   8.824  70.854  1.00  0.00    -0.320 A  
HETATM    8  C   UNL     1      -9.663   8.384  72.704  1.00  0.00    -0.332 A  
HETATM    9  C   UNL     1     -10.006   9.126  71.570  1.00  0.00    -0.358 A  
BRANCH   7  10
HETATM   10  C   UNL     1     -11.533   9.567  69.591  1.00  0.00     0.011 C  
BRANCH  10  11
HETATM   11  C   UNL     1     -11.655  11.071  69.696  1.00  0.00    -0.390 A  
HETATM   12  C   UNL     1     -12.351  11.720  70.724  1.00  0.00    -0.337 A  
HETATM   13 CL   UNL     1     -12.998  10.859  72.074  1.00  0.00    -0.519 Cl 
HETATM   14  C   UNL     1     -12.585  13.099  70.659  1.00  0.00    -0.286 A  
HETATM   15  C   UNL     1     -12.146  13.848  69.562  1.00  0.00    -0.393 A  
HETATM   16  C   UNL     1     -11.424  13.233  68.534  1.00  0.00    -0.347 A  
HETATM   17  C   UNL     1     -11.152  11.855  68.643  1.00  0.00    -0.295 A  
BRANCH  16  18
HETATM   18  C   UNL     1     -11.038  13.954  67.248  1.00  0.00    -0.299 C  
HETATM   19  O   UNL     1     -10.911  15.371  67.474  1.00  0.00    -0.304 OA 
HETATM   20  C   UNL     1     -10.483  16.085  66.302  1.00  0.00    -0.320 C  
HETATM   21  H   UNL     1     -12.803  12.080  65.166  1.00  0.00     0.000 HD 
HETATM   22  C   UNL     1     -11.492  15.920  65.164  1.00  0.00    -0.002 C  
HETATM   23  O   UNL     1     -12.165  12.257  65.847  1.00  0.00    -0.634 OA 
HETATM   24  O   UNL     1     -11.071  16.570  63.955  1.00  0.00    -1.299 OA 
HETATM   25  C   UNL     1     -11.703  14.435  64.864  1.00  0.00    -0.408 C  
HETATM   26  H   UNL     1     -12.843  13.357  63.675  1.00  0.00     0.000 HD 
HETATM   27  O   UNL     1     -12.712  14.279  63.861  1.00  0.00    -0.749 OA 
HETATM   28  H   UNL     1     -11.698  16.468  63.248  1.00  0.00     0.000 HD 
HETATM   29  C   UNL     1     -12.081  13.663  66.134  1.00  0.00    -0.436 C  
BRANCH  20  30
HETATM   30  C   UNL     1     -10.317  17.569  66.667  1.00  0.00    -0.319 C  
HETATM   31  O   UNL     1      -9.456  18.203  65.723  1.00  0.00    -0.483 OA 
HETATM   32  H   UNL     1      -9.354  19.120  65.949  1.00  0.00     0.000 HD 
ENDBRANCH  20  30
ENDBRANCH  16  18
ENDBRANCH  10  11
ENDBRANCH   7  10
ENDBRANCH   3   4
ENDBRANCH   2   3
TORSDOF 6
ENDMDL
MODEL        5
REMARK 921   NORMALIZED FREE ENERGY PREDICTED BY IDOCK:   -7.25 KCAL/MOL
REMARK 922        TOTAL FREE ENERGY PREDICTED BY IDOCK:  -10.76 KCAL/MOL
REMARK 923 INTER-LIGAND FREE ENERGY PREDICTED BY IDOCK:   -9.66 KCAL/MOL
REMARK 924 INTRA-LIGAND FREE ENERGY PREDICTED BY IDOCK:   -1.10 KCAL/MOL
REMARK 927      BINDING AFFINITY PREDICTED BY RF-SCORE:    0.00 PKD
ROOT
HETATM    1  C   UNL     1      -5.763  19.932  66.279  1.00  0.00    -0.180 C  
HETATM    2  C   UNL     1      -6.969  19.508  65.461  1.00  0.00    -0.273 C  
ENDROOT
BRANCH   2   3
HETATM    3  O   UNL     1      -7.182  18.113  65.674  1.00  0.00    -0.513 OA 
BRANCH   3   4
HETATM    4  C   UNL     1      -8.236  17.764  66.470  1.00  0.00    -0.269 A  
HETATM    5  C   UNL     1      -9.543  18.231  66.348  1.00  0.00    -0.307 A  
HETATM    6  C   UNL     1     -10.536  17.785  67.227  1.00  0.00    -0.356 A  
HETATM    7  C   UNL     1     -10.239  16.866  68.242  1.00  0.00    -0.318 A  
HETATM    8  C   UNL     1      -7.932  16.859  67.489  1.00  0.00    -0.186 A  
HETATM    9  C   UNL     1      -8.921  16.413  68.371  1.00  0.00    -0.214 A  
BRANCH   7  10
HETATM   10  C   UNL     1     -11.315  16.451  69.217  1.00  0.00    -0.225 C  
BRANCH  10  11
HETATM   11  C   UNL     1     -11.686  14.985  69.238  1.00  0.00    -0.349 A  
HETATM   12  C   UNL     1     -11.807  14.235  70.415  1.00  0.00    -0.305 A  
HETATM   13 CL   UNL     1     -11.709  14.964  71.977  1.00  0.00    -0.414 Cl 
HETATM   14  C   UNL     1     -11.967  12.845  70.354  1.00  0.00    -0.329 A  
HETATM   15  C   UNL     1     -11.990  12.180  69.123  1.00  0.00    -0.311 A  
HETATM   16  C   UNL     1     -11.899  12.905  67.931  1.00  0.00    -0.388 A  
HETATM   17  C   UNL     1     -11.793  14.308  68.010  1.00  0.00    -0.379 A  
BRANCH  16  18
HETATM   18  C   UNL     1     -11.777  12.240  66.565  1.00  0.00    -0.352 C  
HETATM   19  O   UNL     1     -10.431  11.782  66.338  1.00  0.00    -0.222 OA 
HETATM   20  C   UNL     1     -10.284  11.088  65.087  1.00  0.00    -0.291 C  
HETATM   21  H   UNL     1     -13.863  14.232  64.937  1.00  0.00     0.000 HD 
HETATM   22  C   UNL     1     -10.630  12.003  63.911  1.00  0.00    -0.400 C  
HETATM   23  O   UNL     1     -13.590  13.631  65.621  1.00  0.00    -0.325 OA 
HETATM   24  O   UNL     1     -10.552  11.330  62.646  1.00  0.00    -0.624 OA 
HETATM   25  C   UNL     1     -12.047  12.553  64.077  1.00  0.00    -0.473 C  
HETATM   26  H   UNL     1     -13.218  13.821  63.128  1.00  0.00     0.000 HD 
HETATM   27  O   UNL     1     -12.337  13.479  63.025  1.00  0.00    -0.661 OA 
HETATM   28  H   UNL     1     -10.767  11.899  61.916  1.00  0.00     0.000 HD 
HETATM   29  C   UNL     1     -12.223  13.222  65.446  1.00  0.00    -0.456 C  
BRANCH  20  30
HETATM   30  C   UNL     1      -8.835  10.587  64.974  1.00  0.00    -0.191 C  
HETATM   31  O   UNL     1      -7.964  11.474  65.673  1.00  0.00    -0.349 OA 
HETATM   32  H   UNL     1      -7.069  11.166  65.603  1.00  0.00     0.000 HD 
ENDBRANCH  20  30
ENDBRANCH  16  18
ENDBRANCH  10  11
ENDBRANCH   7  10
ENDBRANCH   3   4
ENDBRANCH   2   3
TORSDOF 6
ENDMDL
MODEL        6
REMARK 921   NORMALIZED FREE ENERGY PREDICTED BY IDOCK:   -7.20 KCAL/MOL
REMARK 922        TOTAL FREE ENERGY PREDICTED BY IDOCK:  -10.69 KCAL/MOL
REMARK 923 INTER-LIGAND FREE ENERGY PREDICTED BY IDOCK:   -9.72 KCAL/MOL
REMARK 924 INTRA-LIGAND FREE ENERGY PREDICTED BY IDOCK:   -0.97 KCAL/MOL
REMARK 927      BINDING AFFINITY PREDICTED BY RF-SCORE:    0.00 PKD
ROOT
HETATM    1  C   UNL     1     -10.395   5.435  71.674  1.00  0.00    -0.280 C  
HETATM    2  C   UNL     1     -11.258   5.983  72.796  1.00  0.00    -0.261 C  
ENDROOT
BRANCH   2   3
HETATM    3  O   UNL     1     -10.796   7.296  73.111  1.00  0.00    -0.315 OA 
BRANCH   3   4
HETATM    4  C   UNL     1     -11.354   8.330  72.412  1.00  0.00    -0.388 A  
HETATM    5  C   UNL     1     -12.686   8.735  72.475  1.00  0.00    -0.378 A  
HETATM    6  C   UNL     1     -13.128   9.820  71.711  1.00  0.00    -0.528 A  
HETATM    7  C   UNL     1     -12.249  10.518  70.872  1.00  0.00    -0.490 A  
HETATM    8  C   UNL     1     -10.477   9.013  71.567  1.00  0.00    -0.410 A  
HETATM    9  C   UNL     1     -10.916  10.096  70.801  1.00  0.00    -0.313 A  
BRANCH   7  10
HETATM   10  C   UNL     1     -12.767  11.644  70.011  1.00  0.00     0.084 C  
BRANCH  10  11
HETATM   11  C   UNL     1     -12.285  13.038  70.349  1.00  0.00    -0.386 A  
HETATM   12  C   UNL     1     -12.853  13.828  71.357  1.00  0.00    -0.369 A  
HETATM   13 CL   UNL     1     -14.059  13.214  72.430  1.00  0.00    -0.525 Cl 
HETATM   14  C   UNL     1     -12.487  15.173  71.491  1.00  0.00    -0.418 A  
HETATM   15  C   UNL     1     -11.564  15.755  70.615  1.00  0.00    -0.416 A  
HETATM   16  C   UNL     1     -10.960  14.983  69.617  1.00  0.00    -0.294 A  
HETATM   17  C   UNL     1     -11.301  13.619  69.531  1.00  0.00    -0.276 A  
BRANCH  16  18
HETATM   18  C   UNL     1     -10.056  15.579  68.544  1.00  0.00    -0.211 C  
HETATM   19  O   UNL     1      -9.385  16.755  69.035  1.00  0.00    -0.262 OA 
HETATM   20  C   UNL     1      -8.470  17.313  68.077  1.00  0.00    -0.229 C  
HETATM   21  H   UNL     1     -12.001  14.925  65.944  1.00  0.00     0.000 HD 
HETATM   22  C   UNL     1      -9.205  17.739  66.804  1.00  0.00    -0.273 C  
HETATM   23  O   UNL     1     -11.497  14.725  66.724  1.00  0.00    -0.351 OA 
HETATM   24  O   UNL     1      -8.317  18.248  65.798  1.00  0.00    -0.489 OA 
HETATM   25  C   UNL     1      -9.965  16.548  66.218  1.00  0.00    -0.329 C  
HETATM   26  H   UNL     1     -11.196  16.228  64.714  1.00  0.00     0.000 HD 
HETATM   27  O   UNL     1     -10.724  16.967  65.079  1.00  0.00    -0.713 OA 
HETATM   28  H   UNL     1      -8.774  18.512  65.008  1.00  0.00     0.000 HD 
HETATM   29  C   UNL     1     -10.880  15.905  67.267  1.00  0.00    -0.279 C  
BRANCH  20  30
HETATM   30  C   UNL     1      -7.763  18.517  68.721  1.00  0.00    -0.280 C  
HETATM   31  O   UNL     1      -8.569  19.684  68.570  1.00  0.00    -0.345 OA 
HETATM   32  H   UNL     1      -8.133  20.428  68.967  1.00  0.00     0.000 HD 
ENDBRANCH  20  30
ENDBRANCH  16  18
ENDBRANCH  10  11
ENDBRANCH   7  10
ENDBRANCH   3   4
ENDBRANCH   2   3
TORSDOF 6
ENDMDL
MODEL        7
REMARK 921   NORMALIZED FREE ENERGY PREDICTED BY IDOCK:   -7.16 KCAL/MOL
REMARK 922        TOTAL FREE ENERGY PREDICTED BY IDOCK:  -10.64 KCAL/MOL
REMARK 923 INTER-LIGAND FREE ENERGY PREDICTED BY IDOCK:   -9.35 KCAL/MOL
REMARK 924 INTRA-LIGAND FREE ENERGY PREDICTED BY IDOCK:   -1.28 KCAL/MOL
REMARK 927      BINDING AFFINITY PREDICTED BY RF-SCORE:    0.00 PKD
ROOT
HETATM    1  C   UNL     1     -10.077  20.019  67.681  1.00  0.00    -0.562 C  
HETATM    2  C   UNL     1      -9.257  18.793  68.037  1.00  0.00    -0.302 C  
ENDROOT
BRANCH   2   3
HETATM    3  O   UNL     1     -10.017  17.998  68.945  1.00  0.00    -0.370 OA 
BRANCH   3   4
HETATM    4  C   UNL     1     -10.526  16.824  68.462  1.00  0.00    -0.335 A  
HETATM    5  C   UNL     1     -10.510  16.413  67.131  1.00  0.00    -0.297 A  
HETATM    6  C   UNL     1     -11.060  15.179  66.769  1.00  0.00    -0.307 A  
HETATM    7  C   UNL     1     -11.634  14.336  67.729  1.00  0.00    -0.383 A  
HETATM    8  C   UNL     1     -11.110  15.995  69.421  1.00  0.00    -0.331 A  
HETATM    9  C   UNL     1     -11.662  14.762  69.062  1.00  0.00    -0.343 A  
BRANCH   7  10
HETATM   10  C   UNL     1     -12.277  13.039  67.302  1.00  0.00    -0.180 C  
BRANCH  10  11
HETATM   11  C   UNL     1     -11.384  11.819  67.253  1.00  0.00    -0.379 A  
HETATM   12  C   UNL     1     -10.739  11.379  66.090  1.00  0.00    -0.267 A  
HETATM   13 CL   UNL     1     -10.770  12.295  64.627  1.00  0.00    -0.326 Cl 
HETATM   14  C   UNL     1     -10.082  10.142  66.070  1.00  0.00    -0.317 A  
HETATM   15  C   UNL     1     -10.073   9.319  67.201  1.00  0.00    -0.299 A  
HETATM   16  C   UNL     1     -10.684   9.744  68.385  1.00  0.00    -0.262 A  
HETATM   17  C   UNL     1     -11.293  11.014  68.402  1.00  0.00    -0.363 A  
BRANCH  16  18
HETATM   18  C   UNL     1     -10.834   8.846  69.607  1.00  0.00    -0.178 C  
HETATM   19  O   UNL     1     -12.132   9.014  70.209  1.00  0.00     0.052 OA 
HETATM   20  C   UNL     1     -12.343   8.136  71.329  1.00  0.00    -0.265 C  
HETATM   21  H   UNL     1      -7.716   9.089  70.696  1.00  0.00     0.000 HD 
HETATM   22  C   UNL     1     -11.319   8.405  72.434  1.00  0.00    -0.378 C  
HETATM   23  O   UNL     1      -8.405   8.908  70.068  1.00  0.00    -0.115 OA 
HETATM   24  O   UNL     1     -11.459   7.509  73.546  1.00  0.00    -0.608 OA 
HETATM   25  C   UNL     1      -9.901   8.264  71.877  1.00  0.00    -0.232 C  
HETATM   26  H   UNL     1      -8.065   8.516  72.541  1.00  0.00     0.000 HD 
HETATM   27  O   UNL     1      -8.946   8.603  72.887  1.00  0.00    -0.343 OA 
HETATM   28  H   UNL     1     -10.823   7.676  74.232  1.00  0.00     0.000 HD 
HETATM   29  C   UNL     1      -9.705   9.142  70.634  1.00  0.00    -0.256 C  
BRANCH  20  30
HETATM   30  C   UNL     1     -13.772   8.348  71.853  1.00  0.00    -0.394 C  
HETATM   31  O   UNL     1     -13.728   9.028  73.106  1.00  0.00    -1.013 OA 
HETATM   32  H   UNL     1     -14.611   9.159  73.430  1.00  0.00     0.000 HD 
ENDBRANCH  20  30
ENDBRANCH  16  18
ENDBRANCH  10  11
ENDBRANCH   7  10
ENDBRANCH   3   4
ENDBRANCH   2   3
TORSDOF 6
ENDMDL
MODEL        8
REMARK 921   NORMALIZED FREE ENERGY PREDICTED BY IDOCK:   -7.15 KCAL/MOL
REMARK 922        TOTAL FREE ENERGY PREDICTED BY IDOCK:  -10.62 KCAL/MOL
REMARK 923 INTER-LIGAND FREE ENERGY PREDICTED BY IDOCK:   -9.84 KCAL/MOL
REMARK 924 INTRA-LIGAND FREE ENERGY PREDICTED BY IDOCK:   -0.78 KCAL/MOL
REMARK 927      BINDING AFFINITY PREDICTED BY RF-SCORE:    0.00 PKD
ROOT
HETATM    1  C   UNL     1      -9.819  10.625  63.711  1.00  0.00    -0.394 C  
HETATM    2  C   UNL     1     -10.891  11.646  63.380  1.00  0.00    -0.379 C  
ENDROOT
BRANCH   2   3
HETATM    3  O   UNL     1     -10.440  12.925  63.822  1.00  0.00    -0.379 OA 
BRANCH   3   4
HETATM    4  C   UNL     1     -10.777  13.293  65.095  1.00  0.00    -0.322 A  
HETATM    5  C   UNL     1     -12.071  13.505  65.568  1.00  0.00    -0.454 A  
HETATM    6  C   UNL     1     -12.280  13.873  66.902  1.00  0.00    -0.415 A  
HETATM    7  C   UNL     1     -11.203  14.035  67.783  1.00  0.00    -0.302 A  
HETATM    8  C   UNL     1      -9.699  13.468  65.964  1.00  0.00    -0.233 A  
HETATM    9  C   UNL     1      -9.906  13.837  67.297  1.00  0.00    -0.241 A  
BRANCH   7  10
HETATM   10  C   UNL     1     -11.454  14.495  69.199  1.00  0.00    -0.324 C  
BRANCH  10  11
HETATM   11  C   UNL     1     -12.148  13.516  70.120  1.00  0.00    -0.425 A  
HETATM   12  C   UNL     1     -13.040  13.904  71.128  1.00  0.00    -0.281 A  
HETATM   13 CL   UNL     1     -13.564  15.539  71.305  1.00  0.00    -0.574 Cl 
HETATM   14  C   UNL     1     -13.500  12.968  72.063  1.00  0.00    -0.584 A  
HETATM   15  C   UNL     1     -13.065  11.639  72.019  1.00  0.00    -0.433 A  
HETATM   16  C   UNL     1     -12.198  11.217  71.007  1.00  0.00    -0.438 A  
HETATM   17  C   UNL     1     -11.788  12.160  70.043  1.00  0.00    -0.383 A  
BRANCH  16  18
HETATM   18  C   UNL     1     -11.575   9.826  70.977  1.00  0.00    -0.376 C  
HETATM   19  O   UNL     1     -11.187   9.467  69.637  1.00  0.00    -0.206 OA 
HETATM   20  C   UNL     1     -10.534   8.187  69.572  1.00  0.00    -0.227 C  
HETATM   21  H   UNL     1     -13.510   8.448  73.285  1.00  0.00     0.000 HD 
HETATM   22  C   UNL     1     -11.463   7.075  70.061  1.00  0.00    -0.215 C  
HETATM   23  O   UNL     1     -12.905   9.087  72.927  1.00  0.00    -0.305 OA 
HETATM   24  O   UNL     1     -10.828   5.788  70.067  1.00  0.00    -0.316 OA 
HETATM   25  C   UNL     1     -11.942   7.382  71.481  1.00  0.00    -0.307 C  
HETATM   26  H   UNL     1     -13.178   6.578  72.786  1.00  0.00     0.000 HD 
HETATM   27  O   UNL     1     -12.881   6.388  71.904  1.00  0.00    -0.243 OA 
HETATM   28  H   UNL     1     -11.405   5.097  70.370  1.00  0.00     0.000 HD 
HETATM   29  C   UNL     1     -12.565   8.781  71.564  1.00  0.00    -0.326 C  
BRANCH  20  30
HETATM   30  C   UNL     1     -10.105   7.933  68.118  1.00  0.00    -0.191 C  
HETATM   31  O   UNL     1     -11.178   7.328  67.399  1.00  0.00    -0.565 OA 
HETATM   32  H   UNL     1     -10.913   7.170  66.501  1.00  0.00     0.000 HD 
ENDBRANCH  20  30
ENDBRANCH  16  18
ENDBRANCH  10  11
ENDBRANCH   7  10
ENDBRANCH   3   4
ENDBRANCH   2   3
TORSDOF 6
ENDMDL
MODEL        9
REMARK 921   NORMALIZED FREE ENERGY PREDICTED BY IDOCK:   -7.13 KCAL/MOL
REMARK 922        TOTAL FREE ENERGY PREDICTED BY IDOCK:  -10.60 KCAL/MOL
REMARK 923 INTER-LIGAND FREE ENERGY PREDICTED BY IDOCK:  -10.23 KCAL/MOL
REMARK 924 INTRA-LIGAND FREE ENERGY PREDICTED BY IDOCK:   -0.37 KCAL/MOL
REMARK 927      BINDING AFFINITY PREDICTED BY RF-SCORE:    0.00 PKD
ROOT
HETATM    1  C   UNL     1      -9.940   5.220  70.610  1.00  0.00    -0.287 C  
HETATM    2  C   UNL     1     -10.160   5.643  72.051  1.00  0.00    -0.185 C  
ENDROOT
BRANCH   2   3
HETATM    3  O   UNL     1      -9.569   6.929  72.232  1.00  0.00    -0.148 OA 
BRANCH   3   4
HETATM    4  C   UNL     1     -10.327   8.011  71.883  1.00  0.00    -0.223 A  
HETATM    5  C   UNL     1      -9.953   9.020  70.997  1.00  0.00    -0.349 A  
HETATM    6  C   UNL     1     -10.830  10.073  70.719  1.00  0.00    -0.330 A  
HETATM    7  C   UNL     1     -12.094  10.138  71.321  1.00  0.00    -0.489 A  
HETATM    8  C   UNL     1     -11.579   8.078  72.497  1.00  0.00    -0.464 A  
HETATM    9  C   UNL     1     -12.457   9.131  72.223  1.00  0.00    -0.403 A  
BRANCH   7  10
HETATM   10  C   UNL     1     -12.995  11.319  71.053  1.00  0.00    -0.304 C  
BRANCH  10  11
HETATM   11  C   UNL     1     -12.321  12.611  70.647  1.00  0.00    -0.375 A  
HETATM   12  C   UNL     1     -12.483  13.818  71.341  1.00  0.00    -0.318 A  
HETATM   13 CL   UNL     1     -13.342  13.904  72.835  1.00  0.00    -0.554 Cl 
HETATM   14  C   UNL     1     -11.985  15.013  70.805  1.00  0.00    -0.371 A  
HETATM   15  C   UNL     1     -11.335  15.026  69.567  1.00  0.00    -0.308 A  
HETATM   16  C   UNL     1     -11.134  13.833  68.866  1.00  0.00    -0.300 A  
HETATM   17  C   UNL     1     -11.594  12.634  69.444  1.00  0.00    -0.369 A  
BRANCH  16  18
HETATM   18  C   UNL     1     -10.562  13.790  67.453  1.00  0.00    -0.260 C  
HETATM   19  O   UNL     1     -11.516  14.293  66.499  1.00  0.00    -0.335 OA 
HETATM   20  C   UNL     1     -10.994  14.333  65.159  1.00  0.00    -0.363 C  
HETATM   21  H   UNL     1      -8.862  10.966  67.773  1.00  0.00     0.000 HD 
HETATM   22  C   UNL     1     -10.610  12.931  64.682  1.00  0.00    -0.363 C  
HETATM   23  O   UNL     1      -9.124  11.851  67.994  1.00  0.00    -0.175 OA 
HETATM   24  O   UNL     1     -10.029  12.935  63.370  1.00  0.00    -0.616 OA 
HETATM   25  C   UNL     1      -9.604  12.307  65.652  1.00  0.00    -0.137 C  
HETATM   26  H   UNL     1      -8.689  10.576  65.856  1.00  0.00     0.000 HD 
HETATM   27  O   UNL     1      -9.313  10.964  65.254  1.00  0.00    -0.197 OA 
HETATM   28  H   UNL     1      -9.791  12.064  63.074  1.00  0.00     0.000 HD 
HETATM   29  C   UNL     1     -10.131  12.340  67.092  1.00  0.00    -0.208 C  
BRANCH  20  30
HETATM   30  C   UNL     1     -12.062  14.943  64.238  1.00  0.00    -0.353 C  
HETATM   31  O   UNL     1     -11.719  16.294  63.934  1.00  0.00    -1.441 OA 
HETATM   32  H   UNL     1     -12.379  16.672  63.365  1.00  0.00     0.000 HD 
ENDBRANCH  20  30
ENDBRANCH  16  18
ENDBRANCH  10  11
ENDBRANCH   7  10
ENDBRANCH   3   4
ENDBRANCH   2   3
TORSDOF 6
ENDMDL
MODEL       10
REMARK 921   NORMALIZED FREE ENERGY PREDICTED BY IDOCK:   -7.13 KCAL/MOL
REMARK 922        TOTAL FREE ENERGY PREDICTED BY IDOCK:  -10.59 KCAL/MOL
REMARK 923 INTER-LIGAND FREE ENERGY PREDICTED BY IDOCK:   -9.11 KCAL/MOL
REMARK 924 INTRA-LIGAND FREE ENERGY PREDICTED BY IDOCK:   -1.48 KCAL/MOL
REMARK 927      BINDING AFFINITY PREDICTED BY RF-SCORE:    0.00 PKD
ROOT
HETATM    1  C   UNL     1      -9.168   2.779  66.719  1.00  0.00    -0.128 C  
HETATM    2  C   UNL     1      -9.451   3.631  65.495  1.00  0.00    -0.158 C  
ENDROOT
BRANCH   2   3
HETATM    3  O   UNL     1     -10.430   4.607  65.850  1.00  0.00    -0.287 OA 
BRANCH   3   4
HETATM    4  C   UNL     1      -9.985   5.712  66.521  1.00  0.00    -0.176 A  
HETATM    5  C   UNL     1      -8.794   6.393  66.277  1.00  0.00    -0.152 A  
HETATM    6  C   UNL     1      -8.460   7.520  67.034  1.00  0.00    -0.122 A  
HETATM    7  C   UNL     1      -9.309   7.986  68.047  1.00  0.00    -0.146 A  
HETATM    8  C   UNL     1     -10.828   6.163  67.538  1.00  0.00    -0.422 A  
HETATM    9  C   UNL     1     -10.496   7.289  68.298  1.00  0.00    -0.239 A  
BRANCH   7  10
HETATM   10  C   UNL     1      -8.894   9.167  68.891  1.00  0.00    -0.139 C  
BRANCH  10  11
HETATM   11  C   UNL     1      -9.985  10.134  69.293  1.00  0.00    -0.234 A  
HETATM   12  C   UNL     1     -10.756   9.991  70.455  1.00  0.00    -0.285 A  
HETATM   13 CL   UNL     1     -10.413   8.777  71.634  1.00  0.00    -0.359 Cl 
HETATM   14  C   UNL     1     -11.870  10.811  70.670  1.00  0.00    -0.460 A  
HETATM   15  C   UNL     1     -12.244  11.772  69.725  1.00  0.00    -0.270 A  
HETATM   16  C   UNL     1     -11.478  11.957  68.570  1.00  0.00    -0.349 A  
HETATM   17  C   UNL     1     -10.330  11.160  68.396  1.00  0.00    -0.201 A  
BRANCH  16  18
HETATM   18  C   UNL     1     -11.902  12.884  67.436  1.00  0.00    -0.360 C  
HETATM   19  O   UNL     1     -11.931  12.177  66.181  1.00  0.00    -0.593 OA 
HETATM   20  C   UNL     1     -12.390  12.996  65.092  1.00  0.00    -0.484 C  
HETATM   21  H   UNL     1     -10.380  15.614  68.531  1.00  0.00     0.000 HD 
HETATM   22  C   UNL     1     -11.464  14.197  64.885  1.00  0.00    -0.366 C  
HETATM   23  O   UNL     1     -10.963  14.866  68.579  1.00  0.00    -0.239 OA 
HETATM   24  O   UNL     1     -11.921  15.073  63.844  1.00  0.00    -0.866 OA 
HETATM   25  C   UNL     1     -11.359  15.003  66.181  1.00  0.00    -0.270 C  
HETATM   26  H   UNL     1     -10.358  16.575  66.818  1.00  0.00     0.000 HD 
HETATM   27  O   UNL     1     -10.424  16.074  66.013  1.00  0.00    -0.320 OA 
HETATM   28  H   UNL     1     -11.346  15.818  63.716  1.00  0.00     0.000 HD 
HETATM   29  C   UNL     1     -10.948  14.109  67.357  1.00  0.00    -0.299 C  
BRANCH  20  30
HETATM   30  C   UNL     1     -12.446  12.133  63.822  1.00  0.00    -0.514 C  
HETATM   31  O   UNL     1     -11.258  12.326  63.057  1.00  0.00    -0.677 OA 
HETATM   32  H   UNL     1     -11.293  11.792  62.271  1.00  0.00     0.000 HD 
ENDBRANCH  20  30
ENDBRANCH  16  18
ENDBRANCH  10  11
ENDBRANCH   7  10
ENDBRANCH   3   4
ENDBRANCH   2   3
TORSDOF 6
ENDMDL
MODEL       11
REMARK 921   NORMALIZED FREE ENERGY PREDICTED BY IDOCK:   -7.06 KCAL/MOL
REMARK 922        TOTAL FREE ENERGY PREDICTED BY IDOCK:  -10.50 KCAL/MOL
REMARK 923 INTER-LIGAND FREE ENERGY PREDICTED BY IDOCK:   -9.55 KCAL/MOL
REMARK 924 INTRA-LIGAND FREE ENERGY PREDICTED BY IDOCK:   -0.95 KCAL/MOL
REMARK 927      BINDING AFFINITY PREDICTED BY RF-SCORE:    0.00 PKD
ROOT
HETATM    1  C   UNL     1      -5.862  20.973  64.669  1.00  0.00    -0.282 C  
HETATM    2  C   UNL     1      -6.496  19.756  65.317  1.00  0.00    -0.276 C  
ENDROOT
BRANCH   2   3
HETATM    3  O   UNL     1      -7.909  19.948  65.337  1.00  0.00    -0.335 OA 
BRANCH   3   4
HETATM    4  C   UNL     1      -8.603  19.326  66.336  1.00  0.00    -0.343 A  
HETATM    5  C   UNL     1      -9.953  19.509  66.631  1.00  0.00    -0.509 A  
HETATM    6  C   UNL     1     -10.546  18.799  67.681  1.00  0.00    -0.481 A  
HETATM    7  C   UNL     1      -9.803  17.897  68.453  1.00  0.00    -0.355 A  
HETATM    8  C   UNL     1      -7.854  18.439  67.112  1.00  0.00    -0.237 A  
HETATM    9  C   UNL     1      -8.444  17.730  68.162  1.00  0.00    -0.262 A  
BRANCH   7  10
HETATM   10  C   UNL     1     -10.452  17.194  69.620  1.00  0.00    -0.022 C  
BRANCH  10  11
HETATM   11  C   UNL     1     -11.115  15.865  69.331  1.00  0.00    -0.322 A  
HETATM   12  C   UNL     1     -11.904  15.176  70.261  1.00  0.00    -0.311 A  
HETATM   13 CL   UNL     1     -12.335  15.867  71.783  1.00  0.00    -0.508 Cl 
HETATM   14  C   UNL     1     -12.329  13.868  69.996  1.00  0.00    -0.378 A  
HETATM   15  C   UNL     1     -11.962  13.222  68.811  1.00  0.00    -0.335 A  
HETATM   16  C   UNL     1     -11.199  13.894  67.852  1.00  0.00    -0.302 A  
HETATM   17  C   UNL     1     -10.825  15.227  68.111  1.00  0.00    -0.273 A  
BRANCH  16  18
HETATM   18  C   UNL     1     -10.646  13.211  66.606  1.00  0.00    -0.279 C  
HETATM   19  O   UNL     1     -11.604  13.255  65.531  1.00  0.00    -0.311 OA 
HETATM   20  C   UNL     1     -11.099  12.679  64.313  1.00  0.00    -0.362 C  
HETATM   21  H   UNL     1      -8.993  10.792  68.150  1.00  0.00     0.000 HD 
HETATM   22  C   UNL     1     -10.746  11.204  64.513  1.00  0.00    -0.297 C  
HETATM   23  O   UNL     1      -9.237  11.689  67.952  1.00  0.00    -0.160 OA 
HETATM   24  O   UNL     1     -10.183  10.607  63.336  1.00  0.00    -0.503 OA 
HETATM   25  C   UNL     1      -9.739  11.058  65.655  1.00  0.00    -0.232 C  
HETATM   26  H   UNL     1      -8.852   9.582  66.610  1.00  0.00     0.000 HD 
HETATM   27  O   UNL     1      -9.478   9.673  65.901  1.00  0.00    -0.196 OA 
HETATM   28  H   UNL     1      -9.964   9.691  63.460  1.00  0.00     0.000 HD 
HETATM   29  C   UNL     1     -10.246  11.744  66.930  1.00  0.00    -0.209 C  
BRANCH  20  30
HETATM   30  C   UNL     1     -12.168  12.836  63.220  1.00  0.00    -0.410 C  
HETATM   31  O   UNL     1     -12.567  14.202  63.130  1.00  0.00    -1.058 OA 
HETATM   32  H   UNL     1     -13.227  14.299  62.455  1.00  0.00     0.000 HD 
ENDBRANCH  20  30
ENDBRANCH  16  18
ENDBRANCH  10  11
ENDBRANCH   7  10
ENDBRANCH   3   4
ENDBRANCH   2   3
TORSDOF 6
ENDMDL
MODEL       12
REMARK 921   NORMALIZED FREE ENERGY PREDICTED BY IDOCK:   -7.04 KCAL/MOL
REMARK 922        TOTAL FREE ENERGY PREDICTED BY IDOCK:  -10.47 KCAL/MOL
REMARK 923 INTER-LIGAND FREE ENERGY PREDICTED BY IDOCK:   -9.31 KCAL/MOL
REMARK 924 INTRA-LIGAND FREE ENERGY PREDICTED BY IDOCK:   -1.17 KCAL/MOL
REMARK 927      BINDING AFFINITY PREDICTED BY RF-SCORE:    0.00 PKD
ROOT
HETATM    1  C   UNL     1      -9.999   3.765  64.316  1.00  0.00    -0.196 C  
HETATM    2  C   UNL     1      -9.754   4.101  65.775  1.00  0.00    -0.204 C  
ENDROOT
BRANCH   2   3
HETATM    3  O   UNL     1     -10.765   5.015  66.197  1.00  0.00    -0.315 OA 
BRANCH   3   4
HETATM    4  C   UNL     1     -10.348   6.130  66.869  1.00  0.00    -0.248 A  
HETATM    5  C   UNL     1      -9.403   7.050  66.419  1.00  0.00    -0.182 A  
HETATM    6  C   UNL     1      -9.070   8.159  67.205  1.00  0.00    -0.163 A  
HETATM    7  C   UNL     1      -9.675   8.366  68.452  1.00  0.00    -0.168 A  
HETATM    8  C   UNL     1     -10.942   6.324  68.117  1.00  0.00    -0.412 A  
HETATM    9  C   UNL     1     -10.611   7.430  68.905  1.00  0.00    -0.191 A  
BRANCH   7  10
HETATM   10  C   UNL     1      -9.250   9.536  69.307  1.00  0.00    -0.169 C  
BRANCH  10  11
HETATM   11  C   UNL     1     -10.149  10.753  69.291  1.00  0.00    -0.200 A  
HETATM   12  C   UNL     1     -11.243  10.917  70.152  1.00  0.00    -0.237 A  
HETATM   13 CL   UNL     1     -11.568   9.811  71.437  1.00  0.00    -0.452 Cl 
HETATM   14  C   UNL     1     -12.141  11.973  69.959  1.00  0.00    -0.355 A  
HETATM   15  C   UNL     1     -11.975  12.870  68.898  1.00  0.00    -0.291 A  
HETATM   16  C   UNL     1     -10.878  12.747  68.040  1.00  0.00    -0.254 A  
HETATM   17  C   UNL     1      -9.955  11.711  68.281  1.00  0.00    -0.201 A  
BRANCH  16  18
HETATM   18  C   UNL     1     -10.710  13.597  66.786  1.00  0.00    -0.272 C  
HETATM   19  O   UNL     1     -10.594  14.993  67.125  1.00  0.00    -0.283 OA 
HETATM   20  C   UNL     1     -10.367  15.827  65.976  1.00  0.00    -0.340 C  
HETATM   21  H   UNL     1     -12.708  11.841  64.814  1.00  0.00     0.000 HD 
HETATM   22  C   UNL     1     -11.529  15.721  64.987  1.00  0.00    -0.122 C  
HETATM   23  O   UNL     1     -11.981  11.985  65.408  1.00  0.00    -0.399 OA 
HETATM   24  O   UNL     1     -11.313  16.494  63.797  1.00  0.00    -1.553 OA 
HETATM   25  C   UNL     1     -11.737  14.261  64.580  1.00  0.00    -0.430 C  
HETATM   26  H   UNL     1     -13.009  13.245  63.473  1.00  0.00     0.000 HD 
HETATM   27  O   UNL     1     -12.880  14.151  63.725  1.00  0.00    -0.597 OA 
HETATM   28  H   UNL     1     -12.035  16.429  63.183  1.00  0.00     0.000 HD 
HETATM   29  C   UNL     1     -11.898  13.362  65.812  1.00  0.00    -0.377 C  
BRANCH  20  30
HETATM   30  C   UNL     1     -10.194  17.278  66.453  1.00  0.00    -0.331 C  
HETATM   31  O   UNL     1     -10.569  17.380  67.825  1.00  0.00    -0.365 OA 
HETATM   32  H   UNL     1     -10.463  18.277  68.120  1.00  0.00     0.000 HD 
ENDBRANCH  20  30
ENDBRANCH  16  18
ENDBRANCH  10  11
ENDBRANCH   7  10
ENDBRANCH   3   4
ENDBRANCH   2   3
TORSDOF 6
ENDMDL
MODEL       13
REMARK 921   NORMALIZED FREE ENERGY PREDICTED BY IDOCK:   -7.04 KCAL/MOL
REMARK 922        TOTAL FREE ENERGY PREDICTED BY IDOCK:  -10.47 KCAL/MOL
REMARK 923 INTER-LIGAND FREE ENERGY PREDICTED BY IDOCK:   -9.93 KCAL/MOL
REMARK 924 INTRA-LIGAND FREE ENERGY PREDICTED BY IDOCK:   -0.54 KCAL/MOL
REMARK 927      BINDING AFFINITY PREDICTED BY RF-SCORE:    0.00 PKD
ROOT
HETATM    1  C   UNL     1      -9.835  20.109  66.915  1.00  0.00    -0.593 C  
HETATM    2  C   UNL     1     -10.754  19.142  66.192  1.00  0.00    -0.354 C  
ENDROOT
BRANCH   2   3
HETATM    3  O   UNL     1      -9.964  18.056  65.709  1.00  0.00    -0.550 OA 
BRANCH   3   4
HETATM    4  C   UNL     1     -10.501  16.804  65.822  1.00  0.00    -0.292 A  
HETATM    5  C   UNL     1     -10.482  16.006  66.964  1.00  0.00    -0.307 A  
HETATM    6  C   UNL     1     -11.078  14.740  66.949  1.00  0.00    -0.339 A  
HETATM    7  C   UNL     1     -11.703  14.251  65.793  1.00  0.00    -0.359 A  
HETATM    8  C   UNL     1     -11.109  16.316  64.664  1.00  0.00    -0.259 A  
HETATM    9  C   UNL     1     -11.704  15.051  64.645  1.00  0.00    -0.383 A  
BRANCH   7  10
HETATM   10  C   UNL     1     -12.281  12.857  65.785  1.00  0.00    -0.498 C  
BRANCH  10  11
HETATM   11  C   UNL     1     -11.420  11.759  66.369  1.00  0.00    -0.309 A  
HETATM   12  C   UNL     1     -10.618  10.911  65.593  1.00  0.00    -0.164 A  
HETATM   13 CL   UNL     1     -10.406  11.154  63.897  1.00  0.00    -0.410 Cl 
HETATM   14  C   UNL     1      -9.996   9.800  66.175  1.00  0.00    -0.338 A  
HETATM   15  C   UNL     1     -10.177   9.506  67.531  1.00  0.00    -0.283 A  
HETATM   16  C   UNL     1     -10.949  10.350  68.336  1.00  0.00    -0.312 A  
HETATM   17  C   UNL     1     -11.524  11.492  67.745  1.00  0.00    -0.357 A  
BRANCH  16  18
HETATM   18  C   UNL     1     -11.303  10.018  69.781  1.00  0.00    -0.228 C  
HETATM   19  O   UNL     1     -11.870   8.698  69.879  1.00  0.00     0.254 OA 
HETATM   20  C   UNL     1     -12.159   8.316  71.235  1.00  0.00    -0.280 C  
HETATM   21  H   UNL     1     -12.296  13.047  70.677  1.00  0.00     0.000 HD 
HETATM   22  C   UNL     1     -13.179   9.268  71.864  1.00  0.00    -0.423 C  
HETATM   23  O   UNL     1     -11.699  12.397  70.328  1.00  0.00    -0.262 OA 
HETATM   24  O   UNL     1     -13.450   8.956  73.238  1.00  0.00    -0.972 OA 
HETATM   25  C   UNL     1     -12.664  10.707  71.789  1.00  0.00    -0.383 C  
HETATM   26  H   UNL     1     -13.337  12.499  72.250  1.00  0.00     0.000 HD 
HETATM   27  O   UNL     1     -13.656  11.605  72.296  1.00  0.00    -0.299 OA 
HETATM   28  H   UNL     1     -14.083   9.547  73.629  1.00  0.00     0.000 HD 
HETATM   29  C   UNL     1     -12.281  11.083  70.353  1.00  0.00    -0.373 C  
BRANCH  20  30
HETATM   30  C   UNL     1     -12.695   6.875  71.233  1.00  0.00    -0.315 C  
HETATM   31  O   UNL     1     -12.391   6.248  72.477  1.00  0.00    -0.539 OA 
HETATM   32  H   UNL     1     -12.722   5.358  72.476  1.00  0.00     0.000 HD 
ENDBRANCH  20  30
ENDBRANCH  16  18
ENDBRANCH  10  11
ENDBRANCH   7  10
ENDBRANCH   3   4
ENDBRANCH   2   3
TORSDOF 6
ENDMDL
MODEL       14
REMARK 921   NORMALIZED FREE ENERGY PREDICTED BY IDOCK:   -7.03 KCAL/MOL
REMARK 922        TOTAL FREE ENERGY PREDICTED BY IDOCK:  -10.46 KCAL/MOL
REMARK 923 INTER-LIGAND FREE ENERGY PREDICTED BY IDOCK:   -9.35 KCAL/MOL
REMARK 924 INTRA-LIGAND FREE ENERGY PREDICTED BY IDOCK:   -1.10 KCAL/MOL
REMARK 927      BINDING AFFINITY PREDICTED BY RF-SCORE:    0.00 PKD
ROOT
HETATM    1  C   UNL     1      -9.070   7.785  73.612  1.00  0.00    -0.345 C  
HETATM    2  C   UNL     1     -10.523   7.437  73.347  1.00  0.00    -0.368 C  
ENDROOT
BRANCH   2   3
HETATM    3  O   UNL     1     -10.746   7.502  71.939  1.00  0.00    -0.213 OA 
BRANCH   3   4
HETATM    4  C   UNL     1     -11.231   8.681  71.444  1.00  0.00    -0.277 A  
HETATM    5  C   UNL     1     -12.441   9.277  71.793  1.00  0.00    -0.458 A  
HETATM    6  C   UNL     1     -12.818  10.495  71.216  1.00  0.00    -0.532 A  
HETATM    7  C   UNL     1     -11.993  11.136  70.282  1.00  0.00    -0.460 A  
HETATM    8  C   UNL     1     -10.412   9.308  70.503  1.00  0.00    -0.312 A  
HETATM    9  C   UNL     1     -10.787  10.524  69.924  1.00  0.00    -0.334 A  
BRANCH   7  10
HETATM   10  C   UNL     1     -12.454  12.416  69.628  1.00  0.00     0.128 C  
BRANCH  10  11
HETATM   11  C   UNL     1     -11.973  13.709  70.248  1.00  0.00    -0.397 A  
HETATM   12  C   UNL     1     -12.565  14.292  71.377  1.00  0.00    -0.360 A  
HETATM   13 CL   UNL     1     -13.805  13.493  72.273  1.00  0.00    -0.659 Cl 
HETATM   14  C   UNL     1     -12.193  15.579  71.784  1.00  0.00    -0.467 A  
HETATM   15  C   UNL     1     -11.241  16.311  71.066  1.00  0.00    -0.227 A  
HETATM   16  C   UNL     1     -10.613  15.744  69.952  1.00  0.00    -0.332 A  
HETATM   17  C   UNL     1     -10.961  14.428  69.589  1.00  0.00    -0.194 A  
BRANCH  16  18
HETATM   18  C   UNL     1      -9.674  16.529  69.043  1.00  0.00    -0.258 C  
HETATM   19  O   UNL     1     -10.393  17.090  67.928  1.00  0.00    -0.308 OA 
HETATM   20  C   UNL     1      -9.558  17.896  67.078  1.00  0.00    -0.286 C  
HETATM   21  H   UNL     1      -7.037  14.551  69.351  1.00  0.00     0.000 HD 
HETATM   22  C   UNL     1      -8.423  17.062  66.480  1.00  0.00    -0.271 C  
HETATM   23  O   UNL     1      -7.745  15.108  69.652  1.00  0.00    -0.215 OA 
HETATM   24  O   UNL     1      -7.532  17.843  65.671  1.00  0.00    -0.544 OA 
HETATM   25  C   UNL     1      -7.610  16.409  67.600  1.00  0.00    -0.142 C  
HETATM   26  H   UNL     1      -6.099  15.153  67.734  1.00  0.00     0.000 HD 
HETATM   27  O   UNL     1      -6.604  15.559  67.039  1.00  0.00    -0.279 OA 
HETATM   28  H   UNL     1      -6.827  17.325  65.300  1.00  0.00     0.000 HD 
HETATM   29  C   UNL     1      -8.515  15.617  68.551  1.00  0.00    -0.175 C  
BRANCH  20  30
HETATM   30  C   UNL     1     -10.431  18.496  65.965  1.00  0.00    -0.400 C  
HETATM   31  O   UNL     1     -10.709  17.501  64.982  1.00  0.00    -0.673 OA 
HETATM   32  H   UNL     1     -11.248  17.872  64.294  1.00  0.00     0.000 HD 
ENDBRANCH  20  30
ENDBRANCH  16  18
ENDBRANCH  10  11
ENDBRANCH   7  10
ENDBRANCH   3   4
ENDBRANCH   2   3
TORSDOF 6
ENDMDL
MODEL       15
REMARK 921   NORMALIZED FREE ENERGY PREDICTED BY IDOCK:   -7.03 KCAL/MOL
REMARK 922        TOTAL FREE ENERGY PREDICTED BY IDOCK:  -10.46 KCAL/MOL
REMARK 923 INTER-LIGAND FREE ENERGY PREDICTED BY IDOCK:   -9.76 KCAL/MOL
REMARK 924 INTRA-LIGAND FREE ENERGY PREDICTED BY IDOCK:   -0.70 KCAL/MOL
REMARK 927      BINDING AFFINITY PREDICTED BY RF-SCORE:    0.00 PKD
ROOT
HETATM    1  C   UNL     1     -10.157  10.633  64.016  1.00  0.00    -0.378 C  
HETATM    2  C   UNL     1     -11.209  11.685  63.717  1.00  0.00    -0.414 C  
ENDROOT
BRANCH   2   3
HETATM    3  O   UNL     1     -10.659  12.964  64.029  1.00  0.00    -0.405 OA 
BRANCH   3   4
HETATM    4  C   UNL     1     -10.746  13.373  65.331  1.00  0.00    -0.300 A  
HETATM    5  C   UNL     1      -9.673  13.574  66.197  1.00  0.00    -0.264 A  
HETATM    6  C   UNL     1      -9.899  14.004  67.509  1.00  0.00    -0.236 A  
HETATM    7  C   UNL     1     -11.199  14.240  67.977  1.00  0.00    -0.300 A  
HETATM    8  C   UNL     1     -12.043  13.593  65.796  1.00  0.00    -0.463 A  
HETATM    9  C   UNL     1     -12.273  14.021  67.107  1.00  0.00    -0.356 A  
BRANCH   7  10
HETATM   10  C   UNL     1     -11.418  14.641  69.415  1.00  0.00    -0.330 C  
BRANCH  10  11
HETATM   11  C   UNL     1     -12.172  13.662  70.288  1.00  0.00    -0.423 A  
HETATM   12  C   UNL     1     -12.949  14.048  71.388  1.00  0.00    -0.353 A  
HETATM   13 CL   UNL     1     -13.258  15.707  71.753  1.00  0.00    -0.548 Cl 
HETATM   14  C   UNL     1     -13.464  13.082  72.263  1.00  0.00    -0.645 A  
HETATM   15  C   UNL     1     -13.199  11.723  72.065  1.00  0.00    -0.460 A  
HETATM   16  C   UNL     1     -12.450  11.307  70.960  1.00  0.00    -0.503 A  
HETATM   17  C   UNL     1     -11.985  12.288  70.062  1.00  0.00    -0.379 A  
BRANCH  16  18
HETATM   18  C   UNL     1     -12.005   9.863  70.758  1.00  0.00    -0.323 C  
HETATM   19  O   UNL     1     -11.538   9.294  71.996  1.00  0.00    -0.356 OA 
HETATM   20  C   UNL     1     -11.169   7.910  71.867  1.00  0.00    -0.271 C  
HETATM   21  H   UNL     1     -10.707  10.239  67.735  1.00  0.00     0.000 HD 
HETATM   22  C   UNL     1     -10.030   7.740  70.860  1.00  0.00    -0.183 C  
HETATM   23  O   UNL     1     -11.381  10.285  68.403  1.00  0.00    -0.256 OA 
HETATM   24  O   UNL     1      -9.672   6.365  70.658  1.00  0.00    -0.177 OA 
HETATM   25  C   UNL     1     -10.434   8.335  69.510  1.00  0.00    -0.227 C  
HETATM   26  H   UNL     1      -9.587   8.626  67.756  1.00  0.00     0.000 HD 
HETATM   27  O   UNL     1      -9.336   8.256  68.595  1.00  0.00    -0.143 OA 
HETATM   28  H   UNL     1      -8.964   6.260  70.033  1.00  0.00     0.000 HD 
HETATM   29  C   UNL     1     -10.903   9.787  69.664  1.00  0.00    -0.250 C  
BRANCH  20  30
HETATM   30  C   UNL     1     -10.750   7.386  73.250  1.00  0.00    -0.391 C  
HETATM   31  O   UNL     1     -11.104   6.009  73.369  1.00  0.00    -0.423 OA 
HETATM   32  H   UNL     1     -10.845   5.685  74.224  1.00  0.00     0.000 HD 
ENDBRANCH  20  30
ENDBRANCH  16  18
ENDBRANCH  10  11
ENDBRANCH   7  10
ENDBRANCH   3   4
ENDBRANCH   2   3
TORSDOF 6
ENDMDL
MODEL       16
REMARK 921   NORMALIZED FREE ENERGY PREDICTED BY IDOCK:   -7.02 KCAL/MOL
REMARK 922        TOTAL FREE ENERGY PREDICTED BY IDOCK:  -10.45 KCAL/MOL
REMARK 923 INTER-LIGAND FREE ENERGY PREDICTED BY IDOCK:   -9.95 KCAL/MOL
REMARK 924 INTRA-LIGAND FREE ENERGY PREDICTED BY IDOCK:   -0.51 KCAL/MOL
REMARK 927      BINDING AFFINITY PREDICTED BY RF-SCORE:    0.00 PKD
ROOT
HETATM    1  C   UNL     1     -10.408  19.758  66.167  1.00  0.00    -0.627 C  
HETATM    2  C   UNL     1     -10.604  18.957  67.441  1.00  0.00    -0.460 C  
ENDROOT
BRANCH   2   3
HETATM    3  O   UNL     1      -9.734  17.827  67.394  1.00  0.00    -0.272 OA 
BRANCH   3   4
HETATM    4  C   UNL     1     -10.303  16.623  67.081  1.00  0.00    -0.300 A  
HETATM    5  C   UNL     1     -11.233  15.933  67.856  1.00  0.00    -0.297 A  
HETATM    6  C   UNL     1     -11.745  14.708  67.415  1.00  0.00    -0.413 A  
HETATM    7  C   UNL     1     -11.337  14.153  66.195  1.00  0.00    -0.337 A  
HETATM    8  C   UNL     1      -9.881  16.068  65.872  1.00  0.00    -0.380 A  
HETATM    9  C   UNL     1     -10.390  14.843  65.430  1.00  0.00    -0.413 A  
BRANCH   7  10
HETATM   10  C   UNL     1     -11.856  12.800  65.775  1.00  0.00    -0.484 C  
BRANCH  10  11
HETATM   11  C   UNL     1     -11.050  11.595  66.208  1.00  0.00    -0.345 A  
HETATM   12  C   UNL     1     -10.402  10.736  65.311  1.00  0.00    -0.258 A  
HETATM   13 CL   UNL     1     -10.323  11.071  63.620  1.00  0.00    -0.421 Cl 
HETATM   14  C   UNL     1      -9.834   9.539  65.765  1.00  0.00    -0.363 A  
HETATM   15  C   UNL     1      -9.917   9.172  67.112  1.00  0.00    -0.280 A  
HETATM   16  C   UNL     1     -10.533  10.023  68.035  1.00  0.00    -0.260 A  
HETATM   17  C   UNL     1     -11.052  11.248  67.570  1.00  0.00    -0.346 A  
BRANCH  16  18
HETATM   18  C   UNL     1     -10.784   9.628  69.486  1.00  0.00    -0.232 C  
HETATM   19  O   UNL     1     -11.034   8.214  69.595  1.00  0.00    -0.201 OA 
HETATM   20  C   UNL     1     -11.212   7.784  70.956  1.00  0.00    -0.266 C  
HETATM   21  H   UNL     1     -12.429  12.357  70.389  1.00  0.00     0.000 HD 
HETATM   22  C   UNL     1     -12.413   8.483  71.597  1.00  0.00    -0.330 C  
HETATM   23  O   UNL     1     -11.703  11.858  70.033  1.00  0.00    -0.317 OA 
HETATM   24  O   UNL     1     -12.588   8.125  72.975  1.00  0.00    -0.656 OA 
HETATM   25  C   UNL     1     -12.240  10.000  71.511  1.00  0.00    -0.405 C  
HETATM   26  H   UNL     1     -13.296  11.595  71.977  1.00  0.00     0.000 HD 
HETATM   27  O   UNL     1     -13.403  10.653  72.030  1.00  0.00    -0.440 OA 
HETATM   28  H   UNL     1     -13.334   8.559  73.373  1.00  0.00     0.000 HD 
HETATM   29  C   UNL     1     -11.971  10.446  70.069  1.00  0.00    -0.247 C  
BRANCH  20  30
HETATM   30  C   UNL     1     -11.406   6.259  70.965  1.00  0.00    -0.316 C  
HETATM   31  O   UNL     1     -11.302   5.770  72.300  1.00  0.00    -0.279 OA 
HETATM   32  H   UNL     1     -11.421   4.827  72.306  1.00  0.00     0.000 HD 
ENDBRANCH  20  30
ENDBRANCH  16  18
ENDBRANCH  10  11
ENDBRANCH   7  10
ENDBRANCH   3   4
ENDBRANCH   2   3
TORSDOF 6
ENDMDL
MODEL       17
REMARK 921   NORMALIZED FREE ENERGY PREDICTED BY IDOCK:   -6.88 KCAL/MOL
REMARK 922        TOTAL FREE ENERGY PREDICTED BY IDOCK:  -10.26 KCAL/MOL
REMARK 923 INTER-LIGAND FREE ENERGY PREDICTED BY IDOCK:   -9.06 KCAL/MOL
REMARK 924 INTRA-LIGAND FREE ENERGY PREDICTED BY IDOCK:   -1.20 KCAL/MOL
REMARK 927      BINDING AFFINITY PREDICTED BY RF-SCORE:    0.00 PKD
ROOT
HETATM    1  C   UNL     1      -8.062  10.787  62.407  1.00  0.00    -0.238 C  
HETATM    2  C   UNL     1      -9.526  10.770  62.807  1.00  0.00    -0.331 C  
ENDROOT
BRANCH   2   3
HETATM    3  O   UNL     1      -9.839  12.030  63.398  1.00  0.00    -0.390 OA 
BRANCH   3   4
HETATM    4  C   UNL     1     -10.225  12.019  64.709  1.00  0.00    -0.279 A  
HETATM    5  C   UNL     1      -9.600  11.319  65.739  1.00  0.00    -0.256 A  
HETATM    6  C   UNL     1     -10.094  11.400  67.046  1.00  0.00    -0.237 A  
HETATM    7  C   UNL     1     -11.218  12.180  67.345  1.00  0.00    -0.362 A  
HETATM    8  C   UNL     1     -11.355  12.786  64.999  1.00  0.00    -0.344 A  
HETATM    9  C   UNL     1     -11.852  12.867  66.303  1.00  0.00    -0.477 A  
BRANCH   7  10
HETATM   10  C   UNL     1     -11.768  12.198  68.750  1.00  0.00    -0.374 C  
BRANCH  10  11
HETATM   11  C   UNL     1     -11.481  13.432  69.578  1.00  0.00    -0.308 A  
HETATM   12  C   UNL     1     -12.161  13.743  70.763  1.00  0.00    -0.363 A  
HETATM   13 CL   UNL     1     -13.285  12.650  71.485  1.00  0.00    -0.391 Cl 
HETATM   14  C   UNL     1     -11.979  14.990  71.375  1.00  0.00    -0.397 A  
HETATM   15  C   UNL     1     -11.133  15.949  70.809  1.00  0.00    -0.352 A  
HETATM   16  C   UNL     1     -10.419  15.656  69.643  1.00  0.00    -0.283 A  
HETATM   17  C   UNL     1     -10.574  14.378  69.070  1.00  0.00    -0.245 A  
BRANCH  16  18
HETATM   18  C   UNL     1      -9.591  16.695  68.896  1.00  0.00    -0.252 C  
HETATM   19  O   UNL     1     -10.399  17.395  67.930  1.00  0.00    -0.334 OA 
HETATM   20  C   UNL     1      -9.674  18.432  67.247  1.00  0.00    -0.297 C  
HETATM   21  H   UNL     1      -6.771  14.965  68.754  1.00  0.00     0.000 HD 
HETATM   22  C   UNL     1      -8.488  17.851  66.475  1.00  0.00    -0.258 C  
HETATM   23  O   UNL     1      -7.516  15.378  69.173  1.00  0.00    -0.155 OA 
HETATM   24  O   UNL     1      -7.703  18.863  65.826  1.00  0.00    -0.465 OA 
HETATM   25  C   UNL     1      -7.578  17.071  67.425  1.00  0.00    -0.167 C  
HETATM   26  H   UNL     1      -5.953  15.969  67.277  1.00  0.00     0.000 HD 
HETATM   27  O   UNL     1      -6.518  16.454  66.687  1.00  0.00    -0.277 OA 
HETATM   28  H   UNL     1      -6.967  18.502  65.346  1.00  0.00     0.000 HD 
HETATM   29  C   UNL     1      -8.370  16.019  68.211  1.00  0.00    -0.164 C  
BRANCH  20  30
HETATM   30  C   UNL     1     -10.638  19.155  66.293  1.00  0.00    -0.434 C  
HETATM   31  O   UNL     1     -10.806  18.384  65.105  1.00  0.00    -0.630 OA 
HETATM   32  H   UNL     1     -11.402  18.830  64.516  1.00  0.00     0.000 HD 
ENDBRANCH  20  30
ENDBRANCH  16  18
ENDBRANCH  10  11
ENDBRANCH   7  10
ENDBRANCH   3   4
ENDBRANCH   2   3
TORSDOF 6
ENDMDL
MODEL       18
REMARK 921   NORMALIZED FREE ENERGY PREDICTED BY IDOCK:   -6.78 KCAL/MOL
REMARK 922        TOTAL FREE ENERGY PREDICTED BY IDOCK:  -10.13 KCAL/MOL
REMARK 923 INTER-LIGAND FREE ENERGY PREDICTED BY IDOCK:   -9.50 KCAL/MOL
REMARK 924 INTRA-LIGAND FREE ENERGY PREDICTED BY IDOCK:   -0.63 KCAL/MOL
REMARK 927      BINDING AFFINITY PREDICTED BY RF-SCORE:    0.00 PKD
ROOT
HETATM    1  C   UNL     1     -13.775   8.936  71.901  1.00  0.00    -0.488 C  
HETATM    2  C   UNL     1     -13.132  10.297  71.708  1.00  0.00    -0.465 C  
ENDROOT
BRANCH   2   3
HETATM    3  O   UNL     1     -11.763  10.097  71.363  1.00  0.00    -0.360 OA 
BRANCH   3   4
HETATM    4  C   UNL     1     -11.396  10.409  70.084  1.00  0.00    -0.323 A  
HETATM    5  C   UNL     1     -10.458   9.725  69.312  1.00  0.00    -0.236 A  
HETATM    6  C   UNL     1     -10.179  10.146  68.008  1.00  0.00    -0.205 A  
HETATM    7  C   UNL     1     -10.831  11.255  67.452  1.00  0.00    -0.311 A  
HETATM    8  C   UNL     1     -12.037  11.524  69.541  1.00  0.00    -0.351 A  
HETATM    9  C   UNL     1     -11.759  11.947  68.238  1.00  0.00    -0.385 A  
BRANCH   7  10
HETATM   10  C   UNL     1     -10.464  11.725  66.066  1.00  0.00    -0.286 C  
BRANCH  10  11
HETATM   11  C   UNL     1     -10.960  13.094  65.657  1.00  0.00    -0.295 A  
HETATM   12  C   UNL     1     -11.967  13.300  64.705  1.00  0.00    -0.394 A  
HETATM   13 CL   UNL     1     -12.862  11.989  64.025  1.00  0.00    -0.446 Cl 
HETATM   14  C   UNL     1     -12.245  14.590  64.237  1.00  0.00    -0.441 A  
HETATM   15  C   UNL     1     -11.515  15.691  64.697  1.00  0.00    -0.306 A  
HETATM   16  C   UNL     1     -10.523  15.521  65.668  1.00  0.00    -0.393 A  
HETATM   17  C   UNL     1     -10.294  14.223  66.166  1.00  0.00    -0.305 A  
BRANCH  16  18
HETATM   18  C   UNL     1      -9.597  16.647  66.111  1.00  0.00    -0.294 C  
HETATM   19  O   UNL     1      -8.930  16.307  67.342  1.00  0.00    -0.185 OA 
HETATM   20  C   UNL     1      -7.994  17.314  67.764  1.00  0.00    -0.190 C  
HETATM   21  H   UNL     1     -11.495  19.172  65.116  1.00  0.00     0.000 HD 
HETATM   22  C   UNL     1      -8.703  18.646  68.014  1.00  0.00    -0.303 C  
HETATM   23  O   UNL     1     -11.007  18.362  65.022  1.00  0.00    -0.644 OA 
HETATM   24  O   UNL     1      -7.794  19.695  68.381  1.00  0.00    -0.326 OA 
HETATM   25  C   UNL     1      -9.457  19.081  66.756  1.00  0.00    -0.329 C  
HETATM   26  H   UNL     1     -10.661  20.550  66.238  1.00  0.00     0.000 HD 
HETATM   27  O   UNL     1     -10.193  20.281  67.019  1.00  0.00    -0.435 OA 
HETATM   28  H   UNL     1      -8.235  20.522  68.537  1.00  0.00     0.000 HD 
HETATM   29  C   UNL     1     -10.395  17.972  66.263  1.00  0.00    -0.382 C  
BRANCH  20  30
HETATM   30  C   UNL     1      -7.294  16.825  69.042  1.00  0.00    -0.231 C  
HETATM   31  O   UNL     1      -5.967  17.345  69.092  1.00  0.00    -0.186 OA 
HETATM   32  H   UNL     1      -5.535  17.043  69.881  1.00  0.00     0.000 HD 
ENDBRANCH  20  30
ENDBRANCH  16  18
ENDBRANCH  10  11
ENDBRANCH   7  10
ENDBRANCH   3   4
ENDBRANCH   2   3
TORSDOF 6
ENDMDL
MODEL       19
REMARK 921   NORMALIZED FREE ENERGY PREDICTED BY IDOCK:   -6.76 KCAL/MOL
REMARK 922        TOTAL FREE ENERGY PREDICTED BY IDOCK:  -10.10 KCAL/MOL
REMARK 923 INTER-LIGAND FREE ENERGY PREDICTED BY IDOCK:   -9.13 KCAL/MOL
REMARK 924 INTRA-LIGAND FREE ENERGY PREDICTED BY IDOCK:   -0.97 KCAL/MOL
REMARK 927      BINDING AFFINITY PREDICTED BY RF-SCORE:    0.00 PKD
ROOT
HETATM    1  C   UNL     1      -8.499   8.929  63.182  1.00  0.00    -0.162 C  
HETATM    2  C   UNL     1      -8.557   9.176  64.679  1.00  0.00    -0.182 C  
ENDROOT
BRANCH   2   3
HETATM    3  O   UNL     1      -9.826   9.751  64.986  1.00  0.00    -0.306 OA 
BRANCH   3   4
HETATM    4  C   UNL     1      -9.872  11.110  65.121  1.00  0.00    -0.259 A  
HETATM    5  C   UNL     1      -9.300  11.849  66.155  1.00  0.00    -0.228 A  
HETATM    6  C   UNL     1      -9.413  13.243  66.171  1.00  0.00    -0.153 A  
HETATM    7  C   UNL     1     -10.099  13.922  65.156  1.00  0.00    -0.330 A  
HETATM    8  C   UNL     1     -10.569  11.781  64.115  1.00  0.00    -0.403 A  
HETATM    9  C   UNL     1     -10.686  13.174  64.129  1.00  0.00    -0.399 A  
BRANCH   7  10
HETATM   10  C   UNL     1     -10.261  15.421  65.232  1.00  0.00    -0.390 C  
BRANCH  10  11
HETATM   11  C   UNL     1     -10.382  16.024  66.614  1.00  0.00    -0.299 A  
HETATM   12  C   UNL     1      -9.452  16.927  67.147  1.00  0.00    -0.237 A  
HETATM   13 CL   UNL     1      -8.159  17.571  66.202  1.00  0.00    -0.280 Cl 
HETATM   14  C   UNL     1      -9.521  17.298  68.495  1.00  0.00    -0.285 A  
HETATM   15  C   UNL     1     -10.504  16.764  69.336  1.00  0.00    -0.312 A  
HETATM   16  C   UNL     1     -11.462  15.883  68.825  1.00  0.00    -0.393 A  
HETATM   17  C   UNL     1     -11.409  15.562  67.454  1.00  0.00    -0.203 A  
BRANCH  16  18
HETATM   18  C   UNL     1     -12.471  15.157  69.707  1.00  0.00    -0.186 C  
HETATM   19  O   UNL     1     -12.640  15.843  70.962  1.00  0.00    -0.443 OA 
HETATM   20  C   UNL     1     -13.634  15.229  71.801  1.00  0.00    -0.483 C  
HETATM   21  H   UNL     1     -11.651  12.070  68.834  1.00  0.00     0.000 HD 
HETATM   22  C   UNL     1     -13.243  13.790  72.147  1.00  0.00    -0.447 C  
HETATM   23  O   UNL     1     -11.923  12.969  68.694  1.00  0.00    -0.319 OA 
HETATM   24  O   UNL     1     -14.239  13.122  72.935  1.00  0.00    -0.610 OA 
HETATM   25  C   UNL     1     -13.026  12.986  70.864  1.00  0.00    -0.044 C  
HETATM   26  H   UNL     1     -12.439  11.167  70.390  1.00  0.00     0.000 HD 
HETATM   27  O   UNL     1     -12.574  11.667  71.186  1.00  0.00    -0.385 OA 
HETATM   28  H   UNL     1     -13.997  12.229  73.150  1.00  0.00     0.000 HD 
HETATM   29  C   UNL     1     -12.025  13.686  69.936  1.00  0.00    -0.348 C  
BRANCH  20  30
HETATM   30  C   UNL     1     -13.781  16.070  73.079  1.00  0.00    -0.396 C  
HETATM   31  O   UNL     1     -12.864  15.607  74.068  1.00  0.00    -0.644 OA 
HETATM   32  H   UNL     1     -12.955  16.126  74.858  1.00  0.00     0.000 HD 
ENDBRANCH  20  30
ENDBRANCH  16  18
ENDBRANCH  10  11
ENDBRANCH   7  10
ENDBRANCH   3   4
ENDBRANCH   2   3
TORSDOF 6
ENDMDL
MODEL       20
REMARK 921   NORMALIZED FREE ENERGY PREDICTED BY IDOCK:   -6.74 KCAL/MOL
REMARK 922        TOTAL FREE ENERGY PREDICTED BY IDOCK:  -10.08 KCAL/MOL
REMARK 923 INTER-LIGAND FREE ENERGY PREDICTED BY IDOCK:   -8.68 KCAL/MOL
REMARK 924 INTRA-LIGAND FREE ENERGY PREDICTED BY IDOCK:   -1.39 KCAL/MOL
REMARK 927      BINDING AFFINITY PREDICTED BY RF-SCORE:    0.00 PKD
ROOT
HETATM    1  C   UNL     1      -7.480   7.666  63.072  1.00  0.00    -0.108 C  
HETATM    2  C   UNL     1      -8.236   8.825  63.694  1.00  0.00    -0.163 C  
ENDROOT
BRANCH   2   3
HETATM    3  O   UNL     1      -7.542   9.227  64.874  1.00  0.00    -0.103 OA 
BRANCH   3   4
HETATM    4  C   UNL     1      -8.263   9.252  66.035  1.00  0.00    -0.111 A  
HETATM    5  C   UNL     1      -7.735   9.327  67.323  1.00  0.00    -0.095 A  
HETATM    6  C   UNL     1      -8.587   9.355  68.432  1.00  0.00    -0.124 A  
HETATM    7  C   UNL     1      -9.979   9.307  68.274  1.00  0.00    -0.196 A  
HETATM    8  C   UNL     1      -9.648   9.190  65.873  1.00  0.00    -0.343 A  
HETATM    9  C   UNL     1     -10.502   9.215  66.979  1.00  0.00    -0.311 A  
BRANCH   7  10
HETATM   10  C   UNL     1     -10.872   9.273  69.490  1.00  0.00    -0.211 C  
BRANCH  10  11
HETATM   11  C   UNL     1     -11.404  10.601  69.981  1.00  0.00    -0.400 A  
HETATM   12  C   UNL     1     -12.193  10.740  71.131  1.00  0.00    -0.352 A  
HETATM   13 CL   UNL     1     -12.493   9.417  72.198  1.00  0.00    -0.419 Cl 
HETATM   14  C   UNL     1     -12.807  11.965  71.423  1.00  0.00    -0.411 A  
HETATM   15  C   UNL     1     -12.660  13.061  70.568  1.00  0.00    -0.220 A  
HETATM   16  C   UNL     1     -11.856  12.961  69.428  1.00  0.00    -0.371 A  
HETATM   17  C   UNL     1     -11.203  11.737  69.178  1.00  0.00    -0.324 A  
BRANCH  16  18
HETATM   18  C   UNL     1     -11.762  14.065  68.381  1.00  0.00    -0.354 C  
HETATM   19  O   UNL     1     -11.937  13.529  67.055  1.00  0.00    -0.386 OA 
HETATM   20  C   UNL     1     -11.922  14.546  66.039  1.00  0.00    -0.311 C  
HETATM   21  H   UNL     1      -9.416  15.863  69.873  1.00  0.00     0.000 HD 
HETATM   22  C   UNL     1     -10.584  15.288  66.029  1.00  0.00    -0.319 C  
HETATM   23  O   UNL     1     -10.247  15.410  69.799  1.00  0.00    -0.259 OA 
HETATM   24  O   UNL     1     -10.550  16.352  65.066  1.00  0.00    -0.651 OA 
HETATM   25  C   UNL     1     -10.306  15.881  67.411  1.00  0.00    -0.288 C  
HETATM   26  H   UNL     1      -8.842  16.866  68.285  1.00  0.00     0.000 HD 
HETATM   27  O   UNL     1      -9.014  16.498  67.426  1.00  0.00    -0.196 OA 
HETATM   28  H   UNL     1      -9.719  16.813  65.060  1.00  0.00     0.000 HD 
HETATM   29  C   UNL     1     -10.402  14.808  68.503  1.00  0.00    -0.237 C  
BRANCH  20  30
HETATM   30  C   UNL     1     -12.180  13.879  64.678  1.00  0.00    -0.419 C  
HETATM   31  O   UNL     1     -12.606  14.861  63.735  1.00  0.00    -0.999 OA 
HETATM   32  H   UNL     1     -12.766  14.449  62.894  1.00  0.00     0.000 HD 
ENDBRANCH  20  30
ENDBRANCH  16  18
ENDBRANCH  10  11
ENDBRANCH   7  10
ENDBRANCH   3   4
ENDBRANCH   2   3
TORSDOF 6
ENDMDL
MODEL       21
REMARK 921   NORMALIZED FREE ENERGY PREDICTED BY IDOCK:   -6.74 KCAL/MOL
REMARK 922        TOTAL FREE ENERGY PREDICTED BY IDOCK:  -10.07 KCAL/MOL
REMARK 923 INTER-LIGAND FREE ENERGY PREDICTED BY IDOCK:   -9.56 KCAL/MOL
REMARK 924 INTRA-LIGAND FREE ENERGY PREDICTED BY IDOCK:   -0.51 KCAL/MOL
REMARK 927      BINDING AFFINITY PREDICTED BY RF-SCORE:    0.00 PKD
ROOT
HETATM    1  C   UNL     1     -12.464  16.163  73.610  1.00  0.00    -0.684 C  
HETATM    2  C   UNL     1     -13.776  15.900  72.896  1.00  0.00    -0.511 C  
ENDROOT
BRANCH   2   3
HETATM    3  O   UNL     1     -13.480  15.425  71.583  1.00  0.00    -0.437 OA 
BRANCH   3   4
HETATM    4  C   UNL     1     -13.195  14.094  71.457  1.00  0.00    -0.353 A  
HETATM    5  C   UNL     1     -13.767  13.062  72.199  1.00  0.00    -0.547 A  
HETATM    6  C   UNL     1     -13.391  11.735  71.965  1.00  0.00    -0.417 A  
HETATM    7  C   UNL     1     -12.440  11.418  70.986  1.00  0.00    -0.486 A  
HETATM    8  C   UNL     1     -12.236  13.785  70.492  1.00  0.00    -0.440 A  
HETATM    9  C   UNL     1     -11.858  12.460  70.256  1.00  0.00    -0.315 A  
BRANCH   7  10
HETATM   10  C   UNL     1     -12.006   9.984  70.798  1.00  0.00    -0.426 C  
BRANCH  10  11
HETATM   11  C   UNL     1     -10.719   9.756  70.036  1.00  0.00    -0.326 A  
HETATM   12  C   UNL     1      -9.545   9.273  70.630  1.00  0.00    -0.273 A  
HETATM   13 CL   UNL     1      -9.507   8.727  72.267  1.00  0.00    -0.333 Cl 
HETATM   14  C   UNL     1      -8.343   9.264  69.912  1.00  0.00    -0.161 A  
HETATM   15  C   UNL     1      -8.287   9.752  68.602  1.00  0.00    -0.111 A  
HETATM   16  C   UNL     1      -9.448  10.215  67.975  1.00  0.00    -0.156 A  
HETATM   17  C   UNL     1     -10.659  10.166  68.693  1.00  0.00    -0.236 A  
BRANCH  16  18
HETATM   18  C   UNL     1      -9.437  10.887  66.607  1.00  0.00    -0.179 C  
HETATM   19  O   UNL     1     -10.632  11.669  66.412  1.00  0.00    -0.239 OA 
HETATM   20  C   UNL     1     -10.635  12.376  65.159  1.00  0.00    -0.292 C  
HETATM   21  H   UNL     1      -7.966   8.432  64.941  1.00  0.00     0.000 HD 
HETATM   22  C   UNL     1     -10.563  11.400  63.982  1.00  0.00    -0.383 C  
HETATM   23  O   UNL     1      -8.059   9.083  65.626  1.00  0.00    -0.107 OA 
HETATM   24  O   UNL     1     -10.504  12.070  62.714  1.00  0.00    -0.494 OA 
HETATM   25  C   UNL     1      -9.325  10.512  64.115  1.00  0.00    -0.267 C  
HETATM   26  H   UNL     1      -8.538   8.989  63.146  1.00  0.00     0.000 HD 
HETATM   27  O   UNL     1      -9.307   9.541  63.064  1.00  0.00    -0.155 OA 
HETATM   28  H   UNL     1     -10.460  11.464  61.983  1.00  0.00     0.000 HD 
HETATM   29  C   UNL     1      -9.284   9.822  65.485  1.00  0.00    -0.215 C  
BRANCH  20  30
HETATM   30  C   UNL     1     -11.914  13.224  65.081  1.00  0.00    -0.381 C  
HETATM   31  O   UNL     1     -12.024  13.809  63.785  1.00  0.00    -0.637 OA 
HETATM   32  H   UNL     1     -12.814  14.333  63.736  1.00  0.00     0.000 HD 
ENDBRANCH  20  30
ENDBRANCH  16  18
ENDBRANCH  10  11
ENDBRANCH   7  10
ENDBRANCH   3   4
ENDBRANCH   2   3
TORSDOF 6
ENDMDL
MODEL       22
REMARK 921   NORMALIZED FREE ENERGY PREDICTED BY IDOCK:   -6.73 KCAL/MOL
REMARK 922        TOTAL FREE ENERGY PREDICTED BY IDOCK:  -10.06 KCAL/MOL
REMARK 923 INTER-LIGAND FREE ENERGY PREDICTED BY IDOCK:   -8.68 KCAL/MOL
REMARK 924 INTRA-LIGAND FREE ENERGY PREDICTED BY IDOCK:   -1.37 KCAL/MOL
REMARK 927      BINDING AFFINITY PREDICTED BY RF-SCORE:    0.00 PKD
ROOT
HETATM    1  C   UNL     1      -7.242  10.411  69.860  1.00  0.00    -0.157 C  
HETATM    2  C   UNL     1      -5.935  11.179  69.801  1.00  0.00    -0.095 C  
ENDROOT
BRANCH   2   3
HETATM    3  O   UNL     1      -6.110  12.409  70.503  1.00  0.00    -0.189 OA 
BRANCH   3   4
HETATM    4  C   UNL     1      -6.157  13.549  69.750  1.00  0.00    -0.127 A  
HETATM    5  C   UNL     1      -6.784  14.740  70.110  1.00  0.00    -0.114 A  
HETATM    6  C   UNL     1      -6.751  15.841  69.247  1.00  0.00    -0.174 A  
HETATM    7  C   UNL     1      -6.093  15.770  68.012  1.00  0.00    -0.149 A  
HETATM    8  C   UNL     1      -5.512  13.468  68.515  1.00  0.00    -0.089 A  
HETATM    9  C   UNL     1      -5.479  14.565  67.650  1.00  0.00     0.057 A  
BRANCH   7  10
HETATM   10  C   UNL     1      -6.127  16.951  67.073  1.00  0.00    -0.225 C  
BRANCH  10  11
HETATM   11  C   UNL     1      -7.494  17.471  66.683  1.00  0.00    -0.280 A  
HETATM   12  C   UNL     1      -7.856  18.822  66.755  1.00  0.00    -0.245 A  
HETATM   13 CL   UNL     1      -6.712  20.056  67.140  1.00  0.00    -0.233 Cl 
HETATM   14  C   UNL     1      -9.189  19.208  66.559  1.00  0.00    -0.374 A  
HETATM   15  C   UNL     1     -10.180  18.254  66.308  1.00  0.00    -0.414 A  
HETATM   16  C   UNL     1      -9.843  16.901  66.202  1.00  0.00    -0.318 A  
HETATM   17  C   UNL     1      -8.490  16.537  66.348  1.00  0.00    -0.357 A  
BRANCH  16  18
HETATM   18  C   UNL     1     -10.886  15.796  66.070  1.00  0.00    -0.255 C  
HETATM   19  O   UNL     1     -10.469  14.612  66.776  1.00  0.00    -0.271 OA 
HETATM   20  C   UNL     1     -11.453  13.564  66.733  1.00  0.00    -0.346 C  
HETATM   21  H   UNL     1     -11.796  16.447  62.953  1.00  0.00     0.000 HD 
HETATM   22  C   UNL     1     -11.726  13.131  65.291  1.00  0.00    -0.344 C  
HETATM   23  O   UNL     1     -11.636  16.639  63.869  1.00  0.00    -1.204 OA 
HETATM   24  O   UNL     1     -12.747  12.126  65.202  1.00  0.00    -0.468 OA 
HETATM   25  C   UNL     1     -12.163  14.337  64.458  1.00  0.00    -0.455 C  
HETATM   26  H   UNL     1     -12.602  14.697  62.572  1.00  0.00     0.000 HD 
HETATM   27  O   UNL     1     -12.332  13.948  63.090  1.00  0.00    -0.696 OA 
HETATM   28  H   UNL     1     -12.917  11.857  64.306  1.00  0.00     0.000 HD 
HETATM   29  C   UNL     1     -11.149  15.482  64.570  1.00  0.00    -0.274 C  
BRANCH  20  30
HETATM   30  C   UNL     1     -10.940  12.379  67.566  1.00  0.00    -0.252 C  
HETATM   31  O   UNL     1     -11.976  11.410  67.712  1.00  0.00    -0.637 OA 
HETATM   32  H   UNL     1     -11.660  10.677  68.227  1.00  0.00     0.000 HD 
ENDBRANCH  20  30
ENDBRANCH  16  18
ENDBRANCH  10  11
ENDBRANCH   7  10
ENDBRANCH   3   4
ENDBRANCH   2   3
TORSDOF 6
ENDMDL
MODEL       23
REMARK 921   NORMALIZED FREE ENERGY PREDICTED BY IDOCK:   -6.65 KCAL/MOL
REMARK 922        TOTAL FREE ENERGY PREDICTED BY IDOCK:   -9.95 KCAL/MOL
REMARK 923 INTER-LIGAND FREE ENERGY PREDICTED BY IDOCK:   -9.58 KCAL/MOL
REMARK 924 INTRA-LIGAND FREE ENERGY PREDICTED BY IDOCK:   -0.37 KCAL/MOL
REMARK 927      BINDING AFFINITY PREDICTED BY RF-SCORE:    0.00 PKD
ROOT
HETATM    1  C   UNL     1     -12.205  16.231  73.571  1.00  0.00    -0.612 C  
HETATM    2  C   UNL     1     -13.586  15.676  73.276  1.00  0.00    -0.360 C  
ENDROOT
BRANCH   2   3
HETATM    3  O   UNL     1     -13.447  14.300  72.925  1.00  0.00    -0.593 OA 
BRANCH   3   4
HETATM    4  C   UNL     1     -12.997  14.027  71.663  1.00  0.00    -0.352 A  
HETATM    5  C   UNL     1     -12.843  14.952  70.632  1.00  0.00    -0.406 A  
HETATM    6  C   UNL     1     -12.364  14.542  69.384  1.00  0.00    -0.213 A  
HETATM    7  C   UNL     1     -12.030  13.202  69.145  1.00  0.00    -0.329 A  
HETATM    8  C   UNL     1     -12.681  12.689  71.425  1.00  0.00    -0.347 A  
HETATM    9  C   UNL     1     -12.203  12.275  70.179  1.00  0.00    -0.302 A  
BRANCH   7  10
HETATM   10  C   UNL     1     -11.576  12.776  67.770  1.00  0.00    -0.405 C  
BRANCH  10  11
HETATM   11  C   UNL     1     -11.446  13.864  66.727  1.00  0.00    -0.369 A  
HETATM   12  C   UNL     1     -11.897  13.728  65.407  1.00  0.00    -0.358 A  
HETATM   13 CL   UNL     1     -12.804  12.354  64.889  1.00  0.00    -0.318 Cl 
HETATM   14  C   UNL     1     -11.577  14.697  64.448  1.00  0.00    -0.315 A  
HETATM   15  C   UNL     1     -10.789  15.804  64.783  1.00  0.00    -0.365 A  
HETATM   16  C   UNL     1     -10.349  15.980  66.098  1.00  0.00    -0.340 A  
HETATM   17  C   UNL     1     -10.725  15.024  67.062  1.00  0.00    -0.304 A  
BRANCH  16  18
HETATM   18  C   UNL     1      -9.376  17.082  66.504  1.00  0.00    -0.269 C  
HETATM   19  O   UNL     1      -8.626  16.697  67.672  1.00  0.00    -0.196 OA 
HETATM   20  C   UNL     1      -7.648  17.680  68.053  1.00  0.00    -0.226 C  
HETATM   21  H   UNL     1     -11.306  19.657  65.724  1.00  0.00     0.000 HD 
HETATM   22  C   UNL     1      -8.318  19.013  68.394  1.00  0.00    -0.348 C  
HETATM   23  O   UNL     1     -10.838  18.845  65.572  1.00  0.00    -0.483 OA 
HETATM   24  O   UNL     1      -7.369  20.038  68.722  1.00  0.00    -0.276 OA 
HETATM   25  C   UNL     1      -9.155  19.493  67.208  1.00  0.00    -0.305 C  
HETATM   26  H   UNL     1     -10.373  20.992  66.822  1.00  0.00     0.000 HD 
HETATM   27  O   UNL     1      -9.852  20.693  67.558  1.00  0.00    -0.441 OA 
HETATM   28  H   UNL     1      -7.785  20.866  68.934  1.00  0.00     0.000 HD 
HETATM   29  C   UNL     1     -10.143  18.411  66.753  1.00  0.00    -0.373 C  
BRANCH  20  30
HETATM   30  C   UNL     1      -6.864  17.145  69.262  1.00  0.00    -0.209 C  
HETATM   31  O   UNL     1      -5.505  17.571  69.180  1.00  0.00    -0.167 OA 
HETATM   32  H   UNL     1      -5.020  17.240  69.927  1.00  0.00     0.000 HD 
ENDBRANCH  20  30
ENDBRANCH  16  18
ENDBRANCH  10  11
ENDBRANCH   7  10
ENDBRANCH   3   4
ENDBRANCH   2   3
TORSDOF 6
ENDMDL
MODEL       24
REMARK 921   NORMALIZED FREE ENERGY PREDICTED BY IDOCK:   -6.65 KCAL/MOL
REMARK 922        TOTAL FREE ENERGY PREDICTED BY IDOCK:   -9.94 KCAL/MOL
REMARK 923 INTER-LIGAND FREE ENERGY PREDICTED BY IDOCK:   -8.89 KCAL/MOL
REMARK 924 INTRA-LIGAND FREE ENERGY PREDICTED BY IDOCK:   -1.05 KCAL/MOL
REMARK 927      BINDING AFFINITY PREDICTED BY RF-SCORE:    0.00 PKD
ROOT
HETATM    1  C   UNL     1     -13.915   7.235  71.463  1.00  0.00    -0.486 C  
HETATM    2  C   UNL     1     -14.213   8.646  71.937  1.00  0.00    -0.427 C  
ENDROOT
BRANCH   2   3
HETATM    3  O   UNL     1     -13.013   9.195  72.480  1.00  0.00    -0.407 OA 
BRANCH   3   4
HETATM    4  C   UNL     1     -12.049   9.574  71.589  1.00  0.00    -0.398 A  
HETATM    5  C   UNL     1     -10.735   9.111  71.560  1.00  0.00    -0.437 A  
HETATM    6  C   UNL     1      -9.846   9.576  70.585  1.00  0.00    -0.328 A  
HETATM    7  C   UNL     1     -10.254  10.511  69.624  1.00  0.00    -0.207 A  
HETATM    8  C   UNL     1     -12.457  10.516  70.643  1.00  0.00    -0.456 A  
HETATM    9  C   UNL     1     -11.571  10.984  69.668  1.00  0.00    -0.390 A  
BRANCH   7  10
HETATM   10  C   UNL     1      -9.258  11.044  68.623  1.00  0.00    -0.186 C  
BRANCH  10  11
HETATM   11  C   UNL     1      -9.815  11.842  67.466  1.00  0.00    -0.194 A  
HETATM   12  C   UNL     1     -10.179  11.273  66.238  1.00  0.00    -0.236 A  
HETATM   13 CL   UNL     1     -10.182   9.565  65.988  1.00  0.00    -0.307 Cl 
HETATM   14  C   UNL     1     -10.508  12.092  65.150  1.00  0.00    -0.328 A  
HETATM   15  C   UNL     1     -10.463  13.485  65.263  1.00  0.00    -0.345 A  
HETATM   16  C   UNL     1     -10.131  14.081  66.483  1.00  0.00    -0.287 A  
HETATM   17  C   UNL     1      -9.855  13.243  67.581  1.00  0.00    -0.230 A  
BRANCH  16  18
HETATM   18  C   UNL     1      -9.927  15.583  66.642  1.00  0.00    -0.261 C  
HETATM   19  O   UNL     1      -8.561  15.946  66.364  1.00  0.00    -0.285 OA 
HETATM   20  C   UNL     1      -8.336  17.365  66.438  1.00  0.00    -0.267 C  
HETATM   21  H   UNL     1     -11.972  16.019  69.210  1.00  0.00     0.000 HD 
HETATM   22  C   UNL     1      -8.644  17.894  67.840  1.00  0.00    -0.252 C  
HETATM   23  O   UNL     1     -11.721  15.743  68.336  1.00  0.00    -0.366 OA 
HETATM   24  O   UNL     1      -8.489  19.317  67.939  1.00  0.00    -0.292 OA 
HETATM   25  C   UNL     1     -10.080  17.538  68.229  1.00  0.00    -0.346 C  
HETATM   26  H   UNL     1     -11.230  17.733  69.815  1.00  0.00     0.000 HD 
HETATM   27  O   UNL     1     -10.338  17.954  69.574  1.00  0.00    -0.134 OA 
HETATM   28  H   UNL     1      -8.680  19.645  68.810  1.00  0.00     0.000 HD 
HETATM   29  C   UNL     1     -10.339  16.034  68.072  1.00  0.00    -0.266 C  
BRANCH  20  30
HETATM   30  C   UNL     1      -6.873  17.647  66.062  1.00  0.00    -0.273 C  
HETATM   31  O   UNL     1      -6.826  18.549  64.958  1.00  0.00    -0.498 OA 
HETATM   32  H   UNL     1      -5.922  18.723  64.726  1.00  0.00     0.000 HD 
ENDBRANCH  20  30
ENDBRANCH  16  18
ENDBRANCH  10  11
ENDBRANCH   7  10
ENDBRANCH   3   4
ENDBRANCH   2   3
TORSDOF 6
ENDMDL
MODEL       25
REMARK 921   NORMALIZED FREE ENERGY PREDICTED BY IDOCK:   -6.64 KCAL/MOL
REMARK 922        TOTAL FREE ENERGY PREDICTED BY IDOCK:   -9.94 KCAL/MOL
REMARK 923 INTER-LIGAND FREE ENERGY PREDICTED BY IDOCK:   -9.59 KCAL/MOL
REMARK 924 INTRA-LIGAND FREE ENERGY PREDICTED BY IDOCK:   -0.35 KCAL/MOL
REMARK 927      BINDING AFFINITY PREDICTED BY RF-SCORE:    0.00 PKD
ROOT
HETATM    1  C   UNL     1     -12.079  12.173  63.220  1.00  0.00    -0.512 C  
HETATM    2  C   UNL     1     -10.623  12.158  63.647  1.00  0.00    -0.461 C  
ENDROOT
BRANCH   2   3
HETATM    3  O   UNL     1     -10.445  11.095  64.582  1.00  0.00    -0.309 OA 
BRANCH   3   4
HETATM    4  C   UNL     1     -10.869  11.321  65.862  1.00  0.00    -0.202 A  
HETATM    5  C   UNL     1     -10.887  10.384  66.894  1.00  0.00    -0.229 A  
HETATM    6  C   UNL     1     -11.339  10.748  68.167  1.00  0.00    -0.377 A  
HETATM    7  C   UNL     1     -11.780  12.052  68.430  1.00  0.00    -0.390 A  
HETATM    8  C   UNL     1     -11.321  12.617  66.115  1.00  0.00    -0.375 A  
HETATM    9  C   UNL     1     -11.775  12.983  67.385  1.00  0.00    -0.427 A  
BRANCH   7  10
HETATM   10  C   UNL     1     -12.323  12.400  69.795  1.00  0.00    -0.077 C  
BRANCH  10  11
HETATM   11  C   UNL     1     -11.928  13.746  70.361  1.00  0.00    -0.385 A  
HETATM   12  C   UNL     1     -12.552  14.331  71.471  1.00  0.00    -0.354 A  
HETATM   13 CL   UNL     1     -13.730  13.485  72.407  1.00  0.00    -0.683 Cl 
HETATM   14  C   UNL     1     -12.267  15.655  71.826  1.00  0.00    -0.494 A  
HETATM   15  C   UNL     1     -11.371  16.421  71.073  1.00  0.00    -0.207 A  
HETATM   16  C   UNL     1     -10.711  15.856  69.978  1.00  0.00    -0.343 A  
HETATM   17  C   UNL     1     -10.970  14.506  69.667  1.00  0.00    -0.225 A  
BRANCH  16  18
HETATM   18  C   UNL     1      -9.833  16.666  69.032  1.00  0.00    -0.267 C  
HETATM   19  O   UNL     1     -10.611  17.203  67.945  1.00  0.00    -0.357 OA 
HETATM   20  C   UNL     1      -9.835  18.032  67.062  1.00  0.00    -0.318 C  
HETATM   21  H   UNL     1      -7.126  14.771  69.240  1.00  0.00     0.000 HD 
HETATM   22  C   UNL     1      -8.698  17.231  66.422  1.00  0.00    -0.250 C  
HETATM   23  O   UNL     1      -7.838  15.307  69.567  1.00  0.00    -0.216 OA 
HETATM   24  O   UNL     1      -7.863  18.038  65.578  1.00  0.00    -0.451 OA 
HETATM   25  C   UNL     1      -7.823  16.607  67.510  1.00  0.00    -0.171 C  
HETATM   26  H   UNL     1      -6.271  15.398  67.587  1.00  0.00     0.000 HD 
HETATM   27  O   UNL     1      -6.814  15.786  66.911  1.00  0.00    -0.248 OA 
HETATM   28  H   UNL     1      -7.158  17.541  65.180  1.00  0.00     0.000 HD 
HETATM   29  C   UNL     1      -8.666  15.790  68.496  1.00  0.00    -0.184 C  
BRANCH  20  30
HETATM   30  C   UNL     1     -10.768  18.603  65.982  1.00  0.00    -0.246 C  
HETATM   31  O   UNL     1     -10.898  17.666  64.915  1.00  0.00    -0.831 OA 
HETATM   32  H   UNL     1     -11.474  18.019  64.248  1.00  0.00     0.000 HD 
ENDBRANCH  20  30
ENDBRANCH  16  18
ENDBRANCH  10  11
ENDBRANCH   7  10
ENDBRANCH   3   4
ENDBRANCH   2   3
TORSDOF 6
ENDMDL
MODEL       26
REMARK 921   NORMALIZED FREE ENERGY PREDICTED BY IDOCK:   -6.64 KCAL/MOL
REMARK 922        TOTAL FREE ENERGY PREDICTED BY IDOCK:   -9.93 KCAL/MOL
REMARK 923 INTER-LIGAND FREE ENERGY PREDICTED BY IDOCK:   -8.70 KCAL/MOL
REMARK 924 INTRA-LIGAND FREE ENERGY PREDICTED BY IDOCK:   -1.24 KCAL/MOL
REMARK 927      BINDING AFFINITY PREDICTED BY RF-SCORE:    0.00 PKD
ROOT
HETATM    1  C   UNL     1      -9.166  19.865  66.866  1.00  0.00    -0.475 C  
HETATM    2  C   UNL     1     -10.459  19.124  67.152  1.00  0.00    -0.447 C  
ENDROOT
BRANCH   2   3
HETATM    3  O   UNL     1     -10.152  17.992  67.964  1.00  0.00    -0.326 OA 
BRANCH   3   4
HETATM    4  C   UNL     1     -10.550  16.771  67.497  1.00  0.00    -0.309 A  
HETATM    5  C   UNL     1     -10.367  16.291  66.202  1.00  0.00    -0.352 A  
HETATM    6  C   UNL     1     -10.816  15.013  65.854  1.00  0.00    -0.339 A  
HETATM    7  C   UNL     1     -11.457  14.194  66.793  1.00  0.00    -0.383 A  
HETATM    8  C   UNL     1     -11.201  15.964  68.433  1.00  0.00    -0.368 A  
HETATM    9  C   UNL     1     -11.653  14.687  68.088  1.00  0.00    -0.362 A  
BRANCH   7  10
HETATM   10  C   UNL     1     -11.989  12.845  66.374  1.00  0.00    -0.462 C  
BRANCH  10  11
HETATM   11  C   UNL     1     -10.967  11.799  65.989  1.00  0.00    -0.355 A  
HETATM   12  C   UNL     1     -10.604  11.523  64.664  1.00  0.00    -0.311 A  
HETATM   13 CL   UNL     1     -11.173  12.479  63.343  1.00  0.00    -0.515 Cl 
HETATM   14  C   UNL     1      -9.795  10.418  64.367  1.00  0.00    -0.395 A  
HETATM   15  C   UNL     1      -9.352   9.563  65.382  1.00  0.00    -0.324 A  
HETATM   16  C   UNL     1      -9.675   9.829  66.716  1.00  0.00    -0.248 A  
HETATM   17  C   UNL     1     -10.444  10.974  67.001  1.00  0.00    -0.284 A  
BRANCH  16  18
HETATM   18  C   UNL     1      -9.346   8.869  67.854  1.00  0.00    -0.141 C  
HETATM   19  O   UNL     1     -10.462   8.001  68.128  1.00  0.00    -0.205 OA 
HETATM   20  C   UNL     1     -10.174   7.033  69.152  1.00  0.00    -0.187 C  
HETATM   21  H   UNL     1      -7.529  10.965  69.663  1.00  0.00     0.000 HD 
HETATM   22  C   UNL     1      -9.831   7.722  70.474  1.00  0.00    -0.182 C  
HETATM   23  O   UNL     1      -7.779  10.479  68.885  1.00  0.00    -0.098 OA 
HETATM   24  O   UNL     1      -9.479   6.790  71.507  1.00  0.00    -0.157 OA 
HETATM   25  C   UNL     1      -8.658   8.683  70.273  1.00  0.00    -0.141 C  
HETATM   26  H   UNL     1      -7.668   9.991  71.362  1.00  0.00     0.000 HD 
HETATM   27  O   UNL     1      -8.396   9.393  71.488  1.00  0.00    -0.270 OA 
HETATM   28  H   UNL     1      -9.266   7.219  72.328  1.00  0.00     0.000 HD 
HETATM   29  C   UNL     1      -8.937   9.663  69.126  1.00  0.00    -0.154 C  
BRANCH  20  30
HETATM   30  C   UNL     1     -11.400   6.121  69.320  1.00  0.00    -0.291 C  
HETATM   31  O   UNL     1     -12.353   6.750  70.175  1.00  0.00    -0.614 OA 
HETATM   32  H   UNL     1     -13.110   6.186  70.279  1.00  0.00     0.000 HD 
ENDBRANCH  20  30
ENDBRANCH  16  18
ENDBRANCH  10  11
ENDBRANCH   7  10
ENDBRANCH   3   4
ENDBRANCH   2   3
TORSDOF 6
ENDMDL
MODEL       27
REMARK 921   NORMALIZED FREE ENERGY PREDICTED BY IDOCK:   -6.63 KCAL/MOL
REMARK 922        TOTAL FREE ENERGY PREDICTED BY IDOCK:   -9.92 KCAL/MOL
REMARK 923 INTER-LIGAND FREE ENERGY PREDICTED BY IDOCK:   -8.83 KCAL/MOL
REMARK 924 INTRA-LIGAND FREE ENERGY PREDICTED BY IDOCK:   -1.08 KCAL/MOL
REMARK 927      BINDING AFFINITY PREDICTED BY RF-SCORE:    0.00 PKD
ROOT
HETATM    1  C   UNL     1      -7.541   7.230  73.106  1.00  0.00    -0.091 C  
HETATM    2  C   UNL     1      -7.462   6.288  71.919  1.00  0.00    -0.094 C  
ENDROOT
BRANCH   2   3
HETATM    3  O   UNL     1      -7.333   7.074  70.735  1.00  0.00    -0.071 OA 
BRANCH   3   4
HETATM    4  C   UNL     1      -8.439   7.769  70.332  1.00  0.00    -0.132 A  
HETATM    5  C   UNL     1      -9.727   7.253  70.204  1.00  0.00    -0.172 A  
HETATM    6  C   UNL     1     -10.777   8.077  69.787  1.00  0.00    -0.231 A  
HETATM    7  C   UNL     1     -10.559   9.429  69.491  1.00  0.00    -0.237 A  
HETATM    8  C   UNL     1      -8.212   9.111  70.023  1.00  0.00    -0.146 A  
HETATM    9  C   UNL     1      -9.260   9.937  69.605  1.00  0.00    -0.246 A  
BRANCH   7  10
HETATM   10  C   UNL     1     -11.697  10.280  68.981  1.00  0.00    -0.083 C  
BRANCH  10  11
HETATM   11  C   UNL     1     -11.929  11.599  69.685  1.00  0.00    -0.390 A  
HETATM   12  C   UNL     1     -12.584  11.712  70.919  1.00  0.00    -0.313 A  
HETATM   13 CL   UNL     1     -13.042  10.326  71.840  1.00  0.00    -0.564 Cl 
HETATM   14  C   UNL     1     -12.932  12.972  71.421  1.00  0.00    -0.373 A  
HETATM   15  C   UNL     1     -12.649  14.135  70.696  1.00  0.00    -0.421 A  
HETATM   16  C   UNL     1     -11.971  14.055  69.476  1.00  0.00    -0.390 A  
HETATM   17  C   UNL     1     -11.582  12.783  69.011  1.00  0.00    -0.366 A  
BRANCH  16  18
HETATM   18  C   UNL     1     -11.755  15.261  68.569  1.00  0.00    -0.332 C  
HETATM   19  O   UNL     1     -11.421  14.842  67.232  1.00  0.00    -0.350 OA 
HETATM   20  C   UNL     1     -11.273  15.947  66.324  1.00  0.00     0.096 C  
HETATM   21  H   UNL     1     -10.323  17.227  70.816  1.00  0.00     0.000 HD 
HETATM   22  C   UNL     1     -10.145  16.877  66.777  1.00  0.00    -0.294 C  
HETATM   23  O   UNL     1     -11.001  16.665  70.459  1.00  0.00    -0.223 OA 
HETATM   24  O   UNL     1     -10.003  18.026  65.928  1.00  0.00    -0.541 OA 
HETATM   25  C   UNL     1     -10.409  17.362  68.203  1.00  0.00    -0.366 C  
HETATM   26  H   UNL     1      -9.474  18.459  69.544  1.00  0.00     0.000 HD 
HETATM   27  O   UNL     1      -9.310  18.159  68.658  1.00  0.00    -0.309 OA 
HETATM   28  H   UNL     1      -9.302  18.603  66.209  1.00  0.00     0.000 HD 
HETATM   29  C   UNL     1     -10.647  16.181  69.153  1.00  0.00    -0.276 C  
BRANCH  20  30
HETATM   30  C   UNL     1     -10.984  15.391  64.921  1.00  0.00    -0.437 C  
HETATM   31  O   UNL     1     -11.425  16.322  63.935  1.00  0.00    -1.484 OA 
HETATM   32  H   UNL     1     -11.247  15.979  63.067  1.00  0.00     0.000 HD 
ENDBRANCH  20  30
ENDBRANCH  16  18
ENDBRANCH  10  11
ENDBRANCH   7  10
ENDBRANCH   3   4
ENDBRANCH   2   3
TORSDOF 6
ENDMDL
MODEL       28
REMARK 921   NORMALIZED FREE ENERGY PREDICTED BY IDOCK:   -6.60 KCAL/MOL
REMARK 922        TOTAL FREE ENERGY PREDICTED BY IDOCK:   -9.88 KCAL/MOL
REMARK 923 INTER-LIGAND FREE ENERGY PREDICTED BY IDOCK:   -8.48 KCAL/MOL
REMARK 924 INTRA-LIGAND FREE ENERGY PREDICTED BY IDOCK:   -1.40 KCAL/MOL
REMARK 927      BINDING AFFINITY PREDICTED BY RF-SCORE:    0.00 PKD
ROOT
HETATM    1  C   UNL     1      -8.707   7.557  74.037  1.00  0.00    -0.283 C  
HETATM    2  C   UNL     1      -9.925   6.656  73.963  1.00  0.00    -0.320 C  
ENDROOT
BRANCH   2   3
HETATM    3  O   UNL     1     -10.933   7.331  73.213  1.00  0.00    -0.352 OA 
BRANCH   3   4
HETATM    4  C   UNL     1     -10.810   7.306  71.851  1.00  0.00    -0.226 A  
HETATM    5  C   UNL     1     -10.651   8.417  71.025  1.00  0.00    -0.258 A  
HETATM    6  C   UNL     1     -10.527   8.252  69.641  1.00  0.00    -0.221 A  
HETATM    7  C   UNL     1     -10.561   6.977  69.061  1.00  0.00    -0.234 A  
HETATM    8  C   UNL     1     -10.859   6.035  71.277  1.00  0.00    -0.331 A  
HETATM    9  C   UNL     1     -10.737   5.867  69.894  1.00  0.00    -0.406 A  
BRANCH   7  10
HETATM   10  C   UNL     1     -10.490   6.833  67.560  1.00  0.00    -0.302 C  
BRANCH  10  11
HETATM   11  C   UNL     1      -9.616   7.823  66.821  1.00  0.00    -0.274 A  
HETATM   12  C   UNL     1      -8.231   7.671  66.672  1.00  0.00    -0.124 A  
HETATM   13 CL   UNL     1      -7.410   6.240  67.179  1.00  0.00    -0.082 Cl 
HETATM   14  C   UNL     1      -7.459   8.713  66.144  1.00  0.00    -0.086 A  
HETATM   15  C   UNL     1      -8.050   9.926  65.773  1.00  0.00    -0.123 A  
HETATM   16  C   UNL     1      -9.434  10.096  65.884  1.00  0.00    -0.249 A  
HETATM   17  C   UNL     1     -10.202   9.018  66.367  1.00  0.00    -0.297 A  
BRANCH  16  18
HETATM   18  C   UNL     1     -10.126  11.430  65.632  1.00  0.00    -0.248 C  
HETATM   19  O   UNL     1     -10.786  11.897  66.825  1.00  0.00    -0.242 OA 
HETATM   20  C   UNL     1     -11.398  13.187  66.653  1.00  0.00    -0.325 C  
HETATM   21  H   UNL     1     -11.093  10.825  62.524  1.00  0.00     0.000 HD 
HETATM   22  C   UNL     1     -12.468  13.141  65.560  1.00  0.00    -0.458 C  
HETATM   23  O   UNL     1     -10.477  10.905  63.242  1.00  0.00    -0.290 OA 
HETATM   24  O   UNL     1     -13.062  14.425  65.316  1.00  0.00    -0.629 OA 
HETATM   25  C   UNL     1     -11.856  12.638  64.251  1.00  0.00    -0.393 C  
HETATM   26  H   UNL     1     -12.495  12.198  62.441  1.00  0.00     0.000 HD 
HETATM   27  O   UNL     1     -12.875  12.511  63.254  1.00  0.00    -0.666 OA 
HETATM   28  H   UNL     1     -13.727  14.396  64.637  1.00  0.00     0.000 HD 
HETATM   29  C   UNL     1     -11.135  11.300  64.457  1.00  0.00    -0.175 C  
BRANCH  20  30
HETATM   30  C   UNL     1     -12.014  13.618  67.993  1.00  0.00    -0.350 C  
HETATM   31  O   UNL     1     -12.113  15.040  68.041  1.00  0.00    -0.538 OA 
HETATM   32  H   UNL     1     -12.493  15.306  68.870  1.00  0.00     0.000 HD 
ENDBRANCH  20  30
ENDBRANCH  16  18
ENDBRANCH  10  11
ENDBRANCH   7  10
ENDBRANCH   3   4
ENDBRANCH   2   3
TORSDOF 6
ENDMDL
MODEL       29
REMARK 921   NORMALIZED FREE ENERGY PREDICTED BY IDOCK:   -6.58 KCAL/MOL
REMARK 922        TOTAL FREE ENERGY PREDICTED BY IDOCK:   -9.85 KCAL/MOL
REMARK 923 INTER-LIGAND FREE ENERGY PREDICTED BY IDOCK:   -8.70 KCAL/MOL
REMARK 924 INTRA-LIGAND FREE ENERGY PREDICTED BY IDOCK:   -1.15 KCAL/MOL
REMARK 927      BINDING AFFINITY PREDICTED BY RF-SCORE:    0.00 PKD
ROOT
HETATM    1  C   UNL     1     -13.525   7.847  71.678  1.00  0.00    -0.386 C  
HETATM    2  C   UNL     1     -13.496   9.364  71.691  1.00  0.00    -0.394 C  
ENDROOT
BRANCH   2   3
HETATM    3  O   UNL     1     -12.138   9.782  71.821  1.00  0.00    -0.390 OA 
BRANCH   3   4
HETATM    4  C   UNL     1     -11.481  10.116  70.669  1.00  0.00    -0.349 A  
HETATM    5  C   UNL     1     -10.177   9.755  70.337  1.00  0.00    -0.343 A  
HETATM    6  C   UNL     1      -9.624  10.156  69.117  1.00  0.00    -0.222 A  
HETATM    7  C   UNL     1     -10.364  10.924  68.208  1.00  0.00    -0.194 A  
HETATM    8  C   UNL     1     -12.218  10.893  69.773  1.00  0.00    -0.381 A  
HETATM    9  C   UNL     1     -11.668  11.298  68.554  1.00  0.00    -0.378 A  
BRANCH   7  10
HETATM   10  C   UNL     1      -9.721  11.398  66.927  1.00  0.00    -0.213 C  
BRANCH  10  11
HETATM   11  C   UNL     1     -10.034  12.812  66.491  1.00  0.00    -0.256 A  
HETATM   12  C   UNL     1     -10.605  13.131  65.251  1.00  0.00    -0.313 A  
HETATM   13 CL   UNL     1     -11.167  11.912  64.165  1.00  0.00    -0.417 Cl 
HETATM   14  C   UNL     1     -10.693  14.465  64.835  1.00  0.00    -0.444 A  
HETATM   15  C   UNL     1     -10.198  15.499  65.637  1.00  0.00    -0.403 A  
HETATM   16  C   UNL     1      -9.648  15.214  66.891  1.00  0.00    -0.252 A  
HETATM   17  C   UNL     1      -9.616  13.871  67.316  1.00  0.00    -0.243 A  
BRANCH  16  18
HETATM   18  C   UNL     1      -8.965  16.269  67.754  1.00  0.00    -0.193 C  
HETATM   19  O   UNL     1      -9.769  17.462  67.834  1.00  0.00    -0.259 OA 
HETATM   20  C   UNL     1      -9.194  18.462  68.694  1.00  0.00    -0.306 C  
HETATM   21  H   UNL     1      -5.852  15.620  66.831  1.00  0.00     0.000 HD 
HETATM   22  C   UNL     1      -7.823  18.902  68.177  1.00  0.00    -0.297 C  
HETATM   23  O   UNL     1      -6.715  15.423  67.174  1.00  0.00    -0.271 OA 
HETATM   24  O   UNL     1      -7.189  19.858  69.040  1.00  0.00    -0.320 OA 
HETATM   25  C   UNL     1      -6.901  17.689  68.044  1.00  0.00    -0.193 C  
HETATM   26  H   UNL     1      -5.077  17.334  67.393  1.00  0.00     0.000 HD 
HETATM   27  O   UNL     1      -5.649  18.088  67.477  1.00  0.00    -0.138 OA 
HETATM   28  H   UNL     1      -6.337  20.131  68.720  1.00  0.00     0.000 HD 
HETATM   29  C   UNL     1      -7.552  16.591  67.192  1.00  0.00    -0.179 C  
BRANCH  20  30
HETATM   30  C   UNL     1     -10.156  19.659  68.761  1.00  0.00    -0.437 C  
HETATM   31  O   UNL     1     -10.230  20.141  70.101  1.00  0.00    -0.527 OA 
HETATM   32  H   UNL     1     -10.825  20.880  70.143  1.00  0.00     0.000 HD 
ENDBRANCH  20  30
ENDBRANCH  16  18
ENDBRANCH  10  11
ENDBRANCH   7  10
ENDBRANCH   3   4
ENDBRANCH   2   3
TORSDOF 6
ENDMDL
MODEL       30
REMARK 921   NORMALIZED FREE ENERGY PREDICTED BY IDOCK:   -6.57 KCAL/MOL
REMARK 922        TOTAL FREE ENERGY PREDICTED BY IDOCK:   -9.84 KCAL/MOL
REMARK 923 INTER-LIGAND FREE ENERGY PREDICTED BY IDOCK:   -8.80 KCAL/MOL
REMARK 924 INTRA-LIGAND FREE ENERGY PREDICTED BY IDOCK:   -1.04 KCAL/MOL
REMARK 927      BINDING AFFINITY PREDICTED BY RF-SCORE:    0.00 PKD
ROOT
HETATM    1  C   UNL     1     -12.767  15.901  73.661  1.00  0.00    -0.723 C  
HETATM    2  C   UNL     1     -13.915  15.395  72.807  1.00  0.00    -0.427 C  
ENDROOT
BRANCH   2   3
HETATM    3  O   UNL     1     -13.968  13.974  72.930  1.00  0.00    -0.617 OA 
BRANCH   3   4
HETATM    4  C   UNL     1     -13.421  13.245  71.912  1.00  0.00    -0.438 A  
HETATM    5  C   UNL     1     -13.101  11.889  71.957  1.00  0.00    -0.441 A  
HETATM    6  C   UNL     1     -12.551  11.258  70.836  1.00  0.00    -0.467 A  
HETATM    7  C   UNL     1     -12.311  11.970  69.653  1.00  0.00    -0.083 A  
HETATM    8  C   UNL     1     -13.170  13.962  70.740  1.00  0.00    -0.130 A  
HETATM    9  C   UNL     1     -12.619  13.335  69.619  1.00  0.00     0.145 A  
BRANCH   7  10
HETATM   10  C   UNL     1     -11.658  11.279  68.481  1.00  0.00    -0.384 C  
BRANCH  10  11
HETATM   11  C   UNL     1     -10.287  11.775  68.075  1.00  0.00    -0.212 A  
HETATM   12  C   UNL     1      -9.092  11.191  68.515  1.00  0.00    -0.175 A  
HETATM   13 CL   UNL     1      -9.074   9.731  69.437  1.00  0.00    -0.192 Cl 
HETATM   14  C   UNL     1      -7.864  11.813  68.256  1.00  0.00    -0.137 A  
HETATM   15  C   UNL     1      -7.809  13.032  67.571  1.00  0.00    -0.178 A  
HETATM   16  C   UNL     1      -8.983  13.624  67.096  1.00  0.00    -0.235 A  
HETATM   17  C   UNL     1     -10.204  12.958  67.319  1.00  0.00    -0.234 A  
BRANCH  16  18
HETATM   18  C   UNL     1      -9.014  15.013  66.468  1.00  0.00    -0.274 C  
HETATM   19  O   UNL     1      -8.971  16.034  67.482  1.00  0.00    -0.191 OA 
HETATM   20  C   UNL     1      -8.931  17.362  66.933  1.00  0.00    -0.245 C  
HETATM   21  H   UNL     1     -11.068  14.301  63.969  1.00  0.00     0.000 HD 
HETATM   22  C   UNL     1     -10.179  17.643  66.094  1.00  0.00    -0.343 C  
HETATM   23  O   UNL     1     -10.296  14.204  64.514  1.00  0.00    -0.390 OA 
HETATM   24  O   UNL     1     -10.150  18.939  65.478  1.00  0.00    -0.389 OA 
HETATM   25  C   UNL     1     -10.316  16.590  64.993  1.00  0.00     0.128 C  
HETATM   26  H   UNL     1     -11.616  16.147  63.582  1.00  0.00     0.000 HD 
HETATM   27  O   UNL     1     -11.531  16.801  64.265  1.00  0.00    -1.125 OA 
HETATM   28  H   UNL     1     -10.926  19.114  64.958  1.00  0.00     0.000 HD 
HETATM   29  C   UNL     1     -10.277  15.172  65.576  1.00  0.00    -0.376 C  
BRANCH  20  30
HETATM   30  C   UNL     1      -8.821  18.367  68.091  1.00  0.00    -0.302 C  
HETATM   31  O   UNL     1     -10.107  18.576  68.669  1.00  0.00    -0.366 OA 
HETATM   32  H   UNL     1     -10.040  19.197  69.384  1.00  0.00     0.000 HD 
ENDBRANCH  20  30
ENDBRANCH  16  18
ENDBRANCH  10  11
ENDBRANCH   7  10
ENDBRANCH   3   4
ENDBRANCH   2   3
TORSDOF 6
ENDMDL
MODEL       31
REMARK 921   NORMALIZED FREE ENERGY PREDICTED BY IDOCK:   -6.54 KCAL/MOL
REMARK 922        TOTAL FREE ENERGY PREDICTED BY IDOCK:   -9.80 KCAL/MOL
REMARK 923 INTER-LIGAND FREE ENERGY PREDICTED BY IDOCK:   -8.77 KCAL/MOL
REMARK 924 INTRA-LIGAND FREE ENERGY PREDICTED BY IDOCK:   -1.04 KCAL/MOL
REMARK 927      BINDING AFFINITY PREDICTED BY RF-SCORE:    0.00 PKD
ROOT
HETATM    1  C   UNL     1      -9.636   3.911  63.863  1.00  0.00    -0.159 C  
HETATM    2  C   UNL     1      -9.318   4.275  65.301  1.00  0.00    -0.165 C  
ENDROOT
BRANCH   2   3
HETATM    3  O   UNL     1     -10.501   4.803  65.898  1.00  0.00    -0.285 OA 
BRANCH   3   4
HETATM    4  C   UNL     1     -10.332   5.655  66.954  1.00  0.00    -0.259 A  
HETATM    5  C   UNL     1     -10.427   7.044  66.907  1.00  0.00    -0.356 A  
HETATM    6  C   UNL     1     -10.240   7.803  68.067  1.00  0.00    -0.249 A  
HETATM    7  C   UNL     1      -9.955   7.187  69.293  1.00  0.00    -0.168 A  
HETATM    8  C   UNL     1     -10.033   5.037  68.170  1.00  0.00    -0.190 A  
HETATM    9  C   UNL     1      -9.844   5.792  69.331  1.00  0.00    -0.219 A  
BRANCH   7  10
HETATM   10  C   UNL     1      -9.694   8.032  70.516  1.00  0.00    -0.179 C  
BRANCH  10  11
HETATM   11  C   UNL     1     -10.885   8.746  71.117  1.00  0.00    -0.335 A  
HETATM   12  C   UNL     1     -11.823   8.119  71.948  1.00  0.00    -0.317 A  
HETATM   13 CL   UNL     1     -11.612   6.499  72.504  1.00  0.00    -0.279 Cl 
HETATM   14  C   UNL     1     -12.999   8.786  72.314  1.00  0.00    -0.462 A  
HETATM   15  C   UNL     1     -13.265  10.077  71.847  1.00  0.00    -0.557 A  
HETATM   16  C   UNL     1     -12.334  10.738  71.040  1.00  0.00    -0.509 A  
HETATM   17  C   UNL     1     -11.133  10.073  70.724  1.00  0.00    -0.407 A  
BRANCH  16  18
HETATM   18  C   UNL     1     -12.617  12.084  70.382  1.00  0.00    -0.049 C  
HETATM   19  O   UNL     1     -11.690  12.333  69.308  1.00  0.00    -0.294 OA 
HETATM   20  C   UNL     1     -11.961  13.564  68.614  1.00  0.00    -0.343 C  
HETATM   21  H   UNL     1     -13.494  13.719  73.124  1.00  0.00     0.000 HD 
HETATM   22  C   UNL     1     -11.852  14.760  69.562  1.00  0.00    -0.326 C  
HETATM   23  O   UNL     1     -13.530  13.023  72.479  1.00  0.00    -0.554 OA 
HETATM   24  O   UNL     1     -12.174  16.003  68.921  1.00  0.00    -0.459 OA 
HETATM   25  C   UNL     1     -12.797  14.572  70.750  1.00  0.00    -0.361 C  
HETATM   26  H   UNL     1     -13.216  15.530  72.418  1.00  0.00     0.000 HD 
HETATM   27  O   UNL     1     -12.629  15.647  71.680  1.00  0.00    -0.387 OA 
HETATM   28  H   UNL     1     -12.106  16.746  69.509  1.00  0.00     0.000 HD 
HETATM   29  C   UNL     1     -12.559  13.222  71.438  1.00  0.00    -0.271 C  
BRANCH  20  30
HETATM   30  C   UNL     1     -10.962  13.700  67.454  1.00  0.00    -0.276 C  
HETATM   31  O   UNL     1     -11.554  14.452  66.396  1.00  0.00    -0.354 OA 
HETATM   32  H   UNL     1     -10.937  14.536  65.679  1.00  0.00     0.000 HD 
ENDBRANCH  20  30
ENDBRANCH  16  18
ENDBRANCH  10  11
ENDBRANCH   7  10
ENDBRANCH   3   4
ENDBRANCH   2   3
TORSDOF 6
ENDMDL
MODEL       32
REMARK 921   NORMALIZED FREE ENERGY PREDICTED BY IDOCK:   -6.53 KCAL/MOL
REMARK 922        TOTAL FREE ENERGY PREDICTED BY IDOCK:   -9.79 KCAL/MOL
REMARK 923 INTER-LIGAND FREE ENERGY PREDICTED BY IDOCK:   -9.03 KCAL/MOL
REMARK 924 INTRA-LIGAND FREE ENERGY PREDICTED BY IDOCK:   -0.76 KCAL/MOL
REMARK 927      BINDING AFFINITY PREDICTED BY RF-SCORE:    0.00 PKD
ROOT
HETATM    1  C   UNL     1     -11.419   5.137  72.996  1.00  0.00    -0.349 C  
HETATM    2  C   UNL     1     -10.639   6.069  73.905  1.00  0.00    -0.218 C  
ENDROOT
BRANCH   2   3
HETATM    3  O   UNL     1     -11.119   7.396  73.697  1.00  0.00    -0.258 OA 
BRANCH   3   4
HETATM    4  C   UNL     1     -10.566   8.097  72.661  1.00  0.00    -0.344 A  
HETATM    5  C   UNL     1     -11.263   8.867  71.731  1.00  0.00    -0.432 A  
HETATM    6  C   UNL     1     -10.573   9.544  70.720  1.00  0.00    -0.387 A  
HETATM    7  C   UNL     1      -9.178   9.463  70.621  1.00  0.00    -0.303 A  
HETATM    8  C   UNL     1      -9.178   8.001  72.557  1.00  0.00    -0.280 A  
HETATM    9  C   UNL     1      -8.486   8.675  71.547  1.00  0.00    -0.238 A  
BRANCH   7  10
HETATM   10  C   UNL     1      -8.465  10.152  69.482  1.00  0.00    -0.179 C  
BRANCH  10  11
HETATM   11  C   UNL     1      -9.079  10.006  68.107  1.00  0.00    -0.121 A  
HETATM   12  C   UNL     1      -9.189   8.781  67.435  1.00  0.00    -0.136 A  
HETATM   13 CL   UNL     1      -8.782   7.284  68.193  1.00  0.00    -0.128 Cl 
HETATM   14  C   UNL     1      -9.592   8.744  66.094  1.00  0.00    -0.323 A  
HETATM   15  C   UNL     1      -9.874   9.924  65.399  1.00  0.00    -0.384 A  
HETATM   16  C   UNL     1      -9.801  11.159  66.051  1.00  0.00    -0.270 A  
HETATM   17  C   UNL     1      -9.445  11.173  67.414  1.00  0.00    -0.176 A  
BRANCH  16  18
HETATM   18  C   UNL     1      -9.957  12.490  65.324  1.00  0.00    -0.207 C  
HETATM   19  O   UNL     1      -9.871  13.591  66.248  1.00  0.00    -0.288 OA 
HETATM   20  C   UNL     1      -9.948  14.871  65.596  1.00  0.00    -0.358 C  
HETATM   21  H   UNL     1     -12.194  11.492  63.095  1.00  0.00     0.000 HD 
HETATM   22  C   UNL     1     -11.280  15.030  64.861  1.00  0.00    -0.416 C  
HETATM   23  O   UNL     1     -11.371  11.472  63.569  1.00  0.00    -0.408 OA 
HETATM   24  O   UNL     1     -11.371  16.272  64.148  1.00  0.00    -1.184 OA 
HETATM   25  C   UNL     1     -11.465  13.886  63.862  1.00  0.00    -0.034 C  
HETATM   26  H   UNL     1     -12.865  13.276  62.620  1.00  0.00     0.000 HD 
HETATM   27  O   UNL     1     -12.750  13.986  63.240  1.00  0.00    -0.750 OA 
HETATM   28  H   UNL     1     -12.199  16.371  63.691  1.00  0.00     0.000 HD 
HETATM   29  C   UNL     1     -11.303  12.523  64.547  1.00  0.00    -0.330 C  
BRANCH  20  30
HETATM   30  C   UNL     1      -9.782  15.970  66.658  1.00  0.00    -0.244 C  
HETATM   31  O   UNL     1     -11.031  16.208  67.302  1.00  0.00    -0.283 OA 
HETATM   32  H   UNL     1     -10.929  16.887  67.958  1.00  0.00     0.000 HD 
ENDBRANCH  20  30
ENDBRANCH  16  18
ENDBRANCH  10  11
ENDBRANCH   7  10
ENDBRANCH   3   4
ENDBRANCH   2   3
TORSDOF 6
ENDMDL
MODEL       33
REMARK 921   NORMALIZED FREE ENERGY PREDICTED BY IDOCK:   -6.52 KCAL/MOL
REMARK 922        TOTAL FREE ENERGY PREDICTED BY IDOCK:   -9.77 KCAL/MOL
REMARK 923 INTER-LIGAND FREE ENERGY PREDICTED BY IDOCK:   -9.24 KCAL/MOL
REMARK 924 INTRA-LIGAND FREE ENERGY PREDICTED BY IDOCK:   -0.53 KCAL/MOL
REMARK 927      BINDING AFFINITY PREDICTED BY RF-SCORE:    0.00 PKD
ROOT
HETATM    1  C   UNL     1     -13.565   9.202  72.216  1.00  0.00    -0.548 C  
HETATM    2  C   UNL     1     -12.944  10.380  71.489  1.00  0.00    -0.458 C  
ENDROOT
BRANCH   2   3
HETATM    3  O   UNL     1     -13.363  11.577  72.143  1.00  0.00    -0.477 OA 
BRANCH   3   4
HETATM    4  C   UNL     1     -13.092  12.756  71.506  1.00  0.00    -0.286 A  
HETATM    5  C   UNL     1     -13.614  14.004  71.840  1.00  0.00    -0.520 A  
HETATM    6  C   UNL     1     -13.247  15.139  71.108  1.00  0.00    -0.535 A  
HETATM    7  C   UNL     1     -12.355  15.046  70.032  1.00  0.00    -0.353 A  
HETATM    8  C   UNL     1     -12.214  12.655  70.425  1.00  0.00    -0.368 A  
HETATM    9  C   UNL     1     -11.847  13.787  69.691  1.00  0.00    -0.393 A  
BRANCH   7  10
HETATM   10  C   UNL     1     -12.026  16.276  69.220  1.00  0.00     0.051 C  
BRANCH  10  11
HETATM   11  C   UNL     1     -10.783  16.212  68.362  1.00  0.00    -0.298 A  
HETATM   12  C   UNL     1      -9.905  17.292  68.191  1.00  0.00    -0.290 A  
HETATM   13 CL   UNL     1     -10.074  18.757  69.089  1.00  0.00    -0.323 Cl 
HETATM   14  C   UNL     1      -8.882  17.226  67.238  1.00  0.00    -0.230 A  
HETATM   15  C   UNL     1      -8.727  16.095  66.430  1.00  0.00    -0.360 A  
HETATM   16  C   UNL     1      -9.569  14.992  66.597  1.00  0.00    -0.281 A  
HETATM   17  C   UNL     1     -10.560  15.054  67.597  1.00  0.00    -0.267 A  
BRANCH  16  18
HETATM   18  C   UNL     1      -9.550  13.787  65.663  1.00  0.00    -0.012 C  
HETATM   19  O   UNL     1     -10.793  13.677  64.943  1.00  0.00    -0.332 OA 
HETATM   20  C   UNL     1     -10.795  12.591  64.001  1.00  0.00    -0.406 C  
HETATM   21  H   UNL     1      -7.811  11.762  67.623  1.00  0.00     0.000 HD 
HETATM   22  C   UNL     1     -10.591  11.251  64.711  1.00  0.00    -0.312 C  
HETATM   23  O   UNL     1      -7.987  12.556  67.132  1.00  0.00    -0.175 OA 
HETATM   24  O   UNL     1     -10.528  10.147  63.797  1.00  0.00    -0.344 OA 
HETATM   25  C   UNL     1      -9.293  11.282  65.520  1.00  0.00    -0.221 C  
HETATM   26  H   UNL     1      -8.342  10.081  66.757  1.00  0.00     0.000 HD 
HETATM   27  O   UNL     1      -9.148  10.062  66.254  1.00  0.00    -0.145 OA 
HETATM   28  H   UNL     1     -10.401   9.315  64.239  1.00  0.00     0.000 HD 
HETATM   29  C   UNL     1      -9.260  12.488  66.467  1.00  0.00    -0.210 C  
BRANCH  20  30
HETATM   30  C   UNL     1     -12.133  12.604  63.245  1.00  0.00    -0.433 C  
HETATM   31  O   UNL     1     -13.163  12.083  64.083  1.00  0.00    -0.712 OA 
HETATM   32  H   UNL     1     -13.990  12.091  63.617  1.00  0.00     0.000 HD 
ENDBRANCH  20  30
ENDBRANCH  16  18
ENDBRANCH  10  11
ENDBRANCH   7  10
ENDBRANCH   3   4
ENDBRANCH   2   3
TORSDOF 6
ENDMDL
MODEL       34
REMARK 921   NORMALIZED FREE ENERGY PREDICTED BY IDOCK:   -6.50 KCAL/MOL
REMARK 922        TOTAL FREE ENERGY PREDICTED BY IDOCK:   -9.74 KCAL/MOL
REMARK 923 INTER-LIGAND FREE ENERGY PREDICTED BY IDOCK:   -8.60 KCAL/MOL
REMARK 924 INTRA-LIGAND FREE ENERGY PREDICTED BY IDOCK:   -1.14 KCAL/MOL
REMARK 927      BINDING AFFINITY PREDICTED BY RF-SCORE:    0.00 PKD
ROOT
HETATM    1  C   UNL     1     -13.362  15.688  72.954  1.00  0.00    -0.651 C  
HETATM    2  C   UNL     1     -11.900  15.625  72.555  1.00  0.00    -0.481 C  
ENDROOT
BRANCH   2   3
HETATM    3  O   UNL     1     -11.743  16.329  71.324  1.00  0.00    -0.435 OA 
BRANCH   3   4
HETATM    4  C   UNL     1     -11.405  15.587  70.227  1.00  0.00    -0.332 A  
HETATM    5  C   UNL     1     -12.266  14.773  69.493  1.00  0.00    -0.280 A  
HETATM    6  C   UNL     1     -11.792  14.070  68.380  1.00  0.00    -0.397 A  
HETATM    7  C   UNL     1     -10.452  14.168  67.983  1.00  0.00    -0.240 A  
HETATM    8  C   UNL     1     -10.065  15.676  69.845  1.00  0.00    -0.272 A  
HETATM    9  C   UNL     1      -9.588  14.973  68.734  1.00  0.00    -0.220 A  
BRANCH   7  10
HETATM   10  C   UNL     1      -9.953  13.348  66.818  1.00  0.00    -0.264 C  
BRANCH  10  11
HETATM   11  C   UNL     1      -9.949  11.846  66.993  1.00  0.00    -0.219 A  
HETATM   12  C   UNL     1     -10.107  10.943  65.933  1.00  0.00    -0.252 A  
HETATM   13 CL   UNL     1     -10.152  11.466  64.288  1.00  0.00    -0.319 Cl 
HETATM   14  C   UNL     1     -10.283   9.578  66.188  1.00  0.00    -0.272 A  
HETATM   15  C   UNL     1     -10.323   9.093  67.499  1.00  0.00    -0.324 A  
HETATM   16  C   UNL     1     -10.140   9.966  68.576  1.00  0.00    -0.186 A  
HETATM   17  C   UNL     1      -9.910  11.328  68.300  1.00  0.00    -0.201 A  
BRANCH  16  18
HETATM   18  C   UNL     1     -10.309   9.535  70.029  1.00  0.00    -0.247 C  
HETATM   19  O   UNL     1      -9.905   8.164  70.206  1.00  0.00    -0.182 OA 
HETATM   20  C   UNL     1      -9.985   7.733  71.576  1.00  0.00    -0.171 C  
HETATM   21  H   UNL     1     -13.074  11.245  70.658  1.00  0.00     0.000 HD 
HETATM   22  C   UNL     1     -11.422   7.828  72.094  1.00  0.00    -0.310 C  
HETATM   23  O   UNL     1     -12.174  11.120  70.381  1.00  0.00    -0.318 OA 
HETATM   24  O   UNL     1     -11.534   7.462  73.477  1.00  0.00    -0.582 OA 
HETATM   25  C   UNL     1     -11.942   9.256  71.930  1.00  0.00    -0.363 C  
HETATM   26  H   UNL     1     -13.638  10.211  72.229  1.00  0.00     0.000 HD 
HETATM   27  O   UNL     1     -13.315   9.324  72.332  1.00  0.00    -0.445 OA 
HETATM   28  H   UNL     1     -12.426   7.521  73.799  1.00  0.00     0.000 HD 
HETATM   29  C   UNL     1     -11.781   9.741  70.483  1.00  0.00    -0.268 C  
BRANCH  20  30
HETATM   30  C   UNL     1      -9.473   6.286  71.663  1.00  0.00    -0.147 C  
HETATM   31  O   UNL     1     -10.576   5.383  71.613  1.00  0.00    -0.227 OA 
HETATM   32  H   UNL     1     -10.260   4.489  71.667  1.00  0.00     0.000 HD 
ENDBRANCH  20  30
ENDBRANCH  16  18
ENDBRANCH  10  11
ENDBRANCH   7  10
ENDBRANCH   3   4
ENDBRANCH   2   3
TORSDOF 6
ENDMDL
MODEL       35
REMARK 921   NORMALIZED FREE ENERGY PREDICTED BY IDOCK:   -6.48 KCAL/MOL
REMARK 922        TOTAL FREE ENERGY PREDICTED BY IDOCK:   -9.72 KCAL/MOL
REMARK 923 INTER-LIGAND FREE ENERGY PREDICTED BY IDOCK:   -8.29 KCAL/MOL
REMARK 924 INTRA-LIGAND FREE ENERGY PREDICTED BY IDOCK:   -1.43 KCAL/MOL
REMARK 927      BINDING AFFINITY PREDICTED BY RF-SCORE:    0.00 PKD
ROOT
HETATM    1  C   UNL     1      -8.977   7.077  74.053  1.00  0.00    -0.228 C  
HETATM    2  C   UNL     1     -10.467   6.792  74.058  1.00  0.00    -0.272 C  
ENDROOT
BRANCH   2   3
HETATM    3  O   UNL     1     -10.684   5.543  73.404  1.00  0.00    -0.239 OA 
BRANCH   3   4
HETATM    4  C   UNL     1     -10.634   5.545  72.037  1.00  0.00    -0.228 A  
HETATM    5  C   UNL     1      -9.830   4.725  71.248  1.00  0.00    -0.256 A  
HETATM    6  C   UNL     1      -9.882   4.822  69.853  1.00  0.00    -0.291 A  
HETATM    7  C   UNL     1     -10.736   5.738  69.225  1.00  0.00    -0.386 A  
HETATM    8  C   UNL     1     -11.476   6.470  71.417  1.00  0.00    -0.360 A  
HETATM    9  C   UNL     1     -11.529   6.570  70.024  1.00  0.00    -0.476 A  
BRANCH   7  10
HETATM   10  C   UNL     1     -10.724   5.866  67.721  1.00  0.00    -0.346 C  
BRANCH  10  11
HETATM   11  C   UNL     1      -9.940   7.024  67.142  1.00  0.00    -0.248 A  
HETATM   12  C   UNL     1      -8.546   7.023  67.009  1.00  0.00    -0.122 A  
HETATM   13 CL   UNL     1      -7.597   5.620  67.343  1.00  0.00    -0.088 Cl 
HETATM   14  C   UNL     1      -7.870   8.194  66.643  1.00  0.00    -0.094 A  
HETATM   15  C   UNL     1      -8.570   9.385  66.422  1.00  0.00    -0.144 A  
HETATM   16  C   UNL     1      -9.965   9.408  66.519  1.00  0.00    -0.339 A  
HETATM   17  C   UNL     1     -10.632   8.209  66.836  1.00  0.00    -0.311 A  
BRANCH  16  18
HETATM   18  C   UNL     1     -10.779  10.694  66.429  1.00  0.00    -0.129 C  
HETATM   19  O   UNL     1     -10.758  11.220  65.088  1.00  0.00    -0.288 OA 
HETATM   20  C   UNL     1     -11.569  12.399  64.940  1.00  0.00    -0.343 C  
HETATM   21  H   UNL     1      -9.993  11.901  69.411  1.00  0.00     0.000 HD 
HETATM   22  C   UNL     1     -11.067  13.523  65.849  1.00  0.00    -0.284 C  
HETATM   23  O   UNL     1     -10.323  11.260  68.792  1.00  0.00    -0.195 OA 
HETATM   24  O   UNL     1     -11.886  14.699  65.775  1.00  0.00    -0.346 OA 
HETATM   25  C   UNL     1     -11.039  13.046  67.302  1.00  0.00    -0.273 C  
HETATM   26  H   UNL     1     -10.468  13.770  69.042  1.00  0.00     0.000 HD 
HETATM   27  O   UNL     1     -10.485  14.066  68.139  1.00  0.00    -0.232 OA 
HETATM   28  H   UNL     1     -11.574  15.397  66.339  1.00  0.00     0.000 HD 
HETATM   29  C   UNL     1     -10.240  11.744  67.442  1.00  0.00    -0.199 C  
BRANCH  20  30
HETATM   30  C   UNL     1     -11.530  12.836  63.468  1.00  0.00    -0.459 C  
HETATM   31  O   UNL     1     -12.459  13.899  63.258  1.00  0.00    -1.113 OA 
HETATM   32  H   UNL     1     -12.435  14.169  62.348  1.00  0.00     0.000 HD 
ENDBRANCH  20  30
ENDBRANCH  16  18
ENDBRANCH  10  11
ENDBRANCH   7  10
ENDBRANCH   3   4
ENDBRANCH   2   3
TORSDOF 6
ENDMDL
MODEL       36
REMARK 921   NORMALIZED FREE ENERGY PREDICTED BY IDOCK:   -6.46 KCAL/MOL
REMARK 922        TOTAL FREE ENERGY PREDICTED BY IDOCK:   -9.69 KCAL/MOL
REMARK 923 INTER-LIGAND FREE ENERGY PREDICTED BY IDOCK:   -8.62 KCAL/MOL
REMARK 924 INTRA-LIGAND FREE ENERGY PREDICTED BY IDOCK:   -1.07 KCAL/MOL
REMARK 927      BINDING AFFINITY PREDICTED BY RF-SCORE:    0.00 PKD
ROOT
HETATM    1  C   UNL     1     -12.495  15.261  73.907  1.00  0.00    -0.752 C  
HETATM    2  C   UNL     1     -12.146  16.147  72.726  1.00  0.00    -0.553 C  
ENDROOT
BRANCH   2   3
HETATM    3  O   UNL     1     -12.869  15.679  71.590  1.00  0.00    -0.415 OA 
BRANCH   3   4
HETATM    4  C   UNL     1     -12.141  15.391  70.469  1.00  0.00    -0.371 A  
HETATM    5  C   UNL     1     -12.239  14.229  69.707  1.00  0.00    -0.390 A  
HETATM    6  C   UNL     1     -11.437  14.061  68.572  1.00  0.00    -0.336 A  
HETATM    7  C   UNL     1     -10.525  15.051  68.182  1.00  0.00    -0.245 A  
HETATM    8  C   UNL     1     -11.223  16.373  70.093  1.00  0.00    -0.260 A  
HETATM    9  C   UNL     1     -10.419  16.208  68.961  1.00  0.00    -0.261 A  
BRANCH   7  10
HETATM   10  C   UNL     1      -9.627  14.816  66.991  1.00  0.00    -0.248 C  
BRANCH  10  11
HETATM   11  C   UNL     1     -10.116  13.830  65.953  1.00  0.00    -0.325 A  
HETATM   12  C   UNL     1     -10.929  14.188  64.869  1.00  0.00    -0.397 A  
HETATM   13 CL   UNL     1     -11.313  15.835  64.521  1.00  0.00    -0.396 Cl 
HETATM   14  C   UNL     1     -11.498  13.200  64.056  1.00  0.00    -0.455 A  
HETATM   15  C   UNL     1     -11.282  11.844  64.320  1.00  0.00    -0.424 A  
HETATM   16  C   UNL     1     -10.452  11.457  65.378  1.00  0.00    -0.336 A  
HETATM   17  C   UNL     1      -9.845  12.465  66.152  1.00  0.00    -0.263 A  
BRANCH  16  18
HETATM   18  C   UNL     1     -10.284  10.005  65.809  1.00  0.00    -0.200 C  
HETATM   19  O   UNL     1     -10.385   9.881  67.240  1.00  0.00    -0.214 OA 
HETATM   20  C   UNL     1     -10.298   8.517  67.688  1.00  0.00    -0.253 C  
HETATM   21  H   UNL     1      -8.010   9.157  63.556  1.00  0.00     0.000 HD 
HETATM   22  C   UNL     1      -8.953   7.900  67.297  1.00  0.00    -0.127 C  
HETATM   23  O   UNL     1      -8.840   9.497  63.866  1.00  0.00    -0.219 OA 
HETATM   24  O   UNL     1      -8.850   6.519  67.675  1.00  0.00    -0.115 OA 
HETATM   25  C   UNL     1      -8.751   8.002  65.785  1.00  0.00    -0.146 C  
HETATM   26  H   UNL     1      -7.330   7.570  64.492  1.00  0.00     0.000 HD 
HETATM   27  O   UNL     1      -7.456   7.506  65.431  1.00  0.00    -0.075 OA 
HETATM   28  H   UNL     1      -8.015   6.136  67.432  1.00  0.00     0.000 HD 
HETATM   29  C   UNL     1      -8.925   9.447  65.300  1.00  0.00    -0.204 C  
BRANCH  20  30
HETATM   30  C   UNL     1     -10.482   8.491  69.213  1.00  0.00    -0.215 C  
HETATM   31  O   UNL     1     -11.577   9.328  69.579  1.00  0.00    -0.427 OA 
HETATM   32  H   UNL     1     -11.691   9.312  70.522  1.00  0.00     0.000 HD 
ENDBRANCH  20  30
ENDBRANCH  16  18
ENDBRANCH  10  11
ENDBRANCH   7  10
ENDBRANCH   3   4
ENDBRANCH   2   3
TORSDOF 6
ENDMDL
MODEL       37
REMARK 921   NORMALIZED FREE ENERGY PREDICTED BY IDOCK:   -6.45 KCAL/MOL
REMARK 922        TOTAL FREE ENERGY PREDICTED BY IDOCK:   -9.68 KCAL/MOL
REMARK 923 INTER-LIGAND FREE ENERGY PREDICTED BY IDOCK:   -8.54 KCAL/MOL
REMARK 924 INTRA-LIGAND FREE ENERGY PREDICTED BY IDOCK:   -1.14 KCAL/MOL
REMARK 927      BINDING AFFINITY PREDICTED BY RF-SCORE:    0.00 PKD
ROOT
HETATM    1  C   UNL     1     -14.173   8.537  72.248  1.00  0.00    -0.471 C  
HETATM    2  C   UNL     1     -12.823   9.206  72.422  1.00  0.00    -0.367 C  
ENDROOT
BRANCH   2   3
HETATM    3  O   UNL     1     -12.944  10.566  72.008  1.00  0.00    -0.458 OA 
BRANCH   3   4
HETATM    4  C   UNL     1     -12.392  10.896  70.802  1.00  0.00    -0.390 A  
HETATM    5  C   UNL     1     -11.907   9.999  69.852  1.00  0.00    -0.141 A  
HETATM    6  C   UNL     1     -11.372  10.469  68.648  1.00  0.00    -0.315 A  
HETATM    7  C   UNL     1     -11.313  11.842  68.373  1.00  0.00    -0.328 A  
HETATM    8  C   UNL     1     -12.322  12.265  70.539  1.00  0.00    -0.349 A  
HETATM    9  C   UNL     1     -11.787  12.738  69.338  1.00  0.00    -0.359 A  
BRANCH   7  10
HETATM   10  C   UNL     1     -10.673  12.325  67.094  1.00  0.00    -0.265 C  
BRANCH  10  11
HETATM   11  C   UNL     1      -9.466  13.226  67.235  1.00  0.00    -0.233 A  
HETATM   12  C   UNL     1      -8.276  12.833  67.863  1.00  0.00    -0.168 A  
HETATM   13 CL   UNL     1      -8.016  11.210  68.391  1.00  0.00    -0.129 Cl 
HETATM   14  C   UNL     1      -7.272  13.773  68.126  1.00  0.00    -0.121 A  
HETATM   15  C   UNL     1      -7.444  15.119  67.784  1.00  0.00    -0.179 A  
HETATM   16  C   UNL     1      -8.608  15.535  67.131  1.00  0.00    -0.240 A  
HETATM   17  C   UNL     1      -9.585  14.566  66.826  1.00  0.00    -0.274 A  
BRANCH  16  18
HETATM   18  C   UNL     1      -8.923  17.000  66.854  1.00  0.00    -0.229 C  
HETATM   19  O   UNL     1      -7.753  17.695  66.381  1.00  0.00    -0.246 OA 
HETATM   20  C   UNL     1      -8.020  19.067  66.044  1.00  0.00    -0.193 C  
HETATM   21  H   UNL     1     -11.044  17.455  69.357  1.00  0.00     0.000 HD 
HETATM   22  C   UNL     1      -8.513  19.843  67.267  1.00  0.00    -0.324 C  
HETATM   23  O   UNL     1     -10.698  17.040  68.575  1.00  0.00    -0.353 OA 
HETATM   24  O   UNL     1      -8.847  21.204  66.959  1.00  0.00    -0.553 OA 
HETATM   25  C   UNL     1      -9.753  19.163  67.850  1.00  0.00    -0.333 C  
HETATM   26  H   UNL     1     -10.932  19.415  69.408  1.00  0.00     0.000 HD 
HETATM   27  O   UNL     1     -10.162  19.837  69.045  1.00  0.00    -0.434 OA 
HETATM   28  H   UNL     1      -9.154  21.686  67.719  1.00  0.00     0.000 HD 
HETATM   29  C   UNL     1      -9.489  17.679  68.133  1.00  0.00    -0.286 C  
BRANCH  20  30
HETATM   30  C   UNL     1      -6.729  19.694  65.492  1.00  0.00    -0.285 C  
HETATM   31  O   UNL     1      -7.036  20.917  64.826  1.00  0.00    -0.517 OA 
HETATM   32  H   UNL     1      -6.239  21.304  64.484  1.00  0.00     0.000 HD 
ENDBRANCH  20  30
ENDBRANCH  16  18
ENDBRANCH  10  11
ENDBRANCH   7  10
ENDBRANCH   3   4
ENDBRANCH   2   3
TORSDOF 6
ENDMDL
MODEL       38
REMARK 921   NORMALIZED FREE ENERGY PREDICTED BY IDOCK:   -6.45 KCAL/MOL
REMARK 922        TOTAL FREE ENERGY PREDICTED BY IDOCK:   -9.68 KCAL/MOL
REMARK 923 INTER-LIGAND FREE ENERGY PREDICTED BY IDOCK:   -8.69 KCAL/MOL
REMARK 924 INTRA-LIGAND FREE ENERGY PREDICTED BY IDOCK:   -0.99 KCAL/MOL
REMARK 927      BINDING AFFINITY PREDICTED BY RF-SCORE:    0.00 PKD
ROOT
HETATM    1  C   UNL     1     -11.572   6.361  72.247  1.00  0.00    -0.341 C  
HETATM    2  C   UNL     1     -12.085   6.729  70.867  1.00  0.00    -0.367 C  
ENDROOT
BRANCH   2   3
HETATM    3  O   UNL     1     -11.328   5.999  69.903  1.00  0.00    -0.400 OA 
BRANCH   3   4
HETATM    4  C   UNL     1     -10.619   6.732  68.992  1.00  0.00    -0.230 A  
HETATM    5  C   UNL     1      -9.585   7.619  69.284  1.00  0.00    -0.159 A  
HETATM    6  C   UNL     1      -8.932   8.303  68.253  1.00  0.00    -0.136 A  
HETATM    7  C   UNL     1      -9.301   8.113  66.915  1.00  0.00    -0.219 A  
HETATM    8  C   UNL     1     -11.000   6.549  67.662  1.00  0.00    -0.426 A  
HETATM    9  C   UNL     1     -10.351   7.232  66.629  1.00  0.00    -0.229 A  
BRANCH   7  10
HETATM   10  C   UNL     1      -8.623   8.911  65.828  1.00  0.00    -0.181 C  
BRANCH  10  11
HETATM   11  C   UNL     1      -9.453   9.978  65.149  1.00  0.00    -0.331 A  
HETATM   12  C   UNL     1      -9.463  10.184  63.763  1.00  0.00    -0.275 A  
HETATM   13 CL   UNL     1      -8.650   9.117  62.675  1.00  0.00    -0.215 Cl 
HETATM   14  C   UNL     1     -10.103  11.304  63.219  1.00  0.00    -0.428 A  
HETATM   15  C   UNL     1     -10.726  12.245  64.047  1.00  0.00    -0.438 A  
HETATM   16  C   UNL     1     -10.756  12.051  65.431  1.00  0.00    -0.330 A  
HETATM   17  C   UNL     1     -10.153  10.891  65.956  1.00  0.00    -0.303 A  
BRANCH  16  18
HETATM   18  C   UNL     1     -11.291  13.098  66.402  1.00  0.00    -0.315 C  
HETATM   19  O   UNL     1     -10.459  14.274  66.396  1.00  0.00    -0.274 OA 
HETATM   20  C   UNL     1     -10.963  15.316  67.249  1.00  0.00    -0.327 C  
HETATM   21  H   UNL     1     -12.345  11.006  68.742  1.00  0.00     0.000 HD 
HETATM   22  C   UNL     1     -11.031  14.846  68.703  1.00  0.00    -0.257 C  
HETATM   23  O   UNL     1     -12.282  11.370  67.867  1.00  0.00    -0.592 OA 
HETATM   24  O   UNL     1     -11.586  15.838  69.579  1.00  0.00    -0.323 OA 
HETATM   25  C   UNL     1     -11.888  13.583  68.804  1.00  0.00    -0.355 C  
HETATM   26  H   UNL     1     -12.411  12.308  70.211  1.00  0.00     0.000 HD 
HETATM   27  O   UNL     1     -11.878  13.093  70.148  1.00  0.00    -0.313 OA 
HETATM   28  H   UNL     1     -11.628  15.546  70.482  1.00  0.00     0.000 HD 
HETATM   29  C   UNL     1     -11.396  12.502  67.833  1.00  0.00    -0.291 C  
BRANCH  20  30
HETATM   30  C   UNL     1     -10.043  16.541  67.120  1.00  0.00    -0.274 C  
HETATM   31  O   UNL     1     -10.729  17.707  67.572  1.00  0.00    -0.358 OA 
HETATM   32  H   UNL     1     -10.160  18.463  67.492  1.00  0.00     0.000 HD 
ENDBRANCH  20  30
ENDBRANCH  16  18
ENDBRANCH  10  11
ENDBRANCH   7  10
ENDBRANCH   3   4
ENDBRANCH   2   3
TORSDOF 6
ENDMDL
MODEL       39
REMARK 921   NORMALIZED FREE ENERGY PREDICTED BY IDOCK:   -6.42 KCAL/MOL
REMARK 922        TOTAL FREE ENERGY PREDICTED BY IDOCK:   -9.64 KCAL/MOL
REMARK 923 INTER-LIGAND FREE ENERGY PREDICTED BY IDOCK:   -8.70 KCAL/MOL
REMARK 924 INTRA-LIGAND FREE ENERGY PREDICTED BY IDOCK:   -0.94 KCAL/MOL
REMARK 927      BINDING AFFINITY PREDICTED BY RF-SCORE:    0.00 PKD
ROOT
HETATM    1  C   UNL     1      -8.290   9.830  64.356  1.00  0.00    -0.169 C  
HETATM    2  C   UNL     1      -8.968   8.904  65.349  1.00  0.00    -0.182 C  
ENDROOT
BRANCH   2   3
HETATM    3  O   UNL     1      -8.539   9.267  66.660  1.00  0.00    -0.124 OA 
BRANCH   3   4
HETATM    4  C   UNL     1      -9.476   9.822  67.486  1.00  0.00    -0.147 A  
HETATM    5  C   UNL     1     -10.625  10.498  67.080  1.00  0.00    -0.319 A  
HETATM    6  C   UNL     1     -11.512  11.013  68.032  1.00  0.00    -0.365 A  
HETATM    7  C   UNL     1     -11.266  10.862  69.403  1.00  0.00    -0.335 A  
HETATM    8  C   UNL     1      -9.219   9.682  68.851  1.00  0.00    -0.147 A  
HETATM    9  C   UNL     1     -10.102  10.197  69.804  1.00  0.00    -0.269 A  
BRANCH   7  10
HETATM   10  C   UNL     1     -12.206  11.483  70.407  1.00  0.00    -0.442 C  
BRANCH  10  11
HETATM   11  C   UNL     1     -12.148  12.988  70.555  1.00  0.00    -0.373 A  
HETATM   12  C   UNL     1     -13.053  13.724  71.330  1.00  0.00    -0.337 A  
HETATM   13 CL   UNL     1     -14.229  12.957  72.335  1.00  0.00    -0.291 Cl 
HETATM   14  C   UNL     1     -13.059  15.123  71.272  1.00  0.00    -0.512 A  
HETATM   15  C   UNL     1     -12.177  15.808  70.430  1.00  0.00    -0.388 A  
HETATM   16  C   UNL     1     -11.243  15.101  69.666  1.00  0.00    -0.288 A  
HETATM   17  C   UNL     1     -11.216  13.697  69.777  1.00  0.00    -0.092 A  
BRANCH  16  18
HETATM   18  C   UNL     1     -10.350  15.768  68.626  1.00  0.00    -0.225 C  
HETATM   19  O   UNL     1     -10.055  17.128  69.001  1.00  0.00    -0.295 OA 
HETATM   20  C   UNL     1      -9.160  17.776  68.081  1.00  0.00    -0.274 C  
HETATM   21  H   UNL     1     -11.667  14.327  65.951  1.00  0.00     0.000 HD 
HETATM   22  C   UNL     1      -9.771  17.841  66.679  1.00  0.00    -0.313 C  
HETATM   23  O   UNL     1     -11.256  14.360  66.807  1.00  0.00    -0.318 OA 
HETATM   24  O   UNL     1      -8.883  18.429  65.718  1.00  0.00    -0.433 OA 
HETATM   25  C   UNL     1     -10.133  16.433  66.203  1.00  0.00    -0.346 C  
HETATM   26  H   UNL     1     -11.010  15.628  64.635  1.00  0.00     0.000 HD 
HETATM   27  O   UNL     1     -10.785  16.502  64.931  1.00  0.00    -0.702 OA 
HETATM   28  H   UNL     1      -9.262  18.469  64.847  1.00  0.00     0.000 HD 
HETATM   29  C   UNL     1     -11.022  15.715  67.225  1.00  0.00    -0.275 C  
BRANCH  20  30
HETATM   30  C   UNL     1      -8.861  19.190  68.606  1.00  0.00    -0.365 C  
HETATM   31  O   UNL     1      -9.707  20.134  67.952  1.00  0.00    -0.370 OA 
HETATM   32  H   UNL     1      -9.522  21.007  68.275  1.00  0.00     0.000 HD 
ENDBRANCH  20  30
ENDBRANCH  16  18
ENDBRANCH  10  11
ENDBRANCH   7  10
ENDBRANCH   3   4
ENDBRANCH   2   3
TORSDOF 6
ENDMDL
MODEL       40
REMARK 921   NORMALIZED FREE ENERGY PREDICTED BY IDOCK:   -6.42 KCAL/MOL
REMARK 922        TOTAL FREE ENERGY PREDICTED BY IDOCK:   -9.64 KCAL/MOL
REMARK 923 INTER-LIGAND FREE ENERGY PREDICTED BY IDOCK:   -9.02 KCAL/MOL
REMARK 924 INTRA-LIGAND FREE ENERGY PREDICTED BY IDOCK:   -0.62 KCAL/MOL
REMARK 927      BINDING AFFINITY PREDICTED BY RF-SCORE:    0.00 PKD
ROOT
HETATM    1  C   UNL     1     -14.161   9.042  72.276  1.00  0.00    -0.485 C  
HETATM    2  C   UNL     1     -12.761   9.536  71.960  1.00  0.00    -0.396 C  
ENDROOT
BRANCH   2   3
HETATM    3  O   UNL     1     -12.814  10.953  71.806  1.00  0.00    -0.431 OA 
BRANCH   3   4
HETATM    4  C   UNL     1     -12.364  11.463  70.620  1.00  0.00    -0.373 A  
HETATM    5  C   UNL     1     -12.097  10.731  69.464  1.00  0.00    -0.344 A  
HETATM    6  C   UNL     1     -11.647  11.379  68.309  1.00  0.00    -0.376 A  
HETATM    7  C   UNL     1     -11.457  12.767  68.288  1.00  0.00    -0.354 A  
HETATM    8  C   UNL     1     -12.163  12.844  70.609  1.00  0.00    -0.386 A  
HETATM    9  C   UNL     1     -11.712  13.494  69.457  1.00  0.00    -0.382 A  
BRANCH   7  10
HETATM   10  C   UNL     1     -10.910  13.432  67.049  1.00  0.00    -0.280 C  
BRANCH  10  11
HETATM   11  C   UNL     1      -9.451  13.828  67.076  1.00  0.00    -0.255 A  
HETATM   12  C   UNL     1      -8.405  12.913  67.257  1.00  0.00    -0.185 A  
HETATM   13 CL   UNL     1      -8.678  11.209  67.299  1.00  0.00    -0.137 Cl 
HETATM   14  C   UNL     1      -7.096  13.368  67.461  1.00  0.00    -0.154 A  
HETATM   15  C   UNL     1      -6.812  14.737  67.504  1.00  0.00    -0.181 A  
HETATM   16  C   UNL     1      -7.831  15.673  67.298  1.00  0.00    -0.230 A  
HETATM   17  C   UNL     1      -9.132  15.197  67.042  1.00  0.00    -0.249 A  
BRANCH  16  18
HETATM   18  C   UNL     1      -7.623  17.173  67.469  1.00  0.00    -0.170 C  
HETATM   19  O   UNL     1      -8.873  17.835  67.741  1.00  0.00    -0.242 OA 
HETATM   20  C   UNL     1      -8.716  19.245  67.975  1.00  0.00    -0.317 C  
HETATM   21  H   UNL     1      -5.248  17.534  65.190  1.00  0.00     0.000 HD 
HETATM   22  C   UNL     1      -8.121  19.939  66.748  1.00  0.00    -0.315 C  
HETATM   23  O   UNL     1      -5.662  17.169  65.963  1.00  0.00    -0.280 OA 
HETATM   24  O   UNL     1      -7.894  21.340  66.963  1.00  0.00    -0.717 OA 
HETATM   25  C   UNL     1      -6.789  19.287  66.374  1.00  0.00    -0.205 C  
HETATM   26  H   UNL     1      -5.450  19.471  64.943  1.00  0.00     0.000 HD 
HETATM   27  O   UNL     1      -6.277  19.877  65.175  1.00  0.00    -0.222 OA 
HETATM   28  H   UNL     1      -7.524  21.771  66.201  1.00  0.00     0.000 HD 
HETATM   29  C   UNL     1      -6.945  17.770  66.204  1.00  0.00    -0.303 C  
BRANCH  20  30
HETATM   30  C   UNL     1     -10.092  19.839  68.318  1.00  0.00    -0.458 C  
HETATM   31  O   UNL     1     -10.302  19.781  69.727  1.00  0.00    -0.591 OA 
HETATM   32  H   UNL     1     -11.152  20.148  69.939  1.00  0.00     0.000 HD 
ENDBRANCH  20  30
ENDBRANCH  16  18
ENDBRANCH  10  11
ENDBRANCH   7  10
ENDBRANCH   3   4
ENDBRANCH   2   3
TORSDOF 6
ENDMDL
MODEL       41
REMARK 921   NORMALIZED FREE ENERGY PREDICTED BY IDOCK:   -6.41 KCAL/MOL
REMARK 922        TOTAL FREE ENERGY PREDICTED BY IDOCK:   -9.63 KCAL/MOL
REMARK 923 INTER-LIGAND FREE ENERGY PREDICTED BY IDOCK:   -8.27 KCAL/MOL
REMARK 924 INTRA-LIGAND FREE ENERGY PREDICTED BY IDOCK:   -1.36 KCAL/MOL
REMARK 927      BINDING AFFINITY PREDICTED BY RF-SCORE:    0.00 PKD
ROOT
HETATM    1  C   UNL     1      -9.420   7.420  71.687  1.00  0.00    -0.163 C  
HETATM    2  C   UNL     1     -10.032   6.622  70.549  1.00  0.00    -0.179 C  
ENDROOT
BRANCH   2   3
HETATM    3  O   UNL     1      -9.085   6.571  69.483  1.00  0.00    -0.139 OA 
BRANCH   3   4
HETATM    4  C   UNL     1      -9.160   7.559  68.542  1.00  0.00    -0.134 A  
HETATM    5  C   UNL     1      -8.193   8.532  68.300  1.00  0.00    -0.123 A  
HETATM    6  C   UNL     1      -8.391   9.487  67.296  1.00  0.00    -0.125 A  
HETATM    7  C   UNL     1      -9.556   9.485  66.519  1.00  0.00    -0.259 A  
HETATM    8  C   UNL     1     -10.331   7.562  67.781  1.00  0.00    -0.278 A  
HETATM    9  C   UNL     1     -10.532   8.515  66.778  1.00  0.00    -0.308 A  
BRANCH   7  10
HETATM   10  C   UNL     1      -9.772  10.565  65.486  1.00  0.00    -0.298 C  
BRANCH  10  11
HETATM   11  C   UNL     1     -10.817  11.612  65.804  1.00  0.00    -0.334 A  
HETATM   12  C   UNL     1     -11.693  12.144  64.849  1.00  0.00    -0.313 A  
HETATM   13 CL   UNL     1     -11.775  11.525  63.239  1.00  0.00    -0.278 Cl 
HETATM   14  C   UNL     1     -12.504  13.241  65.167  1.00  0.00    -0.525 A  
HETATM   15  C   UNL     1     -12.441  13.834  66.433  1.00  0.00    -0.404 A  
HETATM   16  C   UNL     1     -11.597  13.307  67.415  1.00  0.00    -0.396 A  
HETATM   17  C   UNL     1     -10.829  12.171  67.094  1.00  0.00    -0.286 A  
BRANCH  16  18
HETATM   18  C   UNL     1     -11.374  13.982  68.763  1.00  0.00    -0.278 C  
HETATM   19  O   UNL     1     -12.526  13.818  69.614  1.00  0.00    -0.281 OA 
HETATM   20  C   UNL     1     -12.334  14.383  70.923  1.00  0.00    -0.349 C  
HETATM   21  H   UNL     1      -9.654  16.584  67.654  1.00  0.00     0.000 HD 
HETATM   22  C   UNL     1     -12.076  15.889  70.835  1.00  0.00    -0.374 C  
HETATM   23  O   UNL     1      -9.855  15.664  67.776  1.00  0.00    -0.219 OA 
HETATM   24  O   UNL     1     -11.822  16.480  72.117  1.00  0.00    -0.619 OA 
HETATM   25  C   UNL     1     -10.872  16.160  69.931  1.00  0.00    -0.355 C  
HETATM   26  H   UNL     1      -9.938  17.739  69.217  1.00  0.00     0.000 HD 
HETATM   27  O   UNL     1     -10.686  17.570  69.778  1.00  0.00     0.095 OA 
HETATM   28  H   UNL     1     -11.662  17.415  72.062  1.00  0.00     0.000 HD 
HETATM   29  C   UNL     1     -11.044  15.487  68.564  1.00  0.00    -0.307 C  
BRANCH  20  30
HETATM   30  C   UNL     1     -13.588  14.098  71.765  1.00  0.00    -0.399 C  
HETATM   31  O   UNL     1     -13.292  14.291  73.147  1.00  0.00    -0.643 OA 
HETATM   32  H   UNL     1     -14.066  14.114  73.668  1.00  0.00     0.000 HD 
ENDBRANCH  20  30
ENDBRANCH  16  18
ENDBRANCH  10  11
ENDBRANCH   7  10
ENDBRANCH   3   4
ENDBRANCH   2   3
TORSDOF 6
ENDMDL
MODEL       42
REMARK 921   NORMALIZED FREE ENERGY PREDICTED BY IDOCK:   -6.35 KCAL/MOL
REMARK 922        TOTAL FREE ENERGY PREDICTED BY IDOCK:   -9.55 KCAL/MOL
REMARK 923 INTER-LIGAND FREE ENERGY PREDICTED BY IDOCK:   -8.70 KCAL/MOL
REMARK 924 INTRA-LIGAND FREE ENERGY PREDICTED BY IDOCK:   -0.85 KCAL/MOL
REMARK 927      BINDING AFFINITY PREDICTED BY RF-SCORE:    0.00 PKD
ROOT
HETATM    1  C   UNL     1      -5.828   8.526  66.713  1.00  0.00    -0.049 C  
HETATM    2  C   UNL     1      -5.413   8.290  68.153  1.00  0.00    -0.034 C  
ENDROOT
BRANCH   2   3
HETATM    3  O   UNL     1      -6.417   7.493  68.780  1.00  0.00    -0.044 OA 
BRANCH   3   4
HETATM    4  C   UNL     1      -7.590   8.117  69.101  1.00  0.00    -0.096 A  
HETATM    5  C   UNL     1      -7.741   9.144  70.031  1.00  0.00    -0.088 A  
HETATM    6  C   UNL     1      -9.002   9.705  70.262  1.00  0.00    -0.263 A  
HETATM    7  C   UNL     1     -10.131   9.250  69.568  1.00  0.00    -0.205 A  
HETATM    8  C   UNL     1      -8.714   7.650  68.418  1.00  0.00    -0.127 A  
HETATM    9  C   UNL     1      -9.976   8.207  68.648  1.00  0.00    -0.201 A  
BRANCH   7  10
HETATM   10  C   UNL     1     -11.489   9.828  69.883  1.00  0.00    -0.190 C  
BRANCH  10  11
HETATM   11  C   UNL     1     -11.602  11.337  69.890  1.00  0.00    -0.413 A  
HETATM   12  C   UNL     1     -12.296  12.055  70.873  1.00  0.00    -0.285 A  
HETATM   13 CL   UNL     1     -12.950  11.288  72.274  1.00  0.00    -0.206 Cl 
HETATM   14  C   UNL     1     -12.520  13.429  70.717  1.00  0.00    -0.418 A  
HETATM   15  C   UNL     1     -12.075  14.103  69.575  1.00  0.00    -0.388 A  
HETATM   16  C   UNL     1     -11.355  13.417  68.591  1.00  0.00    -0.322 A  
HETATM   17  C   UNL     1     -11.092  12.048  68.789  1.00  0.00    -0.298 A  
BRANCH  16  18
HETATM   18  C   UNL     1     -10.962  14.051  67.262  1.00  0.00    -0.295 C  
HETATM   19  O   UNL     1     -10.736  15.465  67.416  1.00  0.00    -0.284 OA 
HETATM   20  C   UNL     1     -10.298  16.094  66.199  1.00  0.00    -0.339 C  
HETATM   21  H   UNL     1     -12.909  12.205  65.321  1.00  0.00     0.000 HD 
HETATM   22  C   UNL     1     -11.350  15.946  65.099  1.00  0.00    -0.118 C  
HETATM   23  O   UNL     1     -12.240  12.371  65.975  1.00  0.00    -0.636 OA 
HETATM   24  O   UNL     1     -10.925  16.509  63.849  1.00  0.00    -0.974 OA 
HETATM   25  C   UNL     1     -11.667  14.466  64.876  1.00  0.00    -0.408 C  
HETATM   26  H   UNL     1     -12.912  13.413  63.772  1.00  0.00     0.000 HD 
HETATM   27  O   UNL     1     -12.715  14.332  63.910  1.00  0.00    -0.749 OA 
HETATM   28  H   UNL     1     -11.579  16.417  63.166  1.00  0.00     0.000 HD 
HETATM   29  C   UNL     1     -12.056  13.780  66.191  1.00  0.00    -0.441 C  
BRANCH  20  30
HETATM   30  C   UNL     1     -10.024  17.579  66.488  1.00  0.00    -0.321 C  
HETATM   31  O   UNL     1      -8.797  17.969  65.876  1.00  0.00    -0.504 OA 
HETATM   32  H   UNL     1      -8.628  18.887  66.055  1.00  0.00     0.000 HD 
ENDBRANCH  20  30
ENDBRANCH  16  18
ENDBRANCH  10  11
ENDBRANCH   7  10
ENDBRANCH   3   4
ENDBRANCH   2   3
TORSDOF 6
ENDMDL
MODEL       43
REMARK 921   NORMALIZED FREE ENERGY PREDICTED BY IDOCK:   -6.35 KCAL/MOL
REMARK 922        TOTAL FREE ENERGY PREDICTED BY IDOCK:   -9.55 KCAL/MOL
REMARK 923 INTER-LIGAND FREE ENERGY PREDICTED BY IDOCK:   -9.13 KCAL/MOL
REMARK 924 INTRA-LIGAND FREE ENERGY PREDICTED BY IDOCK:   -0.42 KCAL/MOL
REMARK 927      BINDING AFFINITY PREDICTED BY RF-SCORE:    0.00 PKD
ROOT
HETATM    1  C   UNL     1      -9.861   4.954  72.570  1.00  0.00    -0.202 C  
HETATM    2  C   UNL     1     -10.689   5.863  73.461  1.00  0.00    -0.259 C  
ENDROOT
BRANCH   2   3
HETATM    3  O   UNL     1     -10.063   7.144  73.492  1.00  0.00    -0.259 OA 
BRANCH   3   4
HETATM    4  C   UNL     1     -10.442   8.040  72.531  1.00  0.00    -0.316 A  
HETATM    5  C   UNL     1      -9.585   8.831  71.768  1.00  0.00    -0.371 A  
HETATM    6  C   UNL     1     -10.104   9.705  70.807  1.00  0.00    -0.293 A  
HETATM    7  C   UNL     1     -11.485   9.804  70.592  1.00  0.00    -0.397 A  
HETATM    8  C   UNL     1     -11.819   8.145  72.331  1.00  0.00    -0.448 A  
HETATM    9  C   UNL     1     -12.340   9.019  71.372  1.00  0.00    -0.380 A  
BRANCH   7  10
HETATM   10  C   UNL     1     -12.020  10.801  69.593  1.00  0.00    -0.385 C  
BRANCH  10  11
HETATM   11  C   UNL     1     -11.290  10.901  68.272  1.00  0.00    -0.374 A  
HETATM   12  C   UNL     1     -10.700   9.805  67.630  1.00  0.00    -0.274 A  
HETATM   13 CL   UNL     1     -10.898   8.191  68.210  1.00  0.00    -0.056 Cl 
HETATM   14  C   UNL     1      -9.881   9.998  66.510  1.00  0.00    -0.267 A  
HETATM   15  C   UNL     1      -9.625  11.285  66.025  1.00  0.00    -0.245 A  
HETATM   16  C   UNL     1     -10.222  12.396  66.628  1.00  0.00    -0.241 A  
HETATM   17  C   UNL     1     -11.085  12.178  67.720  1.00  0.00    -0.302 A  
BRANCH  16  18
HETATM   18  C   UNL     1      -9.880  13.830  66.243  1.00  0.00    -0.303 C  
HETATM   19  O   UNL     1      -9.735  14.654  67.416  1.00  0.00    -0.215 OA 
HETATM   20  C   UNL     1      -9.346  16.003  67.104  1.00  0.00    -0.211 C  
HETATM   21  H   UNL     1     -11.736  13.988  63.505  1.00  0.00     0.000 HD 
HETATM   22  C   UNL     1     -10.399  16.685  66.228  1.00  0.00    -0.317 C  
HETATM   23  O   UNL     1     -11.071  13.636  64.085  1.00  0.00    -0.354 OA 
HETATM   24  O   UNL     1     -10.020  18.015  65.844  1.00  0.00    -0.541 OA 
HETATM   25  C   UNL     1     -10.632  15.865  64.957  1.00  0.00    -0.346 C  
HETATM   26  H   UNL     1     -11.824  15.947  63.392  1.00  0.00     0.000 HD 
HETATM   27  O   UNL     1     -11.680  16.456  64.182  1.00  0.00    -0.921 OA 
HETATM   28  H   UNL     1     -10.674  18.439  65.300  1.00  0.00     0.000 HD 
HETATM   29  C   UNL     1     -10.967  14.407  65.293  1.00  0.00    -0.350 C  
BRANCH  20  30
HETATM   30  C   UNL     1      -9.157  16.774  68.420  1.00  0.00    -0.233 C  
HETATM   31  O   UNL     1      -8.252  17.857  68.216  1.00  0.00    -0.272 OA 
HETATM   32  H   UNL     1      -8.135  18.334  69.029  1.00  0.00     0.000 HD 
ENDBRANCH  20  30
ENDBRANCH  16  18
ENDBRANCH  10  11
ENDBRANCH   7  10
ENDBRANCH   3   4
ENDBRANCH   2   3
TORSDOF 6
ENDMDL
MODEL       44
REMARK 921   NORMALIZED FREE ENERGY PREDICTED BY IDOCK:   -6.35 KCAL/MOL
REMARK 922        TOTAL FREE ENERGY PREDICTED BY IDOCK:   -9.54 KCAL/MOL
REMARK 923 INTER-LIGAND FREE ENERGY PREDICTED BY IDOCK:   -9.15 KCAL/MOL
REMARK 924 INTRA-LIGAND FREE ENERGY PREDICTED BY IDOCK:   -0.39 KCAL/MOL
REMARK 927      BINDING AFFINITY PREDICTED BY RF-SCORE:    0.00 PKD
ROOT
HETATM    1  C   UNL     1      -9.643   7.396  71.212  1.00  0.00    -0.166 C  
HETATM    2  C   UNL     1     -10.371   8.436  70.381  1.00  0.00    -0.205 C  
ENDROOT
BRANCH   2   3
HETATM    3  O   UNL     1     -10.644   7.871  69.100  1.00  0.00    -0.219 OA 
BRANCH   3   4
HETATM    4  C   UNL     1     -10.417   8.667  68.012  1.00  0.00    -0.197 A  
HETATM    5  C   UNL     1      -9.763   8.285  66.842  1.00  0.00    -0.291 A  
HETATM    6  C   UNL     1      -9.603   9.199  65.795  1.00  0.00    -0.323 A  
HETATM    7  C   UNL     1     -10.092  10.508  65.900  1.00  0.00    -0.323 A  
HETATM    8  C   UNL     1     -10.893   9.974  68.127  1.00  0.00    -0.303 A  
HETATM    9  C   UNL     1     -10.733  10.890  67.083  1.00  0.00    -0.320 A  
BRANCH   7  10
HETATM   10  C   UNL     1      -9.849  11.492  64.781  1.00  0.00    -0.286 C  
BRANCH  10  11
HETATM   11  C   UNL     1     -10.568  12.820  64.874  1.00  0.00    -0.336 A  
HETATM   12  C   UNL     1     -11.752  13.108  64.183  1.00  0.00    -0.418 A  
HETATM   13 CL   UNL     1     -12.601  11.904  63.284  1.00  0.00    -0.635 Cl 
HETATM   14  C   UNL     1     -12.260  14.413  64.165  1.00  0.00    -0.393 A  
HETATM   15  C   UNL     1     -11.588  15.452  64.818  1.00  0.00    -0.286 A  
HETATM   16  C   UNL     1     -10.419  15.189  65.539  1.00  0.00    -0.400 A  
HETATM   17  C   UNL     1      -9.952  13.861  65.591  1.00  0.00    -0.298 A  
BRANCH  16  18
HETATM   18  C   UNL     1      -9.562  16.288  66.155  1.00  0.00    -0.331 C  
HETATM   19  O   UNL     1      -9.022  15.867  67.422  1.00  0.00    -0.187 OA 
HETATM   20  C   UNL     1      -8.151  16.849  68.010  1.00  0.00    -0.194 C  
HETATM   21  H   UNL     1     -11.385  18.862  65.145  1.00  0.00     0.000 HD 
HETATM   22  C   UNL     1      -8.904  18.154  68.278  1.00  0.00    -0.283 C  
HETATM   23  O   UNL     1     -10.877  18.065  65.047  1.00  0.00    -0.738 OA 
HETATM   24  O   UNL     1      -8.055  19.181  68.811  1.00  0.00    -0.353 OA 
HETATM   25  C   UNL     1      -9.529  18.671  66.981  1.00  0.00    -0.298 C  
HETATM   26  H   UNL     1     -10.695  20.164  66.443  1.00  0.00     0.000 HD 
HETATM   27  O   UNL     1     -10.307  19.843  67.249  1.00  0.00    -0.417 OA 
HETATM   28  H   UNL     1      -8.522  19.991  68.977  1.00  0.00     0.000 HD 
HETATM   29  C   UNL     1     -10.393  17.593  66.315  1.00  0.00    -0.342 C  
BRANCH  20  30
HETATM   30  C   UNL     1      -7.581  16.276  69.317  1.00  0.00    -0.203 C  
HETATM   31  O   UNL     1      -8.332  15.127  69.706  1.00  0.00    -0.401 OA 
HETATM   32  H   UNL     1      -7.980  14.773  70.514  1.00  0.00     0.000 HD 
ENDBRANCH  20  30
ENDBRANCH  16  18
ENDBRANCH  10  11
ENDBRANCH   7  10
ENDBRANCH   3   4
ENDBRANCH   2   3
TORSDOF 6
ENDMDL
MODEL       45
REMARK 921   NORMALIZED FREE ENERGY PREDICTED BY IDOCK:   -6.33 KCAL/MOL
REMARK 922        TOTAL FREE ENERGY PREDICTED BY IDOCK:   -9.51 KCAL/MOL
REMARK 923 INTER-LIGAND FREE ENERGY PREDICTED BY IDOCK:   -8.62 KCAL/MOL
REMARK 924 INTRA-LIGAND FREE ENERGY PREDICTED BY IDOCK:   -0.89 KCAL/MOL
REMARK 927      BINDING AFFINITY PREDICTED BY RF-SCORE:    0.00 PKD
ROOT
HETATM    1  C   UNL     1      -8.648  11.404  62.432  1.00  0.00    -0.077 C  
HETATM    2  C   UNL     1      -9.971  10.787  62.847  1.00  0.00    -0.185 C  
ENDROOT
BRANCH   2   3
HETATM    3  O   UNL     1     -10.853  11.840  63.230  1.00  0.00    -0.374 OA 
BRANCH   3   4
HETATM    4  C   UNL     1     -11.084  11.997  64.568  1.00  0.00    -0.331 A  
HETATM    5  C   UNL     1     -11.828  13.019  65.155  1.00  0.00    -0.404 A  
HETATM    6  C   UNL     1     -11.996  13.059  66.543  1.00  0.00    -0.457 A  
HETATM    7  C   UNL     1     -11.426  12.080  67.367  1.00  0.00    -0.406 A  
HETATM    8  C   UNL     1     -10.501  11.027  65.385  1.00  0.00    -0.306 A  
HETATM    9  C   UNL     1     -10.667  11.065  66.773  1.00  0.00    -0.319 A  
BRANCH   7  10
HETATM   10  C   UNL     1     -11.569  12.183  68.866  1.00  0.00    -0.377 C  
BRANCH  10  11
HETATM   11  C   UNL     1     -11.358  13.551  69.478  1.00  0.00    -0.265 A  
HETATM   12  C   UNL     1     -12.061  14.014  70.598  1.00  0.00    -0.354 A  
HETATM   13 CL   UNL     1     -13.126  12.992  71.494  1.00  0.00    -0.442 Cl 
HETATM   14  C   UNL     1     -11.954  15.352  70.996  1.00  0.00    -0.409 A  
HETATM   15  C   UNL     1     -11.160  16.251  70.277  1.00  0.00    -0.340 A  
HETATM   16  C   UNL     1     -10.424  15.812  69.172  1.00  0.00    -0.240 A  
HETATM   17  C   UNL     1     -10.503  14.450  68.818  1.00  0.00    -0.244 A  
BRANCH  16  18
HETATM   18  C   UNL     1      -9.652  16.760  68.262  1.00  0.00    -0.244 C  
HETATM   19  O   UNL     1      -8.939  17.744  69.035  1.00  0.00    -0.160 OA 
HETATM   20  C   UNL     1      -8.143  18.620  68.219  1.00  0.00    -0.314 C  
HETATM   21  H   UNL     1     -11.873  16.891  65.809  1.00  0.00     0.000 HD 
HETATM   22  C   UNL     1      -9.020  19.400  67.237  1.00  0.00    -0.299 C  
HETATM   23  O   UNL     1     -11.283  16.474  66.425  1.00  0.00     0.138 OA 
HETATM   24  O   UNL     1      -8.256  20.243  66.364  1.00  0.00    -0.472 OA 
HETATM   25  C   UNL     1      -9.832  18.428  66.379  1.00  0.00    -0.360 C  
HETATM   26  H   UNL     1     -11.223  18.554  64.991  1.00  0.00     0.000 HD 
HETATM   27  O   UNL     1     -10.718  19.157  65.524  1.00  0.00    -0.507 OA 
HETATM   28  H   UNL     1      -8.801  20.727  65.754  1.00  0.00     0.000 HD 
HETATM   29  C   UNL     1     -10.618  17.442  67.253  1.00  0.00    -0.284 C  
BRANCH  20  30
HETATM   30  C   UNL     1      -7.377  19.583  69.141  1.00  0.00    -0.329 C  
HETATM   31  O   UNL     1      -6.284  20.161  68.430  1.00  0.00    -0.258 OA 
HETATM   32  H   UNL     1      -5.811  20.756  69.000  1.00  0.00     0.000 HD 
ENDBRANCH  20  30
ENDBRANCH  16  18
ENDBRANCH  10  11
ENDBRANCH   7  10
ENDBRANCH   3   4
ENDBRANCH   2   3
TORSDOF 6
ENDMDL
MODEL       46
REMARK 921   NORMALIZED FREE ENERGY PREDICTED BY IDOCK:   -6.31 KCAL/MOL
REMARK 922        TOTAL FREE ENERGY PREDICTED BY IDOCK:   -9.49 KCAL/MOL
REMARK 923 INTER-LIGAND FREE ENERGY PREDICTED BY IDOCK:   -8.13 KCAL/MOL
REMARK 924 INTRA-LIGAND FREE ENERGY PREDICTED BY IDOCK:   -1.35 KCAL/MOL
REMARK 927      BINDING AFFINITY PREDICTED BY RF-SCORE:    0.00 PKD
ROOT
HETATM    1  C   UNL     1      -5.699  19.003  65.806  1.00  0.00    -0.193 C  
HETATM    2  C   UNL     1      -6.374  17.655  65.980  1.00  0.00    -0.218 C  
ENDROOT
BRANCH   2   3
HETATM    3  O   UNL     1      -7.769  17.821  65.732  1.00  0.00    -0.541 OA 
BRANCH   3   4
HETATM    4  C   UNL     1      -8.627  17.334  66.679  1.00  0.00    -0.257 A  
HETATM    5  C   UNL     1      -9.981  17.643  66.791  1.00  0.00    -0.320 A  
HETATM    6  C   UNL     1     -10.753  17.067  67.805  1.00  0.00    -0.318 A  
HETATM    7  C   UNL     1     -10.186  16.175  68.724  1.00  0.00    -0.238 A  
HETATM    8  C   UNL     1      -8.053  16.457  67.601  1.00  0.00    -0.170 A  
HETATM    9  C   UNL     1      -8.822  15.881  68.617  1.00  0.00    -0.206 A  
BRANCH   7  10
HETATM   10  C   UNL     1     -11.027  15.618  69.848  1.00  0.00    -0.323 C  
BRANCH  10  11
HETATM   11  C   UNL     1     -11.560  14.214  69.668  1.00  0.00    -0.349 A  
HETATM   12  C   UNL     1     -12.226  13.505  70.676  1.00  0.00    -0.358 A  
HETATM   13 CL   UNL     1     -12.653  14.239  72.179  1.00  0.00    -0.374 Cl 
HETATM   14  C   UNL     1     -12.524  12.147  70.507  1.00  0.00    -0.282 A  
HETATM   15  C   UNL     1     -12.149  11.472  69.340  1.00  0.00    -0.345 A  
HETATM   16  C   UNL     1     -11.509  12.160  68.305  1.00  0.00    -0.360 A  
HETATM   17  C   UNL     1     -11.264  13.537  68.471  1.00  0.00    -0.310 A  
BRANCH  16  18
HETATM   18  C   UNL     1     -10.948  11.463  67.071  1.00  0.00    -0.292 C  
HETATM   19  O   UNL     1      -9.525  11.278  67.189  1.00  0.00    -0.168 OA 
HETATM   20  C   UNL     1      -8.962  10.564  66.075  1.00  0.00    -0.167 C  
HETATM   21  H   UNL     1     -12.930  12.898  64.839  1.00  0.00     0.000 HD 
HETATM   22  C   UNL     1      -9.189  11.327  64.768  1.00  0.00    -0.089 C  
HETATM   23  O   UNL     1     -12.718  12.403  65.621  1.00  0.00    -0.462 OA 
HETATM   24  O   UNL     1      -8.693  10.618  63.623  1.00  0.00    -0.183 OA 
HETATM   25  C   UNL     1     -10.683  11.583  64.566  1.00  0.00    -0.329 C  
HETATM   26  H   UNL     1     -11.815  12.533  63.264  1.00  0.00     0.000 HD 
HETATM   27  O   UNL     1     -10.887  12.374  63.390  1.00  0.00    -0.451 OA 
HETATM   28  H   UNL     1      -8.834  11.092  62.811  1.00  0.00     0.000 HD 
HETATM   29  C   UNL     1     -11.296  12.273  65.791  1.00  0.00    -0.355 C  
BRANCH  20  30
HETATM   30  C   UNL     1      -7.460  10.366  66.331  1.00  0.00    -0.120 C  
HETATM   31  O   UNL     1      -6.707  11.104  65.371  1.00  0.00    -0.354 OA 
HETATM   32  H   UNL     1      -5.779  10.981  65.529  1.00  0.00     0.000 HD 
ENDBRANCH  20  30
ENDBRANCH  16  18
ENDBRANCH  10  11
ENDBRANCH   7  10
ENDBRANCH   3   4
ENDBRANCH   2   3
TORSDOF 6
ENDMDL
MODEL       47
REMARK 921   NORMALIZED FREE ENERGY PREDICTED BY IDOCK:   -6.30 KCAL/MOL
REMARK 922        TOTAL FREE ENERGY PREDICTED BY IDOCK:   -9.47 KCAL/MOL
REMARK 923 INTER-LIGAND FREE ENERGY PREDICTED BY IDOCK:   -8.00 KCAL/MOL
REMARK 924 INTRA-LIGAND FREE ENERGY PREDICTED BY IDOCK:   -1.47 KCAL/MOL
REMARK 927      BINDING AFFINITY PREDICTED BY RF-SCORE:    0.00 PKD
ROOT
HETATM    1  C   UNL     1      -6.957   4.819  65.391  1.00  0.00    -0.062 C  
HETATM    2  C   UNL     1      -8.190   5.219  64.603  1.00  0.00    -0.134 C  
ENDROOT
BRANCH   2   3
HETATM    3  O   UNL     1      -8.198   6.641  64.481  1.00  0.00    -0.105 OA 
BRANCH   3   4
HETATM    4  C   UNL     1      -8.329   7.359  65.637  1.00  0.00    -0.140 A  
HETATM    5  C   UNL     1      -9.337   7.202  66.587  1.00  0.00    -0.207 A  
HETATM    6  C   UNL     1      -9.351   8.000  67.736  1.00  0.00    -0.151 A  
HETATM    7  C   UNL     1      -8.360   8.966  67.955  1.00  0.00    -0.121 A  
HETATM    8  C   UNL     1      -7.348   8.330  65.843  1.00  0.00    -0.076 A  
HETATM    9  C   UNL     1      -7.360   9.130  66.990  1.00  0.00    -0.090 A  
BRANCH   7  10
HETATM   10  C   UNL     1      -8.436   9.857  69.172  1.00  0.00    -0.148 C  
BRANCH  10  11
HETATM   11  C   UNL     1      -9.744  10.579  69.407  1.00  0.00    -0.188 A  
HETATM   12  C   UNL     1     -10.760  10.087  70.237  1.00  0.00    -0.309 A  
HETATM   13 CL   UNL     1     -10.542   8.679  71.211  1.00  0.00    -0.283 Cl 
HETATM   14  C   UNL     1     -12.015  10.709  70.262  1.00  0.00    -0.425 A  
HETATM   15  C   UNL     1     -12.282  11.815  69.450  1.00  0.00    -0.219 A  
HETATM   16  C   UNL     1     -11.279  12.345  68.632  1.00  0.00    -0.314 A  
HETATM   17  C   UNL     1     -10.007  11.740  68.660  1.00  0.00    -0.181 A  
BRANCH  16  18
HETATM   18  C   UNL     1     -11.537  13.457  67.622  1.00  0.00    -0.340 C  
HETATM   19  O   UNL     1     -11.475  12.949  66.275  1.00  0.00    -0.315 OA 
HETATM   20  C   UNL     1     -11.777  13.950  65.288  1.00  0.00    -0.340 C  
HETATM   21  H   UNL     1      -9.999  15.887  69.264  1.00  0.00     0.000 HD 
HETATM   22  C   UNL     1     -10.776  15.105  65.358  1.00  0.00    -0.381 C  
HETATM   23  O   UNL     1     -10.621  15.180  69.141  1.00  0.00    -0.236 OA 
HETATM   24  O   UNL     1     -11.079  16.155  64.428  1.00  0.00    -0.919 OA 
HETATM   25  C   UNL     1     -10.762  15.700  66.767  1.00  0.00    -0.300 C  
HETATM   26  H   UNL     1      -9.753  17.089  67.731  1.00  0.00     0.000 HD 
HETATM   27  O   UNL     1      -9.762  16.720  66.856  1.00  0.00    -0.241 OA 
HETATM   28  H   UNL     1     -10.456  16.872  64.471  1.00  0.00     0.000 HD 
HETATM   29  C   UNL     1     -10.519  14.614  67.823  1.00  0.00    -0.246 C  
BRANCH  20  30
HETATM   30  C   UNL     1     -11.747  13.292  63.900  1.00  0.00    -0.431 C  
HETATM   31  O   UNL     1     -12.528  14.061  62.987  1.00  0.00    -1.101 OA 
HETATM   32  H   UNL     1     -12.510  13.655  62.129  1.00  0.00     0.000 HD 
ENDBRANCH  20  30
ENDBRANCH  16  18
ENDBRANCH  10  11
ENDBRANCH   7  10
ENDBRANCH   3   4
ENDBRANCH   2   3
TORSDOF 6
ENDMDL
MODEL       48
REMARK 921   NORMALIZED FREE ENERGY PREDICTED BY IDOCK:   -6.29 KCAL/MOL
REMARK 922        TOTAL FREE ENERGY PREDICTED BY IDOCK:   -9.46 KCAL/MOL
REMARK 923 INTER-LIGAND FREE ENERGY PREDICTED BY IDOCK:   -8.97 KCAL/MOL
REMARK 924 INTRA-LIGAND FREE ENERGY PREDICTED BY IDOCK:   -0.49 KCAL/MOL
REMARK 927      BINDING AFFINITY PREDICTED BY RF-SCORE:    0.00 PKD
ROOT
HETATM    1  C   UNL     1     -12.336  16.168  73.482  1.00  0.00    -0.664 C  
HETATM    2  C   UNL     1     -13.641  15.938  72.741  1.00  0.00    -0.510 C  
ENDROOT
BRANCH   2   3
HETATM    3  O   UNL     1     -13.335  15.381  71.464  1.00  0.00    -0.435 OA 
BRANCH   3   4
HETATM    4  C   UNL     1     -13.103  14.034  71.417  1.00  0.00    -0.353 A  
HETATM    5  C   UNL     1     -13.676  13.076  72.251  1.00  0.00    -0.608 A  
HETATM    6  C   UNL     1     -13.359  11.723  72.091  1.00  0.00    -0.334 A  
HETATM    7  C   UNL     1     -12.465  11.305  71.095  1.00  0.00    -0.479 A  
HETATM    8  C   UNL     1     -12.201  13.625  70.433  1.00  0.00    -0.434 A  
HETATM    9  C   UNL     1     -11.881  12.274  70.271  1.00  0.00    -0.324 A  
BRANCH   7  10
HETATM   10  C   UNL     1     -12.092   9.847  70.986  1.00  0.00    -0.450 C  
BRANCH  10  11
HETATM   11  C   UNL     1     -10.947   9.505  70.059  1.00  0.00    -0.284 A  
HETATM   12  C   UNL     1      -9.662   9.169  70.508  1.00  0.00    -0.236 A  
HETATM   13 CL   UNL     1      -9.309   8.949  72.183  1.00  0.00    -0.267 Cl 
HETATM   14  C   UNL     1      -8.605   9.049  69.598  1.00  0.00    -0.137 A  
HETATM   15  C   UNL     1      -8.806   9.278  68.232  1.00  0.00    -0.129 A  
HETATM   16  C   UNL     1     -10.082   9.586  67.752  1.00  0.00    -0.244 A  
HETATM   17  C   UNL     1     -11.145   9.650  68.675  1.00  0.00    -0.085 A  
BRANCH  16  18
HETATM   18  C   UNL     1     -10.347   9.984  66.304  1.00  0.00    -0.165 C  
HETATM   19  O   UNL     1      -9.268   9.558  65.451  1.00  0.00    -0.213 OA 
HETATM   20  C   UNL     1      -9.507   9.854  64.064  1.00  0.00    -0.167 C  
HETATM   21  H   UNL     1     -11.815  12.887  66.926  1.00  0.00     0.000 HD 
HETATM   22  C   UNL     1      -9.657  11.361  63.845  1.00  0.00    -0.216 C  
HETATM   23  O   UNL     1     -11.684  11.948  66.990  1.00  0.00    -0.538 OA 
HETATM   24  O   UNL     1      -9.956  11.693  62.482  1.00  0.00    -0.472 OA 
HETATM   25  C   UNL     1     -10.779  11.906  64.731  1.00  0.00    -0.307 C  
HETATM   26  H   UNL     1     -11.557  13.668  65.143  1.00  0.00     0.000 HD 
HETATM   27  O   UNL     1     -10.860  13.329  64.593  1.00  0.00    -0.338 OA 
HETATM   28  H   UNL     1     -10.049  12.629  62.346  1.00  0.00     0.000 HD 
HETATM   29  C   UNL     1     -10.563  11.520  66.199  1.00  0.00    -0.266 C  
BRANCH  20  30
HETATM   30  C   UNL     1      -8.333   9.303  63.238  1.00  0.00    -0.193 C  
HETATM   31  O   UNL     1      -7.767   8.175  63.902  1.00  0.00    -0.123 OA 
HETATM   32  H   UNL     1      -7.041   7.834  63.392  1.00  0.00     0.000 HD 
ENDBRANCH  20  30
ENDBRANCH  16  18
ENDBRANCH  10  11
ENDBRANCH   7  10
ENDBRANCH   3   4
ENDBRANCH   2   3
TORSDOF 6
ENDMDL
MODEL       49
REMARK 921   NORMALIZED FREE ENERGY PREDICTED BY IDOCK:   -6.27 KCAL/MOL
REMARK 922        TOTAL FREE ENERGY PREDICTED BY IDOCK:   -9.44 KCAL/MOL
REMARK 923 INTER-LIGAND FREE ENERGY PREDICTED BY IDOCK:   -8.70 KCAL/MOL
REMARK 924 INTRA-LIGAND FREE ENERGY PREDICTED BY IDOCK:   -0.74 KCAL/MOL
REMARK 927      BINDING AFFINITY PREDICTED BY RF-SCORE:    0.00 PKD
ROOT
HETATM    1  C   UNL     1     -12.439  15.765  73.937  1.00  0.00    -0.751 C  
HETATM    2  C   UNL     1     -13.230  15.056  72.852  1.00  0.00    -0.486 C  
ENDROOT
BRANCH   2   3
HETATM    3  O   UNL     1     -13.130  15.825  71.655  1.00  0.00    -0.481 OA 
BRANCH   3   4
HETATM    4  C   UNL     1     -12.253  15.379  70.706  1.00  0.00    -0.381 A  
HETATM    5  C   UNL     1     -12.384  14.213  69.955  1.00  0.00    -0.382 A  
HETATM    6  C   UNL     1     -11.414  13.875  69.005  1.00  0.00    -0.341 A  
HETATM    7  C   UNL     1     -10.299  14.695  68.790  1.00  0.00    -0.248 A  
HETATM    8  C   UNL     1     -11.136  16.193  70.506  1.00  0.00    -0.338 A  
HETATM    9  C   UNL     1     -10.165  15.857  69.559  1.00  0.00    -0.279 A  
BRANCH   7  10
HETATM   10  C   UNL     1      -9.236  14.274  67.804  1.00  0.00    -0.194 C  
BRANCH  10  11
HETATM   11  C   UNL     1      -9.507  13.019  67.004  1.00  0.00    -0.237 A  
HETATM   12  C   UNL     1     -10.069  13.027  65.720  1.00  0.00    -0.287 A  
HETATM   13 CL   UNL     1     -10.350  14.495  64.856  1.00  0.00    -0.441 Cl 
HETATM   14  C   UNL     1     -10.467  11.828  65.115  1.00  0.00    -0.330 A  
HETATM   15  C   UNL     1     -10.329  10.608  65.785  1.00  0.00    -0.287 A  
HETATM   16  C   UNL     1      -9.746  10.566  67.056  1.00  0.00    -0.212 A  
HETATM   17  C   UNL     1      -9.303  11.775  67.627  1.00  0.00    -0.180 A  
BRANCH  16  18
HETATM   18  C   UNL     1      -9.691   9.297  67.899  1.00  0.00    -0.153 C  
HETATM   19  O   UNL     1      -9.855   8.128  67.075  1.00  0.00    -0.187 OA 
HETATM   20  C   UNL     1      -9.744   6.903  67.820  1.00  0.00    -0.129 C  
HETATM   21  H   UNL     1     -11.241  10.498  70.568  1.00  0.00     0.000 HD 
HETATM   22  C   UNL     1     -10.825   6.821  68.900  1.00  0.00    -0.243 C  
HETATM   23  O   UNL     1     -10.579  10.469  69.888  1.00  0.00    -0.259 OA 
HETATM   24  O   UNL     1     -10.712   5.639  69.706  1.00  0.00    -0.310 OA 
HETATM   25  C   UNL     1     -10.736   8.041  69.820  1.00  0.00    -0.231 C  
HETATM   26  H   UNL     1     -11.748   8.767  71.345  1.00  0.00     0.000 HD 
HETATM   27  O   UNL     1     -11.802   8.009  70.774  1.00  0.00    -0.261 OA 
HETATM   28  H   UNL     1     -11.383   5.589  70.377  1.00  0.00     0.000 HD 
HETATM   29  C   UNL     1     -10.774   9.345  69.013  1.00  0.00    -0.187 C  
BRANCH  20  30
HETATM   30  C   UNL     1      -9.868   5.723  66.842  1.00  0.00    -0.157 C  
HETATM   31  O   UNL     1     -11.216   5.615  66.388  1.00  0.00    -0.725 OA 
HETATM   32  H   UNL     1     -11.293   4.887  65.784  1.00  0.00     0.000 HD 
ENDBRANCH  20  30
ENDBRANCH  16  18
ENDBRANCH  10  11
ENDBRANCH   7  10
ENDBRANCH   3   4
ENDBRANCH   2   3
TORSDOF 6
ENDMDL
MODEL       50
REMARK 921   NORMALIZED FREE ENERGY PREDICTED BY IDOCK:   -6.26 KCAL/MOL
REMARK 922        TOTAL FREE ENERGY PREDICTED BY IDOCK:   -9.43 KCAL/MOL
REMARK 923 INTER-LIGAND FREE ENERGY PREDICTED BY IDOCK:   -8.02 KCAL/MOL
REMARK 924 INTRA-LIGAND FREE ENERGY PREDICTED BY IDOCK:   -1.40 KCAL/MOL
REMARK 927      BINDING AFFINITY PREDICTED BY RF-SCORE:    0.00 PKD
ROOT
HETATM    1  C   UNL     1      -7.843   2.284  67.408  1.00  0.00    -0.065 C  
HETATM    2  C   UNL     1      -9.273   2.472  67.880  1.00  0.00    -0.204 C  
ENDROOT
BRANCH   2   3
HETATM    3  O   UNL     1      -9.725   3.749  67.433  1.00  0.00    -0.197 OA 
BRANCH   3   4
HETATM    4  C   UNL     1      -9.578   4.795  68.302  1.00  0.00    -0.149 A  
HETATM    5  C   UNL     1      -9.676   4.725  69.690  1.00  0.00    -0.272 A  
HETATM    6  C   UNL     1      -9.495   5.874  70.467  1.00  0.00    -0.196 A  
HETATM    7  C   UNL     1      -9.213   7.110  69.871  1.00  0.00    -0.141 A  
HETATM    8  C   UNL     1      -9.312   6.027  67.702  1.00  0.00    -0.112 A  
HETATM    9  C   UNL     1      -9.132   7.177  68.476  1.00  0.00    -0.132 A  
BRANCH   7  10
HETATM   10  C   UNL     1      -9.086   8.346  70.729  1.00  0.00    -0.180 C  
BRANCH  10  11
HETATM   11  C   UNL     1     -10.336   9.178  70.914  1.00  0.00    -0.349 A  
HETATM   12  C   UNL     1     -11.324   8.888  71.864  1.00  0.00    -0.376 A  
HETATM   13 CL   UNL     1     -11.124   7.639  73.038  1.00  0.00    -0.457 Cl 
HETATM   14  C   UNL     1     -12.539   9.585  71.855  1.00  0.00    -0.479 A  
HETATM   15  C   UNL     1     -12.794  10.566  70.891  1.00  0.00    -0.485 A  
HETATM   16  C   UNL     1     -11.816  10.896  69.948  1.00  0.00    -0.427 A  
HETATM   17  C   UNL     1     -10.580  10.223  70.005  1.00  0.00    -0.321 A  
BRANCH  16  18
HETATM   18  C   UNL     1     -12.074  11.850  68.787  1.00  0.00    -0.124 C  
HETATM   19  O   UNL     1     -11.425  11.385  67.589  1.00  0.00    -0.376 OA 
HETATM   20  C   UNL     1     -11.696  12.220  66.450  1.00  0.00    -0.365 C  
HETATM   21  H   UNL     1     -12.001  14.665  70.530  1.00  0.00     0.000 HD 
HETATM   22  C   UNL     1     -11.191  13.645  66.686  1.00  0.00    -0.313 C  
HETATM   23  O   UNL     1     -12.292  13.789  70.306  1.00  0.00    -0.332 OA 
HETATM   24  O   UNL     1     -11.496  14.526  65.595  1.00  0.00    -0.334 OA 
HETATM   25  C   UNL     1     -11.821  14.218  67.957  1.00  0.00    -0.344 C  
HETATM   26  H   UNL     1     -11.672  15.871  69.015  1.00  0.00     0.000 HD 
HETATM   27  O   UNL     1     -11.281  15.516  68.226  1.00  0.00    -0.311 OA 
HETATM   28  H   UNL     1     -11.182  15.411  65.741  1.00  0.00     0.000 HD 
HETATM   29  C   UNL     1     -11.598  13.284  69.153  1.00  0.00    -0.319 C  
BRANCH  20  30
HETATM   30  C   UNL     1     -11.014  11.602  65.219  1.00  0.00    -0.268 C  
HETATM   31  O   UNL     1      -9.823  12.326  64.916  1.00  0.00    -0.394 OA 
HETATM   32  H   UNL     1      -9.401  11.945  64.155  1.00  0.00     0.000 HD 
ENDBRANCH  20  30
ENDBRANCH  16  18
ENDBRANCH  10  11
ENDBRANCH   7  10
ENDBRANCH   3   4
ENDBRANCH   2   3
TORSDOF 6
ENDMDL
MODEL       51
REMARK 921   NORMALIZED FREE ENERGY PREDICTED BY IDOCK:   -6.18 KCAL/MOL
REMARK 922        TOTAL FREE ENERGY PREDICTED BY IDOCK:   -9.32 KCAL/MOL
REMARK 923 INTER-LIGAND FREE ENERGY PREDICTED BY IDOCK:   -8.22 KCAL/MOL
REMARK 924 INTRA-LIGAND FREE ENERGY PREDICTED BY IDOCK:   -1.10 KCAL/MOL
REMARK 927      BINDING AFFINITY PREDICTED BY RF-SCORE:    0.00 PKD
ROOT
HETATM    1  C   UNL     1      -9.039  11.086  62.818  1.00  0.00    -0.361 C  
HETATM    2  C   UNL     1     -10.315  11.356  63.593  1.00  0.00    -0.410 C  
ENDROOT
BRANCH   2   3
HETATM    3  O   UNL     1     -10.442  12.767  63.762  1.00  0.00    -0.408 OA 
BRANCH   3   4
HETATM    4  C   UNL     1     -10.674  13.218  65.032  1.00  0.00    -0.333 A  
HETATM    5  C   UNL     1      -9.702  13.610  65.950  1.00  0.00    -0.206 A  
HETATM    6  C   UNL     1     -10.075  14.063  67.220  1.00  0.00    -0.249 A  
HETATM    7  C   UNL     1     -11.424  14.131  67.594  1.00  0.00    -0.364 A  
HETATM    8  C   UNL     1     -12.018  13.270  65.404  1.00  0.00    -0.432 A  
HETATM    9  C   UNL     1     -12.394  13.720  66.673  1.00  0.00    -0.403 A  
BRANCH   7  10
HETATM   10  C   UNL     1     -11.795  14.562  68.992  1.00  0.00    -0.354 C  
BRANCH  10  11
HETATM   11  C   UNL     1     -12.257  13.477  69.939  1.00  0.00    -0.356 A  
HETATM   12  C   UNL     1     -13.152  13.701  70.994  1.00  0.00    -0.180 A  
HETATM   13 CL   UNL     1     -13.949  15.217  71.208  1.00  0.00    -0.571 Cl 
HETATM   14  C   UNL     1     -13.390  12.700  71.943  1.00  0.00    -0.485 A  
HETATM   15  C   UNL     1     -12.728  11.469  71.868  1.00  0.00    -0.250 A  
HETATM   16  C   UNL     1     -11.851  11.207  70.811  1.00  0.00    -0.325 A  
HETATM   17  C   UNL     1     -11.665  12.206  69.835  1.00  0.00    -0.361 A  
BRANCH  16  18
HETATM   18  C   UNL     1     -10.994   9.949  70.740  1.00  0.00    -0.337 C  
HETATM   19  O   UNL     1      -9.967  10.085  69.738  1.00  0.00    -0.225 OA 
HETATM   20  C   UNL     1      -9.091   8.946  69.682  1.00  0.00    -0.151 C  
HETATM   21  H   UNL     1     -13.410   7.758  71.312  1.00  0.00     0.000 HD 
HETATM   22  C   UNL     1      -9.869   7.676  69.330  1.00  0.00    -0.168 C  
HETATM   23  O   UNL     1     -12.866   8.517  71.487  1.00  0.00    -0.320 OA 
HETATM   24  O   UNL     1      -9.039   6.505  69.322  1.00  0.00    -0.137 OA 
HETATM   25  C   UNL     1     -10.998   7.459  70.339  1.00  0.00    -0.251 C  
HETATM   26  H   UNL     1     -12.481   6.187  70.585  1.00  0.00     0.000 HD 
HETATM   27  O   UNL     1     -11.780   6.322  69.958  1.00  0.00    -0.408 OA 
HETATM   28  H   UNL     1      -9.522   5.717  69.103  1.00  0.00     0.000 HD 
HETATM   29  C   UNL     1     -11.883   8.706  70.455  1.00  0.00    -0.018 C  
BRANCH  20  30
HETATM   30  C   UNL     1      -8.001   9.220  68.634  1.00  0.00    -0.100 C  
HETATM   31  O   UNL     1      -6.888   8.358  68.862  1.00  0.00    -0.059 OA 
HETATM   32  H   UNL     1      -6.214   8.527  68.214  1.00  0.00     0.000 HD 
ENDBRANCH  20  30
ENDBRANCH  16  18
ENDBRANCH  10  11
ENDBRANCH   7  10
ENDBRANCH   3   4
ENDBRANCH   2   3
TORSDOF 6
ENDMDL
MODEL       52
REMARK 921   NORMALIZED FREE ENERGY PREDICTED BY IDOCK:   -6.18 KCAL/MOL
REMARK 922        TOTAL FREE ENERGY PREDICTED BY IDOCK:   -9.31 KCAL/MOL
REMARK 923 INTER-LIGAND FREE ENERGY PREDICTED BY IDOCK:   -8.22 KCAL/MOL
REMARK 924 INTRA-LIGAND FREE ENERGY PREDICTED BY IDOCK:   -1.08 KCAL/MOL
REMARK 927      BINDING AFFINITY PREDICTED BY RF-SCORE:    0.00 PKD
ROOT
HETATM    1  C   UNL     1     -10.176  19.840  67.576  1.00  0.00    -0.572 C  
HETATM    2  C   UNL     1     -10.570  18.575  66.836  1.00  0.00    -0.365 C  
ENDROOT
BRANCH   2   3
HETATM    3  O   UNL     1     -10.217  17.457  67.648  1.00  0.00    -0.314 OA 
BRANCH   3   4
HETATM    4  C   UNL     1     -10.670  16.232  67.243  1.00  0.00    -0.265 A  
HETATM    5  C   UNL     1     -11.429  15.347  68.007  1.00  0.00    -0.333 A  
HETATM    6  C   UNL     1     -11.836  14.123  67.467  1.00  0.00    -0.437 A  
HETATM    7  C   UNL     1     -11.494  13.762  66.158  1.00  0.00    -0.350 A  
HETATM    8  C   UNL     1     -10.313  15.871  65.942  1.00  0.00    -0.383 A  
HETATM    9  C   UNL     1     -10.717  14.647  65.401  1.00  0.00    -0.382 A  
BRANCH   7  10
HETATM   10  C   UNL     1     -11.892  12.408  65.623  1.00  0.00    -0.468 C  
BRANCH  10  11
HETATM   11  C   UNL     1     -10.906  11.278  65.825  1.00  0.00    -0.257 A  
HETATM   12  C   UNL     1     -10.011  10.848  64.836  1.00  0.00    -0.303 A  
HETATM   13 CL   UNL     1      -9.834  11.686  63.337  1.00  0.00    -0.402 Cl 
HETATM   14  C   UNL     1      -9.260   9.680  65.022  1.00  0.00    -0.310 A  
HETATM   15  C   UNL     1      -9.402   8.916  66.185  1.00  0.00    -0.301 A  
HETATM   16  C   UNL     1     -10.266   9.336  67.201  1.00  0.00    -0.324 A  
HETATM   17  C   UNL     1     -10.973  10.541  67.020  1.00  0.00    -0.247 A  
BRANCH  16  18
HETATM   18  C   UNL     1     -10.574   8.487  68.429  1.00  0.00    -0.111 C  
HETATM   19  O   UNL     1      -9.752   8.881  69.543  1.00  0.00    -0.168 OA 
HETATM   20  C   UNL     1     -10.055   8.149  70.744  1.00  0.00    -0.189 C  
HETATM   21  H   UNL     1     -11.128   5.634  66.840  1.00  0.00     0.000 HD 
HETATM   22  C   UNL     1      -9.818   6.651  70.544  1.00  0.00    -0.176 C  
HETATM   23  O   UNL     1     -11.248   6.555  67.039  1.00  0.00    -0.397 OA 
HETATM   24  O   UNL     1     -10.167   5.878  71.702  1.00  0.00    -0.192 OA 
HETATM   25  C   UNL     1     -10.646   6.145  69.362  1.00  0.00    -0.286 C  
HETATM   26  H   UNL     1     -10.870   4.450  68.385  1.00  0.00     0.000 HD 
HETATM   27  O   UNL     1     -10.356   4.764  69.119  1.00  0.00    -0.130 OA 
HETATM   28  H   UNL     1     -10.019   4.948  71.578  1.00  0.00     0.000 HD 
HETATM   29  C   UNL     1     -10.379   6.979  68.103  1.00  0.00    -0.191 C  
BRANCH  20  30
HETATM   30  C   UNL     1      -9.172   8.689  71.881  1.00  0.00    -0.275 C  
HETATM   31  O   UNL     1      -7.942   7.969  71.916  1.00  0.00    -0.097 OA 
HETATM   32  H   UNL     1      -7.396   8.302  72.619  1.00  0.00     0.000 HD 
ENDBRANCH  20  30
ENDBRANCH  16  18
ENDBRANCH  10  11
ENDBRANCH   7  10
ENDBRANCH   3   4
ENDBRANCH   2   3
TORSDOF 6
ENDMDL
MODEL       53
REMARK 921   NORMALIZED FREE ENERGY PREDICTED BY IDOCK:   -6.18 KCAL/MOL
REMARK 922        TOTAL FREE ENERGY PREDICTED BY IDOCK:   -9.31 KCAL/MOL
REMARK 923 INTER-LIGAND FREE ENERGY PREDICTED BY IDOCK:   -8.70 KCAL/MOL
REMARK 924 INTRA-LIGAND FREE ENERGY PREDICTED BY IDOCK:   -0.60 KCAL/MOL
REMARK 927      BINDING AFFINITY PREDICTED BY RF-SCORE:    0.00 PKD
ROOT
HETATM    1  C   UNL     1      -7.789   6.001  66.817  1.00  0.00    -0.101 C  
HETATM    2  C   UNL     1      -8.213   6.853  67.999  1.00  0.00    -0.115 C  
ENDROOT
BRANCH   2   3
HETATM    3  O   UNL     1      -8.269   8.212  67.569  1.00  0.00    -0.120 OA 
BRANCH   3   4
HETATM    4  C   UNL     1      -9.222   9.004  68.148  1.00  0.00    -0.136 A  
HETATM    5  C   UNL     1      -9.367   9.243  69.513  1.00  0.00    -0.177 A  
HETATM    6  C   UNL     1     -10.384  10.085  69.976  1.00  0.00    -0.323 A  
HETATM    7  C   UNL     1     -11.271  10.701  69.084  1.00  0.00    -0.324 A  
HETATM    8  C   UNL     1     -10.113   9.603  67.256  1.00  0.00    -0.267 A  
HETATM    9  C   UNL     1     -11.131  10.444  67.715  1.00  0.00    -0.365 A  
BRANCH   7  10
HETATM   10  C   UNL     1     -12.399  11.553  69.614  1.00  0.00    -0.207 C  
BRANCH  10  11
HETATM   11  C   UNL     1     -12.027  12.918  70.150  1.00  0.00    -0.373 A  
HETATM   12  C   UNL     1     -12.591  13.475  71.306  1.00  0.00    -0.341 A  
HETATM   13 CL   UNL     1     -13.650  12.575  72.330  1.00  0.00    -0.574 Cl 
HETATM   14  C   UNL     1     -12.343  14.812  71.639  1.00  0.00    -0.409 A  
HETATM   15  C   UNL     1     -11.546  15.619  70.820  1.00  0.00    -0.412 A  
HETATM   16  C   UNL     1     -10.947  15.083  69.676  1.00  0.00    -0.294 A  
HETATM   17  C   UNL     1     -11.164  13.722  69.384  1.00  0.00    -0.259 A  
BRANCH  16  18
HETATM   18  C   UNL     1     -10.185  15.933  68.665  1.00  0.00    -0.223 C  
HETATM   19  O   UNL     1     -10.104  17.302  69.106  1.00  0.00    -0.302 OA 
HETATM   20  C   UNL     1      -9.335  18.128  68.215  1.00  0.00    -0.303 C  
HETATM   21  H   UNL     1     -11.294  14.433  65.929  1.00  0.00     0.000 HD 
HETATM   22  C   UNL     1      -9.967  18.163  66.822  1.00  0.00    -0.351 C  
HETATM   23  O   UNL     1     -10.882  14.488  66.783  1.00  0.00    -0.294 OA 
HETATM   24  O   UNL     1      -9.197  18.930  65.886  1.00  0.00    -0.455 OA 
HETATM   25  C   UNL     1     -10.109  16.740  66.277  1.00  0.00    -0.326 C  
HETATM   26  H   UNL     1     -10.869  15.884  64.676  1.00  0.00     0.000 HD 
HETATM   27  O   UNL     1     -10.781  16.767  65.014  1.00  0.00    -0.692 OA 
HETATM   28  H   UNL     1      -9.590  18.952  65.021  1.00  0.00     0.000 HD 
HETATM   29  C   UNL     1     -10.859  15.841  67.268  1.00  0.00    -0.298 C  
BRANCH  20  30
HETATM   30  C   UNL     1      -9.256  19.544  68.808  1.00  0.00    -0.338 C  
HETATM   31  O   UNL     1     -10.462  20.251  68.525  1.00  0.00    -0.325 OA 
HETATM   32  H   UNL     1     -10.413  21.126  68.891  1.00  0.00     0.000 HD 
ENDBRANCH  20  30
ENDBRANCH  16  18
ENDBRANCH  10  11
ENDBRANCH   7  10
ENDBRANCH   3   4
ENDBRANCH   2   3
TORSDOF 6
ENDMDL
MODEL       54
REMARK 921   NORMALIZED FREE ENERGY PREDICTED BY IDOCK:   -6.18 KCAL/MOL
REMARK 922        TOTAL FREE ENERGY PREDICTED BY IDOCK:   -9.31 KCAL/MOL
REMARK 923 INTER-LIGAND FREE ENERGY PREDICTED BY IDOCK:   -8.35 KCAL/MOL
REMARK 924 INTRA-LIGAND FREE ENERGY PREDICTED BY IDOCK:   -0.96 KCAL/MOL
REMARK 927      BINDING AFFINITY PREDICTED BY RF-SCORE:    0.00 PKD
ROOT
HETATM    1  C   UNL     1      -8.328  10.731  62.423  1.00  0.00    -0.289 C  
HETATM    2  C   UNL     1      -9.775  10.815  62.871  1.00  0.00    -0.304 C  
ENDROOT
BRANCH   2   3
HETATM    3  O   UNL     1     -10.028  12.147  63.313  1.00  0.00    -0.396 OA 
BRANCH   3   4
HETATM    4  C   UNL     1     -10.551  12.293  64.568  1.00  0.00    -0.311 A  
HETATM    5  C   UNL     1     -11.617  13.119  64.918  1.00  0.00    -0.356 A  
HETATM    6  C   UNL     1     -12.062  13.170  66.243  1.00  0.00    -0.460 A  
HETATM    7  C   UNL     1     -11.450  12.398  67.239  1.00  0.00    -0.421 A  
HETATM    8  C   UNL     1      -9.928  11.533  65.559  1.00  0.00    -0.282 A  
HETATM    9  C   UNL     1     -10.369  11.583  66.885  1.00  0.00    -0.258 A  
BRANCH   7  10
HETATM   10  C   UNL     1     -11.909  12.520  68.672  1.00  0.00    -0.340 C  
BRANCH  10  11
HETATM   11  C   UNL     1     -11.463  13.753  69.427  1.00  0.00    -0.341 A  
HETATM   12  C   UNL     1     -12.096  14.221  70.586  1.00  0.00    -0.346 A  
HETATM   13 CL   UNL     1     -13.353  13.329  71.364  1.00  0.00    -0.302 Cl 
HETATM   14  C   UNL     1     -11.752  15.467  71.125  1.00  0.00    -0.439 A  
HETATM   15  C   UNL     1     -10.788  16.272  70.510  1.00  0.00    -0.137 A  
HETATM   16  C   UNL     1     -10.119  15.819  69.368  1.00  0.00    -0.268 A  
HETATM   17  C   UNL     1     -10.440  14.541  68.871  1.00  0.00    -0.246 A  
BRANCH  16  18
HETATM   18  C   UNL     1      -9.162  16.695  68.567  1.00  0.00    -0.234 C  
HETATM   19  O   UNL     1      -7.883  16.788  69.223  1.00  0.00    -0.195 OA 
HETATM   20  C   UNL     1      -6.926  17.552  68.469  1.00  0.00    -0.214 C  
HETATM   21  H   UNL     1     -11.395  18.897  67.503  1.00  0.00     0.000 HD 
HETATM   22  C   UNL     1      -7.411  18.989  68.270  1.00  0.00    -0.292 C  
HETATM   23  O   UNL     1     -11.020  18.034  67.634  1.00  0.00    -0.323 OA 
HETATM   24  O   UNL     1      -6.510  19.769  67.470  1.00  0.00    -0.200 OA 
HETATM   25  C   UNL     1      -8.781  18.988  67.589  1.00  0.00    -0.290 C  
HETATM   26  H   UNL     1     -10.125  20.327  67.061  1.00  0.00     0.000 HD 
HETATM   27  O   UNL     1      -9.274  20.327  67.483  1.00  0.00    -0.357 OA 
HETATM   28  H   UNL     1      -6.811  20.662  67.346  1.00  0.00     0.000 HD 
HETATM   29  C   UNL     1      -9.777  18.107  68.353  1.00  0.00    -0.355 C  
BRANCH  20  30
HETATM   30  C   UNL     1      -5.586  17.533  69.221  1.00  0.00    -0.195 C  
HETATM   31  O   UNL     1      -5.619  16.534  70.238  1.00  0.00    -0.193 OA 
HETATM   32  H   UNL     1      -4.791  16.522  70.703  1.00  0.00     0.000 HD 
ENDBRANCH  20  30
ENDBRANCH  16  18
ENDBRANCH  10  11
ENDBRANCH   7  10
ENDBRANCH   3   4
ENDBRANCH   2   3
TORSDOF 6
ENDMDL
MODEL       55
REMARK 921   NORMALIZED FREE ENERGY PREDICTED BY IDOCK:   -6.17 KCAL/MOL
REMARK 922        TOTAL FREE ENERGY PREDICTED BY IDOCK:   -9.30 KCAL/MOL
REMARK 923 INTER-LIGAND FREE ENERGY PREDICTED BY IDOCK:   -8.00 KCAL/MOL
REMARK 924 INTRA-LIGAND FREE ENERGY PREDICTED BY IDOCK:   -1.29 KCAL/MOL
REMARK 927      BINDING AFFINITY PREDICTED BY RF-SCORE:    0.00 PKD
ROOT
HETATM    1  C   UNL     1      -7.836   3.764  64.417  1.00  0.00    -0.085 C  
HETATM    2  C   UNL     1      -9.076   3.886  65.283  1.00  0.00    -0.142 C  
ENDROOT
BRANCH   2   3
HETATM    3  O   UNL     1      -9.349   5.273  65.477  1.00  0.00    -0.153 OA 
BRANCH   3   4
HETATM    4  C   UNL     1      -9.669   5.668  66.745  1.00  0.00    -0.154 A  
HETATM    5  C   UNL     1     -10.936   6.041  67.190  1.00  0.00    -0.360 A  
HETATM    6  C   UNL     1     -11.130   6.419  68.523  1.00  0.00    -0.385 A  
HETATM    7  C   UNL     1     -10.065   6.430  69.433  1.00  0.00    -0.205 A  
HETATM    8  C   UNL     1      -8.600   5.692  67.644  1.00  0.00    -0.108 A  
HETATM    9  C   UNL     1      -8.792   6.071  68.976  1.00  0.00    -0.121 A  
BRANCH   7  10
HETATM   10  C   UNL     1     -10.290   6.903  70.848  1.00  0.00    -0.218 C  
BRANCH  10  11
HETATM   11  C   UNL     1     -11.285   8.027  71.040  1.00  0.00    -0.287 A  
HETATM   12  C   UNL     1     -12.577   7.837  71.549  1.00  0.00    -0.333 A  
HETATM   13 CL   UNL     1     -13.100   6.313  72.167  1.00  0.00     0.052 Cl 
HETATM   14  C   UNL     1     -13.507   8.884  71.524  1.00  0.00    -0.381 A  
HETATM   15  C   UNL     1     -13.171  10.127  70.977  1.00  0.00    -0.412 A  
HETATM   16  C   UNL     1     -11.881  10.355  70.489  1.00  0.00    -0.430 A  
HETATM   17  C   UNL     1     -10.942   9.307  70.570  1.00  0.00    -0.318 A  
BRANCH  16  18
HETATM   18  C   UNL     1     -11.487  11.632  69.755  1.00  0.00    -0.264 C  
HETATM   19  O   UNL     1     -11.989  12.793  70.444  1.00  0.00    -0.335 OA 
HETATM   20  C   UNL     1     -11.585  14.025  69.823  1.00  0.00    -0.281 C  
HETATM   21  H   UNL     1     -11.768  10.453  66.673  1.00  0.00     0.000 HD 
HETATM   22  C   UNL     1     -12.115  14.114  68.391  1.00  0.00    -0.273 C  
HETATM   23  O   UNL     1     -11.452  10.477  67.569  1.00  0.00    -0.431 OA 
HETATM   24  O   UNL     1     -11.683  15.304  67.716  1.00  0.00    -0.319 OA 
HETATM   25  C   UNL     1     -11.641  12.904  67.583  1.00  0.00    -0.355 C  
HETATM   26  H   UNL     1     -11.915  12.190  65.769  1.00  0.00     0.000 HD 
HETATM   27  O   UNL     1     -12.209  12.942  66.270  1.00  0.00    -0.454 OA 
HETATM   28  H   UNL     1     -12.012  15.360  66.826  1.00  0.00     0.000 HD 
HETATM   29  C   UNL     1     -12.003  11.592  68.290  1.00  0.00    -0.169 C  
BRANCH  20  30
HETATM   30  C   UNL     1     -12.115  15.194  70.669  1.00  0.00    -0.329 C  
HETATM   31  O   UNL     1     -13.416  15.564  70.215  1.00  0.00    -0.752 OA 
HETATM   32  H   UNL     1     -13.743  16.286  70.737  1.00  0.00     0.000 HD 
ENDBRANCH  20  30
ENDBRANCH  16  18
ENDBRANCH  10  11
ENDBRANCH   7  10
ENDBRANCH   3   4
ENDBRANCH   2   3
TORSDOF 6
ENDMDL
MODEL       56
REMARK 921   NORMALIZED FREE ENERGY PREDICTED BY IDOCK:   -6.15 KCAL/MOL
REMARK 922        TOTAL FREE ENERGY PREDICTED BY IDOCK:   -9.28 KCAL/MOL
REMARK 923 INTER-LIGAND FREE ENERGY PREDICTED BY IDOCK:   -8.33 KCAL/MOL
REMARK 924 INTRA-LIGAND FREE ENERGY PREDICTED BY IDOCK:   -0.95 KCAL/MOL
REMARK 927      BINDING AFFINITY PREDICTED BY RF-SCORE:    0.00 PKD
ROOT
HETATM    1  C   UNL     1      -9.455   8.562  72.520  1.00  0.00    -0.328 C  
HETATM    2  C   UNL     1     -10.151   8.276  71.202  1.00  0.00    -0.191 C  
ENDROOT
BRANCH   2   3
HETATM    3  O   UNL     1      -9.434   8.944  70.166  1.00  0.00    -0.164 OA 
BRANCH   3   4
HETATM    4  C   UNL     1      -9.972  10.109  69.694  1.00  0.00    -0.232 A  
HETATM    5  C   UNL     1      -9.405  10.939  68.728  1.00  0.00    -0.190 A  
HETATM    6  C   UNL     1     -10.067  12.104  68.326  1.00  0.00    -0.210 A  
HETATM    7  C   UNL     1     -11.303  12.459  68.881  1.00  0.00    -0.342 A  
HETATM    8  C   UNL     1     -11.196  10.466  70.261  1.00  0.00    -0.395 A  
HETATM    9  C   UNL     1     -11.859  11.631  69.863  1.00  0.00    -0.434 A  
BRANCH   7  10
HETATM   10  C   UNL     1     -11.964  13.755  68.476  1.00  0.00    -0.402 C  
BRANCH  10  11
HETATM   11  C   UNL     1     -11.455  14.412  67.212  1.00  0.00    -0.377 A  
HETATM   12  C   UNL     1     -11.600  13.850  65.936  1.00  0.00    -0.340 A  
HETATM   13 CL   UNL     1     -12.529  12.420  65.668  1.00  0.00    -0.217 Cl 
HETATM   14  C   UNL     1     -10.943  14.416  64.836  1.00  0.00    -0.416 A  
HETATM   15  C   UNL     1     -10.121  15.537  64.992  1.00  0.00    -0.163 A  
HETATM   16  C   UNL     1      -9.980  16.136  66.248  1.00  0.00    -0.336 A  
HETATM   17  C   UNL     1     -10.690  15.585  67.333  1.00  0.00    -0.301 A  
BRANCH  16  18
HETATM   18  C   UNL     1      -8.997  17.269  66.519  1.00  0.00    -0.268 C  
HETATM   19  O   UNL     1      -8.215  16.996  67.697  1.00  0.00    -0.181 OA 
HETATM   20  C   UNL     1      -7.226  18.009  67.955  1.00  0.00    -0.222 C  
HETATM   21  H   UNL     1     -10.947  19.763  65.547  1.00  0.00     0.000 HD 
HETATM   22  C   UNL     1      -7.886  19.370  68.183  1.00  0.00    -0.308 C  
HETATM   23  O   UNL     1     -10.483  18.938  65.461  1.00  0.00    -0.550 OA 
HETATM   24  O   UNL     1      -6.929  20.420  68.385  1.00  0.00    -0.267 OA 
HETATM   25  C   UNL     1      -8.756  19.737  66.979  1.00  0.00    -0.325 C  
HETATM   26  H   UNL     1      -9.983  21.195  66.484  1.00  0.00     0.000 HD 
HETATM   27  O   UNL     1      -9.443  20.967  67.232  1.00  0.00    -0.405 OA 
HETATM   28  H   UNL     1      -7.339  21.265  68.527  1.00  0.00     0.000 HD 
HETATM   29  C   UNL     1      -9.756  18.618  66.659  1.00  0.00    -0.341 C  
BRANCH  20  30
HETATM   30  C   UNL     1      -6.409  17.590  69.187  1.00  0.00    -0.235 C  
HETATM   31  O   UNL     1      -6.621  16.206  69.458  1.00  0.00    -0.187 OA 
HETATM   32  H   UNL     1      -6.117  15.948  70.219  1.00  0.00     0.000 HD 
ENDBRANCH  20  30
ENDBRANCH  16  18
ENDBRANCH  10  11
ENDBRANCH   7  10
ENDBRANCH   3   4
ENDBRANCH   2   3
TORSDOF 6
ENDMDL
MODEL       57
REMARK 921   NORMALIZED FREE ENERGY PREDICTED BY IDOCK:   -6.13 KCAL/MOL
REMARK 922        TOTAL FREE ENERGY PREDICTED BY IDOCK:   -9.25 KCAL/MOL
REMARK 923 INTER-LIGAND FREE ENERGY PREDICTED BY IDOCK:   -8.62 KCAL/MOL
REMARK 924 INTRA-LIGAND FREE ENERGY PREDICTED BY IDOCK:   -0.63 KCAL/MOL
REMARK 927      BINDING AFFINITY PREDICTED BY RF-SCORE:    0.00 PKD
ROOT
HETATM    1  C   UNL     1      -7.425   6.117  64.425  1.00  0.00    -0.080 C  
HETATM    2  C   UNL     1      -7.101   7.353  65.244  1.00  0.00    -0.064 C  
ENDROOT
BRANCH   2   3
HETATM    3  O   UNL     1      -7.407   8.501  64.455  1.00  0.00    -0.091 OA 
BRANCH   3   4
HETATM    4  C   UNL     1      -8.428   9.297  64.893  1.00  0.00    -0.168 A  
HETATM    5  C   UNL     1      -9.204   9.080  66.031  1.00  0.00    -0.284 A  
HETATM    6  C   UNL     1     -10.217   9.981  66.374  1.00  0.00    -0.290 A  
HETATM    7  C   UNL     1     -10.474  11.112  65.587  1.00  0.00    -0.308 A  
HETATM    8  C   UNL     1      -8.689  10.415  64.098  1.00  0.00    -0.205 A  
HETATM    9  C   UNL     1      -9.703  11.316  64.437  1.00  0.00    -0.293 A  
BRANCH   7  10
HETATM   10  C   UNL     1     -11.615  12.033  65.945  1.00  0.00    -0.364 C  
BRANCH  10  11
HETATM   11  C   UNL     1     -11.719  12.458  67.393  1.00  0.00    -0.417 A  
HETATM   12  C   UNL     1     -11.524  13.776  67.828  1.00  0.00    -0.322 A  
HETATM   13 CL   UNL     1     -11.310  15.081  66.719  1.00  0.00    -0.327 Cl 
HETATM   14  C   UNL     1     -11.449  14.064  69.196  1.00  0.00    -0.340 A  
HETATM   15  C   UNL     1     -11.548  13.045  70.149  1.00  0.00    -0.139 A  
HETATM   16  C   UNL     1     -11.772  11.725  69.746  1.00  0.00    -0.408 A  
HETATM   17  C   UNL     1     -11.898  11.461  68.368  1.00  0.00    -0.344 A  
BRANCH  16  18
HETATM   18  C   UNL     1     -11.751  10.549  70.716  1.00  0.00    -0.356 C  
HETATM   19  O   UNL     1     -11.406   9.329  70.032  1.00  0.00    -0.214 OA 
HETATM   20  C   UNL     1     -11.310   8.202  70.921  1.00  0.00    -0.268 C  
HETATM   21  H   UNL     1     -14.292  11.517  72.607  1.00  0.00     0.000 HD 
HETATM   22  C   UNL     1     -12.647   7.941  71.617  1.00  0.00    -0.321 C  
HETATM   23  O   UNL     1     -13.451  11.599  72.173  1.00  0.00    -0.423 OA 
HETATM   24  O   UNL     1     -12.577   6.860  72.558  1.00  0.00    -0.490 OA 
HETATM   25  C   UNL     1     -13.103   9.197  72.360  1.00  0.00    -0.423 C  
HETATM   26  H   UNL     1     -14.680   9.761  73.397  1.00  0.00     0.000 HD 
HETATM   27  O   UNL     1     -14.396   8.981  72.936  1.00  0.00    -0.550 OA 
HETATM   28  H   UNL     1     -13.408   6.697  72.990  1.00  0.00     0.000 HD 
HETATM   29  C   UNL     1     -13.127  10.414  71.427  1.00  0.00    -0.413 C  
BRANCH  20  30
HETATM   30  C   UNL     1     -10.875   6.974  70.107  1.00  0.00    -0.256 C  
HETATM   31  O   UNL     1     -11.279   7.130  68.748  1.00  0.00    -0.462 OA 
HETATM   32  H   UNL     1     -11.011   6.371  68.245  1.00  0.00     0.000 HD 
ENDBRANCH  20  30
ENDBRANCH  16  18
ENDBRANCH  10  11
ENDBRANCH   7  10
ENDBRANCH   3   4
ENDBRANCH   2   3
TORSDOF 6
ENDMDL
MODEL       58
REMARK 921   NORMALIZED FREE ENERGY PREDICTED BY IDOCK:   -6.10 KCAL/MOL
REMARK 922        TOTAL FREE ENERGY PREDICTED BY IDOCK:   -9.20 KCAL/MOL
REMARK 923 INTER-LIGAND FREE ENERGY PREDICTED BY IDOCK:   -7.97 KCAL/MOL
REMARK 924 INTRA-LIGAND FREE ENERGY PREDICTED BY IDOCK:   -1.23 KCAL/MOL
REMARK 927      BINDING AFFINITY PREDICTED BY RF-SCORE:    0.00 PKD
ROOT
HETATM    1  C   UNL     1     -10.133  11.410  63.803  1.00  0.00    -0.408 C  
HETATM    2  C   UNL     1     -11.083  12.561  63.533  1.00  0.00    -0.439 C  
ENDROOT
BRANCH   2   3
HETATM    3  O   UNL     1     -10.620  13.699  64.258  1.00  0.00    -0.394 OA 
BRANCH   3   4
HETATM    4  C   UNL     1     -10.771  13.670  65.616  1.00  0.00    -0.283 A  
HETATM    5  C   UNL     1      -9.826  14.084  66.553  1.00  0.00    -0.298 A  
HETATM    6  C   UNL     1     -10.111  14.008  67.920  1.00  0.00    -0.237 A  
HETATM    7  C   UNL     1     -11.343  13.519  68.375  1.00  0.00    -0.327 A  
HETATM    8  C   UNL     1     -11.995  13.168  66.064  1.00  0.00    -0.488 A  
HETATM    9  C   UNL     1     -12.281  13.090  67.429  1.00  0.00    -0.155 A  
BRANCH   7  10
HETATM   10  C   UNL     1     -11.599  13.389  69.856  1.00  0.00    -0.270 C  
BRANCH  10  11
HETATM   11  C   UNL     1     -11.928  12.005  70.372  1.00  0.00    -0.379 A  
HETATM   12  C   UNL     1     -12.870  11.759  71.380  1.00  0.00    -0.335 A  
HETATM   13 CL   UNL     1     -13.874  13.011  72.016  1.00  0.00    -0.416 Cl 
HETATM   14  C   UNL     1     -12.988  10.481  71.939  1.00  0.00    -0.553 A  
HETATM   15  C   UNL     1     -12.161   9.435  71.517  1.00  0.00    -0.448 A  
HETATM   16  C   UNL     1     -11.232   9.643  70.493  1.00  0.00    -0.359 A  
HETATM   17  C   UNL     1     -11.163  10.922  69.905  1.00  0.00    -0.355 A  
BRANCH  16  18
HETATM   18  C   UNL     1     -10.207   8.594  70.080  1.00  0.00    -0.192 C  
HETATM   19  O   UNL     1     -10.833   7.532  69.336  1.00  0.00    -0.224 OA 
HETATM   20  C   UNL     1      -9.891   6.550  68.868  1.00  0.00    -0.134 C  
HETATM   21  H   UNL     1      -8.337   8.733  72.810  1.00  0.00     0.000 HD 
HETATM   22  C   UNL     1      -9.169   5.884  70.042  1.00  0.00    -0.148 C  
HETATM   23  O   UNL     1      -8.784   9.075  72.045  1.00  0.00    -0.367 OA 
HETATM   24  O   UNL     1      -8.177   4.940  69.614  1.00  0.00    -0.078 OA 
HETATM   25  C   UNL     1      -8.483   6.946  70.903  1.00  0.00    -0.135 C  
HETATM   26  H   UNL     1      -7.458   6.992  72.583  1.00  0.00     0.000 HD 
HETATM   27  O   UNL     1      -7.884   6.332  72.048  1.00  0.00    -0.096 OA 
HETATM   28  H   UNL     1      -7.729   4.526  70.343  1.00  0.00     0.000 HD 
HETATM   29  C   UNL     1      -9.475   8.035  71.333  1.00  0.00    -0.154 C  
BRANCH  20  30
HETATM   30  C   UNL     1     -10.650   5.504  68.037  1.00  0.00    -0.140 C  
HETATM   31  O   UNL     1      -9.749   4.861  67.137  1.00  0.00    -0.151 OA 
HETATM   32  H   UNL     1     -10.218   4.215  66.622  1.00  0.00     0.000 HD 
ENDBRANCH  20  30
ENDBRANCH  16  18
ENDBRANCH  10  11
ENDBRANCH   7  10
ENDBRANCH   3   4
ENDBRANCH   2   3
TORSDOF 6
ENDMDL
MODEL       59
REMARK 921   NORMALIZED FREE ENERGY PREDICTED BY IDOCK:   -6.06 KCAL/MOL
REMARK 922        TOTAL FREE ENERGY PREDICTED BY IDOCK:   -9.15 KCAL/MOL
REMARK 923 INTER-LIGAND FREE ENERGY PREDICTED BY IDOCK:   -7.95 KCAL/MOL
REMARK 924 INTRA-LIGAND FREE ENERGY PREDICTED BY IDOCK:   -1.21 KCAL/MOL
REMARK 927      BINDING AFFINITY PREDICTED BY RF-SCORE:    0.00 PKD
ROOT
HETATM    1  C   UNL     1      -7.101  20.332  67.611  1.00  0.00    -0.325 C  
HETATM    2  C   UNL     1      -7.932  19.457  68.531  1.00  0.00    -0.360 C  
ENDROOT
BRANCH   2   3
HETATM    3  O   UNL     1      -7.663  18.094  68.211  1.00  0.00    -0.264 OA 
BRANCH   3   4
HETATM    4  C   UNL     1      -8.744  17.284  68.000  1.00  0.00    -0.231 A  
HETATM    5  C   UNL     1     -10.056  17.557  68.380  1.00  0.00    -0.358 A  
HETATM    6  C   UNL     1     -11.076  16.643  68.095  1.00  0.00    -0.285 A  
HETATM    7  C   UNL     1     -10.802  15.442  67.428  1.00  0.00    -0.309 A  
HETATM    8  C   UNL     1      -8.463  16.082  67.348  1.00  0.00    -0.187 A  
HETATM    9  C   UNL     1      -9.479  15.165  67.063  1.00  0.00    -0.237 A  
BRANCH   7  10
HETATM   10  C   UNL     1     -11.910  14.444  67.190  1.00  0.00    -0.437 C  
BRANCH  10  11
HETATM   11  C   UNL     1     -11.808  13.125  67.924  1.00  0.00    -0.390 A  
HETATM   12  C   UNL     1     -12.013  12.990  69.303  1.00  0.00    -0.278 A  
HETATM   13 CL   UNL     1     -12.572  14.302  70.277  1.00  0.00    -0.405 Cl 
HETATM   14  C   UNL     1     -11.719  11.781  69.946  1.00  0.00    -0.399 A  
HETATM   15  C   UNL     1     -11.201  10.697  69.230  1.00  0.00    -0.332 A  
HETATM   16  C   UNL     1     -11.013  10.793  67.848  1.00  0.00    -0.344 A  
HETATM   17  C   UNL     1     -11.364  11.999  67.209  1.00  0.00    -0.394 A  
BRANCH  16  18
HETATM   18  C   UNL     1     -10.325   9.707  67.029  1.00  0.00    -0.248 C  
HETATM   19  O   UNL     1     -10.759   8.399  67.448  1.00  0.00    -0.269 OA 
HETATM   20  C   UNL     1     -10.185   7.344  66.657  1.00  0.00    -0.177 C  
HETATM   21  H   UNL     1      -7.383  11.198  66.735  1.00  0.00     0.000 HD 
HETATM   22  C   UNL     1      -8.659   7.346  66.769  1.00  0.00    -0.127 C  
HETATM   23  O   UNL     1      -8.327  11.117  66.663  1.00  0.00    -0.149 OA 
HETATM   24  O   UNL     1      -8.044   6.343  65.947  1.00  0.00    -0.111 OA 
HETATM   25  C   UNL     1      -8.108   8.712  66.356  1.00  0.00    -0.100 C  
HETATM   26  H   UNL     1      -6.347   9.591  66.291  1.00  0.00     0.000 HD 
HETATM   27  O   UNL     1      -6.690   8.742  66.547  1.00  0.00    -0.069 OA 
HETATM   28  H   UNL     1      -7.097   6.345  66.016  1.00  0.00     0.000 HD 
HETATM   29  C   UNL     1      -8.781   9.841  67.146  1.00  0.00    -0.132 C  
BRANCH  20  30
HETATM   30  C   UNL     1     -10.761   6.003  67.141  1.00  0.00    -0.330 C  
HETATM   31  O   UNL     1     -10.953   5.133  66.028  1.00  0.00    -0.698 OA 
HETATM   32  H   UNL     1     -11.308   4.304  66.326  1.00  0.00     0.000 HD 
ENDBRANCH  20  30
ENDBRANCH  16  18
ENDBRANCH  10  11
ENDBRANCH   7  10
ENDBRANCH   3   4
ENDBRANCH   2   3
TORSDOF 6
ENDMDL
MODEL       60
REMARK 921   NORMALIZED FREE ENERGY PREDICTED BY IDOCK:   -6.06 KCAL/MOL
REMARK 922        TOTAL FREE ENERGY PREDICTED BY IDOCK:   -9.15 KCAL/MOL
REMARK 923 INTER-LIGAND FREE ENERGY PREDICTED BY IDOCK:   -8.90 KCAL/MOL
REMARK 924 INTRA-LIGAND FREE ENERGY PREDICTED BY IDOCK:   -0.24 KCAL/MOL
REMARK 927      BINDING AFFINITY PREDICTED BY RF-SCORE:    0.00 PKD
ROOT
HETATM    1  C   UNL     1     -12.443  15.708  74.262  1.00  0.00    -0.804 C  
HETATM    2  C   UNL     1     -12.713  15.967  72.791  1.00  0.00    -0.467 C  
ENDROOT
BRANCH   2   3
HETATM    3  O   UNL     1     -11.530  15.649  72.059  1.00  0.00    -0.415 OA 
BRANCH   3   4
HETATM    4  C   UNL     1     -11.695  14.973  70.882  1.00  0.00    -0.328 A  
HETATM    5  C   UNL     1     -12.287  13.720  70.734  1.00  0.00    -0.451 A  
HETATM    6  C   UNL     1     -12.401  13.142  69.466  1.00  0.00    -0.087 A  
HETATM    7  C   UNL     1     -11.927  13.804  68.326  1.00  0.00    -0.392 A  
HETATM    8  C   UNL     1     -11.208  15.631  69.751  1.00  0.00    -0.322 A  
HETATM    9  C   UNL     1     -11.319  15.054  68.483  1.00  0.00    -0.317 A  
BRANCH   7  10
HETATM   10  C   UNL     1     -12.006  13.128  66.978  1.00  0.00    -0.412 C  
BRANCH  10  11
HETATM   11  C   UNL     1     -11.167  11.884  66.790  1.00  0.00    -0.384 A  
HETATM   12  C   UNL     1     -10.487  11.582  65.602  1.00  0.00    -0.266 A  
HETATM   13 CL   UNL     1     -10.406  12.698  64.287  1.00  0.00    -0.391 Cl 
HETATM   14  C   UNL     1      -9.886  10.329  65.431  1.00  0.00    -0.362 A  
HETATM   15  C   UNL     1      -9.968   9.353  66.429  1.00  0.00    -0.346 A  
HETATM   16  C   UNL     1     -10.616   9.635  67.636  1.00  0.00    -0.334 A  
HETATM   17  C   UNL     1     -11.168  10.919  67.812  1.00  0.00    -0.384 A  
BRANCH  16  18
HETATM   18  C   UNL     1     -10.865   8.580  68.708  1.00  0.00     0.043 C  
HETATM   19  O   UNL     1     -10.164   8.910  69.923  1.00  0.00    -0.189 OA 
HETATM   20  C   UNL     1     -10.423   7.975  70.985  1.00  0.00    -0.203 C  
HETATM   21  H   UNL     1     -10.929   5.946  66.702  1.00  0.00     0.000 HD 
HETATM   22  C   UNL     1      -9.968   6.567  70.596  1.00  0.00    -0.184 C  
HETATM   23  O   UNL     1     -11.187   6.804  67.018  1.00  0.00    -0.393 OA 
HETATM   24  O   UNL     1     -10.263   5.593  71.607  1.00  0.00    -0.194 OA 
HETATM   25  C   UNL     1     -10.654   6.137  69.298  1.00  0.00    -0.285 C  
HETATM   26  H   UNL     1     -10.587   4.591  68.081  1.00  0.00     0.000 HD 
HETATM   27  O   UNL     1     -10.161   4.858  68.887  1.00  0.00    -0.171 OA 
HETATM   28  H   UNL     1      -9.980   4.719  71.366  1.00  0.00     0.000 HD 
HETATM   29  C   UNL     1     -10.442   7.176  68.190  1.00  0.00    -0.200 C  
BRANCH  20  30
HETATM   30  C   UNL     1      -9.685   8.453  72.246  1.00  0.00    -0.316 C  
HETATM   31  O   UNL     1      -8.402   8.962  71.887  1.00  0.00    -0.349 OA 
HETATM   32  H   UNL     1      -7.945   9.257  72.666  1.00  0.00     0.000 HD 
ENDBRANCH  20  30
ENDBRANCH  16  18
ENDBRANCH  10  11
ENDBRANCH   7  10
ENDBRANCH   3   4
ENDBRANCH   2   3
TORSDOF 6
ENDMDL
MODEL       61
REMARK 921   NORMALIZED FREE ENERGY PREDICTED BY IDOCK:   -6.05 KCAL/MOL
REMARK 922        TOTAL FREE ENERGY PREDICTED BY IDOCK:   -9.14 KCAL/MOL
REMARK 923 INTER-LIGAND FREE ENERGY PREDICTED BY IDOCK:   -7.70 KCAL/MOL
REMARK 924 INTRA-LIGAND FREE ENERGY PREDICTED BY IDOCK:   -1.44 KCAL/MOL
REMARK 927      BINDING AFFINITY PREDICTED BY RF-SCORE:    0.00 PKD
ROOT
HETATM    1  C   UNL     1      -5.734   5.580  65.133  1.00  0.00    -0.017 C  
HETATM    2  C   UNL     1      -5.535   7.035  65.516  1.00  0.00    -0.027 C  
ENDROOT
BRANCH   2   3
HETATM    3  O   UNL     1      -6.720   7.751  65.172  1.00  0.00    -0.050 OA 
BRANCH   3   4
HETATM    4  C   UNL     1      -7.655   7.906  66.157  1.00  0.00    -0.083 A  
HETATM    5  C   UNL     1      -7.393   8.189  67.496  1.00  0.00    -0.093 A  
HETATM    6  C   UNL     1      -8.447   8.332  68.405  1.00  0.00    -0.129 A  
HETATM    7  C   UNL     1      -9.779   8.194  67.992  1.00  0.00    -0.186 A  
HETATM    8  C   UNL     1      -8.980   7.753  65.743  1.00  0.00    -0.109 A  
HETATM    9  C   UNL     1     -10.035   7.893  66.649  1.00  0.00    -0.316 A  
BRANCH   7  10
HETATM   10  C   UNL     1     -10.893   8.289  69.006  1.00  0.00    -0.012 C  
BRANCH  10  11
HETATM   11  C   UNL     1     -11.257   9.675  69.490  1.00  0.00    -0.144 A  
HETATM   12  C   UNL     1     -11.744   9.942  70.777  1.00  0.00    -0.341 A  
HETATM   13 CL   UNL     1     -11.816   8.722  71.996  1.00  0.00    -0.426 Cl 
HETATM   14  C   UNL     1     -12.237  11.213  71.096  1.00  0.00    -0.387 A  
HETATM   15  C   UNL     1     -12.269  12.230  70.137  1.00  0.00    -0.302 A  
HETATM   16  C   UNL     1     -11.764  12.002  68.853  1.00  0.00    -0.383 A  
HETATM   17  C   UNL     1     -11.223  10.734  68.565  1.00  0.00    -0.340 A  
BRANCH  16  18
HETATM   18  C   UNL     1     -11.893  13.014  67.721  1.00  0.00    -0.347 C  
HETATM   19  O   UNL     1     -12.179  12.353  66.473  1.00  0.00    -0.586 OA 
HETATM   20  C   UNL     1     -12.375  13.275  65.388  1.00  0.00    -0.479 C  
HETATM   21  H   UNL     1      -9.549  15.111  68.758  1.00  0.00     0.000 HD 
HETATM   22  C   UNL     1     -11.117  14.114  65.150  1.00  0.00    -0.348 C  
HETATM   23  O   UNL     1     -10.341  14.590  68.826  1.00  0.00    -0.234 OA 
HETATM   24  O   UNL     1     -11.293  15.089  64.112  1.00  0.00    -0.636 OA 
HETATM   25  C   UNL     1     -10.728  14.845  66.436  1.00  0.00    -0.316 C  
HETATM   26  H   UNL     1      -9.260  16.012  67.038  1.00  0.00     0.000 HD 
HETATM   27  O   UNL     1      -9.502  15.558  66.239  1.00  0.00    -0.271 OA 
HETATM   28  H   UNL     1     -10.512  15.610  63.965  1.00  0.00     0.000 HD 
HETATM   29  C   UNL     1     -10.598  13.867  67.611  1.00  0.00    -0.245 C  
BRANCH  20  30
HETATM   30  C   UNL     1     -12.736  12.475  64.126  1.00  0.00    -0.322 C  
HETATM   31  O   UNL     1     -11.557  12.215  63.368  1.00  0.00    -0.568 OA 
HETATM   32  H   UNL     1     -11.779  11.720  62.589  1.00  0.00     0.000 HD 
ENDBRANCH  20  30
ENDBRANCH  16  18
ENDBRANCH  10  11
ENDBRANCH   7  10
ENDBRANCH   3   4
ENDBRANCH   2   3
TORSDOF 6
ENDMDL
MODEL       62
REMARK 921   NORMALIZED FREE ENERGY PREDICTED BY IDOCK:   -6.05 KCAL/MOL
REMARK 922        TOTAL FREE ENERGY PREDICTED BY IDOCK:   -9.14 KCAL/MOL
REMARK 923 INTER-LIGAND FREE ENERGY PREDICTED BY IDOCK:   -8.43 KCAL/MOL
REMARK 924 INTRA-LIGAND FREE ENERGY PREDICTED BY IDOCK:   -0.71 KCAL/MOL
REMARK 927      BINDING AFFINITY PREDICTED BY RF-SCORE:    0.00 PKD
ROOT
HETATM    1  C   UNL     1     -12.319   7.227  71.407  1.00  0.00    -0.403 C  
HETATM    2  C   UNL     1     -12.422   8.688  71.803  1.00  0.00    -0.346 C  
ENDROOT
BRANCH   2   3
HETATM    3  O   UNL     1     -11.101   9.220  71.887  1.00  0.00    -0.367 OA 
BRANCH   3   4
HETATM    4  C   UNL     1     -10.507   9.587  70.712  1.00  0.00    -0.314 A  
HETATM    5  C   UNL     1      -9.151   9.475  70.412  1.00  0.00    -0.296 A  
HETATM    6  C   UNL     1      -8.670   9.880  69.163  1.00  0.00    -0.159 A  
HETATM    7  C   UNL     1      -9.535  10.405  68.193  1.00  0.00    -0.152 A  
HETATM    8  C   UNL     1     -11.371  10.122  69.755  1.00  0.00    -0.312 A  
HETATM    9  C   UNL     1     -10.894  10.530  68.506  1.00  0.00    -0.275 A  
BRANCH   7  10
HETATM   10  C   UNL     1      -8.981  10.894  66.878  1.00  0.00    -0.158 C  
BRANCH  10  11
HETATM   11  C   UNL     1      -9.838  11.865  66.095  1.00  0.00    -0.254 A  
HETATM   12  C   UNL     1     -10.135  11.710  64.735  1.00  0.00    -0.260 A  
HETATM   13 CL   UNL     1      -9.684  10.295  63.856  1.00  0.00    -0.364 Cl 
HETATM   14  C   UNL     1     -10.774  12.738  64.030  1.00  0.00    -0.457 A  
HETATM   15  C   UNL     1     -11.110  13.939  64.664  1.00  0.00    -0.389 A  
HETATM   16  C   UNL     1     -10.852  14.111  66.027  1.00  0.00    -0.297 A  
HETATM   17  C   UNL     1     -10.257  13.046  66.732  1.00  0.00    -0.246 A  
BRANCH  16  18
HETATM   18  C   UNL     1     -11.061  15.437  66.749  1.00  0.00    -0.244 C  
HETATM   19  O   UNL     1     -10.076  16.404  66.338  1.00  0.00    -0.285 OA 
HETATM   20  C   UNL     1     -10.275  17.693  66.945  1.00  0.00    -0.334 C  
HETATM   21  H   UNL     1     -12.020  14.187  69.661  1.00  0.00     0.000 HD 
HETATM   22  C   UNL     1     -10.175  17.599  68.469  1.00  0.00    -0.386 C  
HETATM   23  O   UNL     1     -12.046  14.317  68.721  1.00  0.00    -0.324 OA 
HETATM   24  O   UNL     1     -10.427  18.855  69.116  1.00  0.00    -0.441 OA 
HETATM   25  C   UNL     1     -11.182  16.576  68.996  1.00  0.00    -0.238 C  
HETATM   26  H   UNL     1     -11.653  15.788  70.738  1.00  0.00     0.000 HD 
HETATM   27  O   UNL     1     -11.027  16.424  70.410  1.00  0.00    -0.322 OA 
HETATM   28  H   UNL     1     -10.365  18.797  70.062  1.00  0.00     0.000 HD 
HETATM   29  C   UNL     1     -11.019  15.225  68.288  1.00  0.00    -0.276 C  
BRANCH  20  30
HETATM   30  C   UNL     1      -9.217  18.661  66.392  1.00  0.00    -0.291 C  
HETATM   31  O   UNL     1      -8.149  18.792  67.329  1.00  0.00    -0.241 OA 
HETATM   32  H   UNL     1      -7.496  19.390  66.988  1.00  0.00     0.000 HD 
ENDBRANCH  20  30
ENDBRANCH  16  18
ENDBRANCH  10  11
ENDBRANCH   7  10
ENDBRANCH   3   4
ENDBRANCH   2   3
TORSDOF 6
ENDMDL
MODEL       63
REMARK 921   NORMALIZED FREE ENERGY PREDICTED BY IDOCK:   -6.05 KCAL/MOL
REMARK 922        TOTAL FREE ENERGY PREDICTED BY IDOCK:   -9.13 KCAL/MOL
REMARK 923 INTER-LIGAND FREE ENERGY PREDICTED BY IDOCK:   -8.34 KCAL/MOL
REMARK 924 INTRA-LIGAND FREE ENERGY PREDICTED BY IDOCK:   -0.79 KCAL/MOL
REMARK 927      BINDING AFFINITY PREDICTED BY RF-SCORE:    0.00 PKD
ROOT
HETATM    1  C   UNL     1     -11.016  15.861  64.938  1.00  0.00    -0.427 C  
HETATM    2  C   UNL     1     -12.236  15.441  64.139  1.00  0.00    -0.057 C  
ENDROOT
BRANCH   2   3
HETATM    3  O   UNL     1     -12.806  14.295  64.768  1.00  0.00    -0.671 OA 
BRANCH   3   4
HETATM    4  C   UNL     1     -12.037  13.165  64.808  1.00  0.00    -0.409 A  
HETATM    5  C   UNL     1     -11.551  12.468  63.704  1.00  0.00    -0.580 A  
HETATM    6  C   UNL     1     -10.764  11.325  63.885  1.00  0.00    -0.451 A  
HETATM    7  C   UNL     1     -10.449  10.862  65.169  1.00  0.00    -0.316 A  
HETATM    8  C   UNL     1     -11.739  12.699  66.090  1.00  0.00    -0.461 A  
HETATM    9  C   UNL     1     -10.954  11.557  66.273  1.00  0.00    -0.328 A  
BRANCH   7  10
HETATM   10  C   UNL     1      -9.652   9.591  65.334  1.00  0.00    -0.342 C  
BRANCH  10  11
HETATM   11  C   UNL     1      -9.126   9.292  66.721  1.00  0.00    -0.170 A  
HETATM   12  C   UNL     1      -7.801   9.527  67.112  1.00  0.00    -0.095 A  
HETATM   13 CL   UNL     1      -6.677  10.344  66.087  1.00  0.00    -0.109 Cl 
HETATM   14  C   UNL     1      -7.334   9.054  68.345  1.00  0.00    -0.078 A  
HETATM   15  C   UNL     1      -8.172   8.328  69.197  1.00  0.00    -0.121 A  
HETATM   16  C   UNL     1      -9.507   8.103  68.846  1.00  0.00    -0.151 A  
HETATM   17  C   UNL     1      -9.974   8.631  67.626  1.00  0.00    -0.248 A  
BRANCH  16  18
HETATM   18  C   UNL     1     -10.435   7.204  69.655  1.00  0.00    -0.229 C  
HETATM   19  O   UNL     1     -11.430   7.985  70.344  1.00  0.00    -0.241 OA 
HETATM   20  C   UNL     1     -12.370   7.173  71.069  1.00  0.00    -0.334 C  
HETATM   21  H   UNL     1      -8.164   4.983  70.591  1.00  0.00     0.000 HD 
HETATM   22  C   UNL     1     -11.660   6.342  72.140  1.00  0.00    -0.319 C  
HETATM   23  O   UNL     1      -8.665   5.507  69.978  1.00  0.00    -0.123 OA 
HETATM   24  O   UNL     1     -12.557   5.472  72.847  1.00  0.00    -0.470 OA 
HETATM   25  C   UNL     1     -10.567   5.486  71.497  1.00  0.00    -0.237 C  
HETATM   26  H   UNL     1      -9.167   4.245  72.110  1.00  0.00     0.000 HD 
HETATM   27  O   UNL     1      -9.846   4.777  72.509  1.00  0.00    -0.147 OA 
HETATM   28  H   UNL     1     -12.116   4.956  73.512  1.00  0.00     0.000 HD 
HETATM   29  C   UNL     1      -9.614   6.346  70.658  1.00  0.00    -0.172 C  
BRANCH  20  30
HETATM   30  C   UNL     1     -13.420   8.095  71.709  1.00  0.00    -0.350 C  
HETATM   31  O   UNL     1     -13.011   8.445  73.030  1.00  0.00    -0.704 OA 
HETATM   32  H   UNL     1     -13.660   9.015  73.426  1.00  0.00     0.000 HD 
ENDBRANCH  20  30
ENDBRANCH  16  18
ENDBRANCH  10  11
ENDBRANCH   7  10
ENDBRANCH   3   4
ENDBRANCH   2   3
TORSDOF 6
ENDMDL
MODEL       64
REMARK 921   NORMALIZED FREE ENERGY PREDICTED BY IDOCK:   -6.05 KCAL/MOL
REMARK 922        TOTAL FREE ENERGY PREDICTED BY IDOCK:   -9.13 KCAL/MOL
REMARK 923 INTER-LIGAND FREE ENERGY PREDICTED BY IDOCK:   -8.29 KCAL/MOL
REMARK 924 INTRA-LIGAND FREE ENERGY PREDICTED BY IDOCK:   -0.84 KCAL/MOL
REMARK 927      BINDING AFFINITY PREDICTED BY RF-SCORE:    0.00 PKD
ROOT
HETATM    1  C   UNL     1      -5.671  17.022  66.573  1.00  0.00    -0.144 C  
HETATM    2  C   UNL     1      -7.163  17.202  66.361  1.00  0.00    -0.290 C  
ENDROOT
BRANCH   2   3
HETATM    3  O   UNL     1      -7.785  15.923  66.476  1.00  0.00    -0.213 OA 
BRANCH   3   4
HETATM    4  C   UNL     1      -8.875  15.838  67.296  1.00  0.00    -0.195 A  
HETATM    5  C   UNL     1     -10.206  15.794  66.886  1.00  0.00    -0.280 A  
HETATM    6  C   UNL     1     -11.232  15.698  67.833  1.00  0.00    -0.328 A  
HETATM    7  C   UNL     1     -10.945  15.644  69.203  1.00  0.00    -0.259 A  
HETATM    8  C   UNL     1      -8.585  15.800  68.661  1.00  0.00    -0.194 A  
HETATM    9  C   UNL     1      -9.607  15.705  69.610  1.00  0.00    -0.260 A  
BRANCH   7  10
HETATM   10  C   UNL     1     -12.073  15.605  70.205  1.00  0.00    -0.413 C  
BRANCH  10  11
HETATM   11  C   UNL     1     -12.534  14.238  70.660  1.00  0.00    -0.428 A  
HETATM   12  C   UNL     1     -13.219  14.013  71.861  1.00  0.00    -0.395 A  
HETATM   13 CL   UNL     1     -13.755  15.311  72.864  1.00  0.00    -0.555 Cl 
HETATM   14  C   UNL     1     -13.448  12.706  72.310  1.00  0.00    -0.541 A  
HETATM   15  C   UNL     1     -12.984  11.607  71.580  1.00  0.00    -0.463 A  
HETATM   16  C   UNL     1     -12.322  11.800  70.363  1.00  0.00    -0.362 A  
HETATM   17  C   UNL     1     -12.147  13.119  69.901  1.00  0.00    -0.357 A  
BRANCH  16  18
HETATM   18  C   UNL     1     -11.669  10.662  69.587  1.00  0.00    -0.296 C  
HETATM   19  O   UNL     1     -10.644  10.027  70.375  1.00  0.00    -0.286 OA 
HETATM   20  C   UNL     1     -10.044   8.904  69.706  1.00  0.00    -0.199 C  
HETATM   21  H   UNL     1     -11.757  12.085  66.598  1.00  0.00     0.000 HD 
HETATM   22  C   UNL     1      -9.374   9.340  68.402  1.00  0.00    -0.138 C  
HETATM   23  O   UNL     1     -12.113  11.762  67.417  1.00  0.00    -0.595 OA 
HETATM   24  O   UNL     1      -8.814   8.237  67.674  1.00  0.00    -0.135 OA 
HETATM   25  C   UNL     1     -10.391  10.043  67.502  1.00  0.00    -0.232 C  
HETATM   26  H   UNL     1     -10.375  10.967  65.763  1.00  0.00     0.000 HD 
HETATM   27  O   UNL     1      -9.743  10.529  66.322  1.00  0.00    -0.189 OA 
HETATM   28  H   UNL     1      -8.398   8.508  66.864  1.00  0.00     0.000 HD 
HETATM   29  C   UNL     1     -11.087  11.191  68.246  1.00  0.00    -0.251 C  
BRANCH  20  30
HETATM   30  C   UNL     1      -9.018   8.263  70.654  1.00  0.00    -0.151 C  
HETATM   31  O   UNL     1      -8.856   6.885  70.325  1.00  0.00    -0.146 OA 
HETATM   32  H   UNL     1      -8.222   6.488  70.911  1.00  0.00     0.000 HD 
ENDBRANCH  20  30
ENDBRANCH  16  18
ENDBRANCH  10  11
ENDBRANCH   7  10
ENDBRANCH   3   4
ENDBRANCH   2   3
TORSDOF 6
ENDMDL
MODEL       65
REMARK 921   NORMALIZED FREE ENERGY PREDICTED BY IDOCK:   -6.03 KCAL/MOL
REMARK 922        TOTAL FREE ENERGY PREDICTED BY IDOCK:   -9.11 KCAL/MOL
REMARK 923 INTER-LIGAND FREE ENERGY PREDICTED BY IDOCK:   -7.88 KCAL/MOL
REMARK 924 INTRA-LIGAND FREE ENERGY PREDICTED BY IDOCK:   -1.24 KCAL/MOL
REMARK 927      BINDING AFFINITY PREDICTED BY RF-SCORE:    0.00 PKD
ROOT
HETATM    1  C   UNL     1      -8.339   5.600  64.597  1.00  0.00    -0.119 C  
HETATM    2  C   UNL     1      -8.339   6.498  65.820  1.00  0.00    -0.143 C  
ENDROOT
BRANCH   2   3
HETATM    3  O   UNL     1      -7.925   7.801  65.415  1.00  0.00    -0.109 OA 
BRANCH   3   4
HETATM    4  C   UNL     1      -8.713   8.849  65.803  1.00  0.00    -0.176 A  
HETATM    5  C   UNL     1      -8.455  10.197  65.568  1.00  0.00    -0.159 A  
HETATM    6  C   UNL     1      -9.352  11.174  66.014  1.00  0.00    -0.228 A  
HETATM    7  C   UNL     1     -10.520  10.820  66.702  1.00  0.00    -0.302 A  
HETATM    8  C   UNL     1      -9.868   8.491  66.501  1.00  0.00    -0.342 A  
HETATM    9  C   UNL     1     -10.766   9.465  66.949  1.00  0.00    -0.174 A  
BRANCH   7  10
HETATM   10  C   UNL     1     -11.438  11.897  67.228  1.00  0.00    -0.385 C  
BRANCH  10  11
HETATM   11  C   UNL     1     -11.365  13.246  66.547  1.00  0.00    -0.353 A  
HETATM   12  C   UNL     1     -11.736  13.460  65.213  1.00  0.00    -0.323 A  
HETATM   13 CL   UNL     1     -12.478  12.225  64.262  1.00  0.00    -0.531 Cl 
HETATM   14  C   UNL     1     -11.467  14.686  64.592  1.00  0.00    -0.389 A  
HETATM   15  C   UNL     1     -10.809  15.709  65.284  1.00  0.00    -0.420 A  
HETATM   16  C   UNL     1     -10.452  15.535  66.624  1.00  0.00    -0.299 A  
HETATM   17  C   UNL     1     -10.779  14.315  67.248  1.00  0.00    -0.277 A  
BRANCH  16  18
HETATM   18  C   UNL     1      -9.613  16.547  67.396  1.00  0.00    -0.238 C  
HETATM   19  O   UNL     1     -10.243  17.843  67.391  1.00  0.00    -0.329 OA 
HETATM   20  C   UNL     1      -9.519  18.816  68.164  1.00  0.00    -0.326 C  
HETATM   21  H   UNL     1      -6.638  15.404  66.496  1.00  0.00     0.000 HD 
HETATM   22  C   UNL     1      -8.111  19.021  67.601  1.00  0.00    -0.269 C  
HETATM   23  O   UNL     1      -7.513  15.356  66.862  1.00  0.00    -0.176 OA 
HETATM   24  O   UNL     1      -7.334  19.942  68.381  1.00  0.00    -0.302 OA 
HETATM   25  C   UNL     1      -7.368  17.685  67.554  1.00  0.00    -0.189 C  
HETATM   26  H   UNL     1      -5.623  17.032  66.915  1.00  0.00     0.000 HD 
HETATM   27  O   UNL     1      -6.085  17.862  66.945  1.00  0.00    -0.140 OA 
HETATM   28  H   UNL     1      -6.460  20.070  68.032  1.00  0.00     0.000 HD 
HETATM   29  C   UNL     1      -8.181  16.627  66.797  1.00  0.00    -0.239 C  
BRANCH  20  30
HETATM   30  C   UNL     1     -10.306  20.136  68.147  1.00  0.00    -0.300 C  
HETATM   31  O   UNL     1      -9.665  21.065  67.275  1.00  0.00    -0.637 OA 
HETATM   32  H   UNL     1     -10.151  21.881  67.265  1.00  0.00     0.000 HD 
ENDBRANCH  20  30
ENDBRANCH  16  18
ENDBRANCH  10  11
ENDBRANCH   7  10
ENDBRANCH   3   4
ENDBRANCH   2   3
TORSDOF 6
ENDMDL
MODEL       66
REMARK 921   NORMALIZED FREE ENERGY PREDICTED BY IDOCK:   -6.02 KCAL/MOL
REMARK 922        TOTAL FREE ENERGY PREDICTED BY IDOCK:   -9.10 KCAL/MOL
REMARK 923 INTER-LIGAND FREE ENERGY PREDICTED BY IDOCK:   -8.76 KCAL/MOL
REMARK 924 INTRA-LIGAND FREE ENERGY PREDICTED BY IDOCK:   -0.35 KCAL/MOL
REMARK 927      BINDING AFFINITY PREDICTED BY RF-SCORE:    0.00 PKD
ROOT
HETATM    1  C   UNL     1     -10.167  19.928  67.185  1.00  0.00    -0.579 C  
HETATM    2  C   UNL     1     -10.124  19.215  68.523  1.00  0.00    -0.422 C  
ENDROOT
BRANCH   2   3
HETATM    3  O   UNL     1      -9.409  17.992  68.353  1.00  0.00    -0.284 OA 
BRANCH   3   4
HETATM    4  C   UNL     1     -10.140  16.892  68.001  1.00  0.00    -0.293 A  
HETATM    5  C   UNL     1     -11.136  16.292  68.768  1.00  0.00    -0.355 A  
HETATM    6  C   UNL     1     -11.818  15.170  68.285  1.00  0.00    -0.275 A  
HETATM    7  C   UNL     1     -11.516  14.630  67.028  1.00  0.00    -0.379 A  
HETATM    8  C   UNL     1      -9.825  16.349  66.754  1.00  0.00    -0.265 A  
HETATM    9  C   UNL     1     -10.504  15.227  66.269  1.00  0.00    -0.313 A  
BRANCH   7  10
HETATM   10  C   UNL     1     -12.222  13.381  66.558  1.00  0.00    -0.414 C  
BRANCH  10  11
HETATM   11  C   UNL     1     -11.355  12.284  65.982  1.00  0.00    -0.398 A  
HETATM   12  C   UNL     1     -11.134  12.113  64.609  1.00  0.00    -0.317 A  
HETATM   13 CL   UNL     1     -11.702  13.254  63.444  1.00  0.00    -0.408 Cl 
HETATM   14  C   UNL     1     -10.478  10.970  64.135  1.00  0.00    -0.434 A  
HETATM   15  C   UNL     1     -10.049   9.974  65.018  1.00  0.00    -0.228 A  
HETATM   16  C   UNL     1     -10.230  10.130  66.395  1.00  0.00    -0.288 A  
HETATM   17  C   UNL     1     -10.844  11.310  66.858  1.00  0.00    -0.333 A  
BRANCH  16  18
HETATM   18  C   UNL     1      -9.915   9.028  67.401  1.00  0.00    -0.209 C  
HETATM   19  O   UNL     1     -10.146   7.728  66.825  1.00  0.00    -0.250 OA 
HETATM   20  C   UNL     1      -9.799   6.655  67.717  1.00  0.00    -0.124 C  
HETATM   21  H   UNL     1     -11.006  10.600  70.104  1.00  0.00     0.000 HD 
HETATM   22  C   UNL     1     -10.640   6.714  68.994  1.00  0.00    -0.239 C  
HETATM   23  O   UNL     1     -10.488  10.484  69.316  1.00  0.00    -0.210 OA 
HETATM   24  O   UNL     1     -10.283   5.693  69.937  1.00  0.00    -0.205 OA 
HETATM   25  C   UNL     1     -10.469   8.075  69.669  1.00  0.00    -0.224 C  
HETATM   26  H   UNL     1     -11.218   9.008  71.234  1.00  0.00     0.000 HD 
HETATM   27  O   UNL     1     -11.324   8.162  70.814  1.00  0.00    -0.271 OA 
HETATM   28  H   UNL     1     -10.805   5.730  70.730  1.00  0.00     0.000 HD 
HETATM   29  C   UNL     1     -10.762   9.219  68.691  1.00  0.00    -0.143 C  
BRANCH  20  30
HETATM   30  C   UNL     1     -10.019   5.322  66.986  1.00  0.00    -0.189 C  
HETATM   31  O   UNL     1     -11.241   5.372  66.252  1.00  0.00    -0.709 OA 
HETATM   32  H   UNL     1     -11.377   4.548  65.800  1.00  0.00     0.000 HD 
ENDBRANCH  20  30
ENDBRANCH  16  18
ENDBRANCH  10  11
ENDBRANCH   7  10
ENDBRANCH   3   4
ENDBRANCH   2   3
TORSDOF 6
ENDMDL
MODEL       67
REMARK 921   NORMALIZED FREE ENERGY PREDICTED BY IDOCK:   -6.01 KCAL/MOL
REMARK 922        TOTAL FREE ENERGY PREDICTED BY IDOCK:   -9.09 KCAL/MOL
REMARK 923 INTER-LIGAND FREE ENERGY PREDICTED BY IDOCK:   -7.85 KCAL/MOL
REMARK 924 INTRA-LIGAND FREE ENERGY PREDICTED BY IDOCK:   -1.23 KCAL/MOL
REMARK 927      BINDING AFFINITY PREDICTED BY RF-SCORE:    0.00 PKD
ROOT
HETATM    1  C   UNL     1     -11.291  15.897  64.493  1.00  0.00    -0.316 C  
HETATM    2  C   UNL     1     -12.584  15.105  64.533  1.00  0.00     0.073 C  
ENDROOT
BRANCH   2   3
HETATM    3  O   UNL     1     -12.438  13.971  63.680  1.00  0.00    -0.803 OA 
BRANCH   3   4
HETATM    4  C   UNL     1     -11.677  12.938  64.151  1.00  0.00    -0.406 A  
HETATM    5  C   UNL     1     -10.763  12.191  63.410  1.00  0.00    -0.461 A  
HETATM    6  C   UNL     1     -10.038  11.161  64.018  1.00  0.00    -0.392 A  
HETATM    7  C   UNL     1     -10.214  10.859  65.375  1.00  0.00    -0.339 A  
HETATM    8  C   UNL     1     -11.867  12.631  65.500  1.00  0.00    -0.479 A  
HETATM    9  C   UNL     1     -11.146  11.601  66.110  1.00  0.00    -0.335 A  
BRANCH   7  10
HETATM   10  C   UNL     1      -9.467   9.700  65.990  1.00  0.00    -0.284 C  
BRANCH  10  11
HETATM   11  C   UNL     1      -8.954   9.892  67.400  1.00  0.00    -0.144 A  
HETATM   12  C   UNL     1      -7.697  10.435  67.698  1.00  0.00    -0.093 A  
HETATM   13 CL   UNL     1      -6.675  11.098  66.475  1.00  0.00    -0.138 Cl 
HETATM   14  C   UNL     1      -7.210  10.410  69.011  1.00  0.00    -0.088 A  
HETATM   15  C   UNL     1      -7.957   9.829  70.041  1.00  0.00    -0.196 A  
HETATM   16  C   UNL     1      -9.227   9.305  69.779  1.00  0.00    -0.191 A  
HETATM   17  C   UNL     1      -9.723   9.387  68.463  1.00  0.00    -0.160 A  
BRANCH  16  18
HETATM   18  C   UNL     1     -10.035   8.536  70.817  1.00  0.00    -0.191 C  
HETATM   19  O   UNL     1      -9.856   7.116  70.655  1.00  0.00    -0.182 OA 
HETATM   20  C   UNL     1     -10.550   6.351  71.657  1.00  0.00    -0.222 C  
HETATM   21  H   UNL     1     -12.659  10.556  70.891  1.00  0.00     0.000 HD 
HETATM   22  C   UNL     1     -12.057   6.603  71.590  1.00  0.00    -0.355 C  
HETATM   23  O   UNL     1     -11.740  10.322  70.951  1.00  0.00    -0.333 OA 
HETATM   24  O   UNL     1     -12.780   5.903  72.612  1.00  0.00    -0.514 OA 
HETATM   25  C   UNL     1     -12.342   8.099  71.737  1.00  0.00    -0.321 C  
HETATM   26  H   UNL     1     -13.922   9.273  71.676  1.00  0.00     0.000 HD 
HETATM   27  O   UNL     1     -13.744   8.344  71.585  1.00  0.00    -0.359 OA 
HETATM   28  H   UNL     1     -13.716   6.059  72.571  1.00  0.00     0.000 HD 
HETATM   29  C   UNL     1     -11.539   8.918  70.719  1.00  0.00    -0.259 C  
BRANCH  20  30
HETATM   30  C   UNL     1     -10.241   4.862  71.434  1.00  0.00    -0.187 C  
HETATM   31  O   UNL     1     -10.544   4.125  72.617  1.00  0.00    -0.177 OA 
HETATM   32  H   UNL     1     -10.354   3.205  72.479  1.00  0.00     0.000 HD 
ENDBRANCH  20  30
ENDBRANCH  16  18
ENDBRANCH  10  11
ENDBRANCH   7  10
ENDBRANCH   3   4
ENDBRANCH   2   3
TORSDOF 6
ENDMDL
MODEL       68
REMARK 921   NORMALIZED FREE ENERGY PREDICTED BY IDOCK:   -6.01 KCAL/MOL
REMARK 922        TOTAL FREE ENERGY PREDICTED BY IDOCK:   -9.08 KCAL/MOL
REMARK 923 INTER-LIGAND FREE ENERGY PREDICTED BY IDOCK:   -8.08 KCAL/MOL
REMARK 924 INTRA-LIGAND FREE ENERGY PREDICTED BY IDOCK:   -1.00 KCAL/MOL
REMARK 927      BINDING AFFINITY PREDICTED BY RF-SCORE:    0.00 PKD
ROOT
HETATM    1  C   UNL     1      -6.913   6.292  72.788  1.00  0.00    -0.075 C  
HETATM    2  C   UNL     1      -5.875   5.966  71.730  1.00  0.00    -0.030 C  
ENDROOT
BRANCH   2   3
HETATM    3  O   UNL     1      -5.753   7.094  70.865  1.00  0.00    -0.027 OA 
BRANCH   3   4
HETATM    4  C   UNL     1      -6.897   7.535  70.261  1.00  0.00    -0.047 A  
HETATM    5  C   UNL     1      -7.910   6.731  69.741  1.00  0.00    -0.115 A  
HETATM    6  C   UNL     1      -9.038   7.313  69.153  1.00  0.00    -0.137 A  
HETATM    7  C   UNL     1      -9.174   8.705  69.074  1.00  0.00    -0.145 A  
HETATM    8  C   UNL     1      -7.020   8.923  70.171  1.00  0.00    -0.043 A  
HETATM    9  C   UNL     1      -8.146   9.507  69.583  1.00  0.00    -0.128 A  
BRANCH   7  10
HETATM   10  C   UNL     1     -10.371   9.305  68.377  1.00  0.00    -0.244 C  
BRANCH  10  11
HETATM   11  C   UNL     1     -10.883  10.622  68.916  1.00  0.00    -0.272 A  
HETATM   12  C   UNL     1     -11.444  10.769  70.191  1.00  0.00    -0.331 A  
HETATM   13 CL   UNL     1     -11.449   9.482  71.341  1.00  0.00    -0.440 Cl 
HETATM   14  C   UNL     1     -12.069  11.969  70.554  1.00  0.00    -0.402 A  
HETATM   15  C   UNL     1     -12.159  13.032  69.648  1.00  0.00    -0.304 A  
HETATM   16  C   UNL     1     -11.584  12.924  68.379  1.00  0.00    -0.369 A  
HETATM   17  C   UNL     1     -10.913  11.729  68.050  1.00  0.00    -0.274 A  
BRANCH  16  18
HETATM   18  C   UNL     1     -11.764  13.981  67.296  1.00  0.00    -0.389 C  
HETATM   19  O   UNL     1     -12.102  13.371  66.036  1.00  0.00    -0.396 OA 
HETATM   20  C   UNL     1     -12.347  14.337  64.998  1.00  0.00    -0.428 C  
HETATM   21  H   UNL     1      -9.380  16.041  68.317  1.00  0.00     0.000 HD 
HETATM   22  C   UNL     1     -11.102  15.189  64.742  1.00  0.00    -0.382 C  
HETATM   23  O   UNL     1     -10.167  15.515  68.397  1.00  0.00    -0.211 OA 
HETATM   24  O   UNL     1     -11.323  16.205  63.753  1.00  0.00    -1.206 OA 
HETATM   25  C   UNL     1     -10.658  15.867  66.039  1.00  0.00    -0.323 C  
HETATM   26  H   UNL     1      -9.167  17.013  66.624  1.00  0.00     0.000 HD 
HETATM   27  O   UNL     1      -9.443  16.591  65.818  1.00  0.00    -0.484 OA 
HETATM   28  H   UNL     1     -10.550  16.734  63.594  1.00  0.00     0.000 HD 
HETATM   29  C   UNL     1     -10.476  14.842  67.165  1.00  0.00    -0.265 C  
BRANCH  20  30
HETATM   30  C   UNL     1     -12.761  13.588  63.722  1.00  0.00     0.132 C  
HETATM   31  O   UNL     1     -11.598  13.137  63.031  1.00  0.00    -0.742 OA 
HETATM   32  H   UNL     1     -11.854  12.674  62.242  1.00  0.00     0.000 HD 
ENDBRANCH  20  30
ENDBRANCH  16  18
ENDBRANCH  10  11
ENDBRANCH   7  10
ENDBRANCH   3   4
ENDBRANCH   2   3
TORSDOF 6
ENDMDL
MODEL       69
REMARK 921   NORMALIZED FREE ENERGY PREDICTED BY IDOCK:   -6.00 KCAL/MOL
REMARK 922        TOTAL FREE ENERGY PREDICTED BY IDOCK:   -9.07 KCAL/MOL
REMARK 923 INTER-LIGAND FREE ENERGY PREDICTED BY IDOCK:   -7.98 KCAL/MOL
REMARK 924 INTRA-LIGAND FREE ENERGY PREDICTED BY IDOCK:   -1.09 KCAL/MOL
REMARK 927      BINDING AFFINITY PREDICTED BY RF-SCORE:    0.00 PKD
ROOT
HETATM    1  C   UNL     1     -12.534  15.821  74.278  1.00  0.00    -0.800 C  
HETATM    2  C   UNL     1     -13.410  15.613  73.057  1.00  0.00    -0.570 C  
ENDROOT
BRANCH   2   3
HETATM    3  O   UNL     1     -13.806  14.243  73.021  1.00  0.00    -0.565 OA 
BRANCH   3   4
HETATM    4  C   UNL     1     -13.222  13.456  72.067  1.00  0.00    -0.438 A  
HETATM    5  C   UNL     1     -13.209  12.063  72.053  1.00  0.00    -0.481 A  
HETATM    6  C   UNL     1     -12.580  11.376  71.009  1.00  0.00    -0.487 A  
HETATM    7  C   UNL     1     -11.955  12.068  69.964  1.00  0.00    -0.400 A  
HETATM    8  C   UNL     1     -12.588  14.151  71.036  1.00  0.00    -0.439 A  
HETATM    9  C   UNL     1     -11.958  13.467  69.992  1.00  0.00    -0.410 A  
BRANCH   7  10
HETATM   10  C   UNL     1     -11.230  11.302  68.884  1.00  0.00    -0.315 C  
BRANCH  10  11
HETATM   11  C   UNL     1      -9.860  10.764  69.234  1.00  0.00    -0.160 A  
HETATM   12  C   UNL     1      -8.671  11.258  68.680  1.00  0.00    -0.136 A  
HETATM   13 CL   UNL     1      -8.648  12.654  67.664  1.00  0.00    -0.168 Cl 
HETATM   14  C   UNL     1      -7.459  10.594  68.902  1.00  0.00    -0.108 A  
HETATM   15  C   UNL     1      -7.414   9.420  69.662  1.00  0.00    -0.084 A  
HETATM   16  C   UNL     1      -8.579   8.919  70.251  1.00  0.00    -0.178 A  
HETATM   17  C   UNL     1      -9.781   9.630  70.061  1.00  0.00    -0.280 A  
BRANCH  16  18
HETATM   18  C   UNL     1      -8.632   7.577  70.971  1.00  0.00    -0.132 C  
HETATM   19  O   UNL     1      -9.373   6.612  70.201  1.00  0.00    -0.158 OA 
HETATM   20  C   UNL     1      -9.392   5.310  70.812  1.00  0.00    -0.159 C  
HETATM   21  H   UNL     1      -8.860   8.762  74.055  1.00  0.00     0.000 HD 
HETATM   22  C   UNL     1     -10.058   5.363  72.189  1.00  0.00    -0.190 C  
HETATM   23  O   UNL     1      -8.480   8.656  73.191  1.00  0.00    -0.398 OA 
HETATM   24  O   UNL     1     -10.045   4.094  72.858  1.00  0.00    -0.146 OA 
HETATM   25  C   UNL     1      -9.342   6.383  73.076  1.00  0.00    -0.135 C  
HETATM   26  H   UNL     1      -9.574   7.130  74.882  1.00  0.00     0.000 HD 
HETATM   27  O   UNL     1     -10.019   6.497  74.331  1.00  0.00    -0.298 OA 
HETATM   28  H   UNL     1     -10.458   4.127  73.712  1.00  0.00     0.000 HD 
HETATM   29  C   UNL     1      -9.252   7.750  72.386  1.00  0.00    -0.164 C  
BRANCH  20  30
HETATM   30  C   UNL     1     -10.148   4.346  69.883  1.00  0.00    -0.053 C  
HETATM   31  O   UNL     1      -9.242   3.784  68.935  1.00  0.00    -0.130 OA 
HETATM   32  H   UNL     1      -9.709   3.189  68.361  1.00  0.00     0.000 HD 
ENDBRANCH  20  30
ENDBRANCH  16  18
ENDBRANCH  10  11
ENDBRANCH   7  10
ENDBRANCH   3   4
ENDBRANCH   2   3
TORSDOF 6
ENDMDL
MODEL       70
REMARK 921   NORMALIZED FREE ENERGY PREDICTED BY IDOCK:   -5.99 KCAL/MOL
REMARK 922        TOTAL FREE ENERGY PREDICTED BY IDOCK:   -9.06 KCAL/MOL
REMARK 923 INTER-LIGAND FREE ENERGY PREDICTED BY IDOCK:   -8.06 KCAL/MOL
REMARK 924 INTRA-LIGAND FREE ENERGY PREDICTED BY IDOCK:   -1.00 KCAL/MOL
REMARK 927      BINDING AFFINITY PREDICTED BY RF-SCORE:    0.00 PKD
ROOT
HETATM    1  C   UNL     1     -10.349  20.047  68.083  1.00  0.00    -0.503 C  
HETATM    2  C   UNL     1      -9.677  18.734  67.728  1.00  0.00    -0.318 C  
ENDROOT
BRANCH   2   3
HETATM    3  O   UNL     1     -10.124  17.742  68.650  1.00  0.00    -0.349 OA 
BRANCH   3   4
HETATM    4  C   UNL     1     -10.483  16.530  68.129  1.00  0.00    -0.313 A  
HETATM    5  C   UNL     1      -9.880  15.896  67.044  1.00  0.00    -0.236 A  
HETATM    6  C   UNL     1     -10.341  14.647  66.614  1.00  0.00    -0.273 A  
HETATM    7  C   UNL     1     -11.411  14.012  67.259  1.00  0.00    -0.350 A  
HETATM    8  C   UNL     1     -11.558  15.909  68.766  1.00  0.00    -0.389 A  
HETATM    9  C   UNL     1     -12.022  14.662  68.337  1.00  0.00    -0.289 A  
BRANCH   7  10
HETATM   10  C   UNL     1     -11.929  12.695  66.734  1.00  0.00    -0.362 C  
BRANCH  10  11
HETATM   11  C   UNL     1     -11.043  11.956  65.756  1.00  0.00    -0.367 A  
HETATM   12  C   UNL     1     -11.112  12.130  64.367  1.00  0.00    -0.333 A  
HETATM   13 CL   UNL     1     -12.107  13.342  63.647  1.00  0.00    -0.550 Cl 
HETATM   14  C   UNL     1     -10.398  11.280  63.512  1.00  0.00    -0.463 A  
HETATM   15  C   UNL     1      -9.623  10.235  64.025  1.00  0.00    -0.365 A  
HETATM   16  C   UNL     1      -9.513  10.055  65.408  1.00  0.00    -0.310 A  
HETATM   17  C   UNL     1     -10.195  10.952  66.254  1.00  0.00    -0.300 A  
BRANCH  16  18
HETATM   18  C   UNL     1      -8.803   8.859  66.032  1.00  0.00    -0.172 C  
HETATM   19  O   UNL     1      -9.739   7.805  66.326  1.00  0.00    -0.176 OA 
HETATM   20  C   UNL     1      -9.103   6.629  66.857  1.00  0.00    -0.136 C  
HETATM   21  H   UNL     1      -6.586  10.563  67.806  1.00  0.00     0.000 HD 
HETATM   22  C   UNL     1      -8.384   6.943  68.170  1.00  0.00    -0.118 C  
HETATM   23  O   UNL     1      -7.052  10.297  67.022  1.00  0.00    -0.087 OA 
HETATM   24  O   UNL     1      -7.686   5.808  68.702  1.00  0.00    -0.087 OA 
HETATM   25  C   UNL     1      -7.374   8.072  67.955  1.00  0.00    -0.096 C  
HETATM   26  H   UNL     1      -6.139   9.127  69.068  1.00  0.00     0.000 HD 
HETATM   27  O   UNL     1      -6.766   8.426  69.202  1.00  0.00    -0.046 OA 
HETATM   28  H   UNL     1      -7.240   6.003  69.518  1.00  0.00     0.000 HD 
HETATM   29  C   UNL     1      -8.041   9.296  67.314  1.00  0.00    -0.113 C  
BRANCH  20  30
HETATM   30  C   UNL     1     -10.176   5.549  67.073  1.00  0.00    -0.224 C  
HETATM   31  O   UNL     1     -11.172   5.652  66.058  1.00  0.00    -0.737 OA 
HETATM   32  H   UNL     1     -11.835   4.985  66.191  1.00  0.00     0.000 HD 
ENDBRANCH  20  30
ENDBRANCH  16  18
ENDBRANCH  10  11
ENDBRANCH   7  10
ENDBRANCH   3   4
ENDBRANCH   2   3
TORSDOF 6
ENDMDL
MODEL       71
REMARK 921   NORMALIZED FREE ENERGY PREDICTED BY IDOCK:   -5.99 KCAL/MOL
REMARK 922        TOTAL FREE ENERGY PREDICTED BY IDOCK:   -9.06 KCAL/MOL
REMARK 923 INTER-LIGAND FREE ENERGY PREDICTED BY IDOCK:   -8.58 KCAL/MOL
REMARK 924 INTRA-LIGAND FREE ENERGY PREDICTED BY IDOCK:   -0.48 KCAL/MOL
REMARK 927      BINDING AFFINITY PREDICTED BY RF-SCORE:    0.00 PKD
ROOT
HETATM    1  C   UNL     1      -6.261  17.906  65.895  1.00  0.00    -0.273 C  
HETATM    2  C   UNL     1      -7.527  17.168  66.291  1.00  0.00    -0.309 C  
ENDROOT
BRANCH   2   3
HETATM    3  O   UNL     1      -7.977  17.695  67.538  1.00  0.00    -0.199 OA 
BRANCH   3   4
HETATM    4  C   UNL     1      -9.038  17.066  68.127  1.00  0.00    -0.237 A  
HETATM    5  C   UNL     1     -10.381  17.257  67.809  1.00  0.00    -0.356 A  
HETATM    6  C   UNL     1     -11.374  16.540  68.486  1.00  0.00    -0.231 A  
HETATM    7  C   UNL     1     -11.042  15.622  69.490  1.00  0.00    -0.298 A  
HETATM    8  C   UNL     1      -8.703  16.162  69.137  1.00  0.00    -0.235 A  
HETATM    9  C   UNL     1      -9.692  15.446  69.816  1.00  0.00    -0.219 A  
BRANCH   7  10
HETATM   10  C   UNL     1     -12.136  14.909  70.248  1.00  0.00    -0.379 C  
BRANCH  10  11
HETATM   11  C   UNL     1     -12.186  13.403  70.117  1.00  0.00    -0.385 A  
HETATM   12  C   UNL     1     -12.740  12.560  71.090  1.00  0.00    -0.245 A  
HETATM   13 CL   UNL     1     -13.578  13.181  72.465  1.00  0.00    -0.665 Cl 
HETATM   14  C   UNL     1     -12.585  11.172  70.994  1.00  0.00    -0.503 A  
HETATM   15  C   UNL     1     -11.861  10.604  69.940  1.00  0.00    -0.392 A  
HETATM   16  C   UNL     1     -11.320  11.417  68.940  1.00  0.00    -0.334 A  
HETATM   17  C   UNL     1     -11.532  12.808  69.024  1.00  0.00    -0.360 A  
BRANCH  16  18
HETATM   18  C   UNL     1     -10.406  10.884  67.843  1.00  0.00    -0.187 C  
HETATM   19  O   UNL     1     -10.867  11.302  66.544  1.00  0.00    -0.271 OA 
HETATM   20  C   UNL     1      -9.996  10.876  65.482  1.00  0.00    -0.260 C  
HETATM   21  H   UNL     1      -9.734   7.958  69.241  1.00  0.00     0.000 HD 
HETATM   22  C   UNL     1      -9.902   9.350  65.432  1.00  0.00    -0.089 C  
HETATM   23  O   UNL     1      -9.789   8.905  69.191  1.00  0.00    -0.172 OA 
HETATM   24  O   UNL     1      -8.995   8.886  64.422  1.00  0.00    -0.416 OA 
HETATM   25  C   UNL     1      -9.432   8.812  66.785  1.00  0.00    -0.191 C  
HETATM   26  H   UNL     1      -9.139   7.046  67.606  1.00  0.00     0.000 HD 
HETATM   27  O   UNL     1      -9.431   7.381  66.766  1.00  0.00    -0.159 OA 
HETATM   28  H   UNL     1      -8.937   7.938  64.391  1.00  0.00     0.000 HD 
HETATM   29  C   UNL     1     -10.316   9.334  67.925  1.00  0.00    -0.227 C  
BRANCH  20  30
HETATM   30  C   UNL     1     -10.540  11.428  64.154  1.00  0.00    -0.369 C  
HETATM   31  O   UNL     1      -9.509  12.137  63.470  1.00  0.00    -0.619 OA 
HETATM   32  H   UNL     1      -9.845  12.478  62.650  1.00  0.00     0.000 HD 
ENDBRANCH  20  30
ENDBRANCH  16  18
ENDBRANCH  10  11
ENDBRANCH   7  10
ENDBRANCH   3   4
ENDBRANCH   2   3
TORSDOF 6
ENDMDL
MODEL       72
REMARK 921   NORMALIZED FREE ENERGY PREDICTED BY IDOCK:   -5.98 KCAL/MOL
REMARK 922        TOTAL FREE ENERGY PREDICTED BY IDOCK:   -9.05 KCAL/MOL
REMARK 923 INTER-LIGAND FREE ENERGY PREDICTED BY IDOCK:   -7.51 KCAL/MOL
REMARK 924 INTRA-LIGAND FREE ENERGY PREDICTED BY IDOCK:   -1.53 KCAL/MOL
REMARK 927      BINDING AFFINITY PREDICTED BY RF-SCORE:    0.00 PKD
ROOT
HETATM    1  C   UNL     1      -6.122  11.236  69.998  1.00  0.00    -0.142 C  
HETATM    2  C   UNL     1      -6.907   9.998  70.391  1.00  0.00    -0.136 C  
ENDROOT
BRANCH   2   3
HETATM    3  O   UNL     1      -7.364   9.363  69.198  1.00  0.00    -0.068 OA 
BRANCH   3   4
HETATM    4  C   UNL     1      -8.406   9.957  68.543  1.00  0.00    -0.108 A  
HETATM    5  C   UNL     1      -8.407  10.370  67.212  1.00  0.00    -0.122 A  
HETATM    6  C   UNL     1      -9.549  10.960  66.659  1.00  0.00    -0.213 A  
HETATM    7  C   UNL     1     -10.707  11.147  67.425  1.00  0.00    -0.294 A  
HETATM    8  C   UNL     1      -9.553  10.155  69.315  1.00  0.00    -0.239 A  
HETATM    9  C   UNL     1     -10.694  10.745  68.765  1.00  0.00    -0.243 A  
BRANCH   7  10
HETATM   10  C   UNL     1     -11.902  11.844  66.821  1.00  0.00    -0.170 C  
BRANCH  10  11
HETATM   11  C   UNL     1     -11.658  13.203  66.204  1.00  0.00    -0.396 A  
HETATM   12  C   UNL     1     -11.747  13.456  64.829  1.00  0.00    -0.361 A  
HETATM   13 CL   UNL     1     -12.315  12.264  63.717  1.00  0.00    -0.612 Cl 
HETATM   14  C   UNL     1     -11.326  14.685  64.307  1.00  0.00    -0.113 A  
HETATM   15  C   UNL     1     -10.795  15.673  65.143  1.00  0.00    -0.448 A  
HETATM   16  C   UNL     1     -10.719  15.461  66.523  1.00  0.00    -0.308 A  
HETATM   17  C   UNL     1     -11.197  14.239  67.036  1.00  0.00    -0.332 A  
BRANCH  16  18
HETATM   18  C   UNL     1     -10.027  16.431  67.473  1.00  0.00    -0.250 C  
HETATM   19  O   UNL     1     -10.513  17.772  67.278  1.00  0.00    -0.356 OA 
HETATM   20  C   UNL     1      -9.934  18.712  68.200  1.00  0.00    -0.358 C  
HETATM   21  H   UNL     1      -7.036  15.010  67.420  1.00  0.00     0.000 HD 
HETATM   22  C   UNL     1      -8.415  18.778  68.031  1.00  0.00    -0.292 C  
HETATM   23  O   UNL     1      -7.977  15.049  67.540  1.00  0.00    -0.148 OA 
HETATM   24  O   UNL     1      -7.792  19.662  68.974  1.00  0.00    -0.342 OA 
HETATM   25  C   UNL     1      -7.810  17.384  68.206  1.00  0.00    -0.247 C  
HETATM   26  H   UNL     1      -6.025  16.564  68.068  1.00  0.00     0.000 HD 
HETATM   27  O   UNL     1      -6.401  17.430  67.959  1.00  0.00    -0.150 OA 
HETATM   28  H   UNL     1      -6.849  19.703  68.868  1.00  0.00     0.000 HD 
HETATM   29  C   UNL     1      -8.486  16.367  67.278  1.00  0.00    -0.175 C  
BRANCH  20  30
HETATM   30  C   UNL     1     -10.566  20.092  67.951  1.00  0.00    -0.238 C  
HETATM   31  O   UNL     1      -9.718  20.862  67.101  1.00  0.00    -0.654 OA 
HETATM   32  H   UNL     1     -10.108  21.714  66.948  1.00  0.00     0.000 HD 
ENDBRANCH  20  30
ENDBRANCH  16  18
ENDBRANCH  10  11
ENDBRANCH   7  10
ENDBRANCH   3   4
ENDBRANCH   2   3
TORSDOF 6
ENDMDL
MODEL       73
REMARK 921   NORMALIZED FREE ENERGY PREDICTED BY IDOCK:   -5.98 KCAL/MOL
REMARK 922        TOTAL FREE ENERGY PREDICTED BY IDOCK:   -9.04 KCAL/MOL
REMARK 923 INTER-LIGAND FREE ENERGY PREDICTED BY IDOCK:   -7.63 KCAL/MOL
REMARK 924 INTRA-LIGAND FREE ENERGY PREDICTED BY IDOCK:   -1.41 KCAL/MOL
REMARK 927      BINDING AFFINITY PREDICTED BY RF-SCORE:    0.00 PKD
ROOT
HETATM    1  C   UNL     1      -7.283  10.318  69.512  1.00  0.00    -0.122 C  
HETATM    2  C   UNL     1      -6.124  11.057  70.155  1.00  0.00    -0.138 C  
ENDROOT
BRANCH   2   3
HETATM    3  O   UNL     1      -5.482  11.838  69.148  1.00  0.00    -0.047 OA 
BRANCH   3   4
HETATM    4  C   UNL     1      -5.761  13.177  69.134  1.00  0.00    -0.076 A  
HETATM    5  C   UNL     1      -5.891  13.997  70.253  1.00  0.00    -0.148 A  
HETATM    6  C   UNL     1      -6.170  15.359  70.099  1.00  0.00    -0.113 A  
HETATM    7  C   UNL     1      -6.324  15.924  68.826  1.00  0.00    -0.114 A  
HETATM    8  C   UNL     1      -5.928  13.732  67.864  1.00  0.00    -0.145 A  
HETATM    9  C   UNL     1      -6.209  15.092  67.707  1.00  0.00    -0.168 A  
BRANCH   7  10
HETATM   10  C   UNL     1      -6.688  17.382  68.691  1.00  0.00    -0.201 C  
BRANCH  10  11
HETATM   11  C   UNL     1      -8.120  17.695  68.316  1.00  0.00    -0.278 A  
HETATM   12  C   UNL     1      -8.510  18.875  67.668  1.00  0.00    -0.280 A  
HETATM   13 CL   UNL     1      -7.357  20.018  67.082  1.00  0.00    -0.280 Cl 
HETATM   14  C   UNL     1      -9.868  19.185  67.521  1.00  0.00    -0.406 A  
HETATM   15  C   UNL     1     -10.855  18.335  68.030  1.00  0.00    -0.178 A  
HETATM   16  C   UNL     1     -10.497  17.137  68.656  1.00  0.00    -0.366 A  
HETATM   17  C   UNL     1      -9.129  16.816  68.748  1.00  0.00    -0.259 A  
BRANCH  16  18
HETATM   18  C   UNL     1     -11.507  16.235  69.356  1.00  0.00    -0.238 C  
HETATM   19  O   UNL     1     -11.488  16.453  70.779  1.00  0.00    -0.368 OA 
HETATM   20  C   UNL     1     -12.474  15.670  71.475  1.00  0.00    -0.437 C  
HETATM   21  H   UNL     1     -11.132  13.587  67.403  1.00  0.00     0.000 HD 
HETATM   22  C   UNL     1     -12.227  14.174  71.267  1.00  0.00    -0.339 C  
HETATM   23  O   UNL     1     -11.308  14.498  67.608  1.00  0.00    -0.306 OA 
HETATM   24  O   UNL     1     -13.225  13.358  71.897  1.00  0.00    -0.392 OA 
HETATM   25  C   UNL     1     -12.215  13.850  69.772  1.00  0.00    -0.332 C  
HETATM   26  H   UNL     1     -11.888  12.268  68.647  1.00  0.00     0.000 HD 
HETATM   27  O   UNL     1     -11.896  12.469  69.575  1.00  0.00    -0.305 OA 
HETATM   28  H   UNL     1     -13.072  12.429  71.768  1.00  0.00     0.000 HD 
HETATM   29  C   UNL     1     -11.220  14.744  69.021  1.00  0.00    -0.270 C  
BRANCH  20  30
HETATM   30  C   UNL     1     -12.413  16.024  72.969  1.00  0.00    -0.511 C  
HETATM   31  O   UNL     1     -13.731  16.031  73.515  1.00  0.00    -0.814 OA 
HETATM   32  H   UNL     1     -13.693  16.250  74.438  1.00  0.00     0.000 HD 
ENDBRANCH  20  30
ENDBRANCH  16  18
ENDBRANCH  10  11
ENDBRANCH   7  10
ENDBRANCH   3   4
ENDBRANCH   2   3
TORSDOF 6
ENDMDL
MODEL       74
REMARK 921   NORMALIZED FREE ENERGY PREDICTED BY IDOCK:   -5.91 KCAL/MOL
REMARK 922        TOTAL FREE ENERGY PREDICTED BY IDOCK:   -8.96 KCAL/MOL
REMARK 923 INTER-LIGAND FREE ENERGY PREDICTED BY IDOCK:   -7.92 KCAL/MOL
REMARK 924 INTRA-LIGAND FREE ENERGY PREDICTED BY IDOCK:   -1.04 KCAL/MOL
REMARK 927      BINDING AFFINITY PREDICTED BY RF-SCORE:    0.00 PKD
ROOT
HETATM    1  C   UNL     1      -8.190   6.102  65.262  1.00  0.00    -0.142 C  
HETATM    2  C   UNL     1      -8.925   6.960  66.276  1.00  0.00    -0.151 C  
ENDROOT
BRANCH   2   3
HETATM    3  O   UNL     1      -8.243   8.209  66.378  1.00  0.00    -0.102 OA 
BRANCH   3   4
HETATM    4  C   UNL     1      -9.017   9.323  66.553  1.00  0.00    -0.149 A  
HETATM    5  C   UNL     1      -8.672  10.623  66.190  1.00  0.00    -0.178 A  
HETATM    6  C   UNL     1      -9.563  11.677  66.419  1.00  0.00    -0.236 A  
HETATM    7  C   UNL     1     -10.811  11.450  67.013  1.00  0.00    -0.331 A  
HETATM    8  C   UNL     1     -10.254   9.093  67.159  1.00  0.00    -0.329 A  
HETATM    9  C   UNL     1     -11.145  10.145  67.390  1.00  0.00    -0.219 A  
BRANCH   7  10
HETATM   10  C   UNL     1     -11.727  12.614  67.306  1.00  0.00    -0.435 C  
BRANCH  10  11
HETATM   11  C   UNL     1     -11.631  13.806  66.379  1.00  0.00    -0.380 A  
HETATM   12  C   UNL     1     -12.121  13.807  65.066  1.00  0.00    -0.403 A  
HETATM   13 CL   UNL     1     -13.040  12.489  64.435  1.00  0.00    -0.263 Cl 
HETATM   14  C   UNL     1     -11.832  14.872  64.204  1.00  0.00    -0.202 A  
HETATM   15  C   UNL     1     -11.038  15.942  64.630  1.00  0.00    -0.368 A  
HETATM   16  C   UNL     1     -10.559  15.983  65.943  1.00  0.00    -0.338 A  
HETATM   17  C   UNL     1     -10.903  14.929  66.812  1.00  0.00    -0.320 A  
BRANCH  16  18
HETATM   18  C   UNL     1      -9.577  17.042  66.432  1.00  0.00    -0.282 C  
HETATM   19  O   UNL     1      -8.932  16.617  67.648  1.00  0.00    -0.203 OA 
HETATM   20  C   UNL     1      -7.947  17.557  68.112  1.00  0.00    -0.250 C  
HETATM   21  H   UNL     1     -11.342  19.698  65.542  1.00  0.00     0.000 HD 
HETATM   22  C   UNL     1      -8.589  18.913  68.418  1.00  0.00    -0.346 C  
HETATM   23  O   UNL     1     -10.896  18.870  65.415  1.00  0.00    -0.553 OA 
HETATM   24  O   UNL     1      -7.628  19.897  68.827  1.00  0.00    -0.293 OA 
HETATM   25  C   UNL     1      -9.316  19.437  67.178  1.00  0.00    -0.320 C  
HETATM   26  H   UNL     1     -10.443  20.986  66.721  1.00  0.00     0.000 HD 
HETATM   27  O   UNL     1      -9.991  20.660  67.490  1.00  0.00    -0.421 OA 
HETATM   28  H   UNL     1      -8.027  20.739  69.017  1.00  0.00     0.000 HD 
HETATM   29  C   UNL     1     -10.308  18.398  66.639  1.00  0.00    -0.396 C  
BRANCH  20  30
HETATM   30  C   UNL     1      -7.277  16.981  69.369  1.00  0.00    -0.068 C  
HETATM   31  O   UNL     1      -6.065  17.687  69.634  1.00  0.00    -0.243 OA 
HETATM   32  H   UNL     1      -5.651  17.331  70.410  1.00  0.00     0.000 HD 
ENDBRANCH  20  30
ENDBRANCH  16  18
ENDBRANCH  10  11
ENDBRANCH   7  10
ENDBRANCH   3   4
ENDBRANCH   2   3
TORSDOF 6
ENDMDL
MODEL       75
REMARK 921   NORMALIZED FREE ENERGY PREDICTED BY IDOCK:   -5.91 KCAL/MOL
REMARK 922        TOTAL FREE ENERGY PREDICTED BY IDOCK:   -8.95 KCAL/MOL
REMARK 923 INTER-LIGAND FREE ENERGY PREDICTED BY IDOCK:   -7.82 KCAL/MOL
REMARK 924 INTRA-LIGAND FREE ENERGY PREDICTED BY IDOCK:   -1.13 KCAL/MOL
REMARK 927      BINDING AFFINITY PREDICTED BY RF-SCORE:    0.00 PKD
ROOT
HETATM    1  C   UNL     1      -6.210   6.538  73.742  1.00  0.00    -0.065 C  
HETATM    2  C   UNL     1      -7.447   7.281  73.274  1.00  0.00    -0.072 C  
ENDROOT
BRANCH   2   3
HETATM    3  O   UNL     1      -7.949   6.623  72.112  1.00  0.00    -0.097 OA 
BRANCH   3   4
HETATM    4  C   UNL     1      -8.587   7.402  71.187  1.00  0.00    -0.122 A  
HETATM    5  C   UNL     1      -9.615   6.990  70.341  1.00  0.00    -0.169 A  
HETATM    6  C   UNL     1     -10.190   7.894  69.442  1.00  0.00    -0.206 A  
HETATM    7  C   UNL     1      -9.749   9.222  69.372  1.00  0.00    -0.175 A  
HETATM    8  C   UNL     1      -8.133   8.720  71.111  1.00  0.00    -0.192 A  
HETATM    9  C   UNL     1      -8.705   9.625  70.213  1.00  0.00    -0.248 A  
BRANCH   7  10
HETATM   10  C   UNL     1     -10.344  10.158  68.348  1.00  0.00    -0.210 C  
BRANCH  10  11
HETATM   11  C   UNL     1     -10.772  11.523  68.841  1.00  0.00    -0.245 A  
HETATM   12  C   UNL     1     -11.818  11.724  69.751  1.00  0.00    -0.349 A  
HETATM   13 CL   UNL     1     -12.615  10.406  70.531  1.00  0.00    -0.392 Cl 
HETATM   14  C   UNL     1     -12.284  13.017  70.018  1.00  0.00    -0.306 A  
HETATM   15  C   UNL     1     -11.728  14.126  69.371  1.00  0.00    -0.361 A  
HETATM   16  C   UNL     1     -10.664  13.959  68.480  1.00  0.00    -0.268 A  
HETATM   17  C   UNL     1     -10.173  12.657  68.263  1.00  0.00    -0.240 A  
BRANCH  16  18
HETATM   18  C   UNL     1     -10.104  15.100  67.637  1.00  0.00    -0.231 C  
HETATM   19  O   UNL     1      -9.932  16.287  68.434  1.00  0.00    -0.224 OA 
HETATM   20  C   UNL     1      -9.343  17.372  67.695  1.00  0.00    -0.245 C  
HETATM   21  H   UNL     1     -11.724  14.391  64.837  1.00  0.00     0.000 HD 
HETATM   22  C   UNL     1     -10.230  17.772  66.514  1.00  0.00    -0.358 C  
HETATM   23  O   UNL     1     -11.156  14.221  65.579  1.00  0.00    -0.306 OA 
HETATM   24  O   UNL     1      -9.648  18.812  65.715  1.00  0.00    -0.427 OA 
HETATM   25  C   UNL     1     -10.480  16.559  65.615  1.00  0.00    -0.324 C  
HETATM   26  H   UNL     1     -11.538  16.159  64.003  1.00  0.00     0.000 HD 
HETATM   27  O   UNL     1     -11.382  16.912  64.561  1.00  0.00    -1.006 OA 
HETATM   28  H   UNL     1     -10.198  19.061  64.982  1.00  0.00     0.000 HD 
HETATM   29  C   UNL     1     -11.033  15.378  66.423  1.00  0.00    -0.277 C  
BRANCH  20  30
HETATM   30  C   UNL     1      -9.144  18.561  68.648  1.00  0.00    -0.298 C  
HETATM   31  O   UNL     1     -10.240  19.465  68.524  1.00  0.00    -0.412 OA 
HETATM   32  H   UNL     1     -10.117  20.200  69.112  1.00  0.00     0.000 HD 
ENDBRANCH  20  30
ENDBRANCH  16  18
ENDBRANCH  10  11
ENDBRANCH   7  10
ENDBRANCH   3   4
ENDBRANCH   2   3
TORSDOF 6
ENDMDL
MODEL       76
REMARK 921   NORMALIZED FREE ENERGY PREDICTED BY IDOCK:   -5.91 KCAL/MOL
REMARK 922        TOTAL FREE ENERGY PREDICTED BY IDOCK:   -8.94 KCAL/MOL
REMARK 923 INTER-LIGAND FREE ENERGY PREDICTED BY IDOCK:   -7.86 KCAL/MOL
REMARK 924 INTRA-LIGAND FREE ENERGY PREDICTED BY IDOCK:   -1.08 KCAL/MOL
REMARK 927      BINDING AFFINITY PREDICTED BY RF-SCORE:    0.00 PKD
ROOT
HETATM    1  C   UNL     1      -5.401  19.043  68.012  1.00  0.00    -0.172 C  
HETATM    2  C   UNL     1      -6.085  17.760  68.445  1.00  0.00    -0.174 C  
ENDROOT
BRANCH   2   3
HETATM    3  O   UNL     1      -7.365  18.096  68.976  1.00  0.00    -0.262 OA 
BRANCH   3   4
HETATM    4  C   UNL     1      -8.362  17.173  68.817  1.00  0.00    -0.236 A  
HETATM    5  C   UNL     1      -8.233  15.795  68.977  1.00  0.00    -0.234 A  
HETATM    6  C   UNL     1      -9.339  14.959  68.792  1.00  0.00    -0.203 A  
HETATM    7  C   UNL     1     -10.590  15.485  68.444  1.00  0.00    -0.252 A  
HETATM    8  C   UNL     1      -9.603  17.701  68.456  1.00  0.00    -0.315 A  
HETATM    9  C   UNL     1     -10.709  16.868  68.268  1.00  0.00    -0.377 A  
BRANCH   7  10
HETATM   10  C   UNL     1     -11.751  14.554  68.187  1.00  0.00    -0.369 C  
BRANCH  10  11
HETATM   11  C   UNL     1     -12.128  13.611  69.309  1.00  0.00    -0.360 A  
HETATM   12  C   UNL     1     -12.641  14.040  70.540  1.00  0.00    -0.329 A  
HETATM   13 CL   UNL     1     -13.052  15.691  70.832  1.00  0.00    -0.515 Cl 
HETATM   14  C   UNL     1     -12.791  13.135  71.597  1.00  0.00    -0.388 A  
HETATM   15  C   UNL     1     -12.417  11.795  71.451  1.00  0.00    -0.281 A  
HETATM   16  C   UNL     1     -11.929  11.332  70.225  1.00  0.00    -0.466 A  
HETATM   17  C   UNL     1     -11.835  12.245  69.157  1.00  0.00    -0.355 A  
BRANCH  16  18
HETATM   18  C   UNL     1     -11.373   9.925  70.034  1.00  0.00    -0.249 C  
HETATM   19  O   UNL     1     -12.021   8.994  70.921  1.00  0.00    -0.282 OA 
HETATM   20  C   UNL     1     -11.574   7.640  70.730  1.00  0.00    -0.265 C  
HETATM   21  H   UNL     1      -8.227  10.788  69.464  1.00  0.00     0.000 HD 
HETATM   22  C   UNL     1     -10.073   7.518  71.002  1.00  0.00    -0.186 C  
HETATM   23  O   UNL     1      -9.167  10.791  69.328  1.00  0.00    -0.153 OA 
HETATM   24  O   UNL     1      -9.576   6.193  70.764  1.00  0.00    -0.167 OA 
HETATM   25  C   UNL     1      -9.300   8.490  70.109  1.00  0.00    -0.161 C  
HETATM   26  H   UNL     1      -7.425   9.043  69.872  1.00  0.00     0.000 HD 
HETATM   27  O   UNL     1      -7.906   8.439  70.426  1.00  0.00    -0.083 OA 
HETATM   28  H   UNL     1      -8.644   6.117  70.933  1.00  0.00     0.000 HD 
HETATM   29  C   UNL     1      -9.834   9.920  70.256  1.00  0.00    -0.179 C  
BRANCH  20  30
HETATM   30  C   UNL     1     -12.371   6.725  71.673  1.00  0.00    -0.362 C  
HETATM   31  O   UNL     1     -11.720   6.659  72.941  1.00  0.00    -0.485 OA 
HETATM   32  H   UNL     1     -12.212   6.093  73.524  1.00  0.00     0.000 HD 
ENDBRANCH  20  30
ENDBRANCH  16  18
ENDBRANCH  10  11
ENDBRANCH   7  10
ENDBRANCH   3   4
ENDBRANCH   2   3
TORSDOF 6
ENDMDL
MODEL       77
REMARK 921   NORMALIZED FREE ENERGY PREDICTED BY IDOCK:   -5.87 KCAL/MOL
REMARK 922        TOTAL FREE ENERGY PREDICTED BY IDOCK:   -8.90 KCAL/MOL
REMARK 923 INTER-LIGAND FREE ENERGY PREDICTED BY IDOCK:   -7.51 KCAL/MOL
REMARK 924 INTRA-LIGAND FREE ENERGY PREDICTED BY IDOCK:   -1.39 KCAL/MOL
REMARK 927      BINDING AFFINITY PREDICTED BY RF-SCORE:    0.00 PKD
ROOT
HETATM    1  C   UNL     1     -10.926  11.398  63.851  1.00  0.00    -0.442 C  
HETATM    2  C   UNL     1     -12.128  12.179  63.355  1.00  0.00    -0.507 C  
ENDROOT
BRANCH   2   3
HETATM    3  O   UNL     1     -12.828  12.685  64.490  1.00  0.00    -0.706 OA 
BRANCH   3   4
HETATM    4  C   UNL     1     -12.201  13.656  65.221  1.00  0.00    -0.439 A  
HETATM    5  C   UNL     1     -11.548  14.773  64.705  1.00  0.00    -0.418 A  
HETATM    6  C   UNL     1     -10.950  15.699  65.567  1.00  0.00    -0.307 A  
HETATM    7  C   UNL     1     -10.995  15.524  66.956  1.00  0.00    -0.283 A  
HETATM    8  C   UNL     1     -12.235  13.468  66.604  1.00  0.00    -0.411 A  
HETATM    9  C   UNL     1     -11.637  14.391  67.467  1.00  0.00    -0.398 A  
BRANCH   7  10
HETATM   10  C   UNL     1     -10.287  16.504  67.860  1.00  0.00    -0.294 C  
BRANCH  10  11
HETATM   11  C   UNL     1      -8.784  16.601  67.715  1.00  0.00    -0.201 A  
HETATM   12  C   UNL     1      -8.138  17.650  67.046  1.00  0.00    -0.222 A  
HETATM   13 CL   UNL     1      -8.998  19.029  66.465  1.00  0.00    -0.325 Cl 
HETATM   14  C   UNL     1      -6.764  17.581  66.786  1.00  0.00    -0.237 A  
HETATM   15  C   UNL     1      -6.017  16.463  67.171  1.00  0.00    -0.166 A  
HETATM   16  C   UNL     1      -6.629  15.414  67.865  1.00  0.00    -0.169 A  
HETATM   17  C   UNL     1      -8.001  15.524  68.165  1.00  0.00    -0.132 A  
BRANCH  16  18
HETATM   18  C   UNL     1      -5.913  14.109  68.191  1.00  0.00    -0.133 C  
HETATM   19  O   UNL     1      -6.206  13.104  67.201  1.00  0.00    -0.282 OA 
HETATM   20  C   UNL     1      -5.498  11.873  67.433  1.00  0.00    -0.107 C  
HETATM   21  H   UNL     1      -6.198  14.282  71.485  1.00  0.00     0.000 HD 
HETATM   22  C   UNL     1      -5.882  11.269  68.785  1.00  0.00    -0.043 C  
HETATM   23  O   UNL     1      -5.955  14.582  70.617  1.00  0.00    -0.169 OA 
HETATM   24  O   UNL     1      -5.152  10.069  69.080  1.00  0.00    -0.036 OA 
HETATM   25  C   UNL     1      -5.618  12.280  69.902  1.00  0.00    -0.112 C  
HETATM   26  H   UNL     1      -5.896  12.376  71.849  1.00  0.00     0.000 HD 
HETATM   27  O   UNL     1      -6.060  11.748  71.155  1.00  0.00    -0.243 OA 
HETATM   28  H   UNL     1      -5.391   9.694  69.920  1.00  0.00     0.000 HD 
HETATM   29  C   UNL     1      -6.309  13.618  69.612  1.00  0.00    -0.110 C  
BRANCH  20  30
HETATM   30  C   UNL     1      -5.828  10.898  66.292  1.00  0.00    -0.139 C  
HETATM   31  O   UNL     1      -5.397  11.449  65.049  1.00  0.00    -0.473 OA 
HETATM   32  H   UNL     1      -5.601  10.846  64.344  1.00  0.00     0.000 HD 
ENDBRANCH  20  30
ENDBRANCH  16  18
ENDBRANCH  10  11
ENDBRANCH   7  10
ENDBRANCH   3   4
ENDBRANCH   2   3
TORSDOF 6
ENDMDL
MODEL       78
REMARK 921   NORMALIZED FREE ENERGY PREDICTED BY IDOCK:   -5.86 KCAL/MOL
REMARK 922        TOTAL FREE ENERGY PREDICTED BY IDOCK:   -8.88 KCAL/MOL
REMARK 923 INTER-LIGAND FREE ENERGY PREDICTED BY IDOCK:   -8.21 KCAL/MOL
REMARK 924 INTRA-LIGAND FREE ENERGY PREDICTED BY IDOCK:   -0.67 KCAL/MOL
REMARK 927      BINDING AFFINITY PREDICTED BY RF-SCORE:    0.00 PKD
ROOT
HETATM    1  C   UNL     1      -7.302   6.843  64.141  1.00  0.00    -0.086 C  
HETATM    2  C   UNL     1      -7.237   8.283  64.616  1.00  0.00    -0.083 C  
ENDROOT
BRANCH   2   3
HETATM    3  O   UNL     1      -7.776   9.114  63.589  1.00  0.00    -0.110 OA 
BRANCH   3   4
HETATM    4  C   UNL     1      -8.766   9.984  63.955  1.00  0.00    -0.206 A  
HETATM    5  C   UNL     1      -9.166  10.266  65.259  1.00  0.00    -0.244 A  
HETATM    6  C   UNL     1     -10.191  11.187  65.498  1.00  0.00    -0.319 A  
HETATM    7  C   UNL     1     -10.833  11.841  64.438  1.00  0.00    -0.389 A  
HETATM    8  C   UNL     1      -9.413  10.621  62.895  1.00  0.00    -0.367 A  
HETATM    9  C   UNL     1     -10.439  11.541  63.130  1.00  0.00    -0.350 A  
BRANCH   7  10
HETATM   10  C   UNL     1     -11.979  12.782  64.721  1.00  0.00    -0.455 C  
BRANCH  10  11
HETATM   11  C   UNL     1     -11.841  13.680  65.930  1.00  0.00    -0.406 A  
HETATM   12  C   UNL     1     -11.379  15.001  65.863  1.00  0.00    -0.273 A  
HETATM   13 CL   UNL     1     -11.082  15.790  64.356  1.00  0.00    -0.303 Cl 
HETATM   14  C   UNL     1     -11.096  15.712  67.037  1.00  0.00    -0.200 A  
HETATM   15  C   UNL     1     -11.252  15.113  68.291  1.00  0.00    -0.315 A  
HETATM   16  C   UNL     1     -11.738  13.806  68.390  1.00  0.00    -0.393 A  
HETATM   17  C   UNL     1     -12.068  13.125  67.202  1.00  0.00    -0.343 A  
BRANCH  16  18
HETATM   18  C   UNL     1     -11.801  13.044  69.709  1.00  0.00    -0.311 C  
HETATM   19  O   UNL     1     -11.847  11.623  69.477  1.00  0.00    -0.302 OA 
HETATM   20  C   UNL     1     -11.840  10.860  70.697  1.00  0.00    -0.352 C  
HETATM   21  H   UNL     1     -13.708  15.196  71.351  1.00  0.00     0.000 HD 
HETATM   22  C   UNL     1     -13.061  11.195  71.556  1.00  0.00    -0.385 C  
HETATM   23  O   UNL     1     -12.958  14.912  70.842  1.00  0.00    -0.345 OA 
HETATM   24  O   UNL     1     -13.060  10.498  72.811  1.00  0.00    -0.211 OA 
HETATM   25  C   UNL     1     -13.102  12.697  71.841  1.00  0.00    -0.366 C  
HETATM   26  H   UNL     1     -14.317  13.956  72.746  1.00  0.00     0.000 HD 
HETATM   27  O   UNL     1     -14.291  13.022  72.569  1.00  0.00    -0.548 OA 
HETATM   28  H   UNL     1     -13.818  10.705  73.344  1.00  0.00     0.000 HD 
HETATM   29  C   UNL     1     -13.028  13.509  70.542  1.00  0.00     0.043 C  
BRANCH  20  30
HETATM   30  C   UNL     1     -11.825   9.366  70.338  1.00  0.00    -0.090 C  
HETATM   31  O   UNL     1     -12.920   8.708  70.974  1.00  0.00    -0.502 OA 
HETATM   32  H   UNL     1     -12.911   7.785  70.752  1.00  0.00     0.000 HD 
ENDBRANCH  20  30
ENDBRANCH  16  18
ENDBRANCH  10  11
ENDBRANCH   7  10
ENDBRANCH   3   4
ENDBRANCH   2   3
TORSDOF 6
ENDMDL
MODEL       79
REMARK 921   NORMALIZED FREE ENERGY PREDICTED BY IDOCK:   -5.86 KCAL/MOL
REMARK 922        TOTAL FREE ENERGY PREDICTED BY IDOCK:   -8.88 KCAL/MOL
REMARK 923 INTER-LIGAND FREE ENERGY PREDICTED BY IDOCK:   -7.78 KCAL/MOL
REMARK 924 INTRA-LIGAND FREE ENERGY PREDICTED BY IDOCK:   -1.09 KCAL/MOL
REMARK 927      BINDING AFFINITY PREDICTED BY RF-SCORE:    0.00 PKD
ROOT
HETATM    1  C   UNL     1     -11.209   7.421  70.714  1.00  0.00    -0.293 C  
HETATM    2  C   UNL     1     -11.747   8.819  70.959  1.00  0.00    -0.282 C  
ENDROOT
BRANCH   2   3
HETATM    3  O   UNL     1     -10.654   9.733  70.900  1.00  0.00    -0.313 OA 
BRANCH   3   4
HETATM    4  C   UNL     1     -10.366  10.274  69.678  1.00  0.00    -0.248 A  
HETATM    5  C   UNL     1      -9.100  10.363  69.102  1.00  0.00    -0.197 A  
HETATM    6  C   UNL     1      -8.943  10.935  67.835  1.00  0.00    -0.141 A  
HETATM    7  C   UNL     1     -10.045  11.428  67.124  1.00  0.00    -0.226 A  
HETATM    8  C   UNL     1     -11.466  10.777  68.981  1.00  0.00    -0.368 A  
HETATM    9  C   UNL     1     -11.311  11.350  67.715  1.00  0.00    -0.354 A  
BRANCH   7  10
HETATM   10  C   UNL     1      -9.838  12.098  65.787  1.00  0.00    -0.264 C  
BRANCH  10  11
HETATM   11  C   UNL     1     -10.399  13.494  65.631  1.00  0.00    -0.303 A  
HETATM   12  C   UNL     1     -11.420  13.820  64.729  1.00  0.00    -0.356 A  
HETATM   13 CL   UNL     1     -12.258  12.614  63.822  1.00  0.00    -0.569 Cl 
HETATM   14  C   UNL     1     -11.760  15.160  64.501  1.00  0.00    -0.331 A  
HETATM   15  C   UNL     1     -11.078  16.192  65.153  1.00  0.00    -0.256 A  
HETATM   16  C   UNL     1     -10.074  15.896  66.079  1.00  0.00    -0.359 A  
HETATM   17  C   UNL     1      -9.782  14.542  66.336  1.00  0.00    -0.314 A  
BRANCH  16  18
HETATM   18  C   UNL     1      -9.197  16.966  66.720  1.00  0.00    -0.247 C  
HETATM   19  O   UNL     1      -8.324  17.564  65.743  1.00  0.00    -0.538 OA 
HETATM   20  C   UNL     1      -7.523  18.626  66.290  1.00  0.00    -0.260 C  
HETATM   21  H   UNL     1      -8.743  15.452  69.630  1.00  0.00     0.000 HD 
HETATM   22  C   UNL     1      -6.621  18.107  67.412  1.00  0.00    -0.185 C  
HETATM   23  O   UNL     1      -9.242  15.823  68.913  1.00  0.00    -0.197 OA 
HETATM   24  O   UNL     1      -5.848  19.150  68.025  1.00  0.00    -0.199 OA 
HETATM   25  C   UNL     1      -7.469  17.437  68.495  1.00  0.00    -0.251 C  
HETATM   26  H   UNL     1      -7.145  16.457  70.172  1.00  0.00     0.000 HD 
HETATM   27  O   UNL     1      -6.619  16.874  69.500  1.00  0.00    -0.233 OA 
HETATM   28  H   UNL     1      -5.288  18.828  68.721  1.00  0.00     0.000 HD 
HETATM   29  C   UNL     1      -8.380  16.359  67.895  1.00  0.00    -0.171 C  
BRANCH  20  30
HETATM   30  C   UNL     1      -6.681  19.235  65.158  1.00  0.00    -0.147 C  
HETATM   31  O   UNL     1      -5.446  18.530  65.046  1.00  0.00    -0.182 OA 
HETATM   32  H   UNL     1      -4.925  18.906  64.346  1.00  0.00     0.000 HD 
ENDBRANCH  20  30
ENDBRANCH  16  18
ENDBRANCH  10  11
ENDBRANCH   7  10
ENDBRANCH   3   4
ENDBRANCH   2   3
TORSDOF 6
ENDMDL
MODEL       80
REMARK 921   NORMALIZED FREE ENERGY PREDICTED BY IDOCK:   -5.85 KCAL/MOL
REMARK 922        TOTAL FREE ENERGY PREDICTED BY IDOCK:   -8.87 KCAL/MOL
REMARK 923 INTER-LIGAND FREE ENERGY PREDICTED BY IDOCK:   -8.30 KCAL/MOL
REMARK 924 INTRA-LIGAND FREE ENERGY PREDICTED BY IDOCK:   -0.57 KCAL/MOL
REMARK 927      BINDING AFFINITY PREDICTED BY RF-SCORE:    0.00 PKD
ROOT
HETATM    1  C   UNL     1      -5.522  17.015  66.796  1.00  0.00    -0.193 C  
HETATM    2  C   UNL     1      -6.981  17.275  66.469  1.00  0.00    -0.263 C  
ENDROOT
BRANCH   2   3
HETATM    3  O   UNL     1      -7.654  16.018  66.413  1.00  0.00    -0.166 OA 
BRANCH   3   4
HETATM    4  C   UNL     1      -8.774  15.883  67.186  1.00  0.00    -0.200 A  
HETATM    5  C   UNL     1     -10.077  15.727  66.716  1.00  0.00    -0.276 A  
HETATM    6  C   UNL     1     -11.138  15.589  67.618  1.00  0.00    -0.311 A  
HETATM    7  C   UNL     1     -10.916  15.606  69.001  1.00  0.00    -0.263 A  
HETATM    8  C   UNL     1      -8.549  15.915  68.563  1.00  0.00    -0.190 A  
HETATM    9  C   UNL     1      -9.607  15.780  69.466  1.00  0.00    -0.262 A  
BRANCH   7  10
HETATM   10  C   UNL     1     -12.086  15.520  69.951  1.00  0.00    -0.378 C  
BRANCH  10  11
HETATM   11  C   UNL     1     -12.473  14.139  70.432  1.00  0.00    -0.424 A  
HETATM   12  C   UNL     1     -13.354  13.910  71.497  1.00  0.00    -0.335 A  
HETATM   13 CL   UNL     1     -14.219  15.195  72.259  1.00  0.00    -0.605 Cl 
HETATM   14  C   UNL     1     -13.521  12.618  72.010  1.00  0.00    -0.516 A  
HETATM   15  C   UNL     1     -12.802  11.540  71.484  1.00  0.00    -0.485 A  
HETATM   16  C   UNL     1     -11.938  11.733  70.402  1.00  0.00    -0.422 A  
HETATM   17  C   UNL     1     -11.822  13.030  69.864  1.00  0.00    -0.377 A  
BRANCH  16  18
HETATM   18  C   UNL     1     -11.021  10.637  69.869  1.00  0.00    -0.274 C  
HETATM   19  O   UNL     1     -11.122  10.539  68.436  1.00  0.00    -0.247 OA 
HETATM   20  C   UNL     1     -10.224   9.561  67.882  1.00  0.00    -0.205 C  
HETATM   21  H   UNL     1     -11.402   8.511  72.379  1.00  0.00     0.000 HD 
HETATM   22  C   UNL     1     -10.531   8.166  68.430  1.00  0.00    -0.161 C  
HETATM   23  O   UNL     1     -11.194   9.342  71.968  1.00  0.00    -0.343 OA 
HETATM   24  O   UNL     1      -9.618   7.170  67.946  1.00  0.00    -0.132 OA 
HETATM   25  C   UNL     1     -10.463   8.180  69.958  1.00  0.00    -0.231 C  
HETATM   26  H   UNL     1     -10.795   6.906  71.423  1.00  0.00     0.000 HD 
HETATM   27  O   UNL     1     -10.837   6.898  70.474  1.00  0.00    -0.234 OA 
HETATM   28  H   UNL     1      -9.809   6.304  68.287  1.00  0.00     0.000 HD 
HETATM   29  C   UNL     1     -11.361   9.278  70.542  1.00  0.00    -0.258 C  
BRANCH  20  30
HETATM   30  C   UNL     1     -10.363   9.583  66.351  1.00  0.00    -0.173 C  
HETATM   31  O   UNL     1      -9.415   8.690  65.770  1.00  0.00    -0.376 OA 
HETATM   32  H   UNL     1      -9.501   8.703  64.824  1.00  0.00     0.000 HD 
ENDBRANCH  20  30
ENDBRANCH  16  18
ENDBRANCH  10  11
ENDBRANCH   7  10
ENDBRANCH   3   4
ENDBRANCH   2   3
TORSDOF 6
ENDMDL
MODEL       81
REMARK 921   NORMALIZED FREE ENERGY PREDICTED BY IDOCK:   -5.84 KCAL/MOL
REMARK 922        TOTAL FREE ENERGY PREDICTED BY IDOCK:   -8.86 KCAL/MOL
REMARK 923 INTER-LIGAND FREE ENERGY PREDICTED BY IDOCK:   -8.35 KCAL/MOL
REMARK 924 INTRA-LIGAND FREE ENERGY PREDICTED BY IDOCK:   -0.51 KCAL/MOL
REMARK 927      BINDING AFFINITY PREDICTED BY RF-SCORE:    0.00 PKD
ROOT
HETATM    1  C   UNL     1      -6.334  19.683  68.245  1.00  0.00    -0.277 C  
HETATM    2  C   UNL     1      -6.874  18.316  68.621  1.00  0.00    -0.254 C  
ENDROOT
BRANCH   2   3
HETATM    3  O   UNL     1      -8.273  18.444  68.871  1.00  0.00    -0.272 OA 
BRANCH   3   4
HETATM    4  C   UNL     1      -9.032  17.317  68.727  1.00  0.00    -0.231 A  
HETATM    5  C   UNL     1      -8.677  16.033  69.139  1.00  0.00    -0.248 A  
HETATM    6  C   UNL     1      -9.554  14.962  68.938  1.00  0.00    -0.215 A  
HETATM    7  C   UNL     1     -10.798  15.154  68.324  1.00  0.00    -0.262 A  
HETATM    8  C   UNL     1     -10.265  17.511  68.102  1.00  0.00    -0.359 A  
HETATM    9  C   UNL     1     -11.142  16.442  67.898  1.00  0.00    -0.249 A  
BRANCH   7  10
HETATM   10  C   UNL     1     -11.697  13.970  68.063  1.00  0.00    -0.394 C  
BRANCH  10  11
HETATM   11  C   UNL     1     -12.094  13.138  69.262  1.00  0.00    -0.270 A  
HETATM   12  C   UNL     1     -12.668  13.677  70.421  1.00  0.00    -0.141 A  
HETATM   13 CL   UNL     1     -13.136  15.336  70.522  1.00  0.00    -0.377 Cl 
HETATM   14  C   UNL     1     -12.836  12.882  71.562  1.00  0.00    -0.380 A  
HETATM   15  C   UNL     1     -12.419  11.547  71.572  1.00  0.00    -0.266 A  
HETATM   16  C   UNL     1     -11.869  10.974  70.421  1.00  0.00    -0.460 A  
HETATM   17  C   UNL     1     -11.757  11.773  69.267  1.00  0.00    -0.398 A  
BRANCH  16  18
HETATM   18  C   UNL     1     -11.267   9.573  70.401  1.00  0.00    -0.270 C  
HETATM   19  O   UNL     1     -11.145   9.089  69.050  1.00  0.00    -0.044 OA 
HETATM   20  C   UNL     1     -10.520   7.796  68.978  1.00  0.00    -0.205 C  
HETATM   21  H   UNL     1     -12.726   8.447  73.152  1.00  0.00     0.000 HD 
HETATM   22  C   UNL     1     -11.340   6.750  69.736  1.00  0.00    -0.296 C  
HETATM   23  O   UNL     1     -12.199   9.039  72.628  1.00  0.00    -0.244 OA 
HETATM   24  O   UNL     1     -10.719   5.457  69.738  1.00  0.00    -0.315 OA 
HETATM   25  C   UNL     1     -11.536   7.192  71.187  1.00  0.00    -0.301 C  
HETATM   26  H   UNL     1     -12.500   6.534  72.773  1.00  0.00     0.000 HD 
HETATM   27  O   UNL     1     -12.378   6.259  71.871  1.00  0.00    -0.312 OA 
HETATM   28  H   UNL     1     -11.229   4.807  70.209  1.00  0.00     0.000 HD 
HETATM   29  C   UNL     1     -12.129   8.605  71.260  1.00  0.00    -0.290 C  
BRANCH  20  30
HETATM   30  C   UNL     1     -10.379   7.403  67.499  1.00  0.00    -0.251 C  
HETATM   31  O   UNL     1     -11.469   6.566  67.118  1.00  0.00    -0.768 OA 
HETATM   32  H   UNL     1     -11.382   6.323  66.204  1.00  0.00     0.000 HD 
ENDBRANCH  20  30
ENDBRANCH  16  18
ENDBRANCH  10  11
ENDBRANCH   7  10
ENDBRANCH   3   4
ENDBRANCH   2   3
TORSDOF 6
ENDMDL
MODEL       82
REMARK 921   NORMALIZED FREE ENERGY PREDICTED BY IDOCK:   -5.83 KCAL/MOL
REMARK 922        TOTAL FREE ENERGY PREDICTED BY IDOCK:   -8.83 KCAL/MOL
REMARK 923 INTER-LIGAND FREE ENERGY PREDICTED BY IDOCK:   -7.83 KCAL/MOL
REMARK 924 INTRA-LIGAND FREE ENERGY PREDICTED BY IDOCK:   -1.00 KCAL/MOL
REMARK 927      BINDING AFFINITY PREDICTED BY RF-SCORE:    0.00 PKD
ROOT
HETATM    1  C   UNL     1     -11.994  13.443  63.560  1.00  0.00    -0.467 C  
HETATM    2  C   UNL     1     -11.419  14.051  64.826  1.00  0.00    -0.369 C  
ENDROOT
BRANCH   2   3
HETATM    3  O   UNL     1     -12.391  13.922  65.862  1.00  0.00    -0.436 OA 
BRANCH   3   4
HETATM    4  C   UNL     1     -12.018  13.225  66.977  1.00  0.00    -0.365 A  
HETATM    5  C   UNL     1     -11.992  13.718  68.279  1.00  0.00    -0.392 A  
HETATM    6  C   UNL     1     -11.596  12.893  69.337  1.00  0.00    -0.363 A  
HETATM    7  C   UNL     1     -11.218  11.563  69.111  1.00  0.00    -0.337 A  
HETATM    8  C   UNL     1     -11.629  11.904  66.744  1.00  0.00    -0.341 A  
HETATM    9  C   UNL     1     -11.230  11.078  67.798  1.00  0.00    -0.374 A  
BRANCH   7  10
HETATM   10  C   UNL     1     -10.733  10.714  70.261  1.00  0.00    -0.063 C  
BRANCH  10  11
HETATM   11  C   UNL     1     -11.574   9.508  70.619  1.00  0.00    -0.350 A  
HETATM   12  C   UNL     1     -12.709   9.572  71.438  1.00  0.00    -0.358 A  
HETATM   13 CL   UNL     1     -13.358  11.076  71.982  1.00  0.00    -0.508 Cl 
HETATM   14  C   UNL     1     -13.328   8.397  71.881  1.00  0.00    -0.380 A  
HETATM   15  C   UNL     1     -12.817   7.143  71.532  1.00  0.00    -0.434 A  
HETATM   16  C   UNL     1     -11.702   7.047  70.694  1.00  0.00    -0.384 A  
HETATM   17  C   UNL     1     -11.124   8.239  70.214  1.00  0.00    -0.220 A  
BRANCH  16  18
HETATM   18  C   UNL     1     -11.008   5.725  70.386  1.00  0.00    -0.262 C  
HETATM   19  O   UNL     1     -10.165   5.322  71.483  1.00  0.00    -0.197 OA 
HETATM   20  C   UNL     1      -9.541   4.045  71.264  1.00  0.00    -0.175 C  
HETATM   21  H   UNL     1     -10.528   6.241  67.151  1.00  0.00     0.000 HD 
HETATM   22  C   UNL     1      -8.645   4.081  70.024  1.00  0.00    -0.065 C  
HETATM   23  O   UNL     1     -11.030   6.171  67.954  1.00  0.00    -0.312 OA 
HETATM   24  O   UNL     1      -8.049   2.807  69.737  1.00  0.00    -0.042 OA 
HETATM   25  C   UNL     1      -9.459   4.517  68.805  1.00  0.00    -0.157 C  
HETATM   26  H   UNL     1      -9.107   4.908  66.907  1.00  0.00     0.000 HD 
HETATM   27  O   UNL     1      -8.602   4.637  67.665  1.00  0.00    -0.103 OA 
HETATM   28  H   UNL     1      -7.493   2.830  68.967  1.00  0.00     0.000 HD 
HETATM   29  C   UNL     1     -10.188   5.840  69.071  1.00  0.00    -0.217 C  
BRANCH  20  30
HETATM   30  C   UNL     1      -8.722   3.682  72.513  1.00  0.00    -0.090 C  
HETATM   31  O   UNL     1      -8.776   2.274  72.731  1.00  0.00    -0.066 OA 
HETATM   32  H   UNL     1      -8.270   2.049  73.502  1.00  0.00     0.000 HD 
ENDBRANCH  20  30
ENDBRANCH  16  18
ENDBRANCH  10  11
ENDBRANCH   7  10
ENDBRANCH   3   4
ENDBRANCH   2   3
TORSDOF 6
ENDMDL
MODEL       83
REMARK 921   NORMALIZED FREE ENERGY PREDICTED BY IDOCK:   -5.83 KCAL/MOL
REMARK 922        TOTAL FREE ENERGY PREDICTED BY IDOCK:   -8.83 KCAL/MOL
REMARK 923 INTER-LIGAND FREE ENERGY PREDICTED BY IDOCK:   -7.86 KCAL/MOL
REMARK 924 INTRA-LIGAND FREE ENERGY PREDICTED BY IDOCK:   -0.97 KCAL/MOL
REMARK 927      BINDING AFFINITY PREDICTED BY RF-SCORE:    0.00 PKD
ROOT
HETATM    1  C   UNL     1     -10.859  15.851  70.126  1.00  0.00    -0.359 C  
HETATM    2  C   UNL     1     -11.984  15.344  69.243  1.00  0.00    -0.310 C  
ENDROOT
BRANCH   2   3
HETATM    3  O   UNL     1     -11.682  15.694  67.893  1.00  0.00    -0.262 OA 
BRANCH   3   4
HETATM    4  C   UNL     1     -11.513  14.663  67.011  1.00  0.00    -0.368 A  
HETATM    5  C   UNL     1     -12.532  13.955  66.378  1.00  0.00    -0.414 A  
HETATM    6  C   UNL     1     -12.223  12.923  65.485  1.00  0.00    -0.527 A  
HETATM    7  C   UNL     1     -10.892  12.582  65.212  1.00  0.00    -0.321 A  
HETATM    8  C   UNL     1     -10.185  14.318  66.753  1.00  0.00    -0.272 A  
HETATM    9  C   UNL     1      -9.873  13.286  65.863  1.00  0.00    -0.241 A  
BRANCH   7  10
HETATM   10  C   UNL     1     -10.587  11.422  64.294  1.00  0.00    -0.416 C  
BRANCH  10  11
HETATM   11  C   UNL     1      -9.838  10.255  64.898  1.00  0.00    -0.404 A  
HETATM   12  C   UNL     1      -8.810   9.570  64.236  1.00  0.00    -0.213 A  
HETATM   13 CL   UNL     1      -8.182  10.109  62.721  1.00  0.00    -0.147 Cl 
HETATM   14  C   UNL     1      -8.289   8.386  64.773  1.00  0.00    -0.151 A  
HETATM   15  C   UNL     1      -8.796   7.857  65.965  1.00  0.00    -0.191 A  
HETATM   16  C   UNL     1      -9.802   8.533  66.662  1.00  0.00    -0.342 A  
HETATM   17  C   UNL     1     -10.276   9.750  66.135  1.00  0.00    -0.278 A  
BRANCH  16  18
HETATM   18  C   UNL     1     -10.496   7.948  67.886  1.00  0.00    -0.198 C  
HETATM   19  O   UNL     1     -10.205   8.729  69.061  1.00  0.00    -0.197 OA 
HETATM   20  C   UNL     1     -10.893   8.251  70.231  1.00  0.00    -0.240 C  
HETATM   21  H   UNL     1     -10.165   4.754  67.075  1.00  0.00     0.000 HD 
HETATM   22  C   UNL     1     -10.481   6.814  70.557  1.00  0.00    -0.209 C  
HETATM   23  O   UNL     1     -10.424   5.660  66.951  1.00  0.00    -0.231 OA 
HETATM   24  O   UNL     1     -11.191   6.280  71.685  1.00  0.00    -0.262 OA 
HETATM   25  C   UNL     1     -10.742   5.910  69.352  1.00  0.00    -0.336 C  
HETATM   26  H   UNL     1     -10.436   4.023  68.877  1.00  0.00     0.000 HD 
HETATM   27  O   UNL     1     -10.274   4.585  69.626  1.00  0.00    -0.188 OA 
HETATM   28  H   UNL     1     -10.935   5.388  71.888  1.00  0.00     0.000 HD 
HETATM   29  C   UNL     1     -10.073   6.466  68.088  1.00  0.00    -0.149 C  
BRANCH  20  30
HETATM   30  C   UNL     1     -10.566   9.187  71.405  1.00  0.00    -0.341 C  
HETATM   31  O   UNL     1      -9.563   8.594  72.228  1.00  0.00    -0.293 OA 
HETATM   32  H   UNL     1      -9.361   9.172  72.953  1.00  0.00     0.000 HD 
ENDBRANCH  20  30
ENDBRANCH  16  18
ENDBRANCH  10  11
ENDBRANCH   7  10
ENDBRANCH   3   4
ENDBRANCH   2   3
TORSDOF 6
ENDMDL
MODEL       84
REMARK 921   NORMALIZED FREE ENERGY PREDICTED BY IDOCK:   -5.81 KCAL/MOL
REMARK 922        TOTAL FREE ENERGY PREDICTED BY IDOCK:   -8.81 KCAL/MOL
REMARK 923 INTER-LIGAND FREE ENERGY PREDICTED BY IDOCK:   -9.16 KCAL/MOL
REMARK 924 INTRA-LIGAND FREE ENERGY PREDICTED BY IDOCK:    0.35 KCAL/MOL
REMARK 927      BINDING AFFINITY PREDICTED BY RF-SCORE:    0.00 PKD
ROOT
HETATM    1  C   UNL     1      -9.925  18.736  67.754  1.00  0.00    -0.396 C  
HETATM    2  C   UNL     1      -9.920  17.494  68.627  1.00  0.00    -0.347 C  
ENDROOT
BRANCH   2   3
HETATM    3  O   UNL     1     -11.270  17.191  68.975  1.00  0.00    -0.018 OA 
BRANCH   3   4
HETATM    4  C   UNL     1     -11.550  15.889  69.286  1.00  0.00    -0.369 A  
HETATM    5  C   UNL     1     -11.627  14.832  68.382  1.00  0.00    -0.350 A  
HETATM    6  C   UNL     1     -11.915  13.539  68.834  1.00  0.00    -0.378 A  
HETATM    7  C   UNL     1     -12.131  13.282  70.194  1.00  0.00    -0.403 A  
HETATM    8  C   UNL     1     -11.779  15.642  70.641  1.00  0.00    -0.398 A  
HETATM    9  C   UNL     1     -12.068  14.352  71.095  1.00  0.00    -0.410 A  
BRANCH   7  10
HETATM   10  C   UNL     1     -12.503  11.891  70.646  1.00  0.00    -0.347 C  
BRANCH  10  11
HETATM   11  C   UNL     1     -11.890  10.739  69.879  1.00  0.00    -0.413 A  
HETATM   12  C   UNL     1     -11.629   9.485  70.447  1.00  0.00    -0.212 A  
HETATM   13 CL   UNL     1     -12.142   9.081  72.045  1.00  0.00    -0.440 Cl 
HETATM   14  C   UNL     1     -10.890   8.529  69.739  1.00  0.00    -0.177 A  
HETATM   15  C   UNL     1     -10.387   8.813  68.465  1.00  0.00    -0.231 A  
HETATM   16  C   UNL     1     -10.656  10.045  67.861  1.00  0.00    -0.298 A  
HETATM   17  C   UNL     1     -11.446  10.975  68.567  1.00  0.00    -0.379 A  
BRANCH  16  18
HETATM   18  C   UNL     1     -10.027  10.475  66.541  1.00  0.00    -0.214 C  
HETATM   19  O   UNL     1     -10.994  11.142  65.707  1.00  0.00    -0.204 OA 
HETATM   20  C   UNL     1     -10.427  11.625  64.476  1.00  0.00    -0.308 C  
HETATM   21  H   UNL     1      -8.030   7.862  66.154  1.00  0.00     0.000 HD 
HETATM   22  C   UNL     1      -9.866  10.469  63.644  1.00  0.00    -0.293 C  
HETATM   23  O   UNL     1      -8.401   8.613  66.602  1.00  0.00    -0.105 OA 
HETATM   24  O   UNL     1      -9.238  10.916  62.434  1.00  0.00    -0.389 OA 
HETATM   25  C   UNL     1      -8.836   9.689  64.462  1.00  0.00    -0.223 C  
HETATM   26  H   UNL     1      -7.738   8.072  64.224  1.00  0.00     0.000 HD 
HETATM   27  O   UNL     1      -8.378   8.557  63.716  1.00  0.00    -0.155 OA 
HETATM   28  H   UNL     1      -8.890  10.199  61.917  1.00  0.00     0.000 HD 
HETATM   29  C   UNL     1      -9.420   9.246  65.809  1.00  0.00    -0.262 C  
BRANCH  20  30
HETATM   30  C   UNL     1     -11.520  12.372  63.696  1.00  0.00    -0.489 C  
HETATM   31  O   UNL     1     -12.292  11.442  62.940  1.00  0.00    -0.954 OA 
HETATM   32  H   UNL     1     -12.967  11.903  62.457  1.00  0.00     0.000 HD 
ENDBRANCH  20  30
ENDBRANCH  16  18
ENDBRANCH  10  11
ENDBRANCH   7  10
ENDBRANCH   3   4
ENDBRANCH   2   3
TORSDOF 6
ENDMDL
MODEL       85
REMARK 921   NORMALIZED FREE ENERGY PREDICTED BY IDOCK:   -5.80 KCAL/MOL
REMARK 922        TOTAL FREE ENERGY PREDICTED BY IDOCK:   -8.80 KCAL/MOL
REMARK 923 INTER-LIGAND FREE ENERGY PREDICTED BY IDOCK:   -7.43 KCAL/MOL
REMARK 924 INTRA-LIGAND FREE ENERGY PREDICTED BY IDOCK:   -1.37 KCAL/MOL
REMARK 927      BINDING AFFINITY PREDICTED BY RF-SCORE:    0.00 PKD
ROOT
HETATM    1  C   UNL     1      -9.887  10.801  63.733  1.00  0.00    -0.396 C  
HETATM    2  C   UNL     1     -10.727  12.015  63.381  1.00  0.00    -0.417 C  
ENDROOT
BRANCH   2   3
HETATM    3  O   UNL     1     -10.230  13.129  64.120  1.00  0.00    -0.391 OA 
BRANCH   3   4
HETATM    4  C   UNL     1     -10.528  13.169  65.453  1.00  0.00    -0.296 A  
HETATM    5  C   UNL     1      -9.608  13.272  66.494  1.00  0.00    -0.267 A  
HETATM    6  C   UNL     1     -10.048  13.311  67.822  1.00  0.00    -0.229 A  
HETATM    7  C   UNL     1     -11.414  13.248  68.130  1.00  0.00    -0.347 A  
HETATM    8  C   UNL     1     -11.889  13.091  65.756  1.00  0.00    -0.453 A  
HETATM    9  C   UNL     1     -12.332  13.128  67.081  1.00  0.00    -0.091 A  
BRANCH   7  10
HETATM   10  C   UNL     1     -11.857  13.228  69.573  1.00  0.00    -0.388 C  
BRANCH  10  11
HETATM   11  C   UNL     1     -11.979  11.871  70.229  1.00  0.00    -0.416 A  
HETATM   12  C   UNL     1     -12.795  11.620  71.341  1.00  0.00    -0.356 A  
HETATM   13 CL   UNL     1     -13.877  12.810  71.967  1.00  0.00    -0.322 Cl 
HETATM   14  C   UNL     1     -12.717  10.393  72.012  1.00  0.00    -0.365 A  
HETATM   15  C   UNL     1     -11.816   9.407  71.598  1.00  0.00    -0.464 A  
HETATM   16  C   UNL     1     -11.010   9.618  70.476  1.00  0.00    -0.374 A  
HETATM   17  C   UNL     1     -11.139  10.836  69.781  1.00  0.00    -0.346 A  
BRANCH  16  18
HETATM   18  C   UNL     1      -9.911   8.650  70.052  1.00  0.00    -0.179 C  
HETATM   19  O   UNL     1      -8.817   9.355  69.434  1.00  0.00    -0.142 OA 
HETATM   20  C   UNL     1      -7.727   8.488  69.078  1.00  0.00    -0.096 C  
HETATM   21  H   UNL     1     -11.880   6.150  69.136  1.00  0.00     0.000 HD 
HETATM   22  C   UNL     1      -8.179   7.430  68.070  1.00  0.00    -0.124 C  
HETATM   23  O   UNL     1     -11.529   6.809  69.723  1.00  0.00    -0.304 OA 
HETATM   24  O   UNL     1      -7.133   6.507  67.733  1.00  0.00    -0.082 OA 
HETATM   25  C   UNL     1      -9.356   6.636  68.639  1.00  0.00    -0.129 C  
HETATM   26  H   UNL     1     -10.567   5.214  68.014  1.00  0.00     0.000 HD 
HETATM   27  O   UNL     1      -9.835   5.707  67.661  1.00  0.00    -0.122 OA 
HETATM   28  H   UNL     1      -7.413   5.849  67.107  1.00  0.00     0.000 HD 
HETATM   29  C   UNL     1     -10.485   7.570  69.092  1.00  0.00    -0.215 C  
BRANCH  20  30
HETATM   30  C   UNL     1      -6.594   9.345  68.491  1.00  0.00    -0.053 C  
HETATM   31  O   UNL     1      -6.661   9.318  67.066  1.00  0.00    -0.066 OA 
HETATM   32  H   UNL     1      -5.961   9.848  66.703  1.00  0.00     0.000 HD 
ENDBRANCH  20  30
ENDBRANCH  16  18
ENDBRANCH  10  11
ENDBRANCH   7  10
ENDBRANCH   3   4
ENDBRANCH   2   3
TORSDOF 6
ENDMDL
MODEL       86
REMARK 921   NORMALIZED FREE ENERGY PREDICTED BY IDOCK:   -5.80 KCAL/MOL
REMARK 922        TOTAL FREE ENERGY PREDICTED BY IDOCK:   -8.80 KCAL/MOL
REMARK 923 INTER-LIGAND FREE ENERGY PREDICTED BY IDOCK:   -7.63 KCAL/MOL
REMARK 924 INTRA-LIGAND FREE ENERGY PREDICTED BY IDOCK:   -1.17 KCAL/MOL
REMARK 927      BINDING AFFINITY PREDICTED BY RF-SCORE:    0.00 PKD
ROOT
HETATM    1  C   UNL     1      -8.086   3.347  65.158  1.00  0.00    -0.093 C  
HETATM    2  C   UNL     1      -9.094   3.357  66.292  1.00  0.00    -0.155 C  
ENDROOT
BRANCH   2   3
HETATM    3  O   UNL     1      -9.774   4.611  66.271  1.00  0.00    -0.162 OA 
BRANCH   3   4
HETATM    4  C   UNL     1      -9.719   5.362  67.412  1.00  0.00    -0.140 A  
HETATM    5  C   UNL     1     -10.648   5.343  68.449  1.00  0.00    -0.148 A  
HETATM    6  C   UNL     1     -10.468   6.160  69.571  1.00  0.00    -0.315 A  
HETATM    7  C   UNL     1      -9.358   7.009  69.674  1.00  0.00    -0.149 A  
HETATM    8  C   UNL     1      -8.618   6.217  67.502  1.00  0.00    -0.107 A  
HETATM    9  C   UNL     1      -8.437   7.036  68.621  1.00  0.00    -0.121 A  
BRANCH   7  10
HETATM   10  C   UNL     1      -9.223   7.927  70.865  1.00  0.00    -0.160 C  
BRANCH  10  11
HETATM   11  C   UNL     1     -10.210   9.068  70.961  1.00  0.00    -0.347 A  
HETATM   12  C   UNL     1     -11.332   9.051  71.800  1.00  0.00    -0.377 A  
HETATM   13 CL   UNL     1     -11.602   7.781  72.939  1.00  0.00    -0.374 Cl 
HETATM   14  C   UNL     1     -12.304  10.055  71.702  1.00  0.00    -0.486 A  
HETATM   15  C   UNL     1     -12.183  11.078  70.756  1.00  0.00    -0.480 A  
HETATM   16  C   UNL     1     -11.060  11.137  69.925  1.00  0.00    -0.234 A  
HETATM   17  C   UNL     1     -10.067  10.150  70.074  1.00  0.00    -0.241 A  
BRANCH  16  18
HETATM   18  C   UNL     1     -10.928  12.138  68.783  1.00  0.00    -0.232 C  
HETATM   19  O   UNL     1     -11.275  13.465  69.223  1.00  0.00    -0.258 OA 
HETATM   20  C   UNL     1     -11.101  14.455  68.194  1.00  0.00    -0.264 C  
HETATM   21  H   UNL     1     -11.973  10.146  66.353  1.00  0.00     0.000 HD 
HETATM   22  C   UNL     1     -11.997  14.154  66.990  1.00  0.00    -0.439 C  
HETATM   23  O   UNL     1     -11.431  10.411  67.086  1.00  0.00    -0.250 OA 
HETATM   24  O   UNL     1     -11.810  15.087  65.916  1.00  0.00    -0.193 OA 
HETATM   25  C   UNL     1     -11.707  12.748  66.463  1.00  0.00    -0.400 C  
HETATM   26  H   UNL     1     -12.427  11.560  65.067  1.00  0.00     0.000 HD 
HETATM   27  O   UNL     1     -12.607  12.433  65.395  1.00  0.00    -0.637 OA 
HETATM   28  H   UNL     1     -12.366  14.900  65.169  1.00  0.00     0.000 HD 
HETATM   29  C   UNL     1     -11.815  11.704  67.582  1.00  0.00    -0.143 C  
BRANCH  20  30
HETATM   30  C   UNL     1     -11.434  15.835  68.783  1.00  0.00    -0.388 C  
HETATM   31  O   UNL     1     -11.969  15.681  70.096  1.00  0.00    -0.338 OA 
HETATM   32  H   UNL     1     -12.175  16.533  70.460  1.00  0.00     0.000 HD 
ENDBRANCH  20  30
ENDBRANCH  16  18
ENDBRANCH  10  11
ENDBRANCH   7  10
ENDBRANCH   3   4
ENDBRANCH   2   3
TORSDOF 6
ENDMDL
MODEL       87
REMARK 921   NORMALIZED FREE ENERGY PREDICTED BY IDOCK:   -5.80 KCAL/MOL
REMARK 922        TOTAL FREE ENERGY PREDICTED BY IDOCK:   -8.80 KCAL/MOL
REMARK 923 INTER-LIGAND FREE ENERGY PREDICTED BY IDOCK:   -8.13 KCAL/MOL
REMARK 924 INTRA-LIGAND FREE ENERGY PREDICTED BY IDOCK:   -0.67 KCAL/MOL
REMARK 927      BINDING AFFINITY PREDICTED BY RF-SCORE:    0.00 PKD
ROOT
HETATM    1  C   UNL     1     -12.079  14.789  72.034  1.00  0.00    -0.403 C  
HETATM    2  C   UNL     1     -12.949  13.837  71.235  1.00  0.00    -0.334 C  
ENDROOT
BRANCH   2   3
HETATM    3  O   UNL     1     -12.103  12.853  70.643  1.00  0.00    -0.349 OA 
BRANCH   3   4
HETATM    4  C   UNL     1     -12.321  11.553  71.005  1.00  0.00    -0.329 A  
HETATM    5  C   UNL     1     -13.321  11.099  71.862  1.00  0.00    -0.409 A  
HETATM    6  C   UNL     1     -13.441   9.734  72.145  1.00  0.00    -0.491 A  
HETATM    7  C   UNL     1     -12.564   8.801  71.576  1.00  0.00    -0.372 A  
HETATM    8  C   UNL     1     -11.435  10.628  70.447  1.00  0.00    -0.422 A  
HETATM    9  C   UNL     1     -11.551   9.264  70.729  1.00  0.00    -0.345 A  
BRANCH   7  10
HETATM   10  C   UNL     1     -12.676   7.342  71.949  1.00  0.00    -0.310 C  
BRANCH  10  11
HETATM   11  C   UNL     1     -11.670   6.401  71.323  1.00  0.00    -0.359 A  
HETATM   12  C   UNL     1     -10.788   5.607  72.067  1.00  0.00    -0.242 A  
HETATM   13 CL   UNL     1     -10.881   5.503  73.787  1.00  0.00    -0.299 Cl 
HETATM   14  C   UNL     1      -9.760   4.903  71.427  1.00  0.00    -0.237 A  
HETATM   15  C   UNL     1      -9.585   4.993  70.042  1.00  0.00    -0.258 A  
HETATM   16  C   UNL     1     -10.468   5.755  69.270  1.00  0.00    -0.358 A  
HETATM   17  C   UNL     1     -11.528   6.413  69.924  1.00  0.00    -0.483 A  
BRANCH  16  18
HETATM   18  C   UNL     1     -10.257   6.011  67.782  1.00  0.00    -0.179 C  
HETATM   19  O   UNL     1     -10.079   4.772  67.070  1.00  0.00    -0.202 OA 
HETATM   20  C   UNL     1      -9.943   4.961  65.651  1.00  0.00    -0.127 C  
HETATM   21  H   UNL     1      -8.491   8.797  68.079  1.00  0.00     0.000 HD 
HETATM   22  C   UNL     1      -8.717   5.819  65.331  1.00  0.00    -0.119 C  
HETATM   23  O   UNL     1      -9.235   8.222  68.211  1.00  0.00    -0.135 OA 
HETATM   24  O   UNL     1      -8.579   6.081  63.926  1.00  0.00    -0.334 OA 
HETATM   25  C   UNL     1      -8.812   7.159  66.063  1.00  0.00    -0.131 C  
HETATM   26  H   UNL     1      -7.684   8.756  66.289  1.00  0.00     0.000 HD 
HETATM   27  O   UNL     1      -7.625   7.924  65.834  1.00  0.00    -0.079 OA 
HETATM   28  H   UNL     1      -7.818   6.614  63.727  1.00  0.00     0.000 HD 
HETATM   29  C   UNL     1      -9.039   6.953  67.566  1.00  0.00    -0.118 C  
BRANCH  20  30
HETATM   30  C   UNL     1      -9.825   3.581  64.984  1.00  0.00    -0.111 C  
HETATM   31  O   UNL     1     -11.064   3.240  64.365  1.00  0.00    -0.595 OA 
HETATM   32  H   UNL     1     -10.992   2.387  63.953  1.00  0.00     0.000 HD 
ENDBRANCH  20  30
ENDBRANCH  16  18
ENDBRANCH  10  11
ENDBRANCH   7  10
ENDBRANCH   3   4
ENDBRANCH   2   3
TORSDOF 6
ENDMDL
MODEL       88
REMARK 921   NORMALIZED FREE ENERGY PREDICTED BY IDOCK:   -5.80 KCAL/MOL
REMARK 922        TOTAL FREE ENERGY PREDICTED BY IDOCK:   -8.80 KCAL/MOL
REMARK 923 INTER-LIGAND FREE ENERGY PREDICTED BY IDOCK:   -8.08 KCAL/MOL
REMARK 924 INTRA-LIGAND FREE ENERGY PREDICTED BY IDOCK:   -0.71 KCAL/MOL
REMARK 927      BINDING AFFINITY PREDICTED BY RF-SCORE:    0.00 PKD
ROOT
HETATM    1  C   UNL     1     -10.458   5.602  66.377  1.00  0.00    -0.256 C  
HETATM    2  C   UNL     1      -9.335   6.323  67.098  1.00  0.00    -0.123 C  
ENDROOT
BRANCH   2   3
HETATM    3  O   UNL     1      -8.447   6.857  66.118  1.00  0.00    -0.123 OA 
BRANCH   3   4
HETATM    4  C   UNL     1      -8.826   8.022  65.510  1.00  0.00    -0.061 A  
HETATM    5  C   UNL     1      -9.685   8.980  66.044  1.00  0.00    -0.339 A  
HETATM    6  C   UNL     1      -9.986  10.138  65.319  1.00  0.00    -0.381 A  
HETATM    7  C   UNL     1      -9.434  10.357  64.050  1.00  0.00    -0.351 A  
HETATM    8  C   UNL     1      -8.285   8.228  64.240  1.00  0.00    -0.116 A  
HETATM    9  C   UNL     1      -8.585   9.383  63.512  1.00  0.00    -0.215 A  
BRANCH   7  10
HETATM   10  C   UNL     1      -9.826  11.584  63.262  1.00  0.00    -0.431 C  
BRANCH  10  11
HETATM   11  C   UNL     1     -10.681  12.607  63.977  1.00  0.00    -0.457 A  
HETATM   12  C   UNL     1     -12.073  12.685  63.836  1.00  0.00    -0.487 A  
HETATM   13 CL   UNL     1     -12.970  11.502  62.955  1.00  0.00     0.125 Cl 
HETATM   14  C   UNL     1     -12.778  13.769  64.374  1.00  0.00    -0.079 A  
HETATM   15  C   UNL     1     -12.108  14.798  65.043  1.00  0.00    -0.291 A  
HETATM   16  C   UNL     1     -10.723  14.733  65.224  1.00  0.00    -0.406 A  
HETATM   17  C   UNL     1     -10.037  13.610  64.723  1.00  0.00    -0.268 A  
BRANCH  16  18
HETATM   18  C   UNL     1      -9.911  15.879  65.817  1.00  0.00    -0.345 C  
HETATM   19  O   UNL     1      -9.456  15.551  67.143  1.00  0.00    -0.209 OA 
HETATM   20  C   UNL     1      -8.629  16.578  67.717  1.00  0.00    -0.177 C  
HETATM   21  H   UNL     1     -11.668  18.363  64.509  1.00  0.00     0.000 HD 
HETATM   22  C   UNL     1      -9.401  17.894  67.842  1.00  0.00    -0.271 C  
HETATM   23  O   UNL     1     -11.153  17.565  64.501  1.00  0.00    -0.902 OA 
HETATM   24  O   UNL     1      -8.591  18.961  68.356  1.00  0.00    -0.323 OA 
HETATM   25  C   UNL     1      -9.939  18.314  66.473  1.00  0.00    -0.373 C  
HETATM   26  H   UNL     1     -11.070  19.758  65.755  1.00  0.00     0.000 HD 
HETATM   27  O   UNL     1     -10.735  19.496  66.605  1.00  0.00    -0.457 OA 
HETATM   28  H   UNL     1      -9.070  19.778  68.434  1.00  0.00     0.000 HD 
HETATM   29  C   UNL     1     -10.754  17.186  65.829  1.00  0.00    -0.138 C  
BRANCH  20  30
HETATM   30  C   UNL     1      -8.146  16.102  69.097  1.00  0.00    -0.230 C  
HETATM   31  O   UNL     1      -8.958  15.017  69.541  1.00  0.00    -0.397 OA 
HETATM   32  H   UNL     1      -8.660  14.723  70.393  1.00  0.00     0.000 HD 
ENDBRANCH  20  30
ENDBRANCH  16  18
ENDBRANCH  10  11
ENDBRANCH   7  10
ENDBRANCH   3   4
ENDBRANCH   2   3
TORSDOF 6
ENDMDL
MODEL       89
REMARK 921   NORMALIZED FREE ENERGY PREDICTED BY IDOCK:   -5.79 KCAL/MOL
REMARK 922        TOTAL FREE ENERGY PREDICTED BY IDOCK:   -8.78 KCAL/MOL
REMARK 923 INTER-LIGAND FREE ENERGY PREDICTED BY IDOCK:   -7.82 KCAL/MOL
REMARK 924 INTRA-LIGAND FREE ENERGY PREDICTED BY IDOCK:   -0.96 KCAL/MOL
REMARK 927      BINDING AFFINITY PREDICTED BY RF-SCORE:    0.00 PKD
ROOT
HETATM    1  C   UNL     1      -6.270   3.950  69.880  1.00  0.00    -0.027 C  
HETATM    2  C   UNL     1      -5.869   3.665  68.445  1.00  0.00    -0.023 C  
ENDROOT
BRANCH   2   3
HETATM    3  O   UNL     1      -5.724   4.912  67.768  1.00  0.00    -0.016 OA 
BRANCH   3   4
HETATM    4  C   UNL     1      -6.870   5.610  67.507  1.00  0.00    -0.060 A  
HETATM    5  C   UNL     1      -8.062   5.074  67.023  1.00  0.00    -0.107 A  
HETATM    6  C   UNL     1      -9.169   5.901  66.806  1.00  0.00    -0.139 A  
HETATM    7  C   UNL     1      -9.104   7.275  67.068  1.00  0.00    -0.152 A  
HETATM    8  C   UNL     1      -6.796   6.982  67.755  1.00  0.00    -0.074 A  
HETATM    9  C   UNL     1      -7.900   7.811  67.538  1.00  0.00    -0.122 A  
BRANCH   7  10
HETATM   10  C   UNL     1     -10.293   8.155  66.764  1.00  0.00    -0.361 C  
BRANCH  10  11
HETATM   11  C   UNL     1     -10.319   9.517  67.422  1.00  0.00    -0.319 A  
HETATM   12  C   UNL     1     -10.676   9.722  68.761  1.00  0.00    -0.215 A  
HETATM   13 CL   UNL     1     -10.959   8.406  69.843  1.00  0.00    -0.212 Cl 
HETATM   14  C   UNL     1     -10.861  11.020  69.252  1.00  0.00    -0.285 A  
HETATM   15  C   UNL     1     -10.712  12.130  68.415  1.00  0.00    -0.252 A  
HETATM   16  C   UNL     1     -10.329  11.958  67.081  1.00  0.00    -0.235 A  
HETATM   17  C   UNL     1     -10.095  10.648  66.618  1.00  0.00    -0.270 A  
BRANCH  16  18
HETATM   18  C   UNL     1     -10.283  13.105  66.079  1.00  0.00    -0.286 C  
HETATM   19  O   UNL     1      -9.986  14.351  66.739  1.00  0.00    -0.251 OA 
HETATM   20  C   UNL     1      -9.868  15.452  65.822  1.00  0.00    -0.364 C  
HETATM   21  H   UNL     1     -12.723  12.042  64.109  1.00  0.00     0.000 HD 
HETATM   22  C   UNL     1     -11.177  15.671  65.061  1.00  0.00    -0.329 C  
HETATM   23  O   UNL     1     -11.901  11.986  64.581  1.00  0.00    -0.330 OA 
HETATM   24  O   UNL     1     -11.082  16.725  64.092  1.00  0.00    -1.346 OA 
HETATM   25  C   UNL     1     -11.582  14.386  64.337  1.00  0.00    -0.334 C  
HETATM   26  H   UNL     1     -13.102  13.767  63.249  1.00  0.00     0.000 HD 
HETATM   27  O   UNL     1     -12.851  14.565  63.699  1.00  0.00    -0.632 OA 
HETATM   28  H   UNL     1     -11.895  16.862  63.620  1.00  0.00     0.000 HD 
HETATM   29  C   UNL     1     -11.628  13.197  65.305  1.00  0.00    -0.321 C  
BRANCH  20  30
HETATM   30  C   UNL     1      -9.488  16.711  66.617  1.00  0.00    -0.252 C  
HETATM   31  O   UNL     1      -9.199  17.779  65.717  1.00  0.00    -0.505 OA 
HETATM   32  H   UNL     1      -8.963  18.557  66.208  1.00  0.00     0.000 HD 
ENDBRANCH  20  30
ENDBRANCH  16  18
ENDBRANCH  10  11
ENDBRANCH   7  10
ENDBRANCH   3   4
ENDBRANCH   2   3
TORSDOF 6
ENDMDL
MODEL       90
REMARK 921   NORMALIZED FREE ENERGY PREDICTED BY IDOCK:   -5.78 KCAL/MOL
REMARK 922        TOTAL FREE ENERGY PREDICTED BY IDOCK:   -8.78 KCAL/MOL
REMARK 923 INTER-LIGAND FREE ENERGY PREDICTED BY IDOCK:   -7.98 KCAL/MOL
REMARK 924 INTRA-LIGAND FREE ENERGY PREDICTED BY IDOCK:   -0.80 KCAL/MOL
REMARK 927      BINDING AFFINITY PREDICTED BY RF-SCORE:    0.00 PKD
ROOT
HETATM    1  C   UNL     1     -12.140  13.189  63.425  1.00  0.00    -0.558 C  
HETATM    2  C   UNL     1     -11.329  13.665  64.616  1.00  0.00    -0.366 C  
ENDROOT
BRANCH   2   3
HETATM    3  O   UNL     1     -12.167  13.622  65.770  1.00  0.00    -0.405 OA 
BRANCH   3   4
HETATM    4  C   UNL     1     -11.738  12.855  66.816  1.00  0.00    -0.383 A  
HETATM    5  C   UNL     1     -12.025  13.074  68.162  1.00  0.00    -0.322 A  
HETATM    6  C   UNL     1     -11.528  12.204  69.139  1.00  0.00    -0.352 A  
HETATM    7  C   UNL     1     -10.737  11.102  68.787  1.00  0.00    -0.236 A  
HETATM    8  C   UNL     1     -10.938  11.767  66.462  1.00  0.00    -0.342 A  
HETATM    9  C   UNL     1     -10.439  10.897  67.436  1.00  0.00    -0.263 A  
BRANCH   7  10
HETATM   10  C   UNL     1     -10.161  10.217  69.866  1.00  0.00    -0.284 C  
BRANCH  10  11
HETATM   11  C   UNL     1     -10.586   8.765  69.854  1.00  0.00    -0.230 A  
HETATM   12  C   UNL     1     -11.404   8.190  70.836  1.00  0.00    -0.268 A  
HETATM   13 CL   UNL     1     -12.148   9.137  72.072  1.00  0.00    -0.442 Cl 
HETATM   14  C   UNL     1     -11.602   6.804  70.868  1.00  0.00    -0.403 A  
HETATM   15  C   UNL     1     -10.976   5.970  69.935  1.00  0.00    -0.458 A  
HETATM   16  C   UNL     1     -10.177   6.517  68.927  1.00  0.00    -0.206 A  
HETATM   17  C   UNL     1     -10.032   7.918  68.878  1.00  0.00    -0.194 A  
BRANCH  16  18
HETATM   18  C   UNL     1      -9.356   5.664  67.967  1.00  0.00    -0.108 C  
HETATM   19  O   UNL     1     -10.171   5.193  66.876  1.00  0.00    -0.199 OA 
HETATM   20  C   UNL     1      -9.421   4.437  65.909  1.00  0.00    -0.174 C  
HETATM   21  H   UNL     1      -7.437   4.204  70.236  1.00  0.00     0.000 HD 
HETATM   22  C   UNL     1      -8.801   3.194  66.550  1.00  0.00    -0.144 C  
HETATM   23  O   UNL     1      -7.833   4.931  69.772  1.00  0.00    -0.065 OA 
HETATM   24  O   UNL     1      -7.995   2.443  65.630  1.00  0.00    -0.080 OA 
HETATM   25  C   UNL     1      -7.926   3.600  67.737  1.00  0.00    -0.081 C  
HETATM   26  H   UNL     1      -6.875   2.684  69.127  1.00  0.00     0.000 HD 
HETATM   27  O   UNL     1      -7.418   2.432  68.390  1.00  0.00    -0.047 OA 
HETATM   28  H   UNL     1      -7.610   1.671  66.028  1.00  0.00     0.000 HD 
HETATM   29  C   UNL     1      -8.707   4.473  68.727  1.00  0.00    -0.094 C  
BRANCH  20  30
HETATM   30  C   UNL     1     -10.365   4.041  64.762  1.00  0.00    -0.197 C  
HETATM   31  O   UNL     1     -11.638   4.653  64.955  1.00  0.00    -1.080 OA 
HETATM   32  H   UNL     1     -12.222   4.408  64.247  1.00  0.00     0.000 HD 
ENDBRANCH  20  30
ENDBRANCH  16  18
ENDBRANCH  10  11
ENDBRANCH   7  10
ENDBRANCH   3   4
ENDBRANCH   2   3
TORSDOF 6
ENDMDL
MODEL       91
REMARK 921   NORMALIZED FREE ENERGY PREDICTED BY IDOCK:   -5.78 KCAL/MOL
REMARK 922        TOTAL FREE ENERGY PREDICTED BY IDOCK:   -8.77 KCAL/MOL
REMARK 923 INTER-LIGAND FREE ENERGY PREDICTED BY IDOCK:   -7.31 KCAL/MOL
REMARK 924 INTRA-LIGAND FREE ENERGY PREDICTED BY IDOCK:   -1.46 KCAL/MOL
REMARK 927      BINDING AFFINITY PREDICTED BY RF-SCORE:    0.00 PKD
ROOT
HETATM    1  C   UNL     1     -12.444  15.189  74.159  1.00  0.00    -0.682 C  
HETATM    2  C   UNL     1     -13.560  15.433  73.161  1.00  0.00    -0.372 C  
ENDROOT
BRANCH   2   3
HETATM    3  O   UNL     1     -13.020  16.161  72.059  1.00  0.00    -0.379 OA 
BRANCH   3   4
HETATM    4  C   UNL     1     -12.475  15.428  71.042  1.00  0.00    -0.411 A  
HETATM    5  C   UNL     1     -12.847  14.137  70.675  1.00  0.00    -0.356 A  
HETATM    6  C   UNL     1     -12.213  13.499  69.604  1.00  0.00    -0.304 A  
HETATM    7  C   UNL     1     -11.197  14.140  68.883  1.00  0.00    -0.294 A  
HETATM    8  C   UNL     1     -11.454  16.066  70.336  1.00  0.00    -0.392 A  
HETATM    9  C   UNL     1     -10.816  15.431  69.267  1.00  0.00    -0.253 A  
BRANCH   7  10
HETATM   10  C   UNL     1     -10.485  13.405  67.773  1.00  0.00    -0.246 C  
BRANCH  10  11
HETATM   11  C   UNL     1      -9.230  12.649  68.152  1.00  0.00    -0.209 A  
HETATM   12  C   UNL     1      -7.936  13.148  67.952  1.00  0.00    -0.158 A  
HETATM   13 CL   UNL     1      -7.655  14.760  67.402  1.00  0.00    -0.220 Cl 
HETATM   14  C   UNL     1      -6.822  12.323  68.149  1.00  0.00    -0.078 A  
HETATM   15  C   UNL     1      -6.980  10.987  68.531  1.00  0.00    -0.070 A  
HETATM   16  C   UNL     1      -8.257  10.469  68.766  1.00  0.00    -0.134 A  
HETATM   17  C   UNL     1      -9.363  11.328  68.614  1.00  0.00    -0.167 A  
BRANCH  16  18
HETATM   18  C   UNL     1      -8.513   8.993  69.047  1.00  0.00    -0.132 C  
HETATM   19  O   UNL     1      -9.229   8.381  67.958  1.00  0.00    -0.137 OA 
HETATM   20  C   UNL     1      -9.435   6.971  68.150  1.00  0.00    -0.123 C  
HETATM   21  H   UNL     1      -9.027   9.266  72.307  1.00  0.00     0.000 HD 
HETATM   22  C   UNL     1     -10.263   6.707  69.410  1.00  0.00    -0.183 C  
HETATM   23  O   UNL     1      -8.552   9.368  71.491  1.00  0.00    -0.266 OA 
HETATM   24  O   UNL     1     -10.440   5.307  69.670  1.00  0.00    -0.281 OA 
HETATM   25  C   UNL     1      -9.580   7.339  70.624  1.00  0.00    -0.172 C  
HETATM   26  H   UNL     1      -9.975   7.563  72.540  1.00  0.00     0.000 HD 
HETATM   27  O   UNL     1     -10.399   7.170  71.786  1.00  0.00    -0.197 OA 
HETATM   28  H   UNL     1     -10.954   5.143  70.452  1.00  0.00     0.000 HD 
HETATM   29  C   UNL     1      -9.290   8.826  70.383  1.00  0.00    -0.180 C  
BRANCH  20  30
HETATM   30  C   UNL     1     -10.146   6.407  66.909  1.00  0.00    -0.187 C  
HETATM   31  O   UNL     1     -11.558   6.516  67.074  1.00  0.00    -0.729 OA 
HETATM   32  H   UNL     1     -11.998   6.168  66.307  1.00  0.00     0.000 HD 
ENDBRANCH  20  30
ENDBRANCH  16  18
ENDBRANCH  10  11
ENDBRANCH   7  10
ENDBRANCH   3   4
ENDBRANCH   2   3
TORSDOF 6
ENDMDL
MODEL       92
REMARK 921   NORMALIZED FREE ENERGY PREDICTED BY IDOCK:   -5.74 KCAL/MOL
REMARK 922        TOTAL FREE ENERGY PREDICTED BY IDOCK:   -8.71 KCAL/MOL
REMARK 923 INTER-LIGAND FREE ENERGY PREDICTED BY IDOCK:   -7.61 KCAL/MOL
REMARK 924 INTRA-LIGAND FREE ENERGY PREDICTED BY IDOCK:   -1.11 KCAL/MOL
REMARK 927      BINDING AFFINITY PREDICTED BY RF-SCORE:    0.00 PKD
ROOT
HETATM    1  C   UNL     1      -9.615  19.691  68.732  1.00  0.00    -0.444 C  
HETATM    2  C   UNL     1      -9.670  18.420  67.903  1.00  0.00    -0.308 C  
ENDROOT
BRANCH   2   3
HETATM    3  O   UNL     1      -9.159  17.350  68.696  1.00  0.00    -0.270 OA 
BRANCH   3   4
HETATM    4  C   UNL     1      -9.722  16.119  68.508  1.00  0.00    -0.217 A  
HETATM    5  C   UNL     1      -9.054  14.897  68.563  1.00  0.00    -0.191 A  
HETATM    6  C   UNL     1      -9.752  13.703  68.359  1.00  0.00    -0.217 A  
HETATM    7  C   UNL     1     -11.129  13.708  68.097  1.00  0.00    -0.281 A  
HETATM    8  C   UNL     1     -11.091  16.131  68.233  1.00  0.00    -0.348 A  
HETATM    9  C   UNL     1     -11.791  14.939  68.027  1.00  0.00    -0.296 A  
BRANCH   7  10
HETATM   10  C   UNL     1     -11.845  12.409  67.818  1.00  0.00    -0.362 C  
BRANCH  10  11
HETATM   11  C   UNL     1     -10.993  11.246  67.360  1.00  0.00    -0.337 A  
HETATM   12  C   UNL     1     -10.466  11.136  66.067  1.00  0.00    -0.256 A  
HETATM   13 CL   UNL     1     -10.601  12.413  64.914  1.00  0.00    -0.312 Cl 
HETATM   14  C   UNL     1      -9.847   9.949  65.655  1.00  0.00    -0.368 A  
HETATM   15  C   UNL     1      -9.761   8.850  66.516  1.00  0.00    -0.322 A  
HETATM   16  C   UNL     1     -10.253   8.940  67.822  1.00  0.00    -0.283 A  
HETATM   17  C   UNL     1     -10.824  10.160  68.237  1.00  0.00    -0.297 A  
BRANCH  16  18
HETATM   18  C   UNL     1     -10.319   7.745  68.766  1.00  0.00    -0.204 C  
HETATM   19  O   UNL     1     -11.375   7.913  69.731  1.00  0.00    -0.073 OA 
HETATM   20  C   UNL     1     -11.517   6.778  70.602  1.00  0.00    -0.351 C  
HETATM   21  H   UNL     1      -7.062   7.177  68.957  1.00  0.00     0.000 HD 
HETATM   22  C   UNL     1     -10.236   6.542  71.405  1.00  0.00    -0.197 C  
HETATM   23  O   UNL     1      -7.898   7.301  68.524  1.00  0.00    -0.117 OA 
HETATM   24  O   UNL     1     -10.317   5.381  72.244  1.00  0.00    -0.195 OA 
HETATM   25  C   UNL     1      -9.050   6.367  70.454  1.00  0.00    -0.155 C  
HETATM   26  H   UNL     1      -7.102   6.128  70.616  1.00  0.00     0.000 HD 
HETATM   27  O   UNL     1      -7.839   6.236  71.206  1.00  0.00    -0.104 OA 
HETATM   28  H   UNL     1      -9.521   5.234  72.742  1.00  0.00     0.000 HD 
HETATM   29  C   UNL     1      -8.950   7.542  69.474  1.00  0.00    -0.143 C  
BRANCH  20  30
HETATM   30  C   UNL     1     -12.706   7.031  71.544  1.00  0.00    -0.381 C  
HETATM   31  O   UNL     1     -12.246   7.663  72.737  1.00  0.00    -0.573 OA 
HETATM   32  H   UNL     1     -12.980   7.819  73.319  1.00  0.00     0.000 HD 
ENDBRANCH  20  30
ENDBRANCH  16  18
ENDBRANCH  10  11
ENDBRANCH   7  10
ENDBRANCH   3   4
ENDBRANCH   2   3
TORSDOF 6
ENDMDL
MODEL       93
REMARK 921   NORMALIZED FREE ENERGY PREDICTED BY IDOCK:   -5.71 KCAL/MOL
REMARK 922        TOTAL FREE ENERGY PREDICTED BY IDOCK:   -8.68 KCAL/MOL
REMARK 923 INTER-LIGAND FREE ENERGY PREDICTED BY IDOCK:   -8.04 KCAL/MOL
REMARK 924 INTRA-LIGAND FREE ENERGY PREDICTED BY IDOCK:   -0.64 KCAL/MOL
REMARK 927      BINDING AFFINITY PREDICTED BY RF-SCORE:    0.00 PKD
ROOT
HETATM    1  C   UNL     1      -8.125  20.682  67.161  1.00  0.00    -0.308 C  
HETATM    2  C   UNL     1      -7.573  19.479  66.419  1.00  0.00    -0.281 C  
ENDROOT
BRANCH   2   3
HETATM    3  O   UNL     1      -6.438  18.997  67.136  1.00  0.00    -0.188 OA 
BRANCH   3   4
HETATM    4  C   UNL     1      -6.559  17.776  67.738  1.00  0.00    -0.187 A  
HETATM    5  C   UNL     1      -7.506  17.429  68.700  1.00  0.00    -0.263 A  
HETATM    6  C   UNL     1      -7.528  16.136  69.232  1.00  0.00    -0.222 A  
HETATM    7  C   UNL     1      -6.605  15.168  68.813  1.00  0.00    -0.094 A  
HETATM    8  C   UNL     1      -5.628  16.820  67.328  1.00  0.00    -0.184 A  
HETATM    9  C   UNL     1      -5.646  15.527  67.859  1.00  0.00    -0.151 A  
BRANCH   7  10
HETATM   10  C   UNL     1      -6.610  13.800  69.450  1.00  0.00    -0.100 C  
BRANCH  10  11
HETATM   11  C   UNL     1      -7.353  12.708  68.713  1.00  0.00    -0.066 A  
HETATM   12  C   UNL     1      -7.101  11.342  68.896  1.00  0.00    -0.104 A  
HETATM   13 CL   UNL     1      -6.025  10.767  70.117  1.00  0.00    -0.091 Cl 
HETATM   14  C   UNL     1      -7.690  10.395  68.049  1.00  0.00    -0.092 A  
HETATM   15  C   UNL     1      -8.521  10.794  66.997  1.00  0.00    -0.128 A  
HETATM   16  C   UNL     1      -8.813  12.148  66.807  1.00  0.00    -0.198 A  
HETATM   17  C   UNL     1      -8.256  13.082  67.702  1.00  0.00    -0.171 A  
BRANCH  16  18
HETATM   18  C   UNL     1      -9.594  12.665  65.605  1.00  0.00    -0.066 C  
HETATM   19  O   UNL     1     -10.040  14.017  65.827  1.00  0.00    -0.309 OA 
HETATM   20  C   UNL     1     -10.726  14.570  64.691  1.00  0.00    -0.310 C  
HETATM   21  H   UNL     1     -11.096   9.820  64.820  1.00  0.00     0.000 HD 
HETATM   22  C   UNL     1     -11.977  13.755  64.358  1.00  0.00    -0.445 C  
HETATM   23  O   UNL     1     -10.361  10.392  65.005  1.00  0.00    -0.306 OA 
HETATM   24  O   UNL     1     -12.658  14.240  63.192  1.00  0.00    -1.028 OA 
HETATM   25  C   UNL     1     -11.598  12.292  64.120  1.00  0.00    -0.388 C  
HETATM   26  H   UNL     1     -12.544  10.605  63.750  1.00  0.00     0.000 HD 
HETATM   27  O   UNL     1     -12.779  11.514  63.898  1.00  0.00    -0.147 OA 
HETATM   28  H   UNL     1     -13.435  13.734  62.986  1.00  0.00     0.000 HD 
HETATM   29  C   UNL     1     -10.797  11.729  65.301  1.00  0.00    -0.290 C  
BRANCH  20  30
HETATM   30  C   UNL     1     -11.098  16.027  65.007  1.00  0.00    -0.336 C  
HETATM   31  O   UNL     1     -11.640  16.648  63.843  1.00  0.00    -1.582 OA 
HETATM   32  H   UNL     1     -11.870  17.549  64.039  1.00  0.00     0.000 HD 
ENDBRANCH  20  30
ENDBRANCH  16  18
ENDBRANCH  10  11
ENDBRANCH   7  10
ENDBRANCH   3   4
ENDBRANCH   2   3
TORSDOF 6
ENDMDL
MODEL       94
REMARK 921   NORMALIZED FREE ENERGY PREDICTED BY IDOCK:   -5.71 KCAL/MOL
REMARK 922        TOTAL FREE ENERGY PREDICTED BY IDOCK:   -8.68 KCAL/MOL
REMARK 923 INTER-LIGAND FREE ENERGY PREDICTED BY IDOCK:   -7.73 KCAL/MOL
REMARK 924 INTRA-LIGAND FREE ENERGY PREDICTED BY IDOCK:   -0.95 KCAL/MOL
REMARK 927      BINDING AFFINITY PREDICTED BY RF-SCORE:    0.00 PKD
ROOT
HETATM    1  C   UNL     1     -10.509  19.988  66.207  1.00  0.00    -0.536 C  
HETATM    2  C   UNL     1     -10.296  18.614  66.815  1.00  0.00    -0.407 C  
ENDROOT
BRANCH   2   3
HETATM    3  O   UNL     1      -8.958  18.206  66.535  1.00  0.00    -0.276 OA 
BRANCH   3   4
HETATM    4  C   UNL     1      -8.659  16.887  66.732  1.00  0.00    -0.225 A  
HETATM    5  C   UNL     1      -9.474  15.806  66.399  1.00  0.00    -0.326 A  
HETATM    6  C   UNL     1      -9.044  14.498  66.648  1.00  0.00    -0.277 A  
HETATM    7  C   UNL     1      -7.795  14.249  67.233  1.00  0.00    -0.170 A  
HETATM    8  C   UNL     1      -7.421  16.644  67.329  1.00  0.00    -0.197 A  
HETATM    9  C   UNL     1      -6.989  15.339  67.581  1.00  0.00    -0.209 A  
BRANCH   7  10
HETATM   10  C   UNL     1      -7.384  12.831  67.549  1.00  0.00    -0.153 C  
BRANCH  10  11
HETATM   11  C   UNL     1      -8.482  11.791  67.564  1.00  0.00    -0.154 A  
HETATM   12  C   UNL     1      -8.596  10.772  66.609  1.00  0.00    -0.143 A  
HETATM   13 CL   UNL     1      -7.383  10.507  65.409  1.00  0.00    -0.122 Cl 
HETATM   14  C   UNL     1      -9.737   9.961  66.572  1.00  0.00    -0.260 A  
HETATM   15  C   UNL     1     -10.788  10.163  67.473  1.00  0.00    -0.349 A  
HETATM   16  C   UNL     1     -10.690  11.153  68.456  1.00  0.00    -0.235 A  
HETATM   17  C   UNL     1      -9.512  11.924  68.512  1.00  0.00    -0.151 A  
BRANCH  16  18
HETATM   18  C   UNL     1     -11.848  11.521  69.377  1.00  0.00    -0.350 C  
HETATM   19  O   UNL     1     -11.767  12.903  69.773  1.00  0.00    -0.307 OA 
HETATM   20  C   UNL     1     -12.876  13.313  70.591  1.00  0.00    -0.057 C  
HETATM   21  H   UNL     1     -12.024   8.642  71.004  1.00  0.00     0.000 HD 
HETATM   22  C   UNL     1     -12.930  12.499  71.885  1.00  0.00    -0.301 C  
HETATM   23  O   UNL     1     -12.015   9.211  70.244  1.00  0.00    -0.050 OA 
HETATM   24  O   UNL     1     -14.059  12.837  72.704  1.00  0.00    -0.679 OA 
HETATM   25  C   UNL     1     -13.002  11.006  71.560  1.00  0.00    -0.448 C  
HETATM   26  H   UNL     1     -13.006   9.314  72.567  1.00  0.00     0.000 HD 
HETATM   27  O   UNL     1     -12.962  10.241  72.769  1.00  0.00     0.227 OA 
HETATM   28  H   UNL     1     -14.093  12.331  73.507  1.00  0.00     0.000 HD 
HETATM   29  C   UNL     1     -11.862  10.589  70.622  1.00  0.00    -0.360 C  
BRANCH  20  30
HETATM   30  C   UNL     1     -12.727  14.811  70.901  1.00  0.00    -0.342 C  
HETATM   31  O   UNL     1     -13.978  15.468  70.711  1.00  0.00    -0.874 OA 
HETATM   32  H   UNL     1     -13.886  16.394  70.902  1.00  0.00     0.000 HD 
ENDBRANCH  20  30
ENDBRANCH  16  18
ENDBRANCH  10  11
ENDBRANCH   7  10
ENDBRANCH   3   4
ENDBRANCH   2   3
TORSDOF 6
ENDMDL
MODEL       95
REMARK 921   NORMALIZED FREE ENERGY PREDICTED BY IDOCK:   -5.71 KCAL/MOL
REMARK 922        TOTAL FREE ENERGY PREDICTED BY IDOCK:   -8.67 KCAL/MOL
REMARK 923 INTER-LIGAND FREE ENERGY PREDICTED BY IDOCK:   -7.46 KCAL/MOL
REMARK 924 INTRA-LIGAND FREE ENERGY PREDICTED BY IDOCK:   -1.21 KCAL/MOL
REMARK 927      BINDING AFFINITY PREDICTED BY RF-SCORE:    0.00 PKD
ROOT
HETATM    1  C   UNL     1     -13.101  10.881  71.720  1.00  0.00    -0.564 C  
HETATM    2  C   UNL     1     -12.464  11.863  70.755  1.00  0.00    -0.291 C  
ENDROOT
BRANCH   2   3
HETATM    3  O   UNL     1     -12.563  13.169  71.320  1.00  0.00    -0.357 OA 
BRANCH   3   4
HETATM    4  C   UNL     1     -12.109  14.209  70.557  1.00  0.00    -0.350 A  
HETATM    5  C   UNL     1     -11.687  15.449  71.032  1.00  0.00    -0.408 A  
HETATM    6  C   UNL     1     -11.236  16.428  70.140  1.00  0.00    -0.260 A  
HETATM    7  C   UNL     1     -11.200  16.185  68.761  1.00  0.00    -0.365 A  
HETATM    8  C   UNL     1     -12.089  13.967  69.182  1.00  0.00    -0.377 A  
HETATM    9  C   UNL     1     -11.640  14.944  68.288  1.00  0.00    -0.356 A  
BRANCH   7  10
HETATM   10  C   UNL     1     -10.770  17.281  67.817  1.00  0.00    -0.333 C  
BRANCH  10  11
HETATM   11  C   UNL     1      -9.288  17.389  67.528  1.00  0.00    -0.233 A  
HETATM   12  C   UNL     1      -8.730  18.385  66.716  1.00  0.00    -0.277 A  
HETATM   13 CL   UNL     1      -9.670  19.694  66.098  1.00  0.00    -0.480 Cl 
HETATM   14  C   UNL     1      -7.383  18.315  66.338  1.00  0.00    -0.283 A  
HETATM   15  C   UNL     1      -6.578  17.247  66.748  1.00  0.00    -0.247 A  
HETATM   16  C   UNL     1      -7.101  16.254  67.583  1.00  0.00    -0.164 A  
HETATM   17  C   UNL     1      -8.443  16.368  67.996  1.00  0.00    -0.183 A  
BRANCH  16  18
HETATM   18  C   UNL     1      -6.328  14.994  67.953  1.00  0.00    -0.163 C  
HETATM   19  O   UNL     1      -6.820  13.857  67.218  1.00  0.00    -0.205 OA 
HETATM   20  C   UNL     1      -6.075  12.656  67.487  1.00  0.00    -0.157 C  
HETATM   21  H   UNL     1      -5.911  15.683  71.165  1.00  0.00     0.000 HD 
HETATM   22  C   UNL     1      -6.163  12.280  68.968  1.00  0.00    -0.082 C  
HETATM   23  O   UNL     1      -5.858  15.838  70.230  1.00  0.00    -0.164 OA 
HETATM   24  O   UNL     1      -5.383  11.119  69.289  1.00  0.00    -0.041 OA 
HETATM   25  C   UNL     1      -5.672  13.444  69.832  1.00  0.00    -0.119 C  
HETATM   26  H   UNL     1      -5.533  13.848  71.754  1.00  0.00     0.000 HD 
HETATM   27  O   UNL     1      -5.838  13.126  71.217  1.00  0.00    -0.327 OA 
HETATM   28  H   UNL     1      -5.438  10.886  70.209  1.00  0.00     0.000 HD 
HETATM   29  C   UNL     1      -6.413  14.741  69.485  1.00  0.00    -0.142 C  
BRANCH  20  30
HETATM   30  C   UNL     1      -6.637  11.527  66.609  1.00  0.00    -0.081 C  
HETATM   31  O   UNL     1      -5.709  11.220  65.570  1.00  0.00    -0.456 OA 
HETATM   32  H   UNL     1      -6.056  10.522  65.027  1.00  0.00     0.000 HD 
ENDBRANCH  20  30
ENDBRANCH  16  18
ENDBRANCH  10  11
ENDBRANCH   7  10
ENDBRANCH   3   4
ENDBRANCH   2   3
TORSDOF 6
ENDMDL
MODEL       96
REMARK 921   NORMALIZED FREE ENERGY PREDICTED BY IDOCK:   -5.68 KCAL/MOL
REMARK 922        TOTAL FREE ENERGY PREDICTED BY IDOCK:   -8.64 KCAL/MOL
REMARK 923 INTER-LIGAND FREE ENERGY PREDICTED BY IDOCK:   -7.44 KCAL/MOL
REMARK 924 INTRA-LIGAND FREE ENERGY PREDICTED BY IDOCK:   -1.20 KCAL/MOL
REMARK 927      BINDING AFFINITY PREDICTED BY RF-SCORE:    0.00 PKD
ROOT
HETATM    1  C   UNL     1     -12.540  15.911  74.228  1.00  0.00    -0.725 C  
HETATM    2  C   UNL     1     -13.450  15.859  73.015  1.00  0.00    -0.568 C  
ENDROOT
BRANCH   2   3
HETATM    3  O   UNL     1     -13.423  14.530  72.496  1.00  0.00    -0.411 OA 
BRANCH   3   4
HETATM    4  C   UNL     1     -12.785  14.347  71.300  1.00  0.00    -0.344 A  
HETATM    5  C   UNL     1     -12.406  13.122  70.755  1.00  0.00    -0.404 A  
HETATM    6  C   UNL     1     -11.764  13.073  69.513  1.00  0.00    -0.381 A  
HETATM    7  C   UNL     1     -11.490  14.245  68.796  1.00  0.00    -0.327 A  
HETATM    8  C   UNL     1     -12.502  15.519  70.597  1.00  0.00    -0.483 A  
HETATM    9  C   UNL     1     -11.859  15.474  69.357  1.00  0.00    -0.392 A  
BRANCH   7  10
HETATM   10  C   UNL     1     -10.740  14.168  67.489  1.00  0.00    -0.270 C  
BRANCH  10  11
HETATM   11  C   UNL     1      -9.323  13.641  67.548  1.00  0.00    -0.223 A  
HETATM   12  C   UNL     1      -8.206  14.451  67.794  1.00  0.00    -0.168 A  
HETATM   13 CL   UNL     1      -8.363  16.116  68.224  1.00  0.00    -0.166 Cl 
HETATM   14  C   UNL     1      -6.913  13.935  67.647  1.00  0.00    -0.189 A  
HETATM   15  C   UNL     1      -6.712  12.613  67.237  1.00  0.00    -0.105 A  
HETATM   16  C   UNL     1      -7.806  11.773  67.012  1.00  0.00    -0.161 A  
HETATM   17  C   UNL     1      -9.099  12.293  67.216  1.00  0.00    -0.184 A  
BRANCH  16  18
HETATM   18  C   UNL     1      -7.667  10.370  66.432  1.00  0.00    -0.125 C  
HETATM   19  O   UNL     1      -8.121  10.335  65.065  1.00  0.00    -0.143 OA 
HETATM   20  C   UNL     1      -7.946   9.044  64.455  1.00  0.00    -0.131 C  
HETATM   21  H   UNL     1      -8.441   8.696  69.183  1.00  0.00     0.000 HD 
HETATM   22  C   UNL     1      -8.748   7.975  65.201  1.00  0.00     0.019 C  
HETATM   23  O   UNL     1      -7.961   9.321  68.652  1.00  0.00    -0.098 OA 
HETATM   24  O   UNL     1      -8.554   6.661  64.658  1.00  0.00    -0.347 OA 
HETATM   25  C   UNL     1      -8.342   7.952  66.675  1.00  0.00    -0.125 C  
HETATM   26  H   UNL     1      -8.902   7.001  68.306  1.00  0.00     0.000 HD 
HETATM   27  O   UNL     1      -9.154   7.015  67.390  1.00  0.00    -0.123 OA 
HETATM   28  H   UNL     1      -9.052   5.997  65.121  1.00  0.00     0.000 HD 
HETATM   29  C   UNL     1      -8.452   9.348  67.301  1.00  0.00    -0.125 C  
BRANCH  20  30
HETATM   30  C   UNL     1      -8.397   9.132  62.988  1.00  0.00    -0.196 C  
HETATM   31  O   UNL     1      -9.667   9.777  62.914  1.00  0.00    -0.539 OA 
HETATM   32  H   UNL     1      -9.946   9.832  62.008  1.00  0.00     0.000 HD 
ENDBRANCH  20  30
ENDBRANCH  16  18
ENDBRANCH  10  11
ENDBRANCH   7  10
ENDBRANCH   3   4
ENDBRANCH   2   3
TORSDOF 6
ENDMDL
MODEL       97
REMARK 921   NORMALIZED FREE ENERGY PREDICTED BY IDOCK:   -5.68 KCAL/MOL
REMARK 922        TOTAL FREE ENERGY PREDICTED BY IDOCK:   -8.63 KCAL/MOL
REMARK 923 INTER-LIGAND FREE ENERGY PREDICTED BY IDOCK:   -7.47 KCAL/MOL
REMARK 924 INTRA-LIGAND FREE ENERGY PREDICTED BY IDOCK:   -1.16 KCAL/MOL
REMARK 927      BINDING AFFINITY PREDICTED BY RF-SCORE:    0.00 PKD
ROOT
HETATM    1  C   UNL     1      -7.125   6.441  66.173  1.00  0.00    -0.067 C  
HETATM    2  C   UNL     1      -7.852   6.356  67.503  1.00  0.00    -0.105 C  
ENDROOT
BRANCH   2   3
HETATM    3  O   UNL     1      -7.618   7.570  68.215  1.00  0.00    -0.108 OA 
BRANCH   3   4
HETATM    4  C   UNL     1      -8.290   8.679  67.784  1.00  0.00    -0.118 A  
HETATM    5  C   UNL     1      -9.596   8.706  67.297  1.00  0.00    -0.216 A  
HETATM    6  C   UNL     1     -10.172   9.915  66.894  1.00  0.00    -0.302 A  
HETATM    7  C   UNL     1      -9.454  11.116  66.970  1.00  0.00    -0.193 A  
HETATM    8  C   UNL     1      -7.565   9.870  67.847  1.00  0.00    -0.090 A  
HETATM    9  C   UNL     1      -8.138  11.080  67.443  1.00  0.00    -0.122 A  
BRANCH   7  10
HETATM   10  C   UNL     1     -10.077  12.396  66.468  1.00  0.00    -0.246 C  
BRANCH  10  11
HETATM   11  C   UNL     1     -10.197  13.531  67.462  1.00  0.00    -0.234 A  
HETATM   12  C   UNL     1     -11.113  13.536  68.522  1.00  0.00    -0.272 A  
HETATM   13 CL   UNL     1     -12.084  12.158  68.897  1.00  0.00    -0.265 Cl 
HETATM   14  C   UNL     1     -11.301  14.693  69.288  1.00  0.00    -0.313 A  
HETATM   15  C   UNL     1     -10.595  15.865  68.998  1.00  0.00    -0.247 A  
HETATM   16  C   UNL     1      -9.655  15.882  67.964  1.00  0.00    -0.211 A  
HETATM   17  C   UNL     1      -9.439  14.694  67.239  1.00  0.00    -0.221 A  
BRANCH  16  18
HETATM   18  C   UNL     1      -8.954  17.155  67.504  1.00  0.00    -0.221 C  
HETATM   19  O   UNL     1      -8.381  17.857  68.623  1.00  0.00    -0.299 OA 
HETATM   20  C   UNL     1      -7.651  19.032  68.228  1.00  0.00    -0.297 C  
HETATM   21  H   UNL     1     -11.079  17.960  65.095  1.00  0.00     0.000 HD 
HETATM   22  C   UNL     1      -8.569  20.031  67.519  1.00  0.00    -0.340 C  
HETATM   23  O   UNL     1     -10.471  17.403  65.567  1.00  0.00    -0.624 OA 
HETATM   24  O   UNL     1      -7.865  21.193  67.056  1.00  0.00    -0.642 OA 
HETATM   25  C   UNL     1      -9.238  19.362  66.317  1.00  0.00    -0.348 C  
HETATM   26  H   UNL     1     -10.579  19.854  64.962  1.00  0.00     0.000 HD 
HETATM   27  O   UNL     1     -10.163  20.269  65.708  1.00  0.00    -0.399 OA 
HETATM   28  H   UNL     1      -8.435  21.813  66.616  1.00  0.00     0.000 HD 
HETATM   29  C   UNL     1      -9.947  18.066  66.729  1.00  0.00    -0.346 C  
BRANCH  20  30
HETATM   30  C   UNL     1      -7.030  19.666  69.483  1.00  0.00    -0.279 C  
HETATM   31  O   UNL     1      -6.064  20.643  69.100  1.00  0.00    -0.341 OA 
HETATM   32  H   UNL     1      -5.680  21.034  69.875  1.00  0.00     0.000 HD 
ENDBRANCH  20  30
ENDBRANCH  16  18
ENDBRANCH  10  11
ENDBRANCH   7  10
ENDBRANCH   3   4
ENDBRANCH   2   3
TORSDOF 6
ENDMDL
MODEL       98
REMARK 921   NORMALIZED FREE ENERGY PREDICTED BY IDOCK:   -5.67 KCAL/MOL
REMARK 922        TOTAL FREE ENERGY PREDICTED BY IDOCK:   -8.63 KCAL/MOL
REMARK 923 INTER-LIGAND FREE ENERGY PREDICTED BY IDOCK:   -7.46 KCAL/MOL
REMARK 924 INTRA-LIGAND FREE ENERGY PREDICTED BY IDOCK:   -1.17 KCAL/MOL
REMARK 927      BINDING AFFINITY PREDICTED BY RF-SCORE:    0.00 PKD
ROOT
HETATM    1  C   UNL     1     -12.346  15.537  74.397  1.00  0.00    -0.798 C  
HETATM    2  C   UNL     1     -13.300  15.872  73.265  1.00  0.00    -0.564 C  
ENDROOT
BRANCH   2   3
HETATM    3  O   UNL     1     -12.527  16.305  72.147  1.00  0.00    -0.427 OA 
BRANCH   3   4
HETATM    4  C   UNL     1     -12.191  15.354  71.224  1.00  0.00    -0.371 A  
HETATM    5  C   UNL     1     -12.773  14.094  71.098  1.00  0.00    -0.431 A  
HETATM    6  C   UNL     1     -12.340  13.215  70.100  1.00  0.00    -0.284 A  
HETATM    7  C   UNL     1     -11.318  13.578  69.213  1.00  0.00    -0.317 A  
HETATM    8  C   UNL     1     -11.162  15.715  70.352  1.00  0.00    -0.374 A  
HETATM    9  C   UNL     1     -10.725  14.838  69.355  1.00  0.00    -0.250 A  
BRANCH   7  10
HETATM   10  C   UNL     1     -10.826  12.585  68.188  1.00  0.00    -0.248 C  
BRANCH  10  11
HETATM   11  C   UNL     1      -9.840  11.543  68.667  1.00  0.00    -0.184 A  
HETATM   12  C   UNL     1      -8.506  11.486  68.241  1.00  0.00    -0.159 A  
HETATM   13 CL   UNL     1      -7.812  12.716  67.247  1.00  0.00    -0.172 Cl 
HETATM   14  C   UNL     1      -7.703  10.389  68.576  1.00  0.00    -0.101 A  
HETATM   15  C   UNL     1      -8.220   9.326  69.324  1.00  0.00    -0.108 A  
HETATM   16  C   UNL     1      -9.538   9.368  69.787  1.00  0.00    -0.216 A  
HETATM   17  C   UNL     1     -10.315  10.504  69.486  1.00  0.00    -0.251 A  
BRANCH  16  18
HETATM   18  C   UNL     1     -10.208   8.189  70.484  1.00  0.00    -0.198 C  
HETATM   19  O   UNL     1      -9.785   8.099  71.858  1.00  0.00    -0.171 OA 
HETATM   20  C   UNL     1     -10.443   7.040  72.574  1.00  0.00    -0.216 C  
HETATM   21  H   UNL     1     -10.196   6.111  67.906  1.00  0.00     0.000 HD 
HETATM   22  C   UNL     1     -10.137   5.681  71.941  1.00  0.00    -0.189 C  
HETATM   23  O   UNL     1     -10.384   6.918  68.371  1.00  0.00    -0.172 OA 
HETATM   24  O   UNL     1     -10.824   4.602  72.592  1.00  0.00    -0.202 OA 
HETATM   25  C   UNL     1     -10.542   5.690  70.466  1.00  0.00    -0.284 C  
HETATM   26  H   UNL     1     -10.425   4.455  68.937  1.00  0.00     0.000 HD 
HETATM   27  O   UNL     1     -10.174   4.450  69.853  1.00  0.00    -0.163 OA 
HETATM   28  H   UNL     1     -10.633   3.758  72.199  1.00  0.00     0.000 HD 
HETATM   29  C   UNL     1      -9.901   6.869  69.724  1.00  0.00    -0.171 C  
BRANCH  20  30
HETATM   30  C   UNL     1      -9.972   7.073  74.037  1.00  0.00    -0.316 C  
HETATM   31  O   UNL     1      -8.944   6.104  74.232  1.00  0.00    -0.126 OA 
HETATM   32  H   UNL     1      -8.653   6.124  75.136  1.00  0.00     0.000 HD 
ENDBRANCH  20  30
ENDBRANCH  16  18
ENDBRANCH  10  11
ENDBRANCH   7  10
ENDBRANCH   3   4
ENDBRANCH   2   3
TORSDOF 6
ENDMDL
MODEL       99
REMARK 921   NORMALIZED FREE ENERGY PREDICTED BY IDOCK:   -5.67 KCAL/MOL
REMARK 922        TOTAL FREE ENERGY PREDICTED BY IDOCK:   -8.62 KCAL/MOL
REMARK 923 INTER-LIGAND FREE ENERGY PREDICTED BY IDOCK:   -7.44 KCAL/MOL
REMARK 924 INTRA-LIGAND FREE ENERGY PREDICTED BY IDOCK:   -1.19 KCAL/MOL
REMARK 927      BINDING AFFINITY PREDICTED BY RF-SCORE:    0.00 PKD
ROOT
HETATM    1  C   UNL     1     -13.437  14.104  72.676  1.00  0.00    -0.634 C  
HETATM    2  C   UNL     1     -13.507  15.057  71.497  1.00  0.00    -0.436 C  
ENDROOT
BRANCH   2   3
HETATM    3  O   UNL     1     -12.241  15.703  71.372  1.00  0.00    -0.350 OA 
BRANCH   3   4
HETATM    4  C   UNL     1     -11.645  15.662  70.142  1.00  0.00    -0.354 A  
HETATM    5  C   UNL     1     -10.592  16.469  69.716  1.00  0.00    -0.265 A  
HETATM    6  C   UNL     1     -10.066  16.319  68.429  1.00  0.00    -0.237 A  
HETATM    7  C   UNL     1     -10.582  15.361  67.547  1.00  0.00    -0.283 A  
HETATM    8  C   UNL     1     -12.173  14.715  69.262  1.00  0.00    -0.247 A  
HETATM    9  C   UNL     1     -11.650  14.564  67.974  1.00  0.00    -0.364 A  
BRANCH   7  10
HETATM   10  C   UNL     1     -10.038  15.264  66.142  1.00  0.00    -0.315 C  
BRANCH  10  11
HETATM   11  C   UNL     1     -10.309  13.977  65.394  1.00  0.00    -0.377 A  
HETATM   12  C   UNL     1     -11.424  13.783  64.568  1.00  0.00    -0.384 A  
HETATM   13 CL   UNL     1     -12.514  15.066  64.189  1.00  0.00    -0.291 Cl 
HETATM   14  C   UNL     1     -11.713  12.510  64.058  1.00  0.00    -0.499 A  
HETATM   15  C   UNL     1     -10.908  11.412  64.377  1.00  0.00    -0.397 A  
HETATM   16  C   UNL     1      -9.773  11.580  65.177  1.00  0.00    -0.268 A  
HETATM   17  C   UNL     1      -9.468  12.876  65.636  1.00  0.00     0.061 A  
BRANCH  16  18
HETATM   18  C   UNL     1      -8.933  10.411  65.678  1.00  0.00    -0.176 C  
HETATM   19  O   UNL     1      -8.833   9.385  64.673  1.00  0.00    -0.194 OA 
HETATM   20  C   UNL     1      -7.994   8.289  65.078  1.00  0.00    -0.141 C  
HETATM   21  H   UNL     1      -9.943  10.488  68.831  1.00  0.00     0.000 HD 
HETATM   22  C   UNL     1      -8.551   7.610  66.331  1.00  0.00    -0.143 C  
HETATM   23  O   UNL     1      -9.574  10.837  68.028  1.00  0.00    -0.157 OA 
HETATM   24  O   UNL     1      -7.709   6.548  66.803  1.00  0.00    -0.096 OA 
HETATM   25  C   UNL     1      -8.707   8.636  67.455  1.00  0.00    -0.135 C  
HETATM   26  H   UNL     1      -9.408   8.656  69.295  1.00  0.00     0.000 HD 
HETATM   27  O   UNL     1      -9.311   8.019  68.597  1.00  0.00    -0.146 OA 
HETATM   28  H   UNL     1      -8.055   6.126  67.581  1.00  0.00     0.000 HD 
HETATM   29  C   UNL     1      -9.536   9.841  66.993  1.00  0.00    -0.157 C  
BRANCH  20  30
HETATM   30  C   UNL     1      -7.903   7.288  63.916  1.00  0.00    -0.111 C  
HETATM   31  O   UNL     1      -8.657   6.119  64.229  1.00  0.00    -0.342 OA 
HETATM   32  H   UNL     1      -8.600   5.500  63.511  1.00  0.00     0.000 HD 
ENDBRANCH  20  30
ENDBRANCH  16  18
ENDBRANCH  10  11
ENDBRANCH   7  10
ENDBRANCH   3   4
ENDBRANCH   2   3
TORSDOF 6
ENDMDL
MODEL      100
REMARK 921   NORMALIZED FREE ENERGY PREDICTED BY IDOCK:   -5.67 KCAL/MOL
REMARK 922        TOTAL FREE ENERGY PREDICTED BY IDOCK:   -8.62 KCAL/MOL
REMARK 923 INTER-LIGAND FREE ENERGY PREDICTED BY IDOCK:   -8.14 KCAL/MOL
REMARK 924 INTRA-LIGAND FREE ENERGY PREDICTED BY IDOCK:   -0.48 KCAL/MOL
REMARK 927      BINDING AFFINITY PREDICTED BY RF-SCORE:    0.00 PKD
ROOT
HETATM    1  C   UNL     1     -10.525   5.402  70.216  1.00  0.00    -0.355 C  
HETATM    2  C   UNL     1      -9.865   6.364  69.245  1.00  0.00    -0.147 C  
ENDROOT
BRANCH   2   3
HETATM    3  O   UNL     1     -10.892   7.061  68.542  1.00  0.00    -0.198 OA 
BRANCH   3   4
HETATM    4  C   UNL     1     -10.499   8.103  67.749  1.00  0.00    -0.214 A  
HETATM    5  C   UNL     1      -9.707   8.008  66.607  1.00  0.00    -0.313 A  
HETATM    6  C   UNL     1      -9.383   9.157  65.877  1.00  0.00    -0.306 A  
HETATM    7  C   UNL     1      -9.845  10.418  66.276  1.00  0.00    -0.272 A  
HETATM    8  C   UNL     1     -10.950   9.359  68.159  1.00  0.00    -0.102 A  
HETATM    9  C   UNL     1     -10.627  10.509  67.433  1.00  0.00    -0.313 A  
BRANCH   7  10
HETATM   10  C   UNL     1      -9.428  11.648  65.507  1.00  0.00    -0.215 C  
BRANCH  10  11
HETATM   11  C   UNL     1     -10.426  12.783  65.445  1.00  0.00    -0.305 A  
HETATM   12  C   UNL     1     -11.425  12.882  64.466  1.00  0.00    -0.344 A  
HETATM   13 CL   UNL     1     -11.717  11.617  63.329  1.00  0.00    -0.359 Cl 
HETATM   14  C   UNL     1     -12.191  14.050  64.354  1.00  0.00    -0.457 A  
HETATM   15  C   UNL     1     -11.963  15.139  65.201  1.00  0.00    -0.051 A  
HETATM   16  C   UNL     1     -10.993  15.059  66.205  1.00  0.00    -0.334 A  
HETATM   17  C   UNL     1     -10.269  13.858  66.337  1.00  0.00    -0.292 A  
BRANCH  16  18
HETATM   18  C   UNL     1     -10.595  16.250  67.069  1.00  0.00    -0.284 C  
HETATM   19  O   UNL     1     -10.452  17.438  66.267  1.00  0.00    -0.336 OA 
HETATM   20  C   UNL     1     -10.141  18.603  67.051  1.00  0.00    -0.363 C  
HETATM   21  H   UNL     1      -8.630  14.611  69.170  1.00  0.00     0.000 HD 
HETATM   22  C   UNL     1      -8.815  18.424  67.793  1.00  0.00    -0.278 C  
HETATM   23  O   UNL     1      -9.433  14.800  68.700  1.00  0.00    -0.203 OA 
HETATM   24  O   UNL     1      -8.499  19.543  68.634  1.00  0.00    -0.357 OA 
HETATM   25  C   UNL     1      -8.871  17.168  68.664  1.00  0.00    -0.266 C  
HETATM   26  H   UNL     1      -7.636  16.171  69.829  1.00  0.00     0.000 HD 
HETATM   27  O   UNL     1      -7.602  16.951  69.289  1.00  0.00    -0.212 OA 
HETATM   28  H   UNL     1      -7.675  19.431  69.095  1.00  0.00     0.000 HD 
HETATM   29  C   UNL     1      -9.281  15.941  67.839  1.00  0.00    -0.198 C  
BRANCH  20  30
HETATM   30  C   UNL     1     -10.075  19.819  66.113  1.00  0.00    -0.499 C  
HETATM   31  O   UNL     1      -8.731  20.292  66.034  1.00  0.00    -0.572 OA 
HETATM   32  H   UNL     1      -8.690  21.043  65.454  1.00  0.00     0.000 HD 
ENDBRANCH  20  30
ENDBRANCH  16  18
ENDBRANCH  10  11
ENDBRANCH   7  10
ENDBRANCH   3   4
ENDBRANCH   2   3
TORSDOF 6
ENDMDL
MODEL      101
REMARK 921   NORMALIZED FREE ENERGY PREDICTED BY IDOCK:   -5.62 KCAL/MOL
REMARK 922        TOTAL FREE ENERGY PREDICTED BY IDOCK:   -8.56 KCAL/MOL
REMARK 923 INTER-LIGAND FREE ENERGY PREDICTED BY IDOCK:   -7.49 KCAL/MOL
REMARK 924 INTRA-LIGAND FREE ENERGY PREDICTED BY IDOCK:   -1.07 KCAL/MOL
REMARK 927      BINDING AFFINITY PREDICTED BY RF-SCORE:    0.00 PKD
ROOT
HETATM    1  C   UNL     1      -5.330   9.016  63.651  1.00  0.00    -0.062 C  
HETATM    2  C   UNL     1      -5.638   9.402  65.086  1.00  0.00    -0.054 C  
ENDROOT
BRANCH   2   3
HETATM    3  O   UNL     1      -6.524   8.424  65.629  1.00  0.00    -0.051 OA 
BRANCH   3   4
HETATM    4  C   UNL     1      -7.613   8.890  66.312  1.00  0.00    -0.095 A  
HETATM    5  C   UNL     1      -7.705   9.048  67.694  1.00  0.00    -0.097 A  
HETATM    6  C   UNL     1      -8.879   9.544  68.269  1.00  0.00    -0.124 A  
HETATM    7  C   UNL     1      -9.981   9.890  67.475  1.00  0.00    -0.229 A  
HETATM    8  C   UNL     1      -8.713   9.219  65.517  1.00  0.00    -0.204 A  
HETATM    9  C   UNL     1      -9.889   9.713  66.089  1.00  0.00    -0.334 A  
BRANCH   7  10
HETATM   10  C   UNL     1     -11.258  10.362  68.126  1.00  0.00    -0.333 C  
BRANCH  10  11
HETATM   11  C   UNL     1     -11.228  11.731  68.770  1.00  0.00    -0.308 A  
HETATM   12  C   UNL     1     -12.013  12.083  69.876  1.00  0.00    -0.318 A  
HETATM   13 CL   UNL     1     -12.972  10.922  70.721  1.00  0.00    -0.364 Cl 
HETATM   14  C   UNL     1     -12.077  13.415  70.302  1.00  0.00    -0.419 A  
HETATM   15  C   UNL     1     -11.377  14.418  69.624  1.00  0.00    -0.309 A  
HETATM   16  C   UNL     1     -10.563  14.093  68.534  1.00  0.00    -0.257 A  
HETATM   17  C   UNL     1     -10.469  12.741  68.153  1.00  0.00    -0.244 A  
BRANCH  16  18
HETATM   18  C   UNL     1      -9.885  15.146  67.665  1.00  0.00    -0.219 C  
HETATM   19  O   UNL     1      -9.456  16.267  68.461  1.00  0.00    -0.206 OA 
HETATM   20  C   UNL     1      -8.751  17.257  67.692  1.00  0.00    -0.219 C  
HETATM   21  H   UNL     1     -11.809  14.792  64.993  1.00  0.00     0.000 HD 
HETATM   22  C   UNL     1      -9.645  17.831  66.590  1.00  0.00    -0.307 C  
HETATM   23  O   UNL     1     -11.223  14.510  65.686  1.00  0.00    -0.320 OA 
HETATM   24  O   UNL     1      -8.958  18.780  65.762  1.00  0.00    -0.397 OA 
HETATM   25  C   UNL     1     -10.163  16.701  65.699  1.00  0.00    -0.262 C  
HETATM   26  H   UNL     1     -11.392  16.525  64.171  1.00  0.00     0.000 HD 
HETATM   27  O   UNL     1     -11.070  17.227  64.724  1.00  0.00    -0.954 OA 
HETATM   28  H   UNL     1      -9.513  19.136  65.078  1.00  0.00     0.000 HD 
HETATM   29  C   UNL     1     -10.844  15.608  66.532  1.00  0.00    -0.260 C  
BRANCH  20  30
HETATM   30  C   UNL     1      -8.283  18.371  68.642  1.00  0.00    -0.294 C  
HETATM   31  O   UNL     1      -7.365  19.227  67.964  1.00  0.00    -0.249 OA 
HETATM   32  H   UNL     1      -7.076  19.915  68.551  1.00  0.00     0.000 HD 
ENDBRANCH  20  30
ENDBRANCH  16  18
ENDBRANCH  10  11
ENDBRANCH   7  10
ENDBRANCH   3   4
ENDBRANCH   2   3
TORSDOF 6
ENDMDL
MODEL      102
REMARK 921   NORMALIZED FREE ENERGY PREDICTED BY IDOCK:   -5.62 KCAL/MOL
REMARK 922        TOTAL FREE ENERGY PREDICTED BY IDOCK:   -8.55 KCAL/MOL
REMARK 923 INTER-LIGAND FREE ENERGY PREDICTED BY IDOCK:   -7.54 KCAL/MOL
REMARK 924 INTRA-LIGAND FREE ENERGY PREDICTED BY IDOCK:   -1.01 KCAL/MOL
REMARK 927      BINDING AFFINITY PREDICTED BY RF-SCORE:    0.00 PKD
ROOT
HETATM    1  C   UNL     1     -12.582  12.451  63.841  1.00  0.00    -0.528 C  
HETATM    2  C   UNL     1     -11.211  12.098  63.292  1.00  0.00    -0.328 C  
ENDROOT
BRANCH   2   3
HETATM    3  O   UNL     1     -10.232  12.792  64.064  1.00  0.00    -0.403 OA 
BRANCH   3   4
HETATM    4  C   UNL     1     -10.120  12.440  65.380  1.00  0.00    -0.269 A  
HETATM    5  C   UNL     1     -10.095  13.319  66.461  1.00  0.00    -0.275 A  
HETATM    6  C   UNL     1      -9.985  12.827  67.766  1.00  0.00    -0.219 A  
HETATM    7  C   UNL     1      -9.898  11.450  68.013  1.00  0.00    -0.191 A  
HETATM    8  C   UNL     1     -10.019  11.069  65.619  1.00  0.00    -0.299 A  
HETATM    9  C   UNL     1      -9.907  10.574  66.922  1.00  0.00    -0.235 A  
BRANCH   7  10
HETATM   10  C   UNL     1      -9.716  10.950  69.425  1.00  0.00    -0.019 C  
BRANCH  10  11
HETATM   11  C   UNL     1     -10.901  10.258  70.061  1.00  0.00    -0.364 A  
HETATM   12  C   UNL     1     -11.999  10.942  70.598  1.00  0.00    -0.368 A  
HETATM   13 CL   UNL     1     -12.181  12.651  70.432  1.00  0.00    -0.412 Cl 
HETATM   14  C   UNL     1     -12.969  10.253  71.337  1.00  0.00    -0.540 A  
HETATM   15  C   UNL     1     -12.850   8.878  71.567  1.00  0.00    -0.383 A  
HETATM   16  C   UNL     1     -11.780   8.164  71.019  1.00  0.00    -0.295 A  
HETATM   17  C   UNL     1     -10.843   8.864  70.234  1.00  0.00    -0.265 A  
BRANCH  16  18
HETATM   18  C   UNL     1     -11.511   6.698  71.343  1.00  0.00    -0.301 C  
HETATM   19  O   UNL     1     -10.869   6.567  72.625  1.00  0.00    -0.227 OA 
HETATM   20  C   UNL     1     -10.656   5.195  73.002  1.00  0.00    -0.230 C  
HETATM   21  H   UNL     1     -10.785   5.714  68.265  1.00  0.00     0.000 HD 
HETATM   22  C   UNL     1      -9.749   4.487  71.993  1.00  0.00    -0.170 C  
HETATM   23  O   UNL     1     -11.312   6.110  68.949  1.00  0.00    -0.367 OA 
HETATM   24  O   UNL     1      -9.559   3.099  72.301  1.00  0.00    -0.118 OA 
HETATM   25  C   UNL     1     -10.348   4.591  70.589  1.00  0.00     0.030 C  
HETATM   26  H   UNL     1      -9.829   4.072  68.762  1.00  0.00     0.000 HD 
HETATM   27  O   UNL     1      -9.457   4.007  69.634  1.00  0.00    -0.161 OA 
HETATM   28  H   UNL     1      -8.996   2.659  71.675  1.00  0.00     0.000 HD 
HETATM   29  C   UNL     1     -10.649   6.050  70.223  1.00  0.00    -0.273 C  
BRANCH  20  30
HETATM   30  C   UNL     1     -10.029   5.166  74.405  1.00  0.00    -0.221 C  
HETATM   31  O   UNL     1      -8.637   4.871  74.303  1.00  0.00    -0.110 OA 
HETATM   32  H   UNL     1      -8.250   4.852  75.170  1.00  0.00     0.000 HD 
ENDBRANCH  20  30
ENDBRANCH  16  18
ENDBRANCH  10  11
ENDBRANCH   7  10
ENDBRANCH   3   4
ENDBRANCH   2   3
TORSDOF 6
ENDMDL
MODEL      103
REMARK 921   NORMALIZED FREE ENERGY PREDICTED BY IDOCK:   -5.61 KCAL/MOL
REMARK 922        TOTAL FREE ENERGY PREDICTED BY IDOCK:   -8.54 KCAL/MOL
REMARK 923 INTER-LIGAND FREE ENERGY PREDICTED BY IDOCK:   -8.70 KCAL/MOL
REMARK 924 INTRA-LIGAND FREE ENERGY PREDICTED BY IDOCK:    0.16 KCAL/MOL
REMARK 927      BINDING AFFINITY PREDICTED BY RF-SCORE:    0.00 PKD
ROOT
HETATM    1  C   UNL     1     -14.052   8.622  72.051  1.00  0.00    -0.523 C  
HETATM    2  C   UNL     1     -13.050   9.725  71.767  1.00  0.00    -0.431 C  
ENDROOT
BRANCH   2   3
HETATM    3  O   UNL     1     -13.493  10.909  72.427  1.00  0.00    -0.212 OA 
BRANCH   3   4
HETATM    4  C   UNL     1     -13.147  12.102  71.854  1.00  0.00    -0.369 A  
HETATM    5  C   UNL     1     -13.537  13.364  72.296  1.00  0.00    -0.703 A  
HETATM    6  C   UNL     1     -13.105  14.511  71.622  1.00  0.00    -0.416 A  
HETATM    7  C   UNL     1     -12.278  14.415  70.495  1.00  0.00    -0.411 A  
HETATM    8  C   UNL     1     -12.335  12.000  70.723  1.00  0.00    -0.403 A  
HETATM    9  C   UNL     1     -11.903  13.144  70.045  1.00  0.00    -0.360 A  
BRANCH   7  10
HETATM   10  C   UNL     1     -11.879  15.665  69.748  1.00  0.00    -0.376 C  
BRANCH  10  11
HETATM   11  C   UNL     1     -10.890  15.495  68.615  1.00  0.00    -0.267 A  
HETATM   12  C   UNL     1     -10.198  16.562  68.027  1.00  0.00    -0.271 A  
HETATM   13 CL   UNL     1     -10.285  18.167  68.659  1.00  0.00    -0.393 Cl 
HETATM   14  C   UNL     1      -9.445  16.360  66.864  1.00  0.00    -0.249 A  
HETATM   15  C   UNL     1      -9.383  15.100  66.261  1.00  0.00    -0.348 A  
HETATM   16  C   UNL     1     -10.040  14.010  66.841  1.00  0.00    -0.259 A  
HETATM   17  C   UNL     1     -10.750  14.221  68.040  1.00  0.00    -0.242 A  
BRANCH  16  18
HETATM   18  C   UNL     1     -10.133  12.646  66.168  1.00  0.00    -0.257 C  
HETATM   19  O   UNL     1      -9.031  11.805  66.562  1.00  0.00    -0.191 OA 
HETATM   20  C   UNL     1      -9.113  10.483  66.002  1.00  0.00    -0.168 C  
HETATM   21  H   UNL     1     -11.342  13.687  63.266  1.00  0.00     0.000 HD 
HETATM   22  C   UNL     1      -9.087  10.536  64.473  1.00  0.00    -0.222 C  
HETATM   23  O   UNL     1     -11.315  13.587  64.210  1.00  0.00    -0.380 OA 
HETATM   24  O   UNL     1      -9.227   9.239  63.874  1.00  0.00    -0.430 OA 
HETATM   25  C   UNL     1     -10.221  11.426  63.962  1.00  0.00    -0.346 C  
HETATM   26  H   UNL     1     -10.847  12.100  62.221  1.00  0.00     0.000 HD 
HETATM   27  O   UNL     1     -10.142  11.547  62.538  1.00  0.00     0.024 OA 
HETATM   28  H   UNL     1      -9.210   9.272  62.924  1.00  0.00     0.000 HD 
HETATM   29  C   UNL     1     -10.178  12.810  64.623  1.00  0.00    -0.297 C  
BRANCH  20  30
HETATM   30  C   UNL     1      -7.933   9.654  66.534  1.00  0.00    -0.112 C  
HETATM   31  O   UNL     1      -7.861   9.778  67.953  1.00  0.00    -0.090 OA 
HETATM   32  H   UNL     1      -7.132   9.265  68.282  1.00  0.00     0.000 HD 
ENDBRANCH  20  30
ENDBRANCH  16  18
ENDBRANCH  10  11
ENDBRANCH   7  10
ENDBRANCH   3   4
ENDBRANCH   2   3
TORSDOF 6
ENDMDL
MODEL      104
REMARK 921   NORMALIZED FREE ENERGY PREDICTED BY IDOCK:   -5.61 KCAL/MOL
REMARK 922        TOTAL FREE ENERGY PREDICTED BY IDOCK:   -8.54 KCAL/MOL
REMARK 923 INTER-LIGAND FREE ENERGY PREDICTED BY IDOCK:   -7.47 KCAL/MOL
REMARK 924 INTRA-LIGAND FREE ENERGY PREDICTED BY IDOCK:   -1.06 KCAL/MOL
REMARK 927      BINDING AFFINITY PREDICTED BY RF-SCORE:    0.00 PKD
ROOT
HETATM    1  C   UNL     1     -10.610   4.516  74.423  1.00  0.00    -0.289 C  
HETATM    2  C   UNL     1     -10.858   5.258  73.123  1.00  0.00    -0.287 C  
ENDROOT
BRANCH   2   3
HETATM    3  O   UNL     1     -10.423   4.428  72.048  1.00  0.00    -0.155 OA 
BRANCH   3   4
HETATM    4  C   UNL     1     -10.471   4.968  70.793  1.00  0.00    -0.152 A  
HETATM    5  C   UNL     1      -9.874   4.437  69.651  1.00  0.00    -0.272 A  
HETATM    6  C   UNL     1     -10.006   5.087  68.420  1.00  0.00    -0.202 A  
HETATM    7  C   UNL     1     -10.736   6.278  68.308  1.00  0.00    -0.356 A  
HETATM    8  C   UNL     1     -11.187   6.162  70.690  1.00  0.00    -0.387 A  
HETATM    9  C   UNL     1     -11.320   6.815  69.461  1.00  0.00    -0.292 A  
BRANCH   7  10
HETATM   10  C   UNL     1     -10.809   6.993  66.981  1.00  0.00    -0.413 C  
BRANCH  10  11
HETATM   11  C   UNL     1     -10.097   8.324  66.883  1.00  0.00    -0.366 A  
HETATM   12  C   UNL     1      -8.705   8.450  66.784  1.00  0.00    -0.128 A  
HETATM   13 CL   UNL     1      -7.675   7.078  66.592  1.00  0.00    -0.092 Cl 
HETATM   14  C   UNL     1      -8.100   9.709  66.888  1.00  0.00    -0.113 A  
HETATM   15  C   UNL     1      -8.869  10.856  67.109  1.00  0.00    -0.135 A  
HETATM   16  C   UNL     1     -10.263  10.765  67.185  1.00  0.00    -0.255 A  
HETATM   17  C   UNL     1     -10.857   9.498  67.025  1.00  0.00    -0.125 A  
BRANCH  16  18
HETATM   18  C   UNL     1     -11.150  11.945  67.562  1.00  0.00    -0.273 C  
HETATM   19  O   UNL     1     -10.697  13.152  66.920  1.00  0.00    -0.261 OA 
HETATM   20  C   UNL     1     -11.545  14.281  67.195  1.00  0.00    -0.380 C  
HETATM   21  H   UNL     1     -11.725  11.055  70.699  1.00  0.00     0.000 HD 
HETATM   22  C   UNL     1     -11.583  14.581  68.695  1.00  0.00    -0.315 C  
HETATM   23  O   UNL     1     -11.705  10.948  69.756  1.00  0.00    -0.278 OA 
HETATM   24  O   UNL     1     -12.467  15.665  69.017  1.00  0.00    -0.596 OA 
HETATM   25  C   UNL     1     -12.042  13.341  69.464  1.00  0.00    -0.258 C  
HETATM   26  H   UNL     1     -12.277  12.825  71.349  1.00  0.00     0.000 HD 
HETATM   27  O   UNL     1     -11.992  13.595  70.871  1.00  0.00    -0.297 OA 
HETATM   28  H   UNL     1     -12.490  15.852  69.949  1.00  0.00     0.000 HD 
HETATM   29  C   UNL     1     -11.185  12.120  69.106  1.00  0.00    -0.244 C  
BRANCH  20  30
HETATM   30  C   UNL     1     -11.013  15.493  66.414  1.00  0.00    -0.238 C  
HETATM   31  O   UNL     1     -10.777  16.576  67.311  1.00  0.00    -0.313 OA 
HETATM   32  H   UNL     1     -10.448  17.325  66.829  1.00  0.00     0.000 HD 
ENDBRANCH  20  30
ENDBRANCH  16  18
ENDBRANCH  10  11
ENDBRANCH   7  10
ENDBRANCH   3   4
ENDBRANCH   2   3
TORSDOF 6
ENDMDL
MODEL      105
REMARK 921   NORMALIZED FREE ENERGY PREDICTED BY IDOCK:   -5.60 KCAL/MOL
REMARK 922        TOTAL FREE ENERGY PREDICTED BY IDOCK:   -8.52 KCAL/MOL
REMARK 923 INTER-LIGAND FREE ENERGY PREDICTED BY IDOCK:   -7.92 KCAL/MOL
REMARK 924 INTRA-LIGAND FREE ENERGY PREDICTED BY IDOCK:   -0.60 KCAL/MOL
REMARK 927      BINDING AFFINITY PREDICTED BY RF-SCORE:    0.00 PKD
ROOT
HETATM    1  C   UNL     1      -8.466   3.115  64.032  1.00  0.00    -0.089 C  
HETATM    2  C   UNL     1      -9.486   3.436  65.108  1.00  0.00    -0.152 C  
ENDROOT
BRANCH   2   3
HETATM    3  O   UNL     1      -8.783   3.796  66.296  1.00  0.00    -0.111 OA 
BRANCH   3   4
HETATM    4  C   UNL     1      -9.038   5.035  66.814  1.00  0.00    -0.118 A  
HETATM    5  C   UNL     1      -8.202   6.146  66.726  1.00  0.00    -0.109 A  
HETATM    6  C   UNL     1      -8.588   7.364  67.295  1.00  0.00    -0.118 A  
HETATM    7  C   UNL     1      -9.814   7.493  67.961  1.00  0.00    -0.177 A  
HETATM    8  C   UNL     1     -10.254   5.153  67.489  1.00  0.00    -0.210 A  
HETATM    9  C   UNL     1     -10.642   6.369  68.060  1.00  0.00    -0.315 A  
BRANCH   7  10
HETATM   10  C   UNL     1     -10.177   8.801  68.621  1.00  0.00    -0.214 C  
BRANCH  10  11
HETATM   11  C   UNL     1      -9.369  10.014  68.218  1.00  0.00    -0.136 A  
HETATM   12  C   UNL     1      -8.330  10.543  68.995  1.00  0.00    -0.154 A  
HETATM   13 CL   UNL     1      -7.758   9.751  70.418  1.00  0.00    -0.181 Cl 
HETATM   14  C   UNL     1      -7.751  11.773  68.658  1.00  0.00    -0.126 A  
HETATM   15  C   UNL     1      -8.209  12.502  67.555  1.00  0.00    -0.175 A  
HETATM   16  C   UNL     1      -9.226  11.985  66.745  1.00  0.00    -0.201 A  
HETATM   17  C   UNL     1      -9.759  10.722  67.068  1.00  0.00    -0.205 A  
BRANCH  16  18
HETATM   18  C   UNL     1      -9.868  12.782  65.615  1.00  0.00    -0.179 C  
HETATM   19  O   UNL     1     -10.213  14.109  66.056  1.00  0.00    -0.287 OA 
HETATM   20  C   UNL     1     -10.763  14.920  65.003  1.00  0.00    -0.431 C  
HETATM   21  H   UNL     1     -11.545  10.281  64.236  1.00  0.00     0.000 HD 
HETATM   22  C   UNL     1     -12.051  14.302  64.456  1.00  0.00    -0.480 C  
HETATM   23  O   UNL     1     -10.779  10.737  64.565  1.00  0.00    -0.297 OA 
HETATM   24  O   UNL     1     -12.600  15.051  63.361  1.00  0.00    -0.698 OA 
HETATM   25  C   UNL     1     -11.782  12.875  63.975  1.00  0.00    -0.434 C  
HETATM   26  H   UNL     1     -12.838  11.380  63.248  1.00  0.00     0.000 HD 
HETATM   27  O   UNL     1     -13.005  12.267  63.546  1.00  0.00    -0.776 OA 
HETATM   28  H   UNL     1     -13.400  14.667  63.021  1.00  0.00     0.000 HD 
HETATM   29  C   UNL     1     -11.121  12.036  65.076  1.00  0.00    -0.316 C  
BRANCH  20  30
HETATM   30  C   UNL     1     -11.032  16.326  65.560  1.00  0.00    -0.149 C  
HETATM   31  O   UNL     1     -11.178  17.250  64.483  1.00  0.00    -1.083 OA 
HETATM   32  H   UNL     1     -11.345  18.119  64.828  1.00  0.00     0.000 HD 
ENDBRANCH  20  30
ENDBRANCH  16  18
ENDBRANCH  10  11
ENDBRANCH   7  10
ENDBRANCH   3   4
ENDBRANCH   2   3
TORSDOF 6
ENDMDL
MODEL      106
REMARK 921   NORMALIZED FREE ENERGY PREDICTED BY IDOCK:   -5.58 KCAL/MOL
REMARK 922        TOTAL FREE ENERGY PREDICTED BY IDOCK:   -8.51 KCAL/MOL
REMARK 923 INTER-LIGAND FREE ENERGY PREDICTED BY IDOCK:   -7.45 KCAL/MOL
REMARK 924 INTRA-LIGAND FREE ENERGY PREDICTED BY IDOCK:   -1.06 KCAL/MOL
REMARK 927      BINDING AFFINITY PREDICTED BY RF-SCORE:    0.00 PKD
ROOT
HETATM    1  C   UNL     1      -8.700   6.398  66.730  1.00  0.00    -0.119 C  
HETATM    2  C   UNL     1      -7.888   7.657  66.972  1.00  0.00    -0.112 C  
ENDROOT
BRANCH   2   3
HETATM    3  O   UNL     1      -7.892   8.427  65.772  1.00  0.00    -0.093 OA 
BRANCH   3   4
HETATM    4  C   UNL     1      -8.592   9.601  65.793  1.00  0.00    -0.136 A  
HETATM    5  C   UNL     1      -9.695   9.910  64.999  1.00  0.00    -0.359 A  
HETATM    6  C   UNL     1     -10.328  11.151  65.127  1.00  0.00    -0.354 A  
HETATM    7  C   UNL     1      -9.871  12.102  66.049  1.00  0.00    -0.260 A  
HETATM    8  C   UNL     1      -8.123  10.551  66.703  1.00  0.00    -0.127 A  
HETATM    9  C   UNL     1      -8.753  11.792  66.832  1.00  0.00    -0.189 A  
BRANCH   7  10
HETATM   10  C   UNL     1     -10.533  13.457  66.121  1.00  0.00    -0.295 C  
BRANCH  10  11
HETATM   11  C   UNL     1     -10.481  14.171  67.454  1.00  0.00    -0.271 A  
HETATM   12  C   UNL     1     -11.133  13.709  68.604  1.00  0.00    -0.272 A  
HETATM   13 CL   UNL     1     -11.927  12.177  68.651  1.00  0.00    -0.348 Cl 
HETATM   14  C   UNL     1     -11.200  14.512  69.750  1.00  0.00    -0.276 A  
HETATM   15  C   UNL     1     -10.634  15.791  69.761  1.00  0.00    -0.312 A  
HETATM   16  C   UNL     1      -9.953  16.268  68.637  1.00  0.00    -0.233 A  
HETATM   17  C   UNL     1      -9.849  15.426  67.513  1.00  0.00    -0.217 A  
BRANCH  16  18
HETATM   18  C   UNL     1      -9.435  17.698  68.528  1.00  0.00    -0.298 C  
HETATM   19  O   UNL     1     -10.050  18.381  67.419  1.00  0.00    -0.321 OA 
HETATM   20  C   UNL     1      -9.641  19.756  67.317  1.00  0.00    -0.359 C  
HETATM   21  H   UNL     1      -6.311  17.088  69.441  1.00  0.00     0.000 HD 
HETATM   22  C   UNL     1      -8.130  19.860  67.101  1.00  0.00    -0.306 C  
HETATM   23  O   UNL     1      -7.257  17.086  69.526  1.00  0.00    -0.147 OA 
HETATM   24  O   UNL     1      -7.672  21.220  67.053  1.00  0.00    -0.733 OA 
HETATM   25  C   UNL     1      -7.390  19.143  68.231  1.00  0.00    -0.287 C  
HETATM   26  H   UNL     1      -5.521  18.719  68.684  1.00  0.00     0.000 HD 
HETATM   27  O   UNL     1      -5.981  19.164  67.982  1.00  0.00    -0.207 OA 
HETATM   28  H   UNL     1      -6.734  21.285  66.919  1.00  0.00     0.000 HD 
HETATM   29  C   UNL     1      -7.887  17.701  68.389  1.00  0.00    -0.268 C  
BRANCH  20  30
HETATM   30  C   UNL     1     -10.400  20.406  66.149  1.00  0.00    -0.113 C  
HETATM   31  O   UNL     1     -11.017  19.394  65.355  1.00  0.00    -0.438 OA 
HETATM   32  H   UNL     1     -11.486  19.795  64.633  1.00  0.00     0.000 HD 
ENDBRANCH  20  30
ENDBRANCH  16  18
ENDBRANCH  10  11
ENDBRANCH   7  10
ENDBRANCH   3   4
ENDBRANCH   2   3
TORSDOF 6
ENDMDL
MODEL      107
REMARK 921   NORMALIZED FREE ENERGY PREDICTED BY IDOCK:   -5.57 KCAL/MOL
REMARK 922        TOTAL FREE ENERGY PREDICTED BY IDOCK:   -8.49 KCAL/MOL
REMARK 923 INTER-LIGAND FREE ENERGY PREDICTED BY IDOCK:   -7.83 KCAL/MOL
REMARK 924 INTRA-LIGAND FREE ENERGY PREDICTED BY IDOCK:   -0.66 KCAL/MOL
REMARK 927      BINDING AFFINITY PREDICTED BY RF-SCORE:    0.00 PKD
ROOT
HETATM    1  C   UNL     1      -7.834  18.397  68.176  1.00  0.00    -0.304 C  
HETATM    2  C   UNL     1      -8.272  18.278  66.728  1.00  0.00    -0.253 C  
ENDROOT
BRANCH   2   3
HETATM    3  O   UNL     1      -7.844  17.009  66.237  1.00  0.00    -0.281 OA 
BRANCH   3   4
HETATM    4  C   UNL     1      -8.772  16.006  66.226  1.00  0.00    -0.336 A  
HETATM    5  C   UNL     1     -10.036  16.068  65.642  1.00  0.00    -0.384 A  
HETATM    6  C   UNL     1     -10.891  14.962  65.694  1.00  0.00    -0.347 A  
HETATM    7  C   UNL     1     -10.499  13.777  66.331  1.00  0.00    -0.284 A  
HETATM    8  C   UNL     1      -8.382  14.833  66.875  1.00  0.00    -0.184 A  
HETATM    9  C   UNL     1      -9.235  13.727  66.931  1.00  0.00    -0.263 A  
BRANCH   7  10
HETATM   10  C   UNL     1     -11.465  12.622  66.429  1.00  0.00    -0.409 C  
BRANCH  10  11
HETATM   11  C   UNL     1     -11.524  11.894  67.754  1.00  0.00    -0.389 A  
HETATM   12  C   UNL     1     -11.824  12.524  68.970  1.00  0.00    -0.296 A  
HETATM   13 CL   UNL     1     -12.323  14.174  69.044  1.00  0.00    -0.261 Cl 
HETATM   14  C   UNL     1     -11.677  11.832  70.179  1.00  0.00    -0.354 A  
HETATM   15  C   UNL     1     -11.214  10.513  70.197  1.00  0.00    -0.389 A  
HETATM   16  C   UNL     1     -10.934   9.849  68.998  1.00  0.00    -0.223 A  
HETATM   17  C   UNL     1     -11.139  10.542  67.789  1.00  0.00    -0.382 A  
BRANCH  16  18
HETATM   18  C   UNL     1     -10.296   8.465  68.948  1.00  0.00    -0.215 C  
HETATM   19  O   UNL     1     -10.470   7.869  67.648  1.00  0.00    -0.228 OA 
HETATM   20  C   UNL     1      -9.826   6.589  67.533  1.00  0.00    -0.124 C  
HETATM   21  H   UNL     1     -11.030   7.548  72.044  1.00  0.00     0.000 HD 
HETATM   22  C   UNL     1     -10.405   5.595  68.542  1.00  0.00    -0.199 C  
HETATM   23  O   UNL     1     -10.664   8.104  71.366  1.00  0.00    -0.223 OA 
HETATM   24  O   UNL     1      -9.747   4.320  68.500  1.00  0.00    -0.149 OA 
HETATM   25  C   UNL     1     -10.277   6.156  69.959  1.00  0.00    -0.196 C  
HETATM   26  H   UNL     1     -10.820   5.615  71.774  1.00  0.00     0.000 HD 
HETATM   27  O   UNL     1     -10.899   5.266  70.893  1.00  0.00    -0.178 OA 
HETATM   28  H   UNL     1     -10.107   3.702  69.126  1.00  0.00     0.000 HD 
HETATM   29  C   UNL     1     -10.895   7.556  70.058  1.00  0.00    -0.249 C  
BRANCH  20  30
HETATM   30  C   UNL     1     -10.016   6.074  66.098  1.00  0.00     0.051 C  
HETATM   31  O   UNL     1     -11.215   5.306  66.017  1.00  0.00    -0.780 OA 
HETATM   32  H   UNL     1     -11.333   4.988  65.130  1.00  0.00     0.000 HD 
ENDBRANCH  20  30
ENDBRANCH  16  18
ENDBRANCH  10  11
ENDBRANCH   7  10
ENDBRANCH   3   4
ENDBRANCH   2   3
TORSDOF 6
ENDMDL
MODEL      108
REMARK 921   NORMALIZED FREE ENERGY PREDICTED BY IDOCK:   -5.55 KCAL/MOL
REMARK 922        TOTAL FREE ENERGY PREDICTED BY IDOCK:   -8.46 KCAL/MOL
REMARK 923 INTER-LIGAND FREE ENERGY PREDICTED BY IDOCK:   -7.14 KCAL/MOL
REMARK 924 INTRA-LIGAND FREE ENERGY PREDICTED BY IDOCK:   -1.32 KCAL/MOL
REMARK 927      BINDING AFFINITY PREDICTED BY RF-SCORE:    0.00 PKD
ROOT
HETATM    1  C   UNL     1     -12.270  14.245  64.043  1.00  0.00    -0.336 C  
HETATM    2  C   UNL     1     -12.469  12.759  63.808  1.00  0.00    -0.383 C  
ENDROOT
BRANCH   2   3
HETATM    3  O   UNL     1     -12.554  12.116  65.078  1.00  0.00    -0.514 OA 
BRANCH   3   4
HETATM    4  C   UNL     1     -11.392  11.995  65.788  1.00  0.00    -0.331 A  
HETATM    5  C   UNL     1     -10.212  11.411  65.332  1.00  0.00    -0.320 A  
HETATM    6  C   UNL     1      -9.086  11.360  66.161  1.00  0.00    -0.217 A  
HETATM    7  C   UNL     1      -9.120  11.890  67.457  1.00  0.00    -0.178 A  
HETATM    8  C   UNL     1     -11.436  12.512  67.084  1.00  0.00    -0.414 A  
HETATM    9  C   UNL     1     -10.313  12.461  67.915  1.00  0.00    -0.215 A  
BRANCH   7  10
HETATM   10  C   UNL     1      -7.911  11.763  68.352  1.00  0.00    -0.147 C  
BRANCH  10  11
HETATM   11  C   UNL     1      -7.063  13.003  68.530  1.00  0.00    -0.105 A  
HETATM   12  C   UNL     1      -6.111  13.149  69.548  1.00  0.00    -0.114 A  
HETATM   13 CL   UNL     1      -5.695  11.847  70.603  1.00  0.00    -0.154 Cl 
HETATM   14  C   UNL     1      -5.498  14.388  69.770  1.00  0.00    -0.095 A  
HETATM   15  C   UNL     1      -5.835  15.503  68.995  1.00  0.00    -0.104 A  
HETATM   16  C   UNL     1      -6.760  15.381  67.954  1.00  0.00    -0.177 A  
HETATM   17  C   UNL     1      -7.328  14.114  67.711  1.00  0.00    -0.177 A  
BRANCH  16  18
HETATM   18  C   UNL     1      -7.278  16.576  67.162  1.00  0.00    -0.188 C  
HETATM   19  O   UNL     1      -6.218  17.181  66.397  1.00  0.00    -0.205 OA 
HETATM   20  C   UNL     1      -6.675  18.274  65.582  1.00  0.00    -0.256 C  
HETATM   21  H   UNL     1      -9.435  17.676  69.422  1.00  0.00     0.000 HD 
HETATM   22  C   UNL     1      -7.269  19.388  66.447  1.00  0.00    -0.241 C  
HETATM   23  O   UNL     1      -9.037  17.042  68.837  1.00  0.00    -0.262 OA 
HETATM   24  O   UNL     1      -7.791  20.473  65.666  1.00  0.00    -0.527 OA 
HETATM   25  C   UNL     1      -8.400  18.830  67.312  1.00  0.00    -0.268 C  
HETATM   26  H   UNL     1      -9.598  19.504  68.722  1.00  0.00     0.000 HD 
HETATM   27  O   UNL     1      -8.896  19.851  68.185  1.00  0.00    -0.315 OA 
HETATM   28  H   UNL     1      -8.160  21.165  66.204  1.00  0.00     0.000 HD 
HETATM   29  C   UNL     1      -7.930  17.613  68.120  1.00  0.00    -0.256 C  
BRANCH  20  30
HETATM   30  C   UNL     1      -5.487  18.802  64.763  1.00  0.00    -0.219 C  
HETATM   31  O   UNL     1      -5.953  19.317  63.517  1.00  0.00    -0.424 OA 
HETATM   32  H   UNL     1      -5.219  19.643  63.011  1.00  0.00     0.000 HD 
ENDBRANCH  20  30
ENDBRANCH  16  18
ENDBRANCH  10  11
ENDBRANCH   7  10
ENDBRANCH   3   4
ENDBRANCH   2   3
TORSDOF 6
ENDMDL
MODEL      109
REMARK 921   NORMALIZED FREE ENERGY PREDICTED BY IDOCK:   -5.51 KCAL/MOL
REMARK 922        TOTAL FREE ENERGY PREDICTED BY IDOCK:   -8.41 KCAL/MOL
REMARK 923 INTER-LIGAND FREE ENERGY PREDICTED BY IDOCK:   -7.19 KCAL/MOL
REMARK 924 INTRA-LIGAND FREE ENERGY PREDICTED BY IDOCK:   -1.22 KCAL/MOL
REMARK 927      BINDING AFFINITY PREDICTED BY RF-SCORE:    0.00 PKD
ROOT
HETATM    1  C   UNL     1      -7.907  18.493  68.003  1.00  0.00    -0.291 C  
HETATM    2  C   UNL     1      -8.545  18.546  66.628  1.00  0.00    -0.286 C  
ENDROOT
BRANCH   2   3
HETATM    3  O   UNL     1      -8.212  17.344  65.936  1.00  0.00    -0.537 OA 
BRANCH   3   4
HETATM    4  C   UNL     1      -9.128  16.330  65.983  1.00  0.00    -0.297 A  
HETATM    5  C   UNL     1     -10.413  16.364  65.446  1.00  0.00    -0.333 A  
HETATM    6  C   UNL     1     -11.251  15.249  65.556  1.00  0.00    -0.277 A  
HETATM    7  C   UNL     1     -10.820  14.084  66.204  1.00  0.00    -0.291 A  
HETATM    8  C   UNL     1      -8.699  15.177  66.642  1.00  0.00    -0.308 A  
HETATM    9  C   UNL     1      -9.535  14.062  66.755  1.00  0.00    -0.292 A  
BRANCH   7  10
HETATM   10  C   UNL     1     -11.768  12.920  66.364  1.00  0.00    -0.454 C  
BRANCH  10  11
HETATM   11  C   UNL     1     -11.671  12.136  67.654  1.00  0.00    -0.386 A  
HETATM   12  C   UNL     1     -11.867  12.703  68.920  1.00  0.00    -0.302 A  
HETATM   13 CL   UNL     1     -12.410  14.330  69.118  1.00  0.00    -0.257 Cl 
HETATM   14  C   UNL     1     -11.578  11.968  70.077  1.00  0.00    -0.275 A  
HETATM   15  C   UNL     1     -11.073  10.666  69.990  1.00  0.00    -0.359 A  
HETATM   16  C   UNL     1     -10.893  10.064  68.741  1.00  0.00    -0.252 A  
HETATM   17  C   UNL     1     -11.240  10.799  67.590  1.00  0.00    -0.370 A  
BRANCH  16  18
HETATM   18  C   UNL     1     -10.219   8.708  68.565  1.00  0.00    -0.195 C  
HETATM   19  O   UNL     1     -10.743   7.751  69.504  1.00  0.00    -0.236 OA 
HETATM   20  C   UNL     1     -10.182   6.438  69.331  1.00  0.00    -0.192 C  
HETATM   21  H   UNL     1      -7.191   9.834  67.836  1.00  0.00     0.000 HD 
HETATM   22  C   UNL     1      -8.666   6.460  69.541  1.00  0.00    -0.133 C  
HETATM   23  O   UNL     1      -8.132   9.748  67.740  1.00  0.00    -0.111 OA 
HETATM   24  O   UNL     1      -8.060   5.178  69.319  1.00  0.00    -0.083 OA 
HETATM   25  C   UNL     1      -8.022   7.469  68.589  1.00  0.00    -0.123 C  
HETATM   26  H   UNL     1      -6.217   8.181  68.257  1.00  0.00     0.000 HD 
HETATM   27  O   UNL     1      -6.617   7.554  68.848  1.00  0.00    -0.045 OA 
HETATM   28  H   UNL     1      -7.119   5.192  69.450  1.00  0.00     0.000 HD 
HETATM   29  C   UNL     1      -8.678   8.849  68.720  1.00  0.00    -0.137 C  
BRANCH  20  30
HETATM   30  C   UNL     1     -10.853   5.484  70.333  1.00  0.00    -0.204 C  
HETATM   31  O   UNL     1     -10.034   5.354  71.494  1.00  0.00    -0.169 OA 
HETATM   32  H   UNL     1     -10.448   4.765  72.113  1.00  0.00     0.000 HD 
ENDBRANCH  20  30
ENDBRANCH  16  18
ENDBRANCH  10  11
ENDBRANCH   7  10
ENDBRANCH   3   4
ENDBRANCH   2   3
TORSDOF 6
ENDMDL
MODEL      110
REMARK 921   NORMALIZED FREE ENERGY PREDICTED BY IDOCK:   -5.50 KCAL/MOL
REMARK 922        TOTAL FREE ENERGY PREDICTED BY IDOCK:   -8.40 KCAL/MOL
REMARK 923 INTER-LIGAND FREE ENERGY PREDICTED BY IDOCK:   -7.35 KCAL/MOL
REMARK 924 INTRA-LIGAND FREE ENERGY PREDICTED BY IDOCK:   -1.05 KCAL/MOL
REMARK 927      BINDING AFFINITY PREDICTED BY RF-SCORE:    0.00 PKD
ROOT
HETATM    1  C   UNL     1      -9.322   5.201  65.991  1.00  0.00    -0.165 C  
HETATM    2  C   UNL     1      -8.628   6.410  66.589  1.00  0.00    -0.121 C  
ENDROOT
BRANCH   2   3
HETATM    3  O   UNL     1      -7.922   7.079  65.545  1.00  0.00    -0.114 OA 
BRANCH   3   4
HETATM    4  C   UNL     1      -8.366   8.325  65.200  1.00  0.00    -0.157 A  
HETATM    5  C   UNL     1      -8.993   9.235  66.050  1.00  0.00    -0.215 A  
HETATM    6  C   UNL     1      -9.392  10.487  65.569  1.00  0.00    -0.245 A  
HETATM    7  C   UNL     1      -9.173  10.850  64.234  1.00  0.00    -0.221 A  
HETATM    8  C   UNL     1      -8.159   8.677  63.865  1.00  0.00    -0.163 A  
HETATM    9  C   UNL     1      -8.559   9.926  63.382  1.00  0.00    -0.206 A  
BRANCH   7  10
HETATM   10  C   UNL     1      -9.672  12.181  63.727  1.00  0.00    -0.152 C  
BRANCH  10  11
HETATM   11  C   UNL     1     -10.702  12.892  64.577  1.00  0.00    -0.392 A  
HETATM   12  C   UNL     1     -12.084  12.762  64.387  1.00  0.00    -0.416 A  
HETATM   13 CL   UNL     1     -12.749  11.635  63.262  1.00  0.00    -0.443 Cl 
HETATM   14  C   UNL     1     -12.974  13.590  65.083  1.00  0.00    -0.263 A  
HETATM   15  C   UNL     1     -12.502  14.569  65.963  1.00  0.00    -0.187 A  
HETATM   16  C   UNL     1     -11.129  14.704  66.194  1.00  0.00    -0.334 A  
HETATM   17  C   UNL     1     -10.252  13.827  65.526  1.00  0.00    -0.332 A  
BRANCH  16  18
HETATM   18  C   UNL     1     -10.537  15.835  67.027  1.00  0.00    -0.316 C  
HETATM   19  O   UNL     1     -10.441  17.045  66.251  1.00  0.00    -0.314 OA 
HETATM   20  C   UNL     1      -9.948  18.158  67.017  1.00  0.00    -0.338 C  
HETATM   21  H   UNL     1      -8.386  14.004  68.756  1.00  0.00     0.000 HD 
HETATM   22  C   UNL     1      -8.541  17.875  67.547  1.00  0.00    -0.239 C  
HETATM   23  O   UNL     1      -9.237  14.256  68.417  1.00  0.00    -0.188 OA 
HETATM   24  O   UNL     1      -8.036  18.939  68.367  1.00  0.00    -0.315 OA 
HETATM   25  C   UNL     1      -8.544  16.589  68.375  1.00  0.00    -0.213 C  
HETATM   26  H   UNL     1      -7.213  15.478  69.309  1.00  0.00     0.000 HD 
HETATM   27  O   UNL     1      -7.211  16.277  68.795  1.00  0.00    -0.156 OA 
HETATM   28  H   UNL     1      -7.162  18.764  68.696  1.00  0.00     0.000 HD 
HETATM   29  C   UNL     1      -9.145  15.422  67.582  1.00  0.00    -0.182 C  
BRANCH  20  30
HETATM   30  C   UNL     1      -9.948  19.406  66.120  1.00  0.00    -0.425 C  
HETATM   31  O   UNL     1      -9.776  20.573  66.921  1.00  0.00    -0.541 OA 
HETATM   32  H   UNL     1      -9.775  21.344  66.367  1.00  0.00     0.000 HD 
ENDBRANCH  20  30
ENDBRANCH  16  18
ENDBRANCH  10  11
ENDBRANCH   7  10
ENDBRANCH   3   4
ENDBRANCH   2   3
TORSDOF 6
ENDMDL
MODEL      111
REMARK 921   NORMALIZED FREE ENERGY PREDICTED BY IDOCK:   -5.50 KCAL/MOL
REMARK 922        TOTAL FREE ENERGY PREDICTED BY IDOCK:   -8.40 KCAL/MOL
REMARK 923 INTER-LIGAND FREE ENERGY PREDICTED BY IDOCK:   -7.07 KCAL/MOL
REMARK 924 INTRA-LIGAND FREE ENERGY PREDICTED BY IDOCK:   -1.33 KCAL/MOL
REMARK 927      BINDING AFFINITY PREDICTED BY RF-SCORE:    0.00 PKD
ROOT
HETATM    1  C   UNL     1     -10.520  18.162  67.106  1.00  0.00    -0.392 C  
HETATM    2  C   UNL     1     -10.625  16.893  67.933  1.00  0.00    -0.361 C  
ENDROOT
BRANCH   2   3
HETATM    3  O   UNL     1     -10.726  15.787  67.038  1.00  0.00    -0.315 OA 
BRANCH   3   4
HETATM    4  C   UNL     1     -10.003  14.670  67.352  1.00  0.00    -0.231 A  
HETATM    5  C   UNL     1      -8.637  14.495  67.138  1.00  0.00    -0.242 A  
HETATM    6  C   UNL     1      -8.014  13.301  67.515  1.00  0.00    -0.186 A  
HETATM    7  C   UNL     1      -8.743  12.263  68.110  1.00  0.00    -0.186 A  
HETATM    8  C   UNL     1     -10.737  13.634  67.930  1.00  0.00    -0.257 A  
HETATM    9  C   UNL     1     -10.118  12.438  68.306  1.00  0.00    -0.227 A  
BRANCH   7  10
HETATM   10  C   UNL     1      -8.058  10.961  68.447  1.00  0.00    -0.131 C  
BRANCH  10  11
HETATM   11  C   UNL     1      -8.672   9.700  67.878  1.00  0.00    -0.119 A  
HETATM   12  C   UNL     1      -8.860   9.483  66.507  1.00  0.00    -0.139 A  
HETATM   13 CL   UNL     1      -8.248  10.574  65.317  1.00  0.00    -0.162 Cl 
HETATM   14  C   UNL     1      -9.603   8.383  66.061  1.00  0.00    -0.196 A  
HETATM   15  C   UNL     1     -10.183   7.494  66.972  1.00  0.00    -0.368 A  
HETATM   16  C   UNL     1      -9.989   7.670  68.345  1.00  0.00    -0.192 A  
HETATM   17  C   UNL     1      -9.195   8.751  68.774  1.00  0.00    -0.141 A  
BRANCH  16  18
HETATM   18  C   UNL     1     -10.703   6.827  69.396  1.00  0.00    -0.255 C  
HETATM   19  O   UNL     1     -11.640   7.626  70.143  1.00  0.00    -0.145 OA 
HETATM   20  C   UNL     1     -12.385   6.857  71.102  1.00  0.00    -0.370 C  
HETATM   21  H   UNL     1      -8.137   4.893  70.201  1.00  0.00     0.000 HD 
HETATM   22  C   UNL     1     -11.452   6.218  72.132  1.00  0.00    -0.307 C  
HETATM   23  O   UNL     1      -8.770   5.301  69.621  1.00  0.00    -0.099 OA 
HETATM   24  O   UNL     1     -12.152   5.392  73.074  1.00  0.00    -0.547 OA 
HETATM   25  C   UNL     1     -10.405   5.357  71.424  1.00  0.00    -0.228 C  
HETATM   26  H   UNL     1      -8.828   4.296  71.939  1.00  0.00     0.000 HD 
HETATM   27  O   UNL     1      -9.478   4.831  72.380  1.00  0.00    -0.131 OA 
HETATM   28  H   UNL     1     -11.573   4.995  73.714  1.00  0.00     0.000 HD 
HETATM   29  C   UNL     1      -9.667   6.159  70.345  1.00  0.00    -0.169 C  
BRANCH  20  30
HETATM   30  C   UNL     1     -13.396   7.786  71.793  1.00  0.00    -0.319 C  
HETATM   31  O   UNL     1     -12.850   8.261  73.022  1.00  0.00    -0.654 OA 
HETATM   32  H   UNL     1     -13.475   8.835  73.449  1.00  0.00     0.000 HD 
ENDBRANCH  20  30
ENDBRANCH  16  18
ENDBRANCH  10  11
ENDBRANCH   7  10
ENDBRANCH   3   4
ENDBRANCH   2   3
TORSDOF 6
ENDMDL
MODEL      112
REMARK 921   NORMALIZED FREE ENERGY PREDICTED BY IDOCK:   -5.50 KCAL/MOL
REMARK 922        TOTAL FREE ENERGY PREDICTED BY IDOCK:   -8.39 KCAL/MOL
REMARK 923 INTER-LIGAND FREE ENERGY PREDICTED BY IDOCK:   -7.65 KCAL/MOL
REMARK 924 INTRA-LIGAND FREE ENERGY PREDICTED BY IDOCK:   -0.74 KCAL/MOL
REMARK 927      BINDING AFFINITY PREDICTED BY RF-SCORE:    0.00 PKD
ROOT
HETATM    1  C   UNL     1     -10.691   2.276  63.414  1.00  0.00    -0.196 C  
HETATM    2  C   UNL     1      -9.484   3.051  63.909  1.00  0.00    -0.123 C  
ENDROOT
BRANCH   2   3
HETATM    3  O   UNL     1      -9.298   2.749  65.291  1.00  0.00    -0.151 OA 
BRANCH   3   4
HETATM    4  C   UNL     1      -9.634   3.725  66.187  1.00  0.00    -0.160 A  
HETATM    5  C   UNL     1     -10.453   4.823  65.931  1.00  0.00    -0.313 A  
HETATM    6  C   UNL     1     -10.726   5.749  66.944  1.00  0.00    -0.381 A  
HETATM    7  C   UNL     1     -10.184   5.595  68.227  1.00  0.00    -0.239 A  
HETATM    8  C   UNL     1      -9.080   3.575  67.460  1.00  0.00    -0.196 A  
HETATM    9  C   UNL     1      -9.349   4.499  68.473  1.00  0.00    -0.198 A  
BRANCH   7  10
HETATM   10  C   UNL     1     -10.442   6.643  69.282  1.00  0.00    -0.247 C  
BRANCH  10  11
HETATM   11  C   UNL     1      -9.884   8.024  69.020  1.00  0.00    -0.178 A  
HETATM   12  C   UNL     1      -8.756   8.539  69.673  1.00  0.00    -0.133 A  
HETATM   13 CL   UNL     1      -7.788   7.570  70.724  1.00  0.00    -0.096 Cl 
HETATM   14  C   UNL     1      -8.407   9.887  69.523  1.00  0.00    -0.174 A  
HETATM   15  C   UNL     1      -9.184  10.745  68.739  1.00  0.00    -0.192 A  
HETATM   16  C   UNL     1     -10.299  10.254  68.053  1.00  0.00    -0.215 A  
HETATM   17  C   UNL     1     -10.605   8.884  68.172  1.00  0.00    -0.211 A  
BRANCH  16  18
HETATM   18  C   UNL     1     -11.268  11.154  67.296  1.00  0.00    -0.277 C  
HETATM   19  O   UNL     1     -10.979  11.146  65.885  1.00  0.00    -0.213 OA 
HETATM   20  C   UNL     1     -11.911  11.931  65.122  1.00  0.00    -0.121 C  
HETATM   21  H   UNL     1     -11.537  13.517  69.601  1.00  0.00     0.000 HD 
HETATM   22  C   UNL     1     -11.874  13.398  65.558  1.00  0.00    -0.363 C  
HETATM   23  O   UNL     1     -11.571  12.633  69.255  1.00  0.00    -0.285 OA 
HETATM   24  O   UNL     1     -12.834  14.205  64.860  1.00  0.00    -0.687 OA 
HETATM   25  C   UNL     1     -12.157  13.502  67.058  1.00  0.00    -0.354 C  
HETATM   26  H   UNL     1     -12.210  14.929  68.414  1.00  0.00     0.000 HD 
HETATM   27  O   UNL     1     -12.035  14.864  67.483  1.00  0.00    -0.314 OA 
HETATM   28  H   UNL     1     -12.811  15.115  65.131  1.00  0.00     0.000 HD 
HETATM   29  C   UNL     1     -11.213  12.601  67.863  1.00  0.00    -0.266 C  
BRANCH  20  30
HETATM   30  C   UNL     1     -11.553  11.802  63.633  1.00  0.00    -0.424 C  
HETATM   31  O   UNL     1     -12.730  11.517  62.879  1.00  0.00    -0.947 OA 
HETATM   32  H   UNL     1     -12.509  11.437  61.959  1.00  0.00     0.000 HD 
ENDBRANCH  20  30
ENDBRANCH  16  18
ENDBRANCH  10  11
ENDBRANCH   7  10
ENDBRANCH   3   4
ENDBRANCH   2   3
TORSDOF 6
ENDMDL
MODEL      113
REMARK 921   NORMALIZED FREE ENERGY PREDICTED BY IDOCK:   -5.49 KCAL/MOL
REMARK 922        TOTAL FREE ENERGY PREDICTED BY IDOCK:   -8.38 KCAL/MOL
REMARK 923 INTER-LIGAND FREE ENERGY PREDICTED BY IDOCK:   -7.52 KCAL/MOL
REMARK 924 INTRA-LIGAND FREE ENERGY PREDICTED BY IDOCK:   -0.87 KCAL/MOL
REMARK 927      BINDING AFFINITY PREDICTED BY RF-SCORE:    0.00 PKD
ROOT
HETATM    1  C   UNL     1      -9.169  19.865  66.865  1.00  0.00    -0.475 C  
HETATM    2  C   UNL     1     -10.472  19.141  67.149  1.00  0.00    -0.447 C  
ENDROOT
BRANCH   2   3
HETATM    3  O   UNL     1     -10.180  18.003  67.958  1.00  0.00    -0.343 OA 
BRANCH   3   4
HETATM    4  C   UNL     1     -10.602  16.789  67.491  1.00  0.00    -0.309 A  
HETATM    5  C   UNL     1     -10.430  16.307  66.195  1.00  0.00    -0.330 A  
HETATM    6  C   UNL     1     -10.903  15.037  65.848  1.00  0.00    -0.339 A  
HETATM    7  C   UNL     1     -11.556  14.229  66.788  1.00  0.00    -0.407 A  
HETATM    8  C   UNL     1     -11.264  15.994  68.428  1.00  0.00    -0.364 A  
HETATM    9  C   UNL     1     -11.740  14.725  68.083  1.00  0.00    -0.353 A  
BRANCH   7  10
HETATM   10  C   UNL     1     -12.113  12.890  66.369  1.00  0.00    -0.400 C  
BRANCH  10  11
HETATM   11  C   UNL     1     -11.110  11.826  65.982  1.00  0.00    -0.363 A  
HETATM   12  C   UNL     1     -10.754  11.544  64.657  1.00  0.00    -0.319 A  
HETATM   13 CL   UNL     1     -11.307  12.511  63.338  1.00  0.00    -0.529 Cl 
HETATM   14  C   UNL     1      -9.966  10.425  64.359  1.00  0.00    -0.388 A  
HETATM   15  C   UNL     1      -9.538   9.561  65.373  1.00  0.00    -0.342 A  
HETATM   16  C   UNL     1      -9.854   9.832  66.707  1.00  0.00    -0.265 A  
HETATM   17  C   UNL     1     -10.602  10.991  66.993  1.00  0.00    -0.303 A  
BRANCH  16  18
HETATM   18  C   UNL     1      -9.542   8.866  67.844  1.00  0.00    -0.148 C  
HETATM   19  O   UNL     1      -8.528   9.407  68.712  1.00  0.00    -0.118 OA 
HETATM   20  C   UNL     1      -8.248   8.557  69.838  1.00  0.00    -0.121 C  
HETATM   21  H   UNL     1      -9.870   6.060  66.116  1.00  0.00     0.000 HD 
HETATM   22  C   UNL     1      -7.734   7.192  69.376  1.00  0.00    -0.107 C  
HETATM   23  O   UNL     1     -10.138   6.902  66.464  1.00  0.00    -0.163 OA 
HETATM   24  O   UNL     1      -7.499   6.292  70.469  1.00  0.00    -0.086 OA 
HETATM   25  C   UNL     1      -8.748   6.545  68.431  1.00  0.00    -0.121 C  
HETATM   26  H   UNL     1      -8.857   4.908  67.342  1.00  0.00     0.000 HD 
HETATM   27  O   UNL     1      -8.228   5.310  67.929  1.00  0.00    -0.099 OA 
HETATM   28  H   UNL     1      -7.180   5.445  70.183  1.00  0.00     0.000 HD 
HETATM   29  C   UNL     1      -9.105   7.488  67.274  1.00  0.00    -0.124 C  
BRANCH  20  30
HETATM   30  C   UNL     1      -7.206   9.253  70.728  1.00  0.00    -0.121 C  
HETATM   31  O   UNL     1      -5.898   9.013  70.214  1.00  0.00    -0.032 OA 
HETATM   32  H   UNL     1      -5.254   9.444  70.764  1.00  0.00     0.000 HD 
ENDBRANCH  20  30
ENDBRANCH  16  18
ENDBRANCH  10  11
ENDBRANCH   7  10
ENDBRANCH   3   4
ENDBRANCH   2   3
TORSDOF 6
ENDMDL
MODEL      114
REMARK 921   NORMALIZED FREE ENERGY PREDICTED BY IDOCK:   -5.48 KCAL/MOL
REMARK 922        TOTAL FREE ENERGY PREDICTED BY IDOCK:   -8.37 KCAL/MOL
REMARK 923 INTER-LIGAND FREE ENERGY PREDICTED BY IDOCK:   -7.29 KCAL/MOL
REMARK 924 INTRA-LIGAND FREE ENERGY PREDICTED BY IDOCK:   -1.08 KCAL/MOL
REMARK 927      BINDING AFFINITY PREDICTED BY RF-SCORE:    0.00 PKD
ROOT
HETATM    1  C   UNL     1      -7.813   6.377  63.652  1.00  0.00    -0.110 C  
HETATM    2  C   UNL     1      -7.732   7.758  64.277  1.00  0.00    -0.124 C  
ENDROOT
BRANCH   2   3
HETATM    3  O   UNL     1      -8.364   8.683  63.394  1.00  0.00    -0.180 OA 
BRANCH   3   4
HETATM    4  C   UNL     1      -8.979   9.761  63.966  1.00  0.00    -0.240 A  
HETATM    5  C   UNL     1      -8.719  10.273  65.236  1.00  0.00    -0.186 A  
HETATM    6  C   UNL     1      -9.418  11.392  65.701  1.00  0.00    -0.253 A  
HETATM    7  C   UNL     1     -10.387  12.018  64.906  1.00  0.00    -0.316 A  
HETATM    8  C   UNL     1      -9.955  10.372  63.176  1.00  0.00    -0.097 A  
HETATM    9  C   UNL     1     -10.655  11.490  63.638  1.00  0.00    -0.491 A  
BRANCH   7  10
HETATM   10  C   UNL     1     -11.171  13.185  65.457  1.00  0.00    -0.305 C  
BRANCH  10  11
HETATM   11  C   UNL     1     -10.870  13.596  66.881  1.00  0.00    -0.286 A  
HETATM   12  C   UNL     1     -11.321  12.886  68.002  1.00  0.00    -0.292 A  
HETATM   13 CL   UNL     1     -12.129  11.367  67.857  1.00  0.00    -0.106 Cl 
HETATM   14  C   UNL     1     -11.168  13.423  69.287  1.00  0.00    -0.275 A  
HETATM   15  C   UNL     1     -10.581  14.678  69.473  1.00  0.00    -0.166 A  
HETATM   16  C   UNL     1     -10.096  15.397  68.376  1.00  0.00    -0.215 A  
HETATM   17  C   UNL     1     -10.210  14.818  67.096  1.00  0.00    -0.245 A  
BRANCH  16  18
HETATM   18  C   UNL     1      -9.574  16.825  68.487  1.00  0.00    -0.245 C  
HETATM   19  O   UNL     1     -10.245  17.689  67.550  1.00  0.00    -0.320 OA 
HETATM   20  C   UNL     1      -9.831  19.062  67.666  1.00  0.00    -0.332 C  
HETATM   21  H   UNL     1      -6.408  16.071  69.100  1.00  0.00     0.000 HD 
HETATM   22  C   UNL     1      -8.334  19.205  67.385  1.00  0.00    -0.281 C  
HETATM   23  O   UNL     1      -7.348  16.053  69.237  1.00  0.00    -0.213 OA 
HETATM   24  O   UNL     1      -7.869  20.553  67.548  1.00  0.00    -0.313 OA 
HETATM   25  C   UNL     1      -7.537  18.304  68.329  1.00  0.00    -0.278 C  
HETATM   26  H   UNL     1      -5.649  17.810  68.594  1.00  0.00     0.000 HD 
HETATM   27  O   UNL     1      -6.144  18.370  68.007  1.00  0.00    -0.181 OA 
HETATM   28  H   UNL     1      -6.939  20.642  67.373  1.00  0.00     0.000 HD 
HETATM   29  C   UNL     1      -8.036  16.855  68.263  1.00  0.00    -0.211 C  
BRANCH  20  30
HETATM   30  C   UNL     1     -10.650  19.903  66.674  1.00  0.00    -0.421 C  
HETATM   31  O   UNL     1      -9.794  20.407  65.650  1.00  0.00    -0.604 OA 
HETATM   32  H   UNL     1     -10.300  20.927  65.037  1.00  0.00     0.000 HD 
ENDBRANCH  20  30
ENDBRANCH  16  18
ENDBRANCH  10  11
ENDBRANCH   7  10
ENDBRANCH   3   4
ENDBRANCH   2   3
TORSDOF 6
ENDMDL
MODEL      115
REMARK 921   NORMALIZED FREE ENERGY PREDICTED BY IDOCK:   -5.47 KCAL/MOL
REMARK 922        TOTAL FREE ENERGY PREDICTED BY IDOCK:   -8.35 KCAL/MOL
REMARK 923 INTER-LIGAND FREE ENERGY PREDICTED BY IDOCK:   -7.58 KCAL/MOL
REMARK 924 INTRA-LIGAND FREE ENERGY PREDICTED BY IDOCK:   -0.77 KCAL/MOL
REMARK 927      BINDING AFFINITY PREDICTED BY RF-SCORE:    0.00 PKD
ROOT
HETATM    1  C   UNL     1      -8.609   6.757  68.421  1.00  0.00    -0.125 C  
HETATM    2  C   UNL     1      -7.966   8.131  68.426  1.00  0.00    -0.123 C  
ENDROOT
BRANCH   2   3
HETATM    3  O   UNL     1      -9.002   9.107  68.334  1.00  0.00    -0.132 OA 
BRANCH   3   4
HETATM    4  C   UNL     1      -8.614  10.405  68.153  1.00  0.00    -0.125 A  
HETATM    5  C   UNL     1      -7.771  11.131  68.993  1.00  0.00    -0.114 A  
HETATM    6  C   UNL     1      -7.445  12.456  68.687  1.00  0.00    -0.095 A  
HETATM    7  C   UNL     1      -7.953  13.078  67.539  1.00  0.00    -0.177 A  
HETATM    8  C   UNL     1      -9.136  11.025  67.016  1.00  0.00    -0.154 A  
HETATM    9  C   UNL     1      -8.812  12.349  66.709  1.00  0.00    -0.189 A  
BRANCH   7  10
HETATM   10  C   UNL     1      -7.636  14.529  67.268  1.00  0.00    -0.150 C  
BRANCH  10  11
HETATM   11  C   UNL     1      -8.736  15.530  67.544  1.00  0.00    -0.183 A  
HETATM   12  C   UNL     1      -8.654  16.885  67.196  1.00  0.00    -0.197 A  
HETATM   13 CL   UNL     1      -7.345  17.509  66.259  1.00  0.00    -0.329 Cl 
HETATM   14  C   UNL     1      -9.621  17.791  67.648  1.00  0.00    -0.266 A  
HETATM   15  C   UNL     1     -10.673  17.365  68.466  1.00  0.00    -0.279 A  
HETATM   16  C   UNL     1     -10.797  16.015  68.806  1.00  0.00    -0.302 A  
HETATM   17  C   UNL     1      -9.845  15.109  68.299  1.00  0.00    -0.223 A  
BRANCH  16  18
HETATM   18  C   UNL     1     -11.832  15.504  69.803  1.00  0.00    -0.359 C  
HETATM   19  O   UNL     1     -11.591  16.048  71.114  1.00  0.00    -0.401 OA 
HETATM   20  C   UNL     1     -12.584  15.645  72.074  1.00  0.00    -0.430 C  
HETATM   21  H   UNL     1     -12.127  12.443  68.573  1.00  0.00     0.000 HD 
HETATM   22  C   UNL     1     -12.599  14.124  72.237  1.00  0.00    -0.213 C  
HETATM   23  O   UNL     1     -12.133  13.393  68.550  1.00  0.00    -0.352 OA 
HETATM   24  O   UNL     1     -13.617  13.676  73.143  1.00  0.00    -0.425 OA 
HETATM   25  C   UNL     1     -12.834  13.456  70.881  1.00  0.00    -0.205 C  
HETATM   26  H   UNL     1     -12.904  11.618  70.176  1.00  0.00     0.000 HD 
HETATM   27  O   UNL     1     -12.759  12.033  71.019  1.00  0.00    -0.334 OA 
HETATM   28  H   UNL     1     -13.626  12.731  73.244  1.00  0.00     0.000 HD 
HETATM   29  C   UNL     1     -11.823  13.950  69.839  1.00  0.00    -0.328 C  
BRANCH  20  30
HETATM   30  C   UNL     1     -12.273  16.329  73.415  1.00  0.00    -0.516 C  
HETATM   31  O   UNL     1     -13.366  16.147  74.312  1.00  0.00    -0.854 OA 
HETATM   32  H   UNL     1     -13.174  16.570  75.140  1.00  0.00     0.000 HD 
ENDBRANCH  20  30
ENDBRANCH  16  18
ENDBRANCH  10  11
ENDBRANCH   7  10
ENDBRANCH   3   4
ENDBRANCH   2   3
TORSDOF 6
ENDMDL
MODEL      116
REMARK 921   NORMALIZED FREE ENERGY PREDICTED BY IDOCK:   -5.46 KCAL/MOL
REMARK 922        TOTAL FREE ENERGY PREDICTED BY IDOCK:   -8.35 KCAL/MOL
REMARK 923 INTER-LIGAND FREE ENERGY PREDICTED BY IDOCK:   -7.42 KCAL/MOL
REMARK 924 INTRA-LIGAND FREE ENERGY PREDICTED BY IDOCK:   -0.93 KCAL/MOL
REMARK 927      BINDING AFFINITY PREDICTED BY RF-SCORE:    0.00 PKD
ROOT
HETATM    1  C   UNL     1     -10.124  19.461  67.477  1.00  0.00    -0.507 C  
HETATM    2  C   UNL     1      -9.430  18.381  66.667  1.00  0.00    -0.313 C  
ENDROOT
BRANCH   2   3
HETATM    3  O   UNL     1      -9.031  17.344  67.561  1.00  0.00    -0.228 OA 
BRANCH   3   4
HETATM    4  C   UNL     1      -9.618  16.121  67.390  1.00  0.00    -0.229 A  
HETATM    5  C   UNL     1      -9.037  15.013  66.777  1.00  0.00    -0.287 A  
HETATM    6  C   UNL     1      -9.747  13.812  66.674  1.00  0.00    -0.293 A  
HETATM    7  C   UNL     1     -11.048  13.698  67.181  1.00  0.00    -0.311 A  
HETATM    8  C   UNL     1     -10.920  16.018  67.884  1.00  0.00    -0.327 A  
HETATM    9  C   UNL     1     -11.633  14.820  67.781  1.00  0.00    -0.378 A  
BRANCH   7  10
HETATM   10  C   UNL     1     -11.815  12.411  67.000  1.00  0.00    -0.368 C  
BRANCH  10  11
HETATM   11  C   UNL     1     -11.327  11.211  67.782  1.00  0.00    -0.364 A  
HETATM   12  C   UNL     1     -11.288  11.166  69.182  1.00  0.00    -0.273 A  
HETATM   13 CL   UNL     1     -11.956  12.424  70.156  1.00  0.00    -0.413 Cl 
HETATM   14  C   UNL     1     -10.651  10.103  69.836  1.00  0.00    -0.331 A  
HETATM   15  C   UNL     1     -10.031   9.083  69.108  1.00  0.00    -0.187 A  
HETATM   16  C   UNL     1     -10.079   9.087  67.711  1.00  0.00    -0.260 A  
HETATM   17  C   UNL     1     -10.769  10.135  67.070  1.00  0.00    -0.264 A  
BRANCH  16  18
HETATM   18  C   UNL     1      -9.310   8.089  66.853  1.00  0.00    -0.164 C  
HETATM   19  O   UNL     1      -9.961   6.804  66.856  1.00  0.00    -0.169 OA 
HETATM   20  C   UNL     1      -9.305   5.847  66.006  1.00  0.00    -0.097 C  
HETATM   21  H   UNL     1      -6.263   9.155  67.593  1.00  0.00     0.000 HD 
HETATM   22  C   UNL     1      -7.867   5.601  66.468  1.00  0.00    -0.101 C  
HETATM   23  O   UNL     1      -7.159   9.229  67.287  1.00  0.00    -0.081 OA 
HETATM   24  O   UNL     1      -7.159   4.695  65.609  1.00  0.00    -0.064 OA 
HETATM   25  C   UNL     1      -7.100   6.923  66.511  1.00  0.00    -0.067 C  
HETATM   26  H   UNL     1      -5.306   7.526  67.055  1.00  0.00     0.000 HD 
HETATM   27  O   UNL     1      -5.783   6.705  67.028  1.00  0.00    -0.013 OA 
HETATM   28  H   UNL     1      -6.267   4.542  65.897  1.00  0.00     0.000 HD 
HETATM   29  C   UNL     1      -7.843   7.967  67.354  1.00  0.00    -0.121 C  
BRANCH  20  30
HETATM   30  C   UNL     1     -10.112   4.539  66.031  1.00  0.00    -0.259 C  
HETATM   31  O   UNL     1     -11.359   4.731  65.366  1.00  0.00    -0.950 OA 
HETATM   32  H   UNL     1     -11.858   3.923  65.382  1.00  0.00     0.000 HD 
ENDBRANCH  20  30
ENDBRANCH  16  18
ENDBRANCH  10  11
ENDBRANCH   7  10
ENDBRANCH   3   4
ENDBRANCH   2   3
TORSDOF 6
ENDMDL
MODEL      117
REMARK 921   NORMALIZED FREE ENERGY PREDICTED BY IDOCK:   -5.46 KCAL/MOL
REMARK 922        TOTAL FREE ENERGY PREDICTED BY IDOCK:   -8.34 KCAL/MOL
REMARK 923 INTER-LIGAND FREE ENERGY PREDICTED BY IDOCK:   -7.04 KCAL/MOL
REMARK 924 INTRA-LIGAND FREE ENERGY PREDICTED BY IDOCK:   -1.30 KCAL/MOL
REMARK 927      BINDING AFFINITY PREDICTED BY RF-SCORE:    0.00 PKD
ROOT
HETATM    1  C   UNL     1     -13.241  14.703  70.941  1.00  0.00    -0.392 C  
HETATM    2  C   UNL     1     -12.525  13.366  70.894  1.00  0.00    -0.359 C  
ENDROOT
BRANCH   2   3
HETATM    3  O   UNL     1     -13.260  12.440  71.692  1.00  0.00    -0.400 OA 
BRANCH   3   4
HETATM    4  C   UNL     1     -12.947  11.117  71.549  1.00  0.00    -0.437 A  
HETATM    5  C   UNL     1     -11.923  10.599  70.759  1.00  0.00    -0.477 A  
HETATM    6  C   UNL     1     -11.702   9.219  70.707  1.00  0.00    -0.328 A  
HETATM    7  C   UNL     1     -12.500   8.333  71.443  1.00  0.00    -0.315 A  
HETATM    8  C   UNL     1     -13.755  10.237  72.273  1.00  0.00    -0.067 A  
HETATM    9  C   UNL     1     -13.538   8.857  72.222  1.00  0.00    -0.513 A  
BRANCH   7  10
HETATM   10  C   UNL     1     -12.281   6.845  71.319  1.00  0.00    -0.427 C  
BRANCH  10  11
HETATM   11  C   UNL     1     -10.850   6.377  71.166  1.00  0.00    -0.308 A  
HETATM   12  C   UNL     1      -9.918   6.386  72.212  1.00  0.00    -0.164 A  
HETATM   13 CL   UNL     1     -10.367   6.777  73.832  1.00  0.00    -0.383 Cl 
HETATM   14  C   UNL     1      -8.567   6.120  71.957  1.00  0.00    -0.132 A  
HETATM   15  C   UNL     1      -8.122   5.859  70.657  1.00  0.00    -0.118 A  
HETATM   16  C   UNL     1      -9.033   5.816  69.597  1.00  0.00    -0.135 A  
HETATM   17  C   UNL     1     -10.396   6.033  69.881  1.00  0.00    -0.288 A  
BRANCH  16  18
HETATM   18  C   UNL     1      -8.604   5.677  68.141  1.00  0.00    -0.104 C  
HETATM   19  O   UNL     1      -8.526   6.967  67.506  1.00  0.00    -0.121 OA 
HETATM   20  C   UNL     1      -8.060   6.891  66.147  1.00  0.00    -0.115 C  
HETATM   21  H   UNL     1     -10.217   2.859  67.492  1.00  0.00     0.000 HD 
HETATM   22  C   UNL     1      -9.008   6.048  65.292  1.00  0.00     0.082 C  
HETATM   23  O   UNL     1      -9.617   3.429  67.958  1.00  0.00    -0.182 OA 
HETATM   24  O   UNL     1      -8.546   5.898  63.942  1.00  0.00    -0.333 OA 
HETATM   25  C   UNL     1      -9.165   4.655  65.905  1.00  0.00    -0.144 C  
HETATM   26  H   UNL     1     -10.218   3.033  65.536  1.00  0.00     0.000 HD 
HETATM   27  O   UNL     1     -10.121   3.898  65.155  1.00  0.00    -0.187 OA 
HETATM   28  H   UNL     1      -9.135   5.375  63.411  1.00  0.00     0.000 HD 
HETATM   29  C   UNL     1      -9.584   4.743  67.378  1.00  0.00    -0.159 C  
BRANCH  20  30
HETATM   30  C   UNL     1      -7.951   8.318  65.587  1.00  0.00    -0.113 C  
HETATM   31  O   UNL     1      -8.978   8.534  64.622  1.00  0.00    -0.420 OA 
HETATM   32  H   UNL     1      -8.911   9.416  64.276  1.00  0.00     0.000 HD 
ENDBRANCH  20  30
ENDBRANCH  16  18
ENDBRANCH  10  11
ENDBRANCH   7  10
ENDBRANCH   3   4
ENDBRANCH   2   3
TORSDOF 6
ENDMDL
MODEL      118
REMARK 921   NORMALIZED FREE ENERGY PREDICTED BY IDOCK:   -5.46 KCAL/MOL
REMARK 922        TOTAL FREE ENERGY PREDICTED BY IDOCK:   -8.33 KCAL/MOL
REMARK 923 INTER-LIGAND FREE ENERGY PREDICTED BY IDOCK:   -7.05 KCAL/MOL
REMARK 924 INTRA-LIGAND FREE ENERGY PREDICTED BY IDOCK:   -1.28 KCAL/MOL
REMARK 927      BINDING AFFINITY PREDICTED BY RF-SCORE:    0.00 PKD
ROOT
HETATM    1  C   UNL     1     -14.411   8.553  71.499  1.00  0.00    -0.451 C  
HETATM    2  C   UNL     1     -13.290   8.995  72.421  1.00  0.00    -0.460 C  
ENDROOT
BRANCH   2   3
HETATM    3  O   UNL     1     -13.076  10.392  72.222  1.00  0.00    -0.397 OA 
BRANCH   3   4
HETATM    4  C   UNL     1     -12.200  10.748  71.234  1.00  0.00    -0.321 A  
HETATM    5  C   UNL     1     -12.280  11.894  70.445  1.00  0.00    -0.399 A  
HETATM    6  C   UNL     1     -11.310  12.146  69.470  1.00  0.00    -0.277 A  
HETATM    7  C   UNL     1     -10.245  11.258  69.265  1.00  0.00    -0.058 A  
HETATM    8  C   UNL     1     -11.150   9.852  71.024  1.00  0.00    -0.401 A  
HETATM    9  C   UNL     1     -10.180  10.100  70.049  1.00  0.00    -0.271 A  
BRANCH   7  10
HETATM   10  C   UNL     1      -9.248  11.522  68.163  1.00  0.00    -0.181 C  
BRANCH  10  11
HETATM   11  C   UNL     1      -8.025  12.333  68.530  1.00  0.00    -0.107 A  
HETATM   12  C   UNL     1      -6.955  11.822  69.276  1.00  0.00    -0.065 A  
HETATM   13 CL   UNL     1      -6.855  10.154  69.707  1.00  0.00    -0.088 Cl 
HETATM   14  C   UNL     1      -5.946  12.676  69.740  1.00  0.00    -0.129 A  
HETATM   15  C   UNL     1      -5.998  14.050  69.484  1.00  0.00    -0.102 A  
HETATM   16  C   UNL     1      -7.038  14.584  68.718  1.00  0.00    -0.112 A  
HETATM   17  C   UNL     1      -8.015  13.703  68.214  1.00  0.00    -0.150 A  
BRANCH  16  18
HETATM   18  C   UNL     1      -7.234  16.082  68.517  1.00  0.00    -0.138 C  
HETATM   19  O   UNL     1      -8.594  16.463  68.801  1.00  0.00    -0.227 OA 
HETATM   20  C   UNL     1      -8.809  17.881  68.688  1.00  0.00    -0.261 C  
HETATM   21  H   UNL     1      -5.218  16.426  65.912  1.00  0.00     0.000 HD 
HETATM   22  C   UNL     1      -8.516  18.366  67.267  1.00  0.00    -0.254 C  
HETATM   23  O   UNL     1      -5.460  16.179  66.797  1.00  0.00    -0.306 OA 
HETATM   24  O   UNL     1      -8.662  19.787  67.128  1.00  0.00    -0.299 OA 
HETATM   25  C   UNL     1      -7.087  17.988  66.871  1.00  0.00    -0.189 C  
HETATM   26  H   UNL     1      -5.956  18.127  65.265  1.00  0.00     0.000 HD 
HETATM   27  O   UNL     1      -6.843  18.362  65.512  1.00  0.00    -0.441 OA 
HETATM   28  H   UNL     1      -8.479  20.088  66.245  1.00  0.00     0.000 HD 
HETATM   29  C   UNL     1      -6.837  16.487  67.069  1.00  0.00    -0.213 C  
BRANCH  20  30
HETATM   30  C   UNL     1     -10.266  18.185  69.073  1.00  0.00    -0.221 C  
HETATM   31  O   UNL     1     -10.360  19.514  69.584  1.00  0.00    -0.533 OA 
HETATM   32  H   UNL     1     -11.260  19.702  69.822  1.00  0.00     0.000 HD 
ENDBRANCH  20  30
ENDBRANCH  16  18
ENDBRANCH  10  11
ENDBRANCH   7  10
ENDBRANCH   3   4
ENDBRANCH   2   3
TORSDOF 6
ENDMDL
MODEL      119
REMARK 921   NORMALIZED FREE ENERGY PREDICTED BY IDOCK:   -5.45 KCAL/MOL
REMARK 922        TOTAL FREE ENERGY PREDICTED BY IDOCK:   -8.33 KCAL/MOL
REMARK 923 INTER-LIGAND FREE ENERGY PREDICTED BY IDOCK:   -6.93 KCAL/MOL
REMARK 924 INTRA-LIGAND FREE ENERGY PREDICTED BY IDOCK:   -1.40 KCAL/MOL
REMARK 927      BINDING AFFINITY PREDICTED BY RF-SCORE:    0.00 PKD
ROOT
HETATM    1  C   UNL     1     -13.854  14.332  72.692  1.00  0.00    -0.489 C  
HETATM    2  C   UNL     1     -13.895  14.821  71.256  1.00  0.00    -0.390 C  
ENDROOT
BRANCH   2   3
HETATM    3  O   UNL     1     -12.777  15.682  71.047  1.00  0.00    -0.444 OA 
BRANCH   3   4
HETATM    4  C   UNL     1     -11.825  15.255  70.163  1.00  0.00    -0.323 A  
HETATM    5  C   UNL     1     -10.525  15.746  70.062  1.00  0.00    -0.313 A  
HETATM    6  C   UNL     1      -9.644  15.214  69.115  1.00  0.00    -0.232 A  
HETATM    7  C   UNL     1     -10.046  14.183  68.255  1.00  0.00    -0.241 A  
HETATM    8  C   UNL     1     -12.236  14.239  69.299  1.00  0.00    -0.289 A  
HETATM    9  C   UNL     1     -11.358  13.706  68.351  1.00  0.00    -0.329 A  
BRANCH   7  10
HETATM   10  C   UNL     1      -9.095  13.671  67.200  1.00  0.00    -0.241 C  
BRANCH  10  11
HETATM   11  C   UNL     1      -9.403  12.315  66.606  1.00  0.00    -0.228 A  
HETATM   12  C   UNL     1     -10.022  12.139  65.361  1.00  0.00    -0.246 A  
HETATM   13 CL   UNL     1     -10.342  13.466  64.304  1.00  0.00    -0.376 Cl 
HETATM   14  C   UNL     1     -10.448  10.867  64.957  1.00  0.00    -0.331 A  
HETATM   15  C   UNL     1     -10.280   9.758  65.792  1.00  0.00    -0.222 A  
HETATM   16  C   UNL     1      -9.641   9.898  67.027  1.00  0.00    -0.218 A  
HETATM   17  C   UNL     1      -9.171  11.174  67.394  1.00  0.00    -0.157 A  
BRANCH  16  18
HETATM   18  C   UNL     1      -9.548   8.766  68.044  1.00  0.00    -0.142 C  
HETATM   19  O   UNL     1      -9.717   9.267  69.384  1.00  0.00    -0.163 OA 
HETATM   20  C   UNL     1      -9.703   8.224  70.373  1.00  0.00    -0.168 C  
HETATM   21  H   UNL     1      -7.211   7.000  66.499  1.00  0.00     0.000 HD 
HETATM   22  C   UNL     1      -8.368   7.477  70.360  1.00  0.00    -0.128 C  
HETATM   23  O   UNL     1      -8.041   7.454  66.588  1.00  0.00    -0.117 OA 
HETATM   24  O   UNL     1      -8.335   6.388  71.294  1.00  0.00    -0.121 OA 
HETATM   25  C   UNL     1      -8.095   6.920  68.962  1.00  0.00    -0.117 C  
HETATM   26  H   UNL     1      -6.636   5.954  68.059  1.00  0.00     0.000 HD 
HETATM   27  O   UNL     1      -6.806   6.300  68.927  1.00  0.00    -0.061 OA 
HETATM   28  H   UNL     1      -7.506   5.925  71.286  1.00  0.00     0.000 HD 
HETATM   29  C   UNL     1      -8.191   8.022  67.899  1.00  0.00    -0.129 C  
BRANCH  20  30
HETATM   30  C   UNL     1      -9.956   8.855  71.752  1.00  0.00    -0.327 C  
HETATM   31  O   UNL     1      -8.736   8.904  72.488  1.00  0.00    -0.391 OA 
HETATM   32  H   UNL     1      -8.891   9.294  73.340  1.00  0.00     0.000 HD 
ENDBRANCH  20  30
ENDBRANCH  16  18
ENDBRANCH  10  11
ENDBRANCH   7  10
ENDBRANCH   3   4
ENDBRANCH   2   3
TORSDOF 6
ENDMDL
MODEL      120
REMARK 921   NORMALIZED FREE ENERGY PREDICTED BY IDOCK:   -5.45 KCAL/MOL
REMARK 922        TOTAL FREE ENERGY PREDICTED BY IDOCK:   -8.32 KCAL/MOL
REMARK 923 INTER-LIGAND FREE ENERGY PREDICTED BY IDOCK:   -7.79 KCAL/MOL
REMARK 924 INTRA-LIGAND FREE ENERGY PREDICTED BY IDOCK:   -0.53 KCAL/MOL
REMARK 927      BINDING AFFINITY PREDICTED BY RF-SCORE:    0.00 PKD
ROOT
HETATM    1  C   UNL     1      -6.695   4.787  73.450  1.00  0.00    -0.067 C  
HETATM    2  C   UNL     1      -8.142   4.663  73.009  1.00  0.00    -0.100 C  
ENDROOT
BRANCH   2   3
HETATM    3  O   UNL     1      -8.157   4.330  71.622  1.00  0.00    -0.086 OA 
BRANCH   3   4
HETATM    4  C   UNL     1      -8.834   5.178  70.790  1.00  0.00    -0.133 A  
HETATM    5  C   UNL     1     -10.118   4.977  70.287  1.00  0.00    -0.339 A  
HETATM    6  C   UNL     1     -10.702   5.932  69.448  1.00  0.00    -0.406 A  
HETATM    7  C   UNL     1     -10.014   7.102  69.098  1.00  0.00    -0.168 A  
HETATM    8  C   UNL     1      -8.138   6.335  70.432  1.00  0.00    -0.116 A  
HETATM    9  C   UNL     1      -8.719   7.290  69.593  1.00  0.00    -0.141 A  
BRANCH   7  10
HETATM   10  C   UNL     1     -10.643   8.084  68.139  1.00  0.00    -0.174 C  
BRANCH  10  11
HETATM   11  C   UNL     1     -10.797   9.508  68.627  1.00  0.00    -0.177 A  
HETATM   12  C   UNL     1     -11.426   9.848  69.832  1.00  0.00    -0.179 A  
HETATM   13 CL   UNL     1     -11.939   8.651  70.965  1.00  0.00    -0.304 Cl 
HETATM   14  C   UNL     1     -11.701  11.188  70.132  1.00  0.00    -0.439 A  
HETATM   15  C   UNL     1     -11.372  12.206  69.230  1.00  0.00    -0.327 A  
HETATM   16  C   UNL     1     -10.718  11.899  68.033  1.00  0.00    -0.242 A  
HETATM   17  C   UNL     1     -10.401  10.551  67.772  1.00  0.00    -0.248 A  
BRANCH  16  18
HETATM   18  C   UNL     1     -10.455  12.934  66.945  1.00  0.00    -0.246 C  
HETATM   19  O   UNL     1     -10.110  14.207  67.523  1.00  0.00    -0.233 OA 
HETATM   20  C   UNL     1      -9.789  15.199  66.532  1.00  0.00    -0.262 C  
HETATM   21  H   UNL     1     -12.763  11.897  64.808  1.00  0.00     0.000 HD 
HETATM   22  C   UNL     1     -10.982  15.455  65.609  1.00  0.00    -0.326 C  
HETATM   23  O   UNL     1     -12.005  11.817  65.376  1.00  0.00    -0.294 OA 
HETATM   24  O   UNL     1     -10.682  16.397  64.569  1.00  0.00    -0.826 OA 
HETATM   25  C   UNL     1     -11.430  14.145  64.959  1.00  0.00    -0.352 C  
HETATM   26  H   UNL     1     -12.879  13.556  63.763  1.00  0.00     0.000 HD 
HETATM   27  O   UNL     1     -12.600  14.370  64.167  1.00  0.00    -0.692 OA 
HETATM   28  H   UNL     1     -11.423  16.556  63.996  1.00  0.00     0.000 HD 
HETATM   29  C   UNL     1     -11.694  13.065  66.016  1.00  0.00    -0.393 C  
BRANCH  20  30
HETATM   30  C   UNL     1      -9.375  16.492  67.252  1.00  0.00    -0.222 C  
HETATM   31  O   UNL     1     -10.132  17.589  66.743  1.00  0.00    -0.295 OA 
HETATM   32  H   UNL     1      -9.876  18.388  67.188  1.00  0.00     0.000 HD 
ENDBRANCH  20  30
ENDBRANCH  16  18
ENDBRANCH  10  11
ENDBRANCH   7  10
ENDBRANCH   3   4
ENDBRANCH   2   3
TORSDOF 6
ENDMDL
MODEL      121
REMARK 921   NORMALIZED FREE ENERGY PREDICTED BY IDOCK:   -5.44 KCAL/MOL
REMARK 922        TOTAL FREE ENERGY PREDICTED BY IDOCK:   -8.32 KCAL/MOL
REMARK 923 INTER-LIGAND FREE ENERGY PREDICTED BY IDOCK:   -7.65 KCAL/MOL
REMARK 924 INTRA-LIGAND FREE ENERGY PREDICTED BY IDOCK:   -0.67 KCAL/MOL
REMARK 927      BINDING AFFINITY PREDICTED BY RF-SCORE:    0.00 PKD
ROOT
HETATM    1  C   UNL     1      -7.753  20.451  67.401  1.00  0.00    -0.364 C  
HETATM    2  C   UNL     1      -7.669  19.401  68.493  1.00  0.00    -0.345 C  
ENDROOT
BRANCH   2   3
HETATM    3  O   UNL     1      -7.527  18.124  67.872  1.00  0.00    -0.219 OA 
BRANCH   3   4
HETATM    4  C   UNL     1      -8.646  17.341  67.808  1.00  0.00    -0.225 A  
HETATM    5  C   UNL     1      -9.789  17.482  68.593  1.00  0.00    -0.338 A  
HETATM    6  C   UNL     1     -10.872  16.614  68.420  1.00  0.00    -0.361 A  
HETATM    7  C   UNL     1     -10.833  15.593  67.462  1.00  0.00    -0.316 A  
HETATM    8  C   UNL     1      -8.595  16.315  66.862  1.00  0.00    -0.247 A  
HETATM    9  C   UNL     1      -9.676  15.446  66.689  1.00  0.00    -0.269 A  
BRANCH   7  10
HETATM   10  C   UNL     1     -11.990  14.631  67.341  1.00  0.00    -0.309 C  
BRANCH  10  11
HETATM   11  C   UNL     1     -11.724  13.193  67.728  1.00  0.00    -0.401 A  
HETATM   12  C   UNL     1     -11.683  12.744  69.054  1.00  0.00    -0.323 A  
HETATM   13 CL   UNL     1     -12.103  13.769  70.379  1.00  0.00    -0.412 Cl 
HETATM   14  C   UNL     1     -11.247  11.446  69.348  1.00  0.00    -0.333 A  
HETATM   15  C   UNL     1     -10.829  10.584  68.329  1.00  0.00    -0.293 A  
HETATM   16  C   UNL     1     -10.886  10.994  66.994  1.00  0.00    -0.334 A  
HETATM   17  C   UNL     1     -11.378  12.284  66.713  1.00  0.00    -0.395 A  
BRANCH  16  18
HETATM   18  C   UNL     1     -10.319  10.164  65.848  1.00  0.00    -0.151 C  
HETATM   19  O   UNL     1      -9.102   9.504  66.248  1.00  0.00    -0.149 OA 
HETATM   20  C   UNL     1      -8.566   8.655  65.218  1.00  0.00    -0.180 C  
HETATM   21  H   UNL     1     -11.150  12.217  63.386  1.00  0.00     0.000 HD 
HETATM   22  C   UNL     1      -8.223   9.466  63.966  1.00  0.00    -0.163 C  
HETATM   23  O   UNL     1     -11.298  11.669  64.148  1.00  0.00    -0.352 OA 
HETATM   24  O   UNL     1      -7.740   8.646  62.893  1.00  0.00    -0.112 OA 
HETATM   25  C   UNL     1      -9.462  10.219  63.477  1.00  0.00    -0.298 C  
HETATM   26  H   UNL     1      -9.888  11.514  62.056  1.00  0.00     0.000 HD 
HETATM   27  O   UNL     1      -9.119  11.046  62.360  1.00  0.00    -0.313 OA 
HETATM   28  H   UNL     1      -7.527   9.149  62.116  1.00  0.00     0.000 HD 
HETATM   29  C   UNL     1     -10.077  11.061  64.601  1.00  0.00    -0.311 C  
BRANCH  20  30
HETATM   30  C   UNL     1      -7.314   7.953  65.767  1.00  0.00    -0.076 C  
HETATM   31  O   UNL     1      -7.039   6.787  64.993  1.00  0.00    -0.059 OA 
HETATM   32  H   UNL     1      -6.265   6.353  65.333  1.00  0.00     0.000 HD 
ENDBRANCH  20  30
ENDBRANCH  16  18
ENDBRANCH  10  11
ENDBRANCH   7  10
ENDBRANCH   3   4
ENDBRANCH   2   3
TORSDOF 6
ENDMDL
MODEL      122
REMARK 921   NORMALIZED FREE ENERGY PREDICTED BY IDOCK:   -5.43 KCAL/MOL
REMARK 922        TOTAL FREE ENERGY PREDICTED BY IDOCK:   -8.30 KCAL/MOL
REMARK 923 INTER-LIGAND FREE ENERGY PREDICTED BY IDOCK:   -7.21 KCAL/MOL
REMARK 924 INTRA-LIGAND FREE ENERGY PREDICTED BY IDOCK:   -1.09 KCAL/MOL
REMARK 927      BINDING AFFINITY PREDICTED BY RF-SCORE:    0.00 PKD
ROOT
HETATM    1  C   UNL     1     -10.101  19.789  67.429  1.00  0.00    -0.555 C  
HETATM    2  C   UNL     1     -10.600  18.419  67.009  1.00  0.00    -0.366 C  
ENDROOT
BRANCH   2   3
HETATM    3  O   UNL     1      -9.667  17.444  67.473  1.00  0.00    -0.256 OA 
BRANCH   3   4
HETATM    4  C   UNL     1     -10.149  16.185  67.699  1.00  0.00    -0.248 A  
HETATM    5  C   UNL     1      -9.986  15.444  68.867  1.00  0.00    -0.219 A  
HETATM    6  C   UNL     1     -10.540  14.164  68.973  1.00  0.00    -0.227 A  
HETATM    7  C   UNL     1     -11.266  13.603  67.913  1.00  0.00    -0.300 A  
HETATM    8  C   UNL     1     -10.859  15.625  66.635  1.00  0.00    -0.266 A  
HETATM    9  C   UNL     1     -11.413  14.346  66.736  1.00  0.00    -0.381 A  
BRANCH   7  10
HETATM   10  C   UNL     1     -11.798  12.196  68.030  1.00  0.00    -0.351 C  
BRANCH  10  11
HETATM   11  C   UNL     1     -10.787  11.107  68.313  1.00  0.00    -0.258 A  
HETATM   12  C   UNL     1      -9.959  10.546  67.332  1.00  0.00    -0.179 A  
HETATM   13 CL   UNL     1      -9.897  11.171  65.724  1.00  0.00    -0.264 Cl 
HETATM   14  C   UNL     1      -9.184   9.416  67.622  1.00  0.00    -0.142 A  
HETATM   15  C   UNL     1      -9.235   8.819  68.886  1.00  0.00    -0.141 A  
HETATM   16  C   UNL     1     -10.030   9.373  69.894  1.00  0.00    -0.237 A  
HETATM   17  C   UNL     1     -10.762  10.540  69.600  1.00  0.00    -0.302 A  
BRANCH  16  18
HETATM   18  C   UNL     1     -10.243   8.699  71.245  1.00  0.00    -0.239 C  
HETATM   19  O   UNL     1      -9.030   8.718  72.022  1.00  0.00    -0.304 OA 
HETATM   20  C   UNL     1      -9.201   8.151  73.333  1.00  0.00    -0.221 C  
HETATM   21  H   UNL     1     -12.307   6.324  70.212  1.00  0.00     0.000 HD 
HETATM   22  C   UNL     1      -9.629   6.685  73.241  1.00  0.00    -0.157 C  
HETATM   23  O   UNL     1     -11.997   7.214  70.334  1.00  0.00    -0.244 OA 
HETATM   24  O   UNL     1      -9.868   6.098  74.529  1.00  0.00    -0.240 OA 
HETATM   25  C   UNL     1     -10.910   6.566  72.413  1.00  0.00    -0.233 C  
HETATM   26  H   UNL     1     -12.055   5.113  71.738  1.00  0.00     0.000 HD 
HETATM   27  O   UNL     1     -11.260   5.187  72.252  1.00  0.00    -0.167 OA 
HETATM   28  H   UNL     1     -10.134   5.188  74.472  1.00  0.00     0.000 HD 
HETATM   29  C   UNL     1     -10.749   7.243  71.046  1.00  0.00    -0.231 C  
BRANCH  20  30
HETATM   30  C   UNL     1      -7.874   8.280  74.097  1.00  0.00    -0.218 C  
HETATM   31  O   UNL     1      -7.010   9.182  73.410  1.00  0.00    -0.262 OA 
HETATM   32  H   UNL     1      -6.189   9.262  73.882  1.00  0.00     0.000 HD 
ENDBRANCH  20  30
ENDBRANCH  16  18
ENDBRANCH  10  11
ENDBRANCH   7  10
ENDBRANCH   3   4
ENDBRANCH   2   3
TORSDOF 6
ENDMDL
MODEL      123
REMARK 921   NORMALIZED FREE ENERGY PREDICTED BY IDOCK:   -5.41 KCAL/MOL
REMARK 922        TOTAL FREE ENERGY PREDICTED BY IDOCK:   -8.27 KCAL/MOL
REMARK 923 INTER-LIGAND FREE ENERGY PREDICTED BY IDOCK:   -7.17 KCAL/MOL
REMARK 924 INTRA-LIGAND FREE ENERGY PREDICTED BY IDOCK:   -1.09 KCAL/MOL
REMARK 927      BINDING AFFINITY PREDICTED BY RF-SCORE:    0.00 PKD
ROOT
HETATM    1  C   UNL     1      -7.022   8.870  63.335  1.00  0.00    -0.089 C  
HETATM    2  C   UNL     1      -6.916   8.054  64.609  1.00  0.00    -0.071 C  
ENDROOT
BRANCH   2   3
HETATM    3  O   UNL     1      -6.654   8.948  65.689  1.00  0.00    -0.063 OA 
BRANCH   3   4
HETATM    4  C   UNL     1      -7.323   8.717  66.859  1.00  0.00    -0.079 A  
HETATM    5  C   UNL     1      -8.401   7.850  67.027  1.00  0.00    -0.117 A  
HETATM    6  C   UNL     1      -8.992   7.697  68.286  1.00  0.00    -0.127 A  
HETATM    7  C   UNL     1      -8.517   8.407  69.396  1.00  0.00    -0.125 A  
HETATM    8  C   UNL     1      -6.855   9.438  67.959  1.00  0.00    -0.074 A  
HETATM    9  C   UNL     1      -7.445   9.289  69.218  1.00  0.00    -0.075 A  
BRANCH   7  10
HETATM   10  C   UNL     1      -9.214   8.272  70.728  1.00  0.00    -0.174 C  
BRANCH  10  11
HETATM   11  C   UNL     1     -10.410   9.168  70.965  1.00  0.00    -0.363 A  
HETATM   12  C   UNL     1     -11.395   8.905  71.926  1.00  0.00    -0.376 A  
HETATM   13 CL   UNL     1     -11.244   7.609  73.057  1.00  0.00    -0.432 Cl 
HETATM   14  C   UNL     1     -12.567   9.670  71.965  1.00  0.00    -0.443 A  
HETATM   15  C   UNL     1     -12.785  10.694  71.037  1.00  0.00    -0.512 A  
HETATM   16  C   UNL     1     -11.807  10.998  70.084  1.00  0.00    -0.441 A  
HETATM   17  C   UNL     1     -10.611  10.254  70.094  1.00  0.00    -0.303 A  
BRANCH  16  18
HETATM   18  C   UNL     1     -12.033  12.002  68.959  1.00  0.00    -0.264 C  
HETATM   19  O   UNL     1     -11.323  11.605  67.770  1.00  0.00    -0.248 OA 
HETATM   20  C   UNL     1     -11.560  12.489  66.660  1.00  0.00    -0.380 C  
HETATM   21  H   UNL     1     -12.086  14.731  70.833  1.00  0.00     0.000 HD 
HETATM   22  C   UNL     1     -11.092  13.909  66.985  1.00  0.00    -0.301 C  
HETATM   23  O   UNL     1     -12.351  13.862  70.556  1.00  0.00    -0.330 OA 
HETATM   24  O   UNL     1     -11.366  14.836  65.924  1.00  0.00    -0.339 OA 
HETATM   25  C   UNL     1     -11.787  14.410  68.253  1.00  0.00    -0.326 C  
HETATM   26  H   UNL     1     -11.714  16.014  69.393  1.00  0.00     0.000 HD 
HETATM   27  O   UNL     1     -11.283  15.702  68.606  1.00  0.00    -0.296 OA 
HETATM   28  H   UNL     1     -11.075  15.718  66.126  1.00  0.00     0.000 HD 
HETATM   29  C   UNL     1     -11.599  13.424  69.412  1.00  0.00    -0.307 C  
BRANCH  20  30
HETATM   30  C   UNL     1     -10.815  11.942  65.433  1.00  0.00    -0.294 C  
HETATM   31  O   UNL     1     -10.494  10.567  65.638  1.00  0.00    -0.227 OA 
HETATM   32  H   UNL     1     -10.034  10.229  64.880  1.00  0.00     0.000 HD 
ENDBRANCH  20  30
ENDBRANCH  16  18
ENDBRANCH  10  11
ENDBRANCH   7  10
ENDBRANCH   3   4
ENDBRANCH   2   3
TORSDOF 6
ENDMDL
MODEL      124
REMARK 921   NORMALIZED FREE ENERGY PREDICTED BY IDOCK:   -5.40 KCAL/MOL
REMARK 922        TOTAL FREE ENERGY PREDICTED BY IDOCK:   -8.26 KCAL/MOL
REMARK 923 INTER-LIGAND FREE ENERGY PREDICTED BY IDOCK:   -7.67 KCAL/MOL
REMARK 924 INTRA-LIGAND FREE ENERGY PREDICTED BY IDOCK:   -0.59 KCAL/MOL
REMARK 927      BINDING AFFINITY PREDICTED BY RF-SCORE:    0.00 PKD
ROOT
HETATM    1  C   UNL     1     -13.391   9.527  72.150  1.00  0.00    -0.545 C  
HETATM    2  C   UNL     1     -12.803  10.683  71.362  1.00  0.00    -0.451 C  
ENDROOT
BRANCH   2   3
HETATM    3  O   UNL     1     -13.399  11.891  71.832  1.00  0.00    -0.454 OA 
BRANCH   3   4
HETATM    4  C   UNL     1     -12.802  13.062  71.455  1.00  0.00    -0.290 A  
HETATM    5  C   UNL     1     -12.718  14.221  72.224  1.00  0.00    -0.382 A  
HETATM    6  C   UNL     1     -12.070  15.354  71.721  1.00  0.00    -0.461 A  
HETATM    7  C   UNL     1     -11.495  15.348  70.443  1.00  0.00    -0.355 A  
HETATM    8  C   UNL     1     -12.245  13.055  70.176  1.00  0.00    -0.342 A  
HETATM    9  C   UNL     1     -11.598  14.186  69.669  1.00  0.00    -0.349 A  
BRANCH   7  10
HETATM   10  C   UNL     1     -10.858  16.604  69.900  1.00  0.00    -0.206 C  
BRANCH  10  11
HETATM   11  C   UNL     1      -9.885  16.433  68.755  1.00  0.00    -0.250 A  
HETATM   12  C   UNL     1      -9.468  17.488  67.932  1.00  0.00    -0.277 A  
HETATM   13 CL   UNL     1      -9.901  19.127  68.257  1.00  0.00    -0.426 Cl 
HETATM   14  C   UNL     1      -8.716  17.229  66.779  1.00  0.00    -0.275 A  
HETATM   15  C   UNL     1      -8.385  15.918  66.419  1.00  0.00    -0.310 A  
HETATM   16  C   UNL     1      -8.763  14.849  67.236  1.00  0.00    -0.224 A  
HETATM   17  C   UNL     1      -9.472  15.132  68.420  1.00  0.00    -0.208 A  
BRANCH  16  18
HETATM   18  C   UNL     1      -8.559  13.391  66.839  1.00  0.00    -0.100 C  
HETATM   19  O   UNL     1      -9.766  12.632  67.042  1.00  0.00    -0.215 OA 
HETATM   20  C   UNL     1      -9.640  11.264  66.617  1.00  0.00    -0.195 C  
HETATM   21  H   UNL     1      -5.428  13.103  67.878  1.00  0.00     0.000 HD 
HETATM   22  C   UNL     1      -8.544  10.546  67.407  1.00  0.00    -0.122 C  
HETATM   23  O   UNL     1      -6.150  13.480  67.389  1.00  0.00    -0.330 OA 
HETATM   24  O   UNL     1      -8.346   9.193  66.972  1.00  0.00    -0.118 OA 
HETATM   25  C   UNL     1      -7.219  11.297  67.262  1.00  0.00    -0.114 C  
HETATM   26  H   UNL     1      -5.393  11.143  67.982  1.00  0.00     0.000 HD 
HETATM   27  O   UNL     1      -6.216  10.676  68.072  1.00  0.00    -0.053 OA 
HETATM   28  H   UNL     1      -7.666   8.747  67.463  1.00  0.00     0.000 HD 
HETATM   29  C   UNL     1      -7.377  12.775  67.639  1.00  0.00    -0.144 C  
BRANCH  20  30
HETATM   30  C   UNL     1     -10.995  10.565  66.815  1.00  0.00    -0.080 C  
HETATM   31  O   UNL     1     -11.089  10.070  68.149  1.00  0.00    -0.393 OA 
HETATM   32  H   UNL     1     -11.926   9.637  68.272  1.00  0.00     0.000 HD 
ENDBRANCH  20  30
ENDBRANCH  16  18
ENDBRANCH  10  11
ENDBRANCH   7  10
ENDBRANCH   3   4
ENDBRANCH   2   3
TORSDOF 6
ENDMDL
MODEL      125
REMARK 921   NORMALIZED FREE ENERGY PREDICTED BY IDOCK:   -5.40 KCAL/MOL
REMARK 922        TOTAL FREE ENERGY PREDICTED BY IDOCK:   -8.26 KCAL/MOL
REMARK 923 INTER-LIGAND FREE ENERGY PREDICTED BY IDOCK:   -6.89 KCAL/MOL
REMARK 924 INTRA-LIGAND FREE ENERGY PREDICTED BY IDOCK:   -1.37 KCAL/MOL
REMARK 927      BINDING AFFINITY PREDICTED BY RF-SCORE:    0.00 PKD
ROOT
HETATM    1  C   UNL     1     -10.785  18.757  67.558  1.00  0.00    -0.474 C  
HETATM    2  C   UNL     1     -10.679  17.251  67.706  1.00  0.00    -0.333 C  
ENDROOT
BRANCH   2   3
HETATM    3  O   UNL     1      -9.420  16.949  68.304  1.00  0.00    -0.236 OA 
BRANCH   3   4
HETATM    4  C   UNL     1      -8.942  15.680  68.133  1.00  0.00    -0.179 A  
HETATM    5  C   UNL     1      -9.296  14.805  67.108  1.00  0.00    -0.233 A  
HETATM    6  C   UNL     1      -8.724  13.530  67.043  1.00  0.00    -0.197 A  
HETATM    7  C   UNL     1      -7.792  13.108  68.000  1.00  0.00    -0.147 A  
HETATM    8  C   UNL     1      -8.025  15.259  69.098  1.00  0.00    -0.214 A  
HETATM    9  C   UNL     1      -7.454  13.985  69.037  1.00  0.00    -0.060 A  
BRANCH   7  10
HETATM   10  C   UNL     1      -7.240  11.704  67.943  1.00  0.00    -0.083 C  
BRANCH  10  11
HETATM   11  C   UNL     1      -8.220  10.599  67.616  1.00  0.00    -0.107 A  
HETATM   12  C   UNL     1      -8.324  10.006  66.351  1.00  0.00    -0.126 A  
HETATM   13 CL   UNL     1      -7.215  10.370  65.079  1.00  0.00    -0.104 Cl 
HETATM   14  C   UNL     1      -9.376   9.126  66.067  1.00  0.00    -0.300 A  
HETATM   15  C   UNL     1     -10.347   8.837  67.030  1.00  0.00    -0.353 A  
HETATM   16  C   UNL     1     -10.254   9.391  68.311  1.00  0.00    -0.229 A  
HETATM   17  C   UNL     1      -9.160  10.232  68.595  1.00  0.00    -0.152 A  
BRANCH  16  18
HETATM   18  C   UNL     1     -11.346   9.233  69.362  1.00  0.00     0.157 C  
HETATM   19  O   UNL     1     -11.489  10.439  70.137  1.00  0.00    -0.271 OA 
HETATM   20  C   UNL     1     -12.555  10.359  71.099  1.00  0.00    -0.410 C  
HETATM   21  H   UNL     1     -10.773   6.054  70.093  1.00  0.00     0.000 HD 
HETATM   22  C   UNL     1     -12.300   9.232  72.103  1.00  0.00    -0.328 C  
HETATM   23  O   UNL     1     -10.963   6.796  69.530  1.00  0.00    -0.251 OA 
HETATM   24  O   UNL     1     -13.371   9.081  73.046  1.00  0.00    -0.847 OA 
HETATM   25  C   UNL     1     -12.118   7.906  71.363  1.00  0.00    -0.307 C  
HETATM   26  H   UNL     1     -11.679   6.045  71.835  1.00  0.00     0.000 HD 
HETATM   27  O   UNL     1     -11.792   6.869  72.294  1.00  0.00    -0.279 OA 
HETATM   28  H   UNL     1     -13.213   8.381  73.669  1.00  0.00     0.000 HD 
HETATM   29  C   UNL     1     -11.036   8.019  70.282  1.00  0.00    -0.242 C  
BRANCH  20  30
HETATM   30  C   UNL     1     -12.663  11.711  71.821  1.00  0.00    -0.217 C  
HETATM   31  O   UNL     1     -13.904  11.784  72.522  1.00  0.00    -0.367 OA 
HETATM   32  H   UNL     1     -13.971  12.619  72.968  1.00  0.00     0.000 HD 
ENDBRANCH  20  30
ENDBRANCH  16  18
ENDBRANCH  10  11
ENDBRANCH   7  10
ENDBRANCH   3   4
ENDBRANCH   2   3
TORSDOF 6
ENDMDL
MODEL      126
REMARK 921   NORMALIZED FREE ENERGY PREDICTED BY IDOCK:   -5.40 KCAL/MOL
REMARK 922        TOTAL FREE ENERGY PREDICTED BY IDOCK:   -8.25 KCAL/MOL
REMARK 923 INTER-LIGAND FREE ENERGY PREDICTED BY IDOCK:   -6.79 KCAL/MOL
REMARK 924 INTRA-LIGAND FREE ENERGY PREDICTED BY IDOCK:   -1.47 KCAL/MOL
REMARK 927      BINDING AFFINITY PREDICTED BY RF-SCORE:    0.00 PKD
ROOT
HETATM    1  C   UNL     1     -11.965  11.914  63.260  1.00  0.00    -0.441 C  
HETATM    2  C   UNL     1     -13.067  12.412  64.178  1.00  0.00    -0.021 C  
ENDROOT
BRANCH   2   3
HETATM    3  O   UNL     1     -12.900  13.818  64.349  1.00  0.00    -0.635 OA 
BRANCH   3   4
HETATM    4  C   UNL     1     -11.942  14.223  65.236  1.00  0.00    -0.389 A  
HETATM    5  C   UNL     1     -10.732  14.833  64.911  1.00  0.00    -0.438 A  
HETATM    6  C   UNL     1      -9.839  15.208  65.921  1.00  0.00    -0.372 A  
HETATM    7  C   UNL     1     -10.139  14.980  67.270  1.00  0.00    -0.235 A  
HETATM    8  C   UNL     1     -12.240  13.980  66.578  1.00  0.00    -0.485 A  
HETATM    9  C   UNL     1     -11.349  14.352  67.589  1.00  0.00    -0.348 A  
BRANCH   7  10
HETATM   10  C   UNL     1      -9.130  15.336  68.334  1.00  0.00    -0.189 C  
BRANCH  10  11
HETATM   11  C   UNL     1      -8.168  14.246  68.752  1.00  0.00    -0.102 A  
HETATM   12  C   UNL     1      -6.914  14.499  69.324  1.00  0.00    -0.141 A  
HETATM   13 CL   UNL     1      -6.415  16.092  69.763  1.00  0.00    -0.190 Cl 
HETATM   14  C   UNL     1      -5.999  13.455  69.512  1.00  0.00    -0.105 A  
HETATM   15  C   UNL     1      -6.312  12.150  69.118  1.00  0.00    -0.094 A  
HETATM   16  C   UNL     1      -7.566  11.862  68.572  1.00  0.00    -0.127 A  
HETATM   17  C   UNL     1      -8.493  12.914  68.439  1.00  0.00    -0.115 A  
BRANCH  16  18
HETATM   18  C   UNL     1      -7.924  10.497  67.994  1.00  0.00    -0.106 C  
HETATM   19  O   UNL     1      -8.276  10.607  66.602  1.00  0.00    -0.125 OA 
HETATM   20  C   UNL     1      -8.557   9.333  65.997  1.00  0.00    -0.144 C  
HETATM   21  H   UNL     1      -9.425   9.281  70.684  1.00  0.00     0.000 HD 
HETATM   22  C   UNL     1      -9.741   8.652  66.687  1.00  0.00    -0.247 C  
HETATM   23  O   UNL     1      -8.717   9.673  70.186  1.00  0.00    -0.211 OA 
HETATM   24  O   UNL     1     -10.017   7.349  66.151  1.00  0.00    -0.451 OA 
HETATM   25  C   UNL     1      -9.461   8.507  68.183  1.00  0.00    -0.141 C  
HETATM   26  H   UNL     1     -10.430   7.862  69.771  1.00  0.00     0.000 HD 
HETATM   27  O   UNL     1     -10.604   7.952  68.842  1.00  0.00    -0.211 OA 
HETATM   28  H   UNL     1     -10.752   6.927  66.579  1.00  0.00     0.000 HD 
HETATM   29  C   UNL     1      -9.082   9.855  68.808  1.00  0.00    -0.147 C  
BRANCH  20  30
HETATM   30  C   UNL     1      -8.855   9.555  64.506  1.00  0.00    -0.213 C  
HETATM   31  O   UNL     1      -8.513   8.384  63.768  1.00  0.00    -0.364 OA 
HETATM   32  H   UNL     1      -8.696   8.521  62.846  1.00  0.00     0.000 HD 
ENDBRANCH  20  30
ENDBRANCH  16  18
ENDBRANCH  10  11
ENDBRANCH   7  10
ENDBRANCH   3   4
ENDBRANCH   2   3
TORSDOF 6
ENDMDL
MODEL      127
REMARK 921   NORMALIZED FREE ENERGY PREDICTED BY IDOCK:   -5.38 KCAL/MOL
REMARK 922        TOTAL FREE ENERGY PREDICTED BY IDOCK:   -8.23 KCAL/MOL
REMARK 923 INTER-LIGAND FREE ENERGY PREDICTED BY IDOCK:   -7.44 KCAL/MOL
REMARK 924 INTRA-LIGAND FREE ENERGY PREDICTED BY IDOCK:   -0.79 KCAL/MOL
REMARK 927      BINDING AFFINITY PREDICTED BY RF-SCORE:    0.00 PKD
ROOT
HETATM    1  C   UNL     1      -6.389   7.853  62.331  1.00  0.00    -0.081 C  
HETATM    2  C   UNL     1      -5.553   8.725  63.249  1.00  0.00    -0.072 C  
ENDROOT
BRANCH   2   3
HETATM    3  O   UNL     1      -6.428   9.628  63.923  1.00  0.00    -0.100 OA 
BRANCH   3   4
HETATM    4  C   UNL     1      -7.265   9.092  64.863  1.00  0.00    -0.095 A  
HETATM    5  C   UNL     1      -6.911   8.156  65.833  1.00  0.00    -0.060 A  
HETATM    6  C   UNL     1      -7.866   7.693  66.745  1.00  0.00    -0.107 A  
HETATM    7  C   UNL     1      -9.188   8.155  66.701  1.00  0.00    -0.225 A  
HETATM    8  C   UNL     1      -8.584   9.544  64.805  1.00  0.00    -0.196 A  
HETATM    9  C   UNL     1      -9.541   9.082  65.714  1.00  0.00    -0.287 A  
BRANCH   7  10
HETATM   10  C   UNL     1     -10.213   7.590  67.655  1.00  0.00    -0.275 C  
BRANCH  10  11
HETATM   11  C   UNL     1     -10.350   8.281  68.994  1.00  0.00    -0.233 A  
HETATM   12  C   UNL     1     -10.067   7.658  70.217  1.00  0.00    -0.198 A  
HETATM   13 CL   UNL     1      -9.368   6.082  70.300  1.00  0.00    -0.168 Cl 
HETATM   14  C   UNL     1     -10.395   8.290  71.424  1.00  0.00    -0.270 A  
HETATM   15  C   UNL     1     -11.023   9.539  71.430  1.00  0.00    -0.415 A  
HETATM   16  C   UNL     1     -11.292  10.197  70.226  1.00  0.00    -0.387 A  
HETATM   17  C   UNL     1     -10.907   9.571  69.024  1.00  0.00    -0.184 A  
BRANCH  16  18
HETATM   18  C   UNL     1     -12.095  11.490  70.151  1.00  0.00    -0.351 C  
HETATM   19  O   UNL     1     -11.325  12.536  69.529  1.00  0.00    -0.241 OA 
HETATM   20  C   UNL     1     -12.067  13.758  69.377  1.00  0.00    -0.328 C  
HETATM   21  H   UNL     1     -13.679  11.172  73.041  1.00  0.00     0.000 HD 
HETATM   22  C   UNL     1     -12.509  14.301  70.738  1.00  0.00    -0.358 C  
HETATM   23  O   UNL     1     -13.394  10.911  72.174  1.00  0.00    -0.443 OA 
HETATM   24  O   UNL     1     -13.305  15.490  70.625  1.00  0.00    -0.718 OA 
HETATM   25  C   UNL     1     -13.327  13.243  71.481  1.00  0.00    -0.249 C  
HETATM   26  H   UNL     1     -14.171  13.061  73.250  1.00  0.00     0.000 HD 
HETATM   27  O   UNL     1     -13.664  13.718  72.788  1.00  0.00    -0.699 OA 
HETATM   28  H   UNL     1     -13.579  15.827  71.470  1.00  0.00     0.000 HD 
HETATM   29  C   UNL     1     -12.563  11.917  71.571  1.00  0.00    -0.193 C  
BRANCH  20  30
HETATM   30  C   UNL     1     -11.180  14.781  68.649  1.00  0.00    -0.273 C  
HETATM   31  O   UNL     1     -10.746  15.781  69.569  1.00  0.00    -0.233 OA 
HETATM   32  H   UNL     1     -10.198  16.413  69.120  1.00  0.00     0.000 HD 
ENDBRANCH  20  30
ENDBRANCH  16  18
ENDBRANCH  10  11
ENDBRANCH   7  10
ENDBRANCH   3   4
ENDBRANCH   2   3
TORSDOF 6
ENDMDL
MODEL      128
REMARK 921   NORMALIZED FREE ENERGY PREDICTED BY IDOCK:   -5.37 KCAL/MOL
REMARK 922        TOTAL FREE ENERGY PREDICTED BY IDOCK:   -8.22 KCAL/MOL
REMARK 923 INTER-LIGAND FREE ENERGY PREDICTED BY IDOCK:   -7.11 KCAL/MOL
REMARK 924 INTRA-LIGAND FREE ENERGY PREDICTED BY IDOCK:   -1.11 KCAL/MOL
REMARK 927      BINDING AFFINITY PREDICTED BY RF-SCORE:    0.00 PKD
ROOT
HETATM    1  C   UNL     1      -7.829   3.800  69.099  1.00  0.00    -0.052 C  
HETATM    2  C   UNL     1      -9.259   4.270  68.908  1.00  0.00    -0.145 C  
ENDROOT
BRANCH   2   3
HETATM    3  O   UNL     1      -9.473   4.489  67.514  1.00  0.00    -0.141 OA 
BRANCH   3   4
HETATM    4  C   UNL     1      -9.612   5.786  67.107  1.00  0.00    -0.127 A  
HETATM    5  C   UNL     1     -10.634   6.656  67.483  1.00  0.00    -0.347 A  
HETATM    6  C   UNL     1     -10.656   7.968  66.999  1.00  0.00    -0.364 A  
HETATM    7  C   UNL     1      -9.658   8.433  66.131  1.00  0.00    -0.246 A  
HETATM    8  C   UNL     1      -8.624   6.240  66.231  1.00  0.00    -0.138 A  
HETATM    9  C   UNL     1      -8.644   7.550  65.744  1.00  0.00    -0.158 A  
BRANCH   7  10
HETATM   10  C   UNL     1      -9.741   9.833  65.573  1.00  0.00    -0.382 C  
BRANCH  10  11
HETATM   11  C   UNL     1      -9.509  10.969  66.546  1.00  0.00    -0.211 A  
HETATM   12  C   UNL     1      -8.241  11.484  66.843  1.00  0.00    -0.167 A  
HETATM   13 CL   UNL     1      -6.827  10.978  65.993  1.00  0.00    -0.070 Cl 
HETATM   14  C   UNL     1      -8.079  12.403  67.888  1.00  0.00    -0.161 A  
HETATM   15  C   UNL     1      -9.172  12.807  68.661  1.00  0.00     0.036 A  
HETATM   16  C   UNL     1     -10.454  12.331  68.370  1.00  0.00    -0.244 A  
HETATM   17  C   UNL     1     -10.606  11.449  67.282  1.00  0.00    -0.264 A  
BRANCH  16  18
HETATM   18  C   UNL     1     -11.664  12.618  69.252  1.00  0.00    -0.322 C  
HETATM   19  O   UNL     1     -11.543  13.907  69.883  1.00  0.00    -0.269 OA 
HETATM   20  C   UNL     1     -12.694  14.248  70.675  1.00  0.00    -0.343 C  
HETATM   21  H   UNL     1     -12.130   9.527  70.345  1.00  0.00     0.000 HD 
HETATM   22  C   UNL     1     -12.900  13.235  71.803  1.00  0.00    -0.269 C  
HETATM   23  O   UNL     1     -12.027  10.212  69.696  1.00  0.00    -0.124 OA 
HETATM   24  O   UNL     1     -14.075  13.507  72.581  1.00  0.00    -0.762 OA 
HETATM   25  C   UNL     1     -13.024  11.825  71.222  1.00  0.00    -0.254 C  
HETATM   26  H   UNL     1     -13.203   9.993  71.922  1.00  0.00     0.000 HD 
HETATM   27  O   UNL     1     -13.127  10.869  72.283  1.00  0.00    -0.376 OA 
HETATM   28  H   UNL     1     -14.203  12.878  73.282  1.00  0.00     0.000 HD 
HETATM   29  C   UNL     1     -11.833  11.495  70.314  1.00  0.00    -0.342 C  
BRANCH  20  30
HETATM   30  C   UNL     1     -12.492  15.660  71.247  1.00  0.00    -0.444 C  
HETATM   31  O   UNL     1     -11.742  15.585  72.458  1.00  0.00    -0.420 OA 
HETATM   32  H   UNL     1     -11.617  16.457  72.811  1.00  0.00     0.000 HD 
ENDBRANCH  20  30
ENDBRANCH  16  18
ENDBRANCH  10  11
ENDBRANCH   7  10
ENDBRANCH   3   4
ENDBRANCH   2   3
TORSDOF 6
ENDMDL
MODEL      129
REMARK 921   NORMALIZED FREE ENERGY PREDICTED BY IDOCK:   -5.36 KCAL/MOL
REMARK 922        TOTAL FREE ENERGY PREDICTED BY IDOCK:   -8.21 KCAL/MOL
REMARK 923 INTER-LIGAND FREE ENERGY PREDICTED BY IDOCK:   -6.93 KCAL/MOL
REMARK 924 INTRA-LIGAND FREE ENERGY PREDICTED BY IDOCK:   -1.28 KCAL/MOL
REMARK 927      BINDING AFFINITY PREDICTED BY RF-SCORE:    0.00 PKD
ROOT
HETATM    1  C   UNL     1     -11.901  13.832  69.348  1.00  0.00    -0.392 C  
HETATM    2  C   UNL     1     -11.487  12.805  68.310  1.00  0.00    -0.314 C  
ENDROOT
BRANCH   2   3
HETATM    3  O   UNL     1     -12.228  11.609  68.548  1.00  0.00    -0.485 OA 
BRANCH   3   4
HETATM    4  C   UNL     1     -11.745  10.764  69.507  1.00  0.00    -0.312 A  
HETATM    5  C   UNL     1     -10.441  10.279  69.588  1.00  0.00    -0.286 A  
HETATM    6  C   UNL     1     -10.072   9.422  70.630  1.00  0.00    -0.356 A  
HETATM    7  C   UNL     1     -10.998   9.035  71.608  1.00  0.00    -0.435 A  
HETATM    8  C   UNL     1     -12.676  10.370  70.471  1.00  0.00    -0.355 A  
HETATM    9  C   UNL     1     -12.310   9.512  71.512  1.00  0.00    -0.465 A  
BRANCH   7  10
HETATM   10  C   UNL     1     -10.590   8.059  72.684  1.00  0.00    -0.419 C  
BRANCH  10  11
HETATM   11  C   UNL     1      -9.363   7.217  72.411  1.00  0.00    -0.166 A  
HETATM   12  C   UNL     1      -8.159   7.354  73.115  1.00  0.00    -0.109 A  
HETATM   13 CL   UNL     1      -8.017   8.392  74.487  1.00  0.00    -0.286 Cl 
HETATM   14  C   UNL     1      -7.010   6.678  72.688  1.00  0.00    -0.072 A  
HETATM   15  C   UNL     1      -7.037   5.871  71.545  1.00  0.00    -0.078 A  
HETATM   16  C   UNL     1      -8.230   5.693  70.839  1.00  0.00    -0.120 A  
HETATM   17  C   UNL     1      -9.389   6.338  71.314  1.00  0.00    -0.164 A  
BRANCH  16  18
HETATM   18  C   UNL     1      -8.303   4.946  69.512  1.00  0.00    -0.084 C  
HETATM   19  O   UNL     1      -9.121   5.661  68.566  1.00  0.00    -0.114 OA 
HETATM   20  C   UNL     1      -9.165   5.025  67.277  1.00  0.00    -0.121 C  
HETATM   21  H   UNL     1      -8.331   1.877  70.757  1.00  0.00     0.000 HD 
HETATM   22  C   UNL     1      -9.760   3.619  67.382  1.00  0.00    -0.056 C  
HETATM   23  O   UNL     1      -7.999   2.757  70.621  1.00  0.00    -0.042 OA 
HETATM   24  O   UNL     1      -9.767   2.928  66.125  1.00  0.00    -0.391 OA 
HETATM   25  C   UNL     1      -8.959   2.787  68.385  1.00  0.00    -0.145 C  
HETATM   26  H   UNL     1      -9.072   0.986  69.172  1.00  0.00     0.000 HD 
HETATM   27  O   UNL     1      -9.569   1.503  68.549  1.00  0.00    -0.182 OA 
HETATM   28  H   UNL     1     -10.136   2.055  66.190  1.00  0.00     0.000 HD 
HETATM   29  C   UNL     1      -8.846   3.506  69.735  1.00  0.00    -0.090 C  
BRANCH  20  30
HETATM   30  C   UNL     1     -10.004   5.898  66.331  1.00  0.00    -0.116 C  
HETATM   31  O   UNL     1     -11.215   5.221  66.000  1.00  0.00    -0.780 OA 
HETATM   32  H   UNL     1     -11.734   5.760  65.415  1.00  0.00     0.000 HD 
ENDBRANCH  20  30
ENDBRANCH  16  18
ENDBRANCH  10  11
ENDBRANCH   7  10
ENDBRANCH   3   4
ENDBRANCH   2   3
TORSDOF 6
ENDMDL
MODEL      130
REMARK 921   NORMALIZED FREE ENERGY PREDICTED BY IDOCK:   -5.36 KCAL/MOL
REMARK 922        TOTAL FREE ENERGY PREDICTED BY IDOCK:   -8.21 KCAL/MOL
REMARK 923 INTER-LIGAND FREE ENERGY PREDICTED BY IDOCK:   -7.59 KCAL/MOL
REMARK 924 INTRA-LIGAND FREE ENERGY PREDICTED BY IDOCK:   -0.62 KCAL/MOL
REMARK 927      BINDING AFFINITY PREDICTED BY RF-SCORE:    0.00 PKD
ROOT
HETATM    1  C   UNL     1      -6.450   8.185  64.838  1.00  0.00    -0.049 C  
HETATM    2  C   UNL     1      -7.072   9.525  64.492  1.00  0.00    -0.107 C  
ENDROOT
BRANCH   2   3
HETATM    3  O   UNL     1      -7.153  10.300  65.687  1.00  0.00    -0.126 OA 
BRANCH   3   4
HETATM    4  C   UNL     1      -7.927   9.799  66.697  1.00  0.00    -0.112 A  
HETATM    5  C   UNL     1      -7.532   9.629  68.022  1.00  0.00    -0.082 A  
HETATM    6  C   UNL     1      -8.428   9.111  68.963  1.00  0.00    -0.132 A  
HETATM    7  C   UNL     1      -9.732   8.754  68.596  1.00  0.00    -0.170 A  
HETATM    8  C   UNL     1      -9.220   9.431  66.323  1.00  0.00    -0.229 A  
HETATM    9  C   UNL     1     -10.118   8.912  67.260  1.00  0.00    -0.303 A  
BRANCH   7  10
HETATM   10  C   UNL     1     -10.658   8.138  69.617  1.00  0.00    -0.223 C  
BRANCH  10  11
HETATM   11  C   UNL     1     -11.470   9.093  70.464  1.00  0.00    -0.271 A  
HETATM   12  C   UNL     1     -12.341   8.676  71.480  1.00  0.00    -0.324 A  
HETATM   13 CL   UNL     1     -12.441   7.025  71.976  1.00  0.00    -0.317 Cl 
HETATM   14  C   UNL     1     -13.200   9.594  72.095  1.00  0.00    -0.535 A  
HETATM   15  C   UNL     1     -13.218  10.935  71.697  1.00  0.00    -0.471 A  
HETATM   16  C   UNL     1     -12.341  11.386  70.706  1.00  0.00    -0.483 A  
HETATM   17  C   UNL     1     -11.446  10.459  70.135  1.00  0.00    -0.396 A  
BRANCH  16  18
HETATM   18  C   UNL     1     -12.401  12.795  70.126  1.00  0.00    -0.165 C  
HETATM   19  O   UNL     1     -11.487  12.932  69.021  1.00  0.00    -0.270 OA 
HETATM   20  C   UNL     1     -11.558  14.227  68.399  1.00  0.00    -0.320 C  
HETATM   21  H   UNL     1     -12.856  14.408  72.982  1.00  0.00     0.000 HD 
HETATM   22  C   UNL     1     -11.195  15.331  69.395  1.00  0.00    -0.285 C  
HETATM   23  O   UNL     1     -13.044  13.767  72.307  1.00  0.00    -0.386 OA 
HETATM   24  O   UNL     1     -11.311  16.644  68.829  1.00  0.00    -0.274 OA 
HETATM   25  C   UNL     1     -12.111  15.251  70.618  1.00  0.00    -0.354 C  
HETATM   26  H   UNL     1     -12.282  16.176  72.348  1.00  0.00     0.000 HD 
HETATM   27  O   UNL     1     -11.714  16.226  71.588  1.00  0.00    -0.480 OA 
HETATM   28  H   UNL     1     -11.086  17.329  69.448  1.00  0.00     0.000 HD 
HETATM   29  C   UNL     1     -12.095  13.845  71.230  1.00  0.00    -0.167 C  
BRANCH  20  30
HETATM   30  C   UNL     1     -10.598  14.245  67.199  1.00  0.00    -0.279 C  
HETATM   31  O   UNL     1     -11.009  13.274  66.240  1.00  0.00    -0.282 OA 
HETATM   32  H   UNL     1     -10.416  13.285  65.498  1.00  0.00     0.000 HD 
ENDBRANCH  20  30
ENDBRANCH  16  18
ENDBRANCH  10  11
ENDBRANCH   7  10
ENDBRANCH   3   4
ENDBRANCH   2   3
TORSDOF 6
ENDMDL
MODEL      131
REMARK 921   NORMALIZED FREE ENERGY PREDICTED BY IDOCK:   -5.34 KCAL/MOL
REMARK 922        TOTAL FREE ENERGY PREDICTED BY IDOCK:   -8.18 KCAL/MOL
REMARK 923 INTER-LIGAND FREE ENERGY PREDICTED BY IDOCK:   -6.86 KCAL/MOL
REMARK 924 INTRA-LIGAND FREE ENERGY PREDICTED BY IDOCK:   -1.33 KCAL/MOL
REMARK 927      BINDING AFFINITY PREDICTED BY RF-SCORE:    0.00 PKD
ROOT
HETATM    1  C   UNL     1     -10.518  18.986  67.591  1.00  0.00    -0.523 C  
HETATM    2  C   UNL     1     -10.462  17.540  68.050  1.00  0.00    -0.387 C  
ENDROOT
BRANCH   2   3
HETATM    3  O   UNL     1     -10.797  16.709  66.941  1.00  0.00    -0.209 OA 
BRANCH   3   4
HETATM    4  C   UNL     1     -10.901  15.367  67.184  1.00  0.00    -0.321 A  
HETATM    5  C   UNL     1     -10.184  14.652  68.140  1.00  0.00    -0.231 A  
HETATM    6  C   UNL     1     -10.393  13.277  68.293  1.00  0.00    -0.252 A  
HETATM    7  C   UNL     1     -11.320  12.595  67.494  1.00  0.00    -0.361 A  
HETATM    8  C   UNL     1     -11.816  14.690  66.375  1.00  0.00    -0.304 A  
HETATM    9  C   UNL     1     -12.025  13.316  66.524  1.00  0.00    -0.448 A  
BRANCH   7  10
HETATM   10  C   UNL     1     -11.478  11.100  67.637  1.00  0.00    -0.328 C  
BRANCH  10  11
HETATM   11  C   UNL     1     -10.212  10.274  67.591  1.00  0.00    -0.247 A  
HETATM   12  C   UNL     1      -9.499  10.017  66.412  1.00  0.00    -0.186 A  
HETATM   13 CL   UNL     1      -9.911  10.768  64.914  1.00  0.00    -0.321 Cl 
HETATM   14  C   UNL     1      -8.447   9.092  66.410  1.00  0.00    -0.129 A  
HETATM   15  C   UNL     1      -8.102   8.398  67.575  1.00  0.00    -0.110 A  
HETATM   16  C   UNL     1      -8.777   8.655  68.772  1.00  0.00    -0.135 A  
HETATM   17  C   UNL     1      -9.797   9.626  68.768  1.00  0.00    -0.173 A  
BRANCH  16  18
HETATM   18  C   UNL     1      -8.550   7.840  70.041  1.00  0.00    -0.140 C  
HETATM   19  O   UNL     1      -9.635   6.918  70.257  1.00  0.00    -0.168 OA 
HETATM   20  C   UNL     1      -9.431   6.081  71.409  1.00  0.00    -0.156 C  
HETATM   21  H   UNL     1      -7.145  10.241  71.838  1.00  0.00     0.000 HD 
HETATM   22  C   UNL     1      -9.323   6.922  72.682  1.00  0.00    -0.138 C  
HETATM   23  O   UNL     1      -7.251   9.663  71.091  1.00  0.00    -0.328 OA 
HETATM   24  O   UNL     1      -9.060   6.127  73.848  1.00  0.00    -0.126 OA 
HETATM   25  C   UNL     1      -8.199   7.948  72.536  1.00  0.00    -0.139 C  
HETATM   26  H   UNL     1      -7.458   9.431  73.599  1.00  0.00     0.000 HD 
HETATM   27  O   UNL     1      -8.157   8.793  73.690  1.00  0.00    -0.390 OA 
HETATM   28  H   UNL     1      -8.993   6.650  74.639  1.00  0.00     0.000 HD 
HETATM   29  C   UNL     1      -8.376   8.785  71.263  1.00  0.00    -0.176 C  
BRANCH  20  30
HETATM   30  C   UNL     1     -10.607   5.096  71.510  1.00  0.00    -0.147 C  
HETATM   31  O   UNL     1     -11.615   5.637  72.361  1.00  0.00    -0.284 OA 
HETATM   32  H   UNL     1     -12.342   5.029  72.424  1.00  0.00     0.000 HD 
ENDBRANCH  20  30
ENDBRANCH  16  18
ENDBRANCH  10  11
ENDBRANCH   7  10
ENDBRANCH   3   4
ENDBRANCH   2   3
TORSDOF 6
ENDMDL
MODEL      132
REMARK 921   NORMALIZED FREE ENERGY PREDICTED BY IDOCK:   -5.34 KCAL/MOL
REMARK 922        TOTAL FREE ENERGY PREDICTED BY IDOCK:   -8.18 KCAL/MOL
REMARK 923 INTER-LIGAND FREE ENERGY PREDICTED BY IDOCK:   -7.62 KCAL/MOL
REMARK 924 INTRA-LIGAND FREE ENERGY PREDICTED BY IDOCK:   -0.56 KCAL/MOL
REMARK 927      BINDING AFFINITY PREDICTED BY RF-SCORE:    0.00 PKD
ROOT
HETATM    1  C   UNL     1      -5.451  20.845  68.137  1.00  0.00    -0.352 C  
HETATM    2  C   UNL     1      -5.838  19.650  68.988  1.00  0.00    -0.228 C  
ENDROOT
BRANCH   2   3
HETATM    3  O   UNL     1      -7.212  19.784  69.345  1.00  0.00    -0.338 OA 
BRANCH   3   4
HETATM    4  C   UNL     1      -8.084  18.886  68.795  1.00  0.00    -0.319 A  
HETATM    5  C   UNL     1      -7.804  17.554  68.494  1.00  0.00    -0.274 A  
HETATM    6  C   UNL     1      -8.793  16.735  67.939  1.00  0.00    -0.218 A  
HETATM    7  C   UNL     1     -10.076  17.232  67.675  1.00  0.00    -0.313 A  
HETATM    8  C   UNL     1      -9.357  19.390  68.520  1.00  0.00    -0.446 A  
HETATM    9  C   UNL     1     -10.346  18.574  67.964  1.00  0.00    -0.417 A  
BRANCH   7  10
HETATM   10  C   UNL     1     -11.104  16.344  67.016  1.00  0.00     0.067 C  
BRANCH  10  11
HETATM   11  C   UNL     1     -11.358  15.000  67.663  1.00  0.00    -0.342 A  
HETATM   12  C   UNL     1     -11.640  14.838  69.026  1.00  0.00    -0.297 A  
HETATM   13 CL   UNL     1     -11.892  16.188  70.072  1.00  0.00    -0.222 Cl 
HETATM   14  C   UNL     1     -11.676  13.558  69.593  1.00  0.00    -0.378 A  
HETATM   15  C   UNL     1     -11.417  12.424  68.817  1.00  0.00    -0.350 A  
HETATM   16  C   UNL     1     -11.161  12.552  67.448  1.00  0.00    -0.317 A  
HETATM   17  C   UNL     1     -11.180  13.843  66.884  1.00  0.00    -0.324 A  
BRANCH  16  18
HETATM   18  C   UNL     1     -10.733  11.380  66.573  1.00  0.00    -0.277 C  
HETATM   19  O   UNL     1      -9.451  10.872  66.988  1.00  0.00    -0.163 OA 
HETATM   20  C   UNL     1      -9.037   9.721  66.231  1.00  0.00    -0.157 C  
HETATM   21  H   UNL     1     -11.975  12.509  63.718  1.00  0.00     0.000 HD 
HETATM   22  C   UNL     1      -8.902  10.065  64.746  1.00  0.00    -0.195 C  
HETATM   23  O   UNL     1     -11.995  12.248  64.631  1.00  0.00    -0.375 OA 
HETATM   24  O   UNL     1      -8.548   8.927  63.946  1.00  0.00    -0.319 OA 
HETATM   25  C   UNL     1     -10.223  10.630  64.219  1.00  0.00    -0.320 C  
HETATM   26  H   UNL     1     -10.890  11.385  62.528  1.00  0.00     0.000 HD 
HETATM   27  O   UNL     1     -10.070  11.034  62.855  1.00  0.00    -0.282 OA 
HETATM   28  H   UNL     1      -8.464   9.140  63.024  1.00  0.00     0.000 HD 
HETATM   29  C   UNL     1     -10.702  11.807  65.078  1.00  0.00    -0.292 C  
BRANCH  20  30
HETATM   30  C   UNL     1      -7.696   9.223  66.794  1.00  0.00    -0.094 C  
HETATM   31  O   UNL     1      -7.649   9.457  68.200  1.00  0.00    -0.082 OA 
HETATM   32  H   UNL     1      -6.821   9.150  68.548  1.00  0.00     0.000 HD 
ENDBRANCH  20  30
ENDBRANCH  16  18
ENDBRANCH  10  11
ENDBRANCH   7  10
ENDBRANCH   3   4
ENDBRANCH   2   3
TORSDOF 6
ENDMDL
MODEL      133
REMARK 921   NORMALIZED FREE ENERGY PREDICTED BY IDOCK:   -5.32 KCAL/MOL
REMARK 922        TOTAL FREE ENERGY PREDICTED BY IDOCK:   -8.15 KCAL/MOL
REMARK 923 INTER-LIGAND FREE ENERGY PREDICTED BY IDOCK:   -6.94 KCAL/MOL
REMARK 924 INTRA-LIGAND FREE ENERGY PREDICTED BY IDOCK:   -1.21 KCAL/MOL
REMARK 927      BINDING AFFINITY PREDICTED BY RF-SCORE:    0.00 PKD
ROOT
HETATM    1  C   UNL     1      -6.741  10.911  70.012  1.00  0.00    -0.128 C  
HETATM    2  C   UNL     1      -5.960  11.905  69.172  1.00  0.00    -0.072 C  
ENDROOT
BRANCH   2   3
HETATM    3  O   UNL     1      -5.326  12.830  70.054  1.00  0.00    -0.085 OA 
BRANCH   3   4
HETATM    4  C   UNL     1      -5.428  14.156  69.737  1.00  0.00    -0.096 A  
HETATM    5  C   UNL     1      -5.619  15.200  70.640  1.00  0.00    -0.122 A  
HETATM    6  C   UNL     1      -5.698  16.520  70.182  1.00  0.00    -0.194 A  
HETATM    7  C   UNL     1      -5.588  16.818  68.818  1.00  0.00    -0.132 A  
HETATM    8  C   UNL     1      -5.333  14.446  68.375  1.00  0.00    -0.108 A  
HETATM    9  C   UNL     1      -5.413  15.763  67.915  1.00  0.00    -0.148 A  
BRANCH   7  10
HETATM   10  C   UNL     1      -5.741  18.244  68.346  1.00  0.00    -0.171 C  
BRANCH  10  11
HETATM   11  C   UNL     1      -7.117  18.661  67.876  1.00  0.00    -0.245 A  
HETATM   12  C   UNL     1      -7.517  19.998  67.746  1.00  0.00    -0.295 A  
HETATM   13 CL   UNL     1      -6.409  21.306  67.950  1.00  0.00    -0.368 Cl 
HETATM   14  C   UNL     1      -8.857  20.313  67.489  1.00  0.00    -0.415 A  
HETATM   15  C   UNL     1      -9.820  19.305  67.376  1.00  0.00    -0.425 A  
HETATM   16  C   UNL     1      -9.446  17.962  67.473  1.00  0.00    -0.258 A  
HETATM   17  C   UNL     1      -8.085  17.661  67.678  1.00  0.00    -0.218 A  
BRANCH  16  18
HETATM   18  C   UNL     1     -10.458  16.821  67.500  1.00  0.00    -0.319 C  
HETATM   19  O   UNL     1     -10.656  16.345  68.845  1.00  0.00    -0.265 OA 
HETATM   20  C   UNL     1     -11.653  15.311  68.927  1.00  0.00    -0.347 C  
HETATM   21  H   UNL     1      -9.576  15.407  64.639  1.00  0.00     0.000 HD 
HETATM   22  C   UNL     1     -11.245  14.093  68.097  1.00  0.00    -0.276 C  
HETATM   23  O   UNL     1      -9.860  16.112  65.208  1.00  0.00    -0.452 OA 
HETATM   24  O   UNL     1     -12.242  13.061  68.105  1.00  0.00    -0.226 OA 
HETATM   25  C   UNL     1     -10.996  14.510  66.646  1.00  0.00    -0.321 C  
HETATM   26  H   UNL     1     -10.373  13.647  64.989  1.00  0.00     0.000 HD 
HETATM   27  O   UNL     1     -10.528  13.388  65.890  1.00  0.00    -0.277 OA 
HETATM   28  H   UNL     1     -11.989  12.304  67.589  1.00  0.00     0.000 HD 
HETATM   29  C   UNL     1      -9.992  15.667  66.568  1.00  0.00    -0.273 C  
BRANCH  20  30
HETATM   30  C   UNL     1     -11.832  14.923  70.404  1.00  0.00    -0.300 C  
HETATM   31  O   UNL     1     -11.504  16.034  71.236  1.00  0.00    -0.407 OA 
HETATM   32  H   UNL     1     -11.614  15.794  72.148  1.00  0.00     0.000 HD 
ENDBRANCH  20  30
ENDBRANCH  16  18
ENDBRANCH  10  11
ENDBRANCH   7  10
ENDBRANCH   3   4
ENDBRANCH   2   3
TORSDOF 6
ENDMDL
MODEL      134
REMARK 921   NORMALIZED FREE ENERGY PREDICTED BY IDOCK:   -5.31 KCAL/MOL
REMARK 922        TOTAL FREE ENERGY PREDICTED BY IDOCK:   -8.14 KCAL/MOL
REMARK 923 INTER-LIGAND FREE ENERGY PREDICTED BY IDOCK:   -7.02 KCAL/MOL
REMARK 924 INTRA-LIGAND FREE ENERGY PREDICTED BY IDOCK:   -1.12 KCAL/MOL
REMARK 927      BINDING AFFINITY PREDICTED BY RF-SCORE:    0.00 PKD
ROOT
HETATM    1  C   UNL     1     -10.460  16.045  70.195  1.00  0.00    -0.198 C  
HETATM    2  C   UNL     1     -11.693  15.710  69.377  1.00  0.00    -0.383 C  
ENDROOT
BRANCH   2   3
HETATM    3  O   UNL     1     -11.379  15.907  67.999  1.00  0.00    -0.342 OA 
BRANCH   3   4
HETATM    4  C   UNL     1     -11.351  14.793  67.207  1.00  0.00    -0.357 A  
HETATM    5  C   UNL     1     -12.445  13.996  66.878  1.00  0.00    -0.187 A  
HETATM    6  C   UNL     1     -12.281  12.883  66.047  1.00  0.00    -0.431 A  
HETATM    7  C   UNL     1     -11.022  12.549  65.530  1.00  0.00    -0.322 A  
HETATM    8  C   UNL     1     -10.092  14.456  66.707  1.00  0.00    -0.266 A  
HETATM    9  C   UNL     1      -9.924  13.344  65.877  1.00  0.00    -0.287 A  
BRANCH   7  10
HETATM   10  C   UNL     1     -10.862  11.306  64.688  1.00  0.00    -0.335 C  
BRANCH  10  11
HETATM   11  C   UNL     1      -9.796  10.323  65.120  1.00  0.00    -0.389 A  
HETATM   12  C   UNL     1      -9.006   9.595  64.220  1.00  0.00    -0.229 A  
HETATM   13 CL   UNL     1      -9.062   9.879  62.519  1.00  0.00    -0.279 Cl 
HETATM   14  C   UNL     1      -8.174   8.568  64.683  1.00  0.00    -0.162 A  
HETATM   15  C   UNL     1      -8.129   8.240  66.042  1.00  0.00    -0.110 A  
HETATM   16  C   UNL     1      -8.884   8.968  66.966  1.00  0.00    -0.131 A  
HETATM   17  C   UNL     1      -9.675  10.032  66.490  1.00  0.00    -0.254 A  
BRANCH  16  18
HETATM   18  C   UNL     1      -8.992   8.579  68.436  1.00  0.00    -0.139 C  
HETATM   19  O   UNL     1     -10.299   8.893  68.953  1.00  0.00    -0.206 OA 
HETATM   20  C   UNL     1     -10.468   8.482  70.321  1.00  0.00    -0.220 C  
HETATM   21  H   UNL     1      -5.895   9.365  69.308  1.00  0.00     0.000 HD 
HETATM   22  C   UNL     1      -9.465   9.193  71.232  1.00  0.00    -0.243 C  
HETATM   23  O   UNL     1      -6.572   8.930  68.803  1.00  0.00    -0.052 OA 
HETATM   24  O   UNL     1      -9.562   8.765  72.599  1.00  0.00    -0.224 OA 
HETATM   25  C   UNL     1      -8.039   8.927  70.745  1.00  0.00    -0.156 C  
HETATM   26  H   UNL     1      -6.221   9.499  71.240  1.00  0.00     0.000 HD 
HETATM   27  O   UNL     1      -7.107   9.664  71.543  1.00  0.00    -0.306 OA 
HETATM   28  H   UNL     1      -8.939   9.207  73.164  1.00  0.00     0.000 HD 
HETATM   29  C   UNL     1      -7.884   9.291  69.263  1.00  0.00    -0.085 C  
BRANCH  20  30
HETATM   30  C   UNL     1     -11.909   8.801  70.752  1.00  0.00    -0.178 C  
HETATM   31  O   UNL     1     -12.697   7.613  70.709  1.00  0.00    -0.546 OA 
HETATM   32  H   UNL     1     -13.587   7.810  70.975  1.00  0.00     0.000 HD 
ENDBRANCH  20  30
ENDBRANCH  16  18
ENDBRANCH  10  11
ENDBRANCH   7  10
ENDBRANCH   3   4
ENDBRANCH   2   3
TORSDOF 6
ENDMDL
MODEL      135
REMARK 921   NORMALIZED FREE ENERGY PREDICTED BY IDOCK:   -5.31 KCAL/MOL
REMARK 922        TOTAL FREE ENERGY PREDICTED BY IDOCK:   -8.14 KCAL/MOL
REMARK 923 INTER-LIGAND FREE ENERGY PREDICTED BY IDOCK:   -6.96 KCAL/MOL
REMARK 924 INTRA-LIGAND FREE ENERGY PREDICTED BY IDOCK:   -1.18 KCAL/MOL
REMARK 927      BINDING AFFINITY PREDICTED BY RF-SCORE:    0.00 PKD
ROOT
HETATM    1  C   UNL     1      -9.957  20.166  67.433  1.00  0.00    -0.570 C  
HETATM    2  C   UNL     1      -9.805  19.273  68.651  1.00  0.00    -0.431 C  
ENDROOT
BRANCH   2   3
HETATM    3  O   UNL     1      -9.092  18.102  68.257  1.00  0.00    -0.284 OA 
BRANCH   3   4
HETATM    4  C   UNL     1      -9.839  16.997  67.954  1.00  0.00    -0.269 A  
HETATM    5  C   UNL     1     -10.809  16.418  68.769  1.00  0.00    -0.338 A  
HETATM    6  C   UNL     1     -11.511  15.288  68.334  1.00  0.00    -0.358 A  
HETATM    7  C   UNL     1     -11.255  14.720  67.079  1.00  0.00    -0.347 A  
HETATM    8  C   UNL     1      -9.570  16.426  66.709  1.00  0.00    -0.263 A  
HETATM    9  C   UNL     1     -10.268  15.297  66.272  1.00  0.00    -0.300 A  
BRANCH   7  10
HETATM   10  C   UNL     1     -11.982  13.464  66.661  1.00  0.00    -0.452 C  
BRANCH  10  11
HETATM   11  C   UNL     1     -11.272  12.564  65.674  1.00  0.00    -0.352 A  
HETATM   12  C   UNL     1     -11.614  12.483  64.317  1.00  0.00    -0.371 A  
HETATM   13 CL   UNL     1     -12.778  13.540  63.605  1.00  0.00    -0.079 Cl 
HETATM   14  C   UNL     1     -11.046  11.496  63.503  1.00  0.00    -0.434 A  
HETATM   15  C   UNL     1     -10.144  10.565  64.030  1.00  0.00    -0.321 A  
HETATM   16  C   UNL     1      -9.763  10.638  65.373  1.00  0.00    -0.306 A  
HETATM   17  C   UNL     1     -10.304  11.671  66.164  1.00  0.00    -0.280 A  
BRANCH  16  18
HETATM   18  C   UNL     1      -8.898   9.579  66.046  1.00  0.00    -0.156 C  
HETATM   19  O   UNL     1      -9.396   9.273  67.363  1.00  0.00    -0.126 OA 
HETATM   20  C   UNL     1      -8.649   8.230  68.012  1.00  0.00    -0.132 C  
HETATM   21  H   UNL     1      -5.983  10.582  64.838  1.00  0.00     0.000 HD 
HETATM   22  C   UNL     1      -7.185   8.637  68.191  1.00  0.00    -0.087 C  
HETATM   23  O   UNL     1      -6.887  10.292  64.798  1.00  0.00    -0.129 OA 
HETATM   24  O   UNL     1      -6.391   7.598  68.781  1.00  0.00    -0.037 OA 
HETATM   25  C   UNL     1      -6.574   8.998  66.835  1.00  0.00    -0.064 C  
HETATM   26  H   UNL     1      -4.854   9.688  66.172  1.00  0.00     0.000 HD 
HETATM   27  O   UNL     1      -5.233   9.464  67.014  1.00  0.00    -0.035 OA 
HETATM   28  H   UNL     1      -5.482   7.851  68.893  1.00  0.00     0.000 HD 
HETATM   29  C   UNL     1      -7.419  10.053  66.111  1.00  0.00    -0.109 C  
BRANCH  20  30
HETATM   30  C   UNL     1      -9.299   7.938  69.373  1.00  0.00    -0.152 C  
HETATM   31  O   UNL     1      -9.768   9.154  69.952  1.00  0.00    -0.173 OA 
HETATM   32  H   UNL     1     -10.170   8.974  70.794  1.00  0.00     0.000 HD 
ENDBRANCH  20  30
ENDBRANCH  16  18
ENDBRANCH  10  11
ENDBRANCH   7  10
ENDBRANCH   3   4
ENDBRANCH   2   3
TORSDOF 6
ENDMDL
MODEL      136
REMARK 921   NORMALIZED FREE ENERGY PREDICTED BY IDOCK:   -5.31 KCAL/MOL
REMARK 922        TOTAL FREE ENERGY PREDICTED BY IDOCK:   -8.14 KCAL/MOL
REMARK 923 INTER-LIGAND FREE ENERGY PREDICTED BY IDOCK:   -7.64 KCAL/MOL
REMARK 924 INTRA-LIGAND FREE ENERGY PREDICTED BY IDOCK:   -0.50 KCAL/MOL
REMARK 927      BINDING AFFINITY PREDICTED BY RF-SCORE:    0.00 PKD
ROOT
HETATM    1  C   UNL     1     -13.776  15.258  72.542  1.00  0.00    -0.627 C  
HETATM    2  C   UNL     1     -12.960  14.100  71.997  1.00  0.00    -0.360 C  
ENDROOT
BRANCH   2   3
HETATM    3  O   UNL     1     -11.981  14.627  71.104  1.00  0.00    -0.322 OA 
BRANCH   3   4
HETATM    4  C   UNL     1     -11.970  14.123  69.833  1.00  0.00    -0.338 A  
HETATM    5  C   UNL     1     -12.040  14.868  68.657  1.00  0.00    -0.205 A  
HETATM    6  C   UNL     1     -12.010  14.227  67.415  1.00  0.00    -0.426 A  
HETATM    7  C   UNL     1     -11.910  12.832  67.326  1.00  0.00    -0.414 A  
HETATM    8  C   UNL     1     -11.885  12.732  69.750  1.00  0.00    -0.380 A  
HETATM    9  C   UNL     1     -11.857  12.088  68.510  1.00  0.00    -0.369 A  
BRANCH   7  10
HETATM   10  C   UNL     1     -11.945  12.161  65.974  1.00  0.00    -0.236 C  
BRANCH  10  11
HETATM   11  C   UNL     1     -10.731  11.345  65.587  1.00  0.00    -0.301 A  
HETATM   12  C   UNL     1     -10.120  11.418  64.328  1.00  0.00    -0.297 A  
HETATM   13 CL   UNL     1     -10.599  12.581  63.146  1.00  0.00    -0.133 Cl 
HETATM   14  C   UNL     1      -9.121  10.502  63.973  1.00  0.00    -0.256 A  
HETATM   15  C   UNL     1      -8.729   9.492  64.858  1.00  0.00    -0.218 A  
HETATM   16  C   UNL     1      -9.301   9.413  66.132  1.00  0.00    -0.262 A  
HETATM   17  C   UNL     1     -10.266  10.374  66.491  1.00  0.00    -0.289 A  
BRANCH  16  18
HETATM   18  C   UNL     1      -9.026   8.261  67.092  1.00  0.00    -0.138 C  
HETATM   19  O   UNL     1      -9.727   7.072  66.679  1.00  0.00    -0.179 OA 
HETATM   20  C   UNL     1      -9.445   5.940  67.519  1.00  0.00    -0.110 C  
HETATM   21  H   UNL     1      -8.918  10.049  69.877  1.00  0.00     0.000 HD 
HETATM   22  C   UNL     1      -9.873   6.212  68.963  1.00  0.00    -0.141 C  
HETATM   23  O   UNL     1      -8.675   9.804  68.992  1.00  0.00    -0.132 OA 
HETATM   24  O   UNL     1      -9.554   5.127  69.847  1.00  0.00    -0.146 OA 
HETATM   25  C   UNL     1      -9.185   7.475  69.483  1.00  0.00    -0.146 C  
HETATM   26  H   UNL     1      -9.226   8.563  71.123  1.00  0.00     0.000 HD 
HETATM   27  O   UNL     1      -9.654   7.779  70.800  1.00  0.00    -0.165 OA 
HETATM   28  H   UNL     1      -9.820   5.296  70.743  1.00  0.00     0.000 HD 
HETATM   29  C   UNL     1      -9.422   8.662  68.540  1.00  0.00    -0.142 C  
BRANCH  20  30
HETATM   30  C   UNL     1     -10.187   4.717  66.957  1.00  0.00    -0.158 C  
HETATM   31  O   UNL     1     -11.223   5.148  66.077  1.00  0.00    -0.748 OA 
HETATM   32  H   UNL     1     -11.682   4.392  65.729  1.00  0.00     0.000 HD 
ENDBRANCH  20  30
ENDBRANCH  16  18
ENDBRANCH  10  11
ENDBRANCH   7  10
ENDBRANCH   3   4
ENDBRANCH   2   3
TORSDOF 6
ENDMDL
MODEL      137
REMARK 921   NORMALIZED FREE ENERGY PREDICTED BY IDOCK:   -5.29 KCAL/MOL
REMARK 922        TOTAL FREE ENERGY PREDICTED BY IDOCK:   -8.11 KCAL/MOL
REMARK 923 INTER-LIGAND FREE ENERGY PREDICTED BY IDOCK:   -7.66 KCAL/MOL
REMARK 924 INTRA-LIGAND FREE ENERGY PREDICTED BY IDOCK:   -0.44 KCAL/MOL
REMARK 927      BINDING AFFINITY PREDICTED BY RF-SCORE:    0.00 PKD
ROOT
HETATM    1  C   UNL     1     -10.639   5.164  73.337  1.00  0.00    -0.302 C  
HETATM    2  C   UNL     1     -10.058   6.555  73.169  1.00  0.00    -0.193 C  
ENDROOT
BRANCH   2   3
HETATM    3  O   UNL     1     -10.747   7.198  72.098  1.00  0.00    -0.208 OA 
BRANCH   3   4
HETATM    4  C   UNL     1      -9.978   7.726  71.098  1.00  0.00    -0.176 A  
HETATM    5  C   UNL     1      -9.132   7.010  70.254  1.00  0.00    -0.156 A  
HETATM    6  C   UNL     1      -8.403   7.673  69.260  1.00  0.00    -0.134 A  
HETATM    7  C   UNL     1      -8.507   9.060  69.095  1.00  0.00    -0.128 A  
HETATM    8  C   UNL     1     -10.074   9.110  70.947  1.00  0.00    -0.356 A  
HETATM    9  C   UNL     1      -9.346   9.776  69.957  1.00  0.00    -0.274 A  
BRANCH   7  10
HETATM   10  C   UNL     1      -7.662   9.759  68.057  1.00  0.00    -0.083 C  
BRANCH  10  11
HETATM   11  C   UNL     1      -7.577  11.266  68.150  1.00  0.00    -0.105 A  
HETATM   12  C   UNL     1      -6.734  11.940  69.042  1.00  0.00    -0.099 A  
HETATM   13 CL   UNL     1      -5.576  11.104  70.013  1.00  0.00    -0.075 Cl 
HETATM   14  C   UNL     1      -6.842  13.327  69.208  1.00  0.00    -0.031 A  
HETATM   15  C   UNL     1      -7.803  14.059  68.501  1.00  0.00    -0.140 A  
HETATM   16  C   UNL     1      -8.639  13.417  67.582  1.00  0.00    -0.193 A  
HETATM   17  C   UNL     1      -8.480  12.031  67.390  1.00  0.00    -0.170 A  
BRANCH  16  18
HETATM   18  C   UNL     1      -9.796  14.123  66.884  1.00  0.00    -0.265 C  
HETATM   19  O   UNL     1     -10.144  13.447  65.661  1.00  0.00    -0.289 OA 
HETATM   20  C   UNL     1     -11.275  14.040  65.000  1.00  0.00    -0.352 C  
HETATM   21  H   UNL     1      -8.932  17.223  67.664  1.00  0.00     0.000 HD 
HETATM   22  C   UNL     1     -10.984  15.494  64.620  1.00  0.00    -0.322 C  
HETATM   23  O   UNL     1      -9.154  16.315  67.831  1.00  0.00    -0.194 OA 
HETATM   24  O   UNL     1     -12.112  16.140  64.010  1.00  0.00    -1.133 OA 
HETATM   25  C   UNL     1     -10.588  16.289  65.864  1.00  0.00    -0.297 C  
HETATM   26  H   UNL     1      -9.984  18.120  66.268  1.00  0.00     0.000 HD 
HETATM   27  O   UNL     1     -10.230  17.625  65.495  1.00  0.00    -0.600 OA 
HETATM   28  H   UNL     1     -11.931  17.043  63.774  1.00  0.00     0.000 HD 
HETATM   29  C   UNL     1      -9.433  15.610  66.611  1.00  0.00    -0.259 C  
BRANCH  20  30
HETATM   30  C   UNL     1     -11.601  13.209  63.749  1.00  0.00    -0.425 C  
HETATM   31  O   UNL     1     -12.930  12.702  63.842  1.00  0.00    -0.706 OA 
HETATM   32  H   UNL     1     -13.132  12.188  63.069  1.00  0.00     0.000 HD 
ENDBRANCH  20  30
ENDBRANCH  16  18
ENDBRANCH  10  11
ENDBRANCH   7  10
ENDBRANCH   3   4
ENDBRANCH   2   3
TORSDOF 6
ENDMDL
MODEL      138
REMARK 921   NORMALIZED FREE ENERGY PREDICTED BY IDOCK:   -5.29 KCAL/MOL
REMARK 922        TOTAL FREE ENERGY PREDICTED BY IDOCK:   -8.11 KCAL/MOL
REMARK 923 INTER-LIGAND FREE ENERGY PREDICTED BY IDOCK:   -7.62 KCAL/MOL
REMARK 924 INTRA-LIGAND FREE ENERGY PREDICTED BY IDOCK:   -0.49 KCAL/MOL
REMARK 927      BINDING AFFINITY PREDICTED BY RF-SCORE:    0.00 PKD
ROOT
HETATM    1  C   UNL     1      -6.147  19.460  64.517  1.00  0.00    -0.267 C  
HETATM    2  C   UNL     1      -6.883  19.128  65.802  1.00  0.00    -0.276 C  
ENDROOT
BRANCH   2   3
HETATM    3  O   UNL     1      -7.489  17.845  65.648  1.00  0.00    -0.544 OA 
BRANCH   3   4
HETATM    4  C   UNL     1      -8.483  17.522  66.530  1.00  0.00    -0.268 A  
HETATM    5  C   UNL     1      -9.852  17.608  66.286  1.00  0.00    -0.297 A  
HETATM    6  C   UNL     1     -10.768  17.236  67.276  1.00  0.00    -0.215 A  
HETATM    7  C   UNL     1     -10.332  16.773  68.524  1.00  0.00    -0.316 A  
HETATM    8  C   UNL     1      -8.043  17.075  67.777  1.00  0.00    -0.196 A  
HETATM    9  C   UNL     1      -8.956  16.705  68.769  1.00  0.00    -0.253 A  
BRANCH   7  10
HETATM   10  C   UNL     1     -11.341  16.440  69.596  1.00  0.00    -0.188 C  
BRANCH  10  11
HETATM   11  C   UNL     1     -11.734  14.985  69.733  1.00  0.00    -0.341 A  
HETATM   12  C   UNL     1     -12.438  14.475  70.831  1.00  0.00    -0.345 A  
HETATM   13 CL   UNL     1     -13.077  15.502  72.064  1.00  0.00    -0.491 Cl 
HETATM   14  C   UNL     1     -12.604  13.093  70.985  1.00  0.00    -0.397 A  
HETATM   15  C   UNL     1     -12.056  12.199  70.058  1.00  0.00    -0.352 A  
HETATM   16  C   UNL     1     -11.373  12.680  68.937  1.00  0.00    -0.345 A  
HETATM   17  C   UNL     1     -11.262  14.075  68.771  1.00  0.00    -0.298 A  
BRANCH  16  18
HETATM   18  C   UNL     1     -10.633  11.769  67.965  1.00  0.00    -0.206 C  
HETATM   19  O   UNL     1     -10.805  10.386  68.329  1.00  0.00    -0.218 OA 
HETATM   20  C   UNL     1     -10.178   9.485  67.400  1.00  0.00    -0.227 C  
HETATM   21  H   UNL     1      -8.015  13.731  67.455  1.00  0.00     0.000 HD 
HETATM   22  C   UNL     1      -8.668   9.728  67.338  1.00  0.00    -0.132 C  
HETATM   23  O   UNL     1      -8.936  13.502  67.484  1.00  0.00    -0.189 OA 
HETATM   24  O   UNL     1      -8.013   8.887  66.377  1.00  0.00    -0.101 OA 
HETATM   25  C   UNL     1      -8.389  11.186  66.971  1.00  0.00    -0.144 C  
HETATM   26  H   UNL     1      -6.806  12.341  66.774  1.00  0.00     0.000 HD 
HETATM   27  O   UNL     1      -6.980  11.435  67.002  1.00  0.00    -0.116 OA 
HETATM   28  H   UNL     1      -7.075   9.038  66.339  1.00  0.00     0.000 HD 
HETATM   29  C   UNL     1      -9.125  12.145  67.916  1.00  0.00    -0.185 C  
BRANCH  20  30
HETATM   30  C   UNL     1     -10.475   8.043  67.842  1.00  0.00    -0.197 C  
HETATM   31  O   UNL     1     -11.032   7.311  66.752  1.00  0.00    -0.521 OA 
HETATM   32  H   UNL     1     -11.216   6.421  67.025  1.00  0.00     0.000 HD 
ENDBRANCH  20  30
ENDBRANCH  16  18
ENDBRANCH  10  11
ENDBRANCH   7  10
ENDBRANCH   3   4
ENDBRANCH   2   3
TORSDOF 6
ENDMDL
MODEL      139
REMARK 921   NORMALIZED FREE ENERGY PREDICTED BY IDOCK:   -5.28 KCAL/MOL
REMARK 922        TOTAL FREE ENERGY PREDICTED BY IDOCK:   -8.09 KCAL/MOL
REMARK 923 INTER-LIGAND FREE ENERGY PREDICTED BY IDOCK:   -7.34 KCAL/MOL
REMARK 924 INTRA-LIGAND FREE ENERGY PREDICTED BY IDOCK:   -0.75 KCAL/MOL
REMARK 927      BINDING AFFINITY PREDICTED BY RF-SCORE:    0.00 PKD
ROOT
HETATM    1  C   UNL     1      -8.716  11.039  62.339  1.00  0.00    -0.356 C  
HETATM    2  C   UNL     1      -9.564  10.846  63.583  1.00  0.00    -0.302 C  
ENDROOT
BRANCH   2   3
HETATM    3  O   UNL     1     -10.280  12.056  63.826  1.00  0.00    -0.357 OA 
BRANCH   3   4
HETATM    4  C   UNL     1     -10.528  12.375  65.131  1.00  0.00    -0.292 A  
HETATM    5  C   UNL     1      -9.574  12.484  66.142  1.00  0.00    -0.230 A  
HETATM    6  C   UNL     1      -9.961  12.828  67.441  1.00  0.00    -0.212 A  
HETATM    7  C   UNL     1     -11.306  13.068  67.753  1.00  0.00    -0.333 A  
HETATM    8  C   UNL     1     -11.871  12.599  65.440  1.00  0.00    -0.473 A  
HETATM    9  C   UNL     1     -12.261  12.941  66.738  1.00  0.00    -0.204 A  
BRANCH   7  10
HETATM   10  C   UNL     1     -11.704  13.375  69.176  1.00  0.00    -0.375 C  
BRANCH  10  11
HETATM   11  C   UNL     1     -12.155  12.206  70.024  1.00  0.00    -0.352 A  
HETATM   12  C   UNL     1     -12.975  12.340  71.153  1.00  0.00    -0.138 A  
HETATM   13 CL   UNL     1     -13.691  13.850  71.587  1.00  0.00    -0.415 Cl 
HETATM   14  C   UNL     1     -13.199  11.246  71.998  1.00  0.00    -0.437 A  
HETATM   15  C   UNL     1     -12.597  10.009  71.742  1.00  0.00    -0.504 A  
HETATM   16  C   UNL     1     -11.797   9.838  70.608  1.00  0.00    -0.360 A  
HETATM   17  C   UNL     1     -11.626  10.934  69.741  1.00  0.00    -0.399 A  
BRANCH  16  18
HETATM   18  C   UNL     1     -11.001   8.566  70.343  1.00  0.00    -0.238 C  
HETATM   19  O   UNL     1     -10.169   8.237  71.472  1.00  0.00    -0.193 OA 
HETATM   20  C   UNL     1      -9.448   7.006  71.292  1.00  0.00    -0.164 C  
HETATM   21  H   UNL     1     -10.447   9.080  67.118  1.00  0.00     0.000 HD 
HETATM   22  C   UNL     1      -8.514   7.093  70.082  1.00  0.00    -0.139 C  
HETATM   23  O   UNL     1     -10.970   8.982  67.905  1.00  0.00    -0.117 OA 
HETATM   24  O   UNL     1      -7.819   5.863  69.833  1.00  0.00    -0.092 OA 
HETATM   25  C   UNL     1      -9.314   7.456  68.831  1.00  0.00    -0.145 C  
HETATM   26  H   UNL     1      -8.926   7.850  66.941  1.00  0.00     0.000 HD 
HETATM   27  O   UNL     1      -8.429   7.625  67.718  1.00  0.00    -0.121 OA 
HETATM   28  H   UNL     1      -7.239   5.917  69.082  1.00  0.00     0.000 HD 
HETATM   29  C   UNL     1     -10.145   8.726  69.054  1.00  0.00    -0.198 C  
BRANCH  20  30
HETATM   30  C   UNL     1      -8.648   6.718  72.572  1.00  0.00    -0.122 C  
HETATM   31  O   UNL     1      -7.310   7.188  72.419  1.00  0.00    -0.078 OA 
HETATM   32  H   UNL     1      -6.816   7.010  73.210  1.00  0.00     0.000 HD 
ENDBRANCH  20  30
ENDBRANCH  16  18
ENDBRANCH  10  11
ENDBRANCH   7  10
ENDBRANCH   3   4
ENDBRANCH   2   3
TORSDOF 6
ENDMDL
MODEL      140
REMARK 921   NORMALIZED FREE ENERGY PREDICTED BY IDOCK:   -5.27 KCAL/MOL
REMARK 922        TOTAL FREE ENERGY PREDICTED BY IDOCK:   -8.08 KCAL/MOL
REMARK 923 INTER-LIGAND FREE ENERGY PREDICTED BY IDOCK:   -7.28 KCAL/MOL
REMARK 924 INTRA-LIGAND FREE ENERGY PREDICTED BY IDOCK:   -0.80 KCAL/MOL
REMARK 927      BINDING AFFINITY PREDICTED BY RF-SCORE:    0.00 PKD
ROOT
HETATM    1  C   UNL     1      -5.805  20.196  67.542  1.00  0.00    -0.207 C  
HETATM    2  C   UNL     1      -6.113  19.316  68.740  1.00  0.00    -0.233 C  
ENDROOT
BRANCH   2   3
HETATM    3  O   UNL     1      -7.507  19.425  69.025  1.00  0.00    -0.358 OA 
BRANCH   3   4
HETATM    4  C   UNL     1      -8.312  18.419  68.568  1.00  0.00    -0.323 A  
HETATM    5  C   UNL     1      -7.914  17.110  68.303  1.00  0.00    -0.236 A  
HETATM    6  C   UNL     1      -8.844  16.171  67.845  1.00  0.00    -0.182 A  
HETATM    7  C   UNL     1     -10.185  16.523  67.644  1.00  0.00    -0.279 A  
HETATM    8  C   UNL     1      -9.644  18.779  68.355  1.00  0.00    -0.409 A  
HETATM    9  C   UNL     1     -10.575  17.843  67.895  1.00  0.00    -0.387 A  
BRANCH   7  10
HETATM   10  C   UNL     1     -11.153  15.507  67.088  1.00  0.00    -0.256 C  
BRANCH  10  11
HETATM   11  C   UNL     1     -11.323  14.226  67.875  1.00  0.00    -0.320 A  
HETATM   12  C   UNL     1     -11.867  14.178  69.165  1.00  0.00    -0.341 A  
HETATM   13 CL   UNL     1     -12.558  15.570  69.917  1.00  0.00    -0.264 Cl 
HETATM   14  C   UNL     1     -11.822  12.992  69.908  1.00  0.00    -0.377 A  
HETATM   15  C   UNL     1     -11.218  11.843  69.385  1.00  0.00    -0.278 A  
HETATM   16  C   UNL     1     -10.692  11.853  68.090  1.00  0.00    -0.246 A  
HETATM   17  C   UNL     1     -10.794  13.039  67.337  1.00  0.00    -0.269 A  
BRANCH  16  18
HETATM   18  C   UNL     1      -9.899  10.687  67.510  1.00  0.00    -0.168 C  
HETATM   19  O   UNL     1      -9.579  10.924  66.126  1.00  0.00    -0.189 OA 
HETATM   20  C   UNL     1      -8.774   9.878  65.554  1.00  0.00    -0.151 C  
HETATM   21  H   UNL     1     -11.442   8.265  69.159  1.00  0.00     0.000 HD 
HETATM   22  C   UNL     1      -9.508   8.537  65.602  1.00  0.00     0.019 C  
HETATM   23  O   UNL     1     -10.956   9.075  69.059  1.00  0.00    -0.120 OA 
HETATM   24  O   UNL     1      -8.713   7.455  65.094  1.00  0.00    -0.351 OA 
HETATM   25  C   UNL     1      -9.903   8.209  67.042  1.00  0.00    -0.232 C  
HETATM   26  H   UNL     1     -10.913   6.795  67.969  1.00  0.00     0.000 HD 
HETATM   27  O   UNL     1     -10.667   6.999  67.075  1.00  0.00    -0.315 OA 
HETATM   28  H   UNL     1      -9.169   6.622  65.123  1.00  0.00     0.000 HD 
HETATM   29  C   UNL     1     -10.694   9.361  67.675  1.00  0.00    -0.230 C  
BRANCH  20  30
HETATM   30  C   UNL     1      -8.437  10.259  64.104  1.00  0.00    -0.179 C  
HETATM   31  O   UNL     1      -9.138   9.400  63.207  1.00  0.00    -0.401 OA 
HETATM   32  H   UNL     1      -8.930   9.635  62.310  1.00  0.00     0.000 HD 
ENDBRANCH  20  30
ENDBRANCH  16  18
ENDBRANCH  10  11
ENDBRANCH   7  10
ENDBRANCH   3   4
ENDBRANCH   2   3
TORSDOF 6
ENDMDL
MODEL      141
REMARK 921   NORMALIZED FREE ENERGY PREDICTED BY IDOCK:   -5.26 KCAL/MOL
REMARK 922        TOTAL FREE ENERGY PREDICTED BY IDOCK:   -8.07 KCAL/MOL
REMARK 923 INTER-LIGAND FREE ENERGY PREDICTED BY IDOCK:   -7.81 KCAL/MOL
REMARK 924 INTRA-LIGAND FREE ENERGY PREDICTED BY IDOCK:   -0.25 KCAL/MOL
REMARK 927      BINDING AFFINITY PREDICTED BY RF-SCORE:    0.00 PKD
ROOT
HETATM    1  C   UNL     1     -11.212   4.996  73.416  1.00  0.00    -0.391 C  
HETATM    2  C   UNL     1     -11.061   6.378  72.808  1.00  0.00    -0.248 C  
ENDROOT
BRANCH   2   3
HETATM    3  O   UNL     1     -11.996   6.497  71.736  1.00  0.00    -0.326 OA 
BRANCH   3   4
HETATM    4  C   UNL     1     -11.504   6.914  70.531  1.00  0.00    -0.342 A  
HETATM    5  C   UNL     1     -11.325   6.119  69.401  1.00  0.00    -0.401 A  
HETATM    6  C   UNL     1     -10.818   6.675  68.222  1.00  0.00    -0.322 A  
HETATM    7  C   UNL     1     -10.481   8.033  68.152  1.00  0.00    -0.222 A  
HETATM    8  C   UNL     1     -11.155   8.265  70.472  1.00  0.00    -0.259 A  
HETATM    9  C   UNL     1     -10.647   8.823  69.295  1.00  0.00    -0.210 A  
BRANCH   7  10
HETATM   10  C   UNL     1      -9.876   8.593  66.888  1.00  0.00    -0.305 C  
BRANCH  10  11
HETATM   11  C   UNL     1      -8.958   9.786  67.041  1.00  0.00    -0.152 A  
HETATM   12  C   UNL     1      -7.689   9.714  67.630  1.00  0.00    -0.095 A  
HETATM   13 CL   UNL     1      -6.978   8.209  68.086  1.00  0.00    -0.075 Cl 
HETATM   14  C   UNL     1      -6.973  10.885  67.911  1.00  0.00    -0.073 A  
HETATM   15  C   UNL     1      -7.517  12.142  67.627  1.00  0.00    -0.129 A  
HETATM   16  C   UNL     1      -8.769  12.244  67.014  1.00  0.00    -0.199 A  
HETATM   17  C   UNL     1      -9.452  11.055  66.690  1.00  0.00    -0.207 A  
BRANCH  16  18
HETATM   18  C   UNL     1      -9.482  13.575  66.804  1.00  0.00    -0.269 C  
HETATM   19  O   UNL     1     -10.315  13.530  65.630  1.00  0.00    -0.284 OA 
HETATM   20  C   UNL     1     -11.059  14.744  65.429  1.00  0.00    -0.357 C  
HETATM   21  H   UNL     1      -7.024  15.538  67.838  1.00  0.00     0.000 HD 
HETATM   22  C   UNL     1     -10.117  15.936  65.242  1.00  0.00    -0.171 C  
HETATM   23  O   UNL     1      -7.656  14.833  67.900  1.00  0.00    -0.114 OA 
HETATM   24  O   UNL     1     -10.822  17.177  65.097  1.00  0.00    -0.626 OA 
HETATM   25  C   UNL     1      -9.178  16.052  66.443  1.00  0.00    -0.305 C  
HETATM   26  H   UNL     1      -7.656  17.184  66.973  1.00  0.00     0.000 HD 
HETATM   27  O   UNL     1      -8.240  17.111  66.227  1.00  0.00    -0.284 OA 
HETATM   28  H   UNL     1     -10.238  17.917  64.981  1.00  0.00     0.000 HD 
HETATM   29  C   UNL     1      -8.446  14.730  66.703  1.00  0.00    -0.058 C  
BRANCH  20  30
HETATM   30  C   UNL     1     -11.958  14.567  64.195  1.00  0.00    -0.321 C  
HETATM   31  O   UNL     1     -12.286  15.844  63.652  1.00  0.00    -1.066 OA 
HETATM   32  H   UNL     1     -12.842  15.735  62.890  1.00  0.00     0.000 HD 
ENDBRANCH  20  30
ENDBRANCH  16  18
ENDBRANCH  10  11
ENDBRANCH   7  10
ENDBRANCH   3   4
ENDBRANCH   2   3
TORSDOF 6
ENDMDL
MODEL      142
REMARK 921   NORMALIZED FREE ENERGY PREDICTED BY IDOCK:   -5.25 KCAL/MOL
REMARK 922        TOTAL FREE ENERGY PREDICTED BY IDOCK:   -8.06 KCAL/MOL
REMARK 923 INTER-LIGAND FREE ENERGY PREDICTED BY IDOCK:   -7.60 KCAL/MOL
REMARK 924 INTRA-LIGAND FREE ENERGY PREDICTED BY IDOCK:   -0.46 KCAL/MOL
REMARK 927      BINDING AFFINITY PREDICTED BY RF-SCORE:    0.00 PKD
ROOT
HETATM    1  C   UNL     1     -10.054  18.811  65.942  1.00  0.00    -0.223 C  
HETATM    2  C   UNL     1      -9.711  17.477  66.580  1.00  0.00    -0.295 C  
ENDROOT
BRANCH   2   3
HETATM    3  O   UNL     1     -10.859  16.636  66.496  1.00  0.00    -0.178 OA 
BRANCH   3   4
HETATM    4  C   UNL     1     -10.637  15.311  66.240  1.00  0.00    -0.309 A  
HETATM    5  C   UNL     1      -9.600  14.541  66.761  1.00  0.00    -0.274 A  
HETATM    6  C   UNL     1      -9.491  13.187  66.424  1.00  0.00    -0.226 A  
HETATM    7  C   UNL     1     -10.414  12.582  65.562  1.00  0.00    -0.305 A  
HETATM    8  C   UNL     1     -11.552  14.717  65.368  1.00  0.00    -0.345 A  
HETATM    9  C   UNL     1     -11.444  13.365  65.029  1.00  0.00    -0.331 A  
BRANCH   7  10
HETATM   10  C   UNL     1     -10.235  11.137  65.165  1.00  0.00    -0.347 C  
BRANCH  10  11
HETATM   11  C   UNL     1      -9.821  10.176  66.258  1.00  0.00    -0.288 A  
HETATM   12  C   UNL     1      -8.755   9.276  66.132  1.00  0.00    -0.149 A  
HETATM   13 CL   UNL     1      -7.697   9.297  64.768  1.00  0.00    -0.107 Cl 
HETATM   14  C   UNL     1      -8.545   8.289  67.104  1.00  0.00    -0.123 A  
HETATM   15  C   UNL     1      -9.403   8.173  68.203  1.00  0.00    -0.139 A  
HETATM   16  C   UNL     1     -10.458   9.074  68.369  1.00  0.00    -0.234 A  
HETATM   17  C   UNL     1     -10.622  10.094  67.410  1.00  0.00    -0.329 A  
BRANCH  16  18
HETATM   18  C   UNL     1     -11.511   8.924  69.461  1.00  0.00     0.355 C  
HETATM   19  O   UNL     1     -11.728  10.176  70.139  1.00  0.00    -0.261 OA 
HETATM   20  C   UNL     1     -12.763  10.097  71.135  1.00  0.00    -0.396 C  
HETATM   21  H   UNL     1     -10.681   5.868  70.429  1.00  0.00     0.000 HD 
HETATM   22  C   UNL     1     -12.400   9.079  72.218  1.00  0.00    -0.332 C  
HETATM   23  O   UNL     1     -10.939   6.544  69.815  1.00  0.00    -0.273 OA 
HETATM   24  O   UNL     1     -13.435   8.927  73.201  1.00  0.00    -0.968 OA 
HETATM   25  C   UNL     1     -12.135   7.713  71.584  1.00  0.00    -0.306 C  
HETATM   26  H   UNL     1     -11.544   5.936  72.192  1.00  0.00     0.000 HD 
HETATM   27  O   UNL     1     -11.709   6.785  72.586  1.00  0.00    -0.199 OA 
HETATM   28  H   UNL     1     -13.210   8.295  73.874  1.00  0.00     0.000 HD 
HETATM   29  C   UNL     1     -11.089   7.816  70.467  1.00  0.00    -0.257 C  
BRANCH  20  30
HETATM   30  C   UNL     1     -12.958  11.492  71.748  1.00  0.00    -0.394 C  
HETATM   31  O   UNL     1     -12.412  12.480  70.876  1.00  0.00    -0.365 OA 
HETATM   32  H   UNL     1     -12.533  13.343  71.254  1.00  0.00     0.000 HD 
ENDBRANCH  20  30
ENDBRANCH  16  18
ENDBRANCH  10  11
ENDBRANCH   7  10
ENDBRANCH   3   4
ENDBRANCH   2   3
TORSDOF 6
ENDMDL
MODEL      143
REMARK 921   NORMALIZED FREE ENERGY PREDICTED BY IDOCK:   -5.20 KCAL/MOL
REMARK 922        TOTAL FREE ENERGY PREDICTED BY IDOCK:   -8.00 KCAL/MOL
REMARK 923 INTER-LIGAND FREE ENERGY PREDICTED BY IDOCK:   -6.78 KCAL/MOL
REMARK 924 INTRA-LIGAND FREE ENERGY PREDICTED BY IDOCK:   -1.21 KCAL/MOL
REMARK 927      BINDING AFFINITY PREDICTED BY RF-SCORE:    0.00 PKD
ROOT
HETATM    1  C   UNL     1      -9.756  20.126  66.918  1.00  0.00    -0.582 C  
HETATM    2  C   UNL     1      -9.663  18.742  66.302  1.00  0.00    -0.330 C  
ENDROOT
BRANCH   2   3
HETATM    3  O   UNL     1      -9.317  17.819  67.333  1.00  0.00    -0.249 OA 
BRANCH   3   4
HETATM    4  C   UNL     1      -9.824  16.554  67.226  1.00  0.00    -0.254 A  
HETATM    5  C   UNL     1      -9.399  15.577  66.328  1.00  0.00    -0.355 A  
HETATM    6  C   UNL     1      -9.999  14.313  66.327  1.00  0.00    -0.319 A  
HETATM    7  C   UNL     1     -11.033  14.005  67.221  1.00  0.00    -0.303 A  
HETATM    8  C   UNL     1     -10.864  16.258  68.109  1.00  0.00    -0.342 A  
HETATM    9  C   UNL     1     -11.467  14.997  68.109  1.00  0.00    -0.355 A  
BRANCH   7  10
HETATM   10  C   UNL     1     -11.707  12.656  67.156  1.00  0.00    -0.438 C  
BRANCH  10  11
HETATM   11  C   UNL     1     -11.045  11.527  67.914  1.00  0.00    -0.317 A  
HETATM   12  C   UNL     1     -11.180  11.340  69.296  1.00  0.00    -0.272 A  
HETATM   13 CL   UNL     1     -12.263  12.293  70.245  1.00  0.00    -0.377 Cl 
HETATM   14  C   UNL     1     -10.393  10.392  69.962  1.00  0.00    -0.181 A  
HETATM   15  C   UNL     1      -9.448   9.630  69.266  1.00  0.00    -0.184 A  
HETATM   16  C   UNL     1      -9.310   9.775  67.882  1.00  0.00    -0.139 A  
HETATM   17  C   UNL     1     -10.148  10.695  67.221  1.00  0.00    -0.238 A  
BRANCH  16  18
HETATM   18  C   UNL     1      -8.211   9.084  67.083  1.00  0.00    -0.110 C  
HETATM   19  O   UNL     1      -7.320  10.052  66.496  1.00  0.00    -0.097 OA 
HETATM   20  C   UNL     1      -6.227   9.442  65.787  1.00  0.00    -0.060 C  
HETATM   21  H   UNL     1     -10.049   6.597  65.900  1.00  0.00     0.000 HD 
HETATM   22  C   UNL     1      -6.741   8.577  64.634  1.00  0.00    -0.069 C  
HETATM   23  O   UNL     1      -9.669   7.154  66.568  1.00  0.00    -0.183 OA 
HETATM   24  O   UNL     1      -5.683   7.903  63.937  1.00  0.00    -0.054 OA 
HETATM   25  C   UNL     1      -7.714   7.523  65.166  1.00  0.00    -0.111 C  
HETATM   26  H   UNL     1      -8.867   6.119  64.407  1.00  0.00     0.000 HD 
HETATM   27  O   UNL     1      -8.262   6.773  64.077  1.00  0.00    -0.061 OA 
HETATM   28  H   UNL     1      -6.001   7.366  63.221  1.00  0.00     0.000 HD 
HETATM   29  C   UNL     1      -8.834   8.171  65.990  1.00  0.00    -0.172 C  
BRANCH  20  30
HETATM   30  C   UNL     1      -5.307  10.554  65.259  1.00  0.00    -0.130 C  
HETATM   31  O   UNL     1      -5.474  11.730  66.049  1.00  0.00    -0.501 OA 
HETATM   32  H   UNL     1      -4.905  12.418  65.723  1.00  0.00     0.000 HD 
ENDBRANCH  20  30
ENDBRANCH  16  18
ENDBRANCH  10  11
ENDBRANCH   7  10
ENDBRANCH   3   4
ENDBRANCH   2   3
TORSDOF 6
ENDMDL
MODEL      144
REMARK 921   NORMALIZED FREE ENERGY PREDICTED BY IDOCK:   -5.20 KCAL/MOL
REMARK 922        TOTAL FREE ENERGY PREDICTED BY IDOCK:   -7.98 KCAL/MOL
REMARK 923 INTER-LIGAND FREE ENERGY PREDICTED BY IDOCK:   -7.84 KCAL/MOL
REMARK 924 INTRA-LIGAND FREE ENERGY PREDICTED BY IDOCK:   -0.15 KCAL/MOL
REMARK 927      BINDING AFFINITY PREDICTED BY RF-SCORE:    0.00 PKD
ROOT
HETATM    1  C   UNL     1      -7.647  19.724  67.476  1.00  0.00    -0.310 C  
HETATM    2  C   UNL     1      -8.768  18.864  66.922  1.00  0.00    -0.300 C  
ENDROOT
BRANCH   2   3
HETATM    3  O   UNL     1      -8.204  17.631  66.479  1.00  0.00    -0.245 OA 
BRANCH   3   4
HETATM    4  C   UNL     1      -8.985  16.515  66.600  1.00  0.00    -0.255 A  
HETATM    5  C   UNL     1     -10.052  16.171  65.774  1.00  0.00    -0.390 A  
HETATM    6  C   UNL     1     -10.768  14.991  66.003  1.00  0.00    -0.329 A  
HETATM    7  C   UNL     1     -10.430  14.137  67.061  1.00  0.00    -0.271 A  
HETATM    8  C   UNL     1      -8.653  15.675  67.665  1.00  0.00    -0.177 A  
HETATM    9  C   UNL     1      -9.368  14.497  67.898  1.00  0.00    -0.201 A  
BRANCH   7  10
HETATM   10  C   UNL     1     -11.259  12.903  67.325  1.00  0.00    -0.329 C  
BRANCH  10  11
HETATM   11  C   UNL     1     -11.800  12.733  68.727  1.00  0.00    -0.346 A  
HETATM   12  C   UNL     1     -12.167  13.807  69.550  1.00  0.00    -0.293 A  
HETATM   13 CL   UNL     1     -12.194  15.433  68.971  1.00  0.00    -0.233 Cl 
HETATM   14  C   UNL     1     -12.480  13.589  70.898  1.00  0.00    -0.448 A  
HETATM   15  C   UNL     1     -12.415  12.306  71.450  1.00  0.00    -0.212 A  
HETATM   16  C   UNL     1     -12.080  11.212  70.647  1.00  0.00    -0.477 A  
HETATM   17  C   UNL     1     -11.820  11.441  69.281  1.00  0.00    -0.417 A  
BRANCH  16  18
HETATM   18  C   UNL     1     -11.854   9.812  71.207  1.00  0.00    -0.399 C  
HETATM   19  O   UNL     1     -11.006   9.042  70.334  1.00  0.00    -0.234 OA 
HETATM   20  C   UNL     1     -10.711   7.735  70.857  1.00  0.00    -0.221 C  
HETATM   21  H   UNL     1     -14.876   9.378  72.490  1.00  0.00     0.000 HD 
HETATM   22  C   UNL     1     -11.993   6.919  71.038  1.00  0.00    -0.374 C  
HETATM   23  O   UNL     1     -14.045   9.816  72.355  1.00  0.00    -0.185 OA 
HETATM   24  O   UNL     1     -11.747   5.627  71.614  1.00  0.00    -0.047 OA 
HETATM   25  C   UNL     1     -12.967   7.673  71.945  1.00  0.00    -0.270 C  
HETATM   26  H   UNL     1     -14.805   7.419  72.606  1.00  0.00     0.000 HD 
HETATM   27  O   UNL     1     -14.199   6.951  72.043  1.00  0.00    -0.270 OA 
HETATM   28  H   UNL     1     -12.543   5.121  71.727  1.00  0.00     0.000 HD 
HETATM   29  C   UNL     1     -13.216   9.095  71.428  1.00  0.00    -0.299 C  
BRANCH  20  30
HETATM   30  C   UNL     1      -9.753   7.026  69.886  1.00  0.00    -0.163 C  
HETATM   31  O   UNL     1      -9.081   5.966  70.564  1.00  0.00    -0.145 OA 
HETATM   32  H   UNL     1      -8.488   5.528  69.964  1.00  0.00     0.000 HD 
ENDBRANCH  20  30
ENDBRANCH  16  18
ENDBRANCH  10  11
ENDBRANCH   7  10
ENDBRANCH   3   4
ENDBRANCH   2   3
TORSDOF 6
ENDMDL
MODEL      145
REMARK 921   NORMALIZED FREE ENERGY PREDICTED BY IDOCK:   -5.17 KCAL/MOL
REMARK 922        TOTAL FREE ENERGY PREDICTED BY IDOCK:   -7.95 KCAL/MOL
REMARK 923 INTER-LIGAND FREE ENERGY PREDICTED BY IDOCK:   -6.71 KCAL/MOL
REMARK 924 INTRA-LIGAND FREE ENERGY PREDICTED BY IDOCK:   -1.24 KCAL/MOL
REMARK 927      BINDING AFFINITY PREDICTED BY RF-SCORE:    0.00 PKD
ROOT
HETATM    1  C   UNL     1     -14.318  14.245  72.077  1.00  0.00    -0.629 C  
HETATM    2  C   UNL     1     -12.803  14.230  72.171  1.00  0.00    -0.344 C  
ENDROOT
BRANCH   2   3
HETATM    3  O   UNL     1     -12.294  15.239  71.300  1.00  0.00    -0.304 OA 
BRANCH   3   4
HETATM    4  C   UNL     1     -11.691  14.813  70.149  1.00  0.00    -0.301 A  
HETATM    5  C   UNL     1     -12.187  13.847  69.276  1.00  0.00    -0.319 A  
HETATM    6  C   UNL     1     -11.471  13.509  68.122  1.00  0.00    -0.338 A  
HETATM    7  C   UNL     1     -10.251  14.128  67.822  1.00  0.00    -0.242 A  
HETATM    8  C   UNL     1     -10.468  15.423  69.863  1.00  0.00    -0.310 A  
HETATM    9  C   UNL     1      -9.750  15.085  68.712  1.00  0.00    -0.227 A  
BRANCH   7  10
HETATM   10  C   UNL     1      -9.469  13.697  66.605  1.00  0.00    -0.285 C  
BRANCH  10  11
HETATM   11  C   UNL     1      -9.423  12.213  66.315  1.00  0.00    -0.238 A  
HETATM   12  C   UNL     1      -9.981  11.632  65.169  1.00  0.00    -0.259 A  
HETATM   13 CL   UNL     1     -10.632  12.586  63.886  1.00  0.00    -0.444 Cl 
HETATM   14  C   UNL     1     -10.069  10.239  65.054  1.00  0.00    -0.353 A  
HETATM   15  C   UNL     1      -9.621   9.406  66.085  1.00  0.00    -0.311 A  
HETATM   16  C   UNL     1      -9.034   9.957  67.228  1.00  0.00    -0.145 A  
HETATM   17  C   UNL     1      -8.904  11.358  67.303  1.00  0.00    -0.153 A  
BRANCH  16  18
HETATM   18  C   UNL     1      -8.652   9.123  68.446  1.00  0.00    -0.129 C  
HETATM   19  O   UNL     1      -8.059   7.873  68.044  1.00  0.00    -0.122 OA 
HETATM   20  C   UNL     1      -7.622   7.081  69.162  1.00  0.00    -0.100 C  
HETATM   21  H   UNL     1     -11.217   9.971  70.360  1.00  0.00     0.000 HD 
HETATM   22  C   UNL     1      -8.800   6.724  70.072  1.00  0.00    -0.142 C  
HETATM   23  O   UNL     1     -10.456  10.120  69.812  1.00  0.00    -0.232 OA 
HETATM   24  O   UNL     1      -8.395   5.983  71.232  1.00  0.00    -0.121 OA 
HETATM   25  C   UNL     1      -9.504   8.000  70.537  1.00  0.00    -0.166 C  
HETATM   26  H   UNL     1     -11.096   8.455  71.603  1.00  0.00     0.000 HD 
HETATM   27  O   UNL     1     -10.658   7.663  71.314  1.00  0.00    -0.218 OA 
HETATM   28  H   UNL     1      -9.127   5.761  71.797  1.00  0.00     0.000 HD 
HETATM   29  C   UNL     1      -9.897   8.881  69.344  1.00  0.00    -0.183 C  
BRANCH  20  30
HETATM   30  C   UNL     1      -6.949   5.807  68.625  1.00  0.00    -0.071 C  
HETATM   31  O   UNL     1      -6.115   5.242  69.634  1.00  0.00    -0.020 OA 
HETATM   32  H   UNL     1      -5.699   4.455  69.302  1.00  0.00     0.000 HD 
ENDBRANCH  20  30
ENDBRANCH  16  18
ENDBRANCH  10  11
ENDBRANCH   7  10
ENDBRANCH   3   4
ENDBRANCH   2   3
TORSDOF 6
ENDMDL
MODEL      146
REMARK 921   NORMALIZED FREE ENERGY PREDICTED BY IDOCK:   -5.15 KCAL/MOL
REMARK 922        TOTAL FREE ENERGY PREDICTED BY IDOCK:   -7.92 KCAL/MOL
REMARK 923 INTER-LIGAND FREE ENERGY PREDICTED BY IDOCK:   -7.20 KCAL/MOL
REMARK 924 INTRA-LIGAND FREE ENERGY PREDICTED BY IDOCK:   -0.71 KCAL/MOL
REMARK 927      BINDING AFFINITY PREDICTED BY RF-SCORE:    0.00 PKD
ROOT
HETATM    1  C   UNL     1     -11.270  15.976  70.223  1.00  0.00    -0.397 C  
HETATM    2  C   UNL     1     -12.140  15.598  69.038  1.00  0.00    -0.205 C  
ENDROOT
BRANCH   2   3
HETATM    3  O   UNL     1     -11.307  15.521  67.882  1.00  0.00    -0.331 OA 
BRANCH   3   4
HETATM    4  C   UNL     1     -11.207  14.301  67.274  1.00  0.00    -0.318 A  
HETATM    5  C   UNL     1     -12.201  13.678  66.522  1.00  0.00    -0.454 A  
HETATM    6  C   UNL     1     -11.966  12.427  65.943  1.00  0.00    -0.434 A  
HETATM    7  C   UNL     1     -10.735  11.777  66.105  1.00  0.00    -0.320 A  
HETATM    8  C   UNL     1      -9.984  13.651  67.451  1.00  0.00    -0.234 A  
HETATM    9  C   UNL     1      -9.746  12.400  66.876  1.00  0.00    -0.217 A  
BRANCH   7  10
HETATM   10  C   UNL     1     -10.531  10.399  65.524  1.00  0.00    -0.192 C  
BRANCH  10  11
HETATM   11  C   UNL     1      -9.649   9.452  66.308  1.00  0.00    -0.297 A  
HETATM   12  C   UNL     1      -8.334   9.137  65.940  1.00  0.00    -0.123 A  
HETATM   13 CL   UNL     1      -7.533   9.938  64.637  1.00  0.00    -0.135 Cl 
HETATM   14  C   UNL     1      -7.641   8.114  66.600  1.00  0.00    -0.093 A  
HETATM   15  C   UNL     1      -8.252   7.380  67.622  1.00  0.00    -0.118 A  
HETATM   16  C   UNL     1      -9.553   7.690  68.029  1.00  0.00    -0.159 A  
HETATM   17  C   UNL     1     -10.215   8.757  67.391  1.00  0.00    -0.318 A  
BRANCH  16  18
HETATM   18  C   UNL     1     -10.329   6.847  69.034  1.00  0.00    -0.192 C  
HETATM   19  O   UNL     1     -11.032   7.685  69.972  1.00  0.00    -0.255 OA 
HETATM   20  C   UNL     1     -11.832   6.932  70.900  1.00  0.00    -0.376 C  
HETATM   21  H   UNL     1      -8.129   4.387  69.309  1.00  0.00     0.000 HD 
HETATM   22  C   UNL     1     -10.959   5.992  71.735  1.00  0.00    -0.269 C  
HETATM   23  O   UNL     1      -8.715   4.981  68.856  1.00  0.00    -0.089 OA 
HETATM   24  O   UNL     1     -11.728   5.179  72.633  1.00  0.00    -0.181 OA 
HETATM   25  C   UNL     1     -10.158   5.069  70.815  1.00  0.00    -0.237 C  
HETATM   26  H   UNL     1      -8.779   3.679  71.021  1.00  0.00     0.000 HD 
HETATM   27  O   UNL     1      -9.277   4.252  71.592  1.00  0.00    -0.122 OA 
HETATM   28  H   UNL     1     -11.186   4.596  73.152  1.00  0.00     0.000 HD 
HETATM   29  C   UNL     1      -9.369   5.874  69.775  1.00  0.00    -0.148 C  
BRANCH  20  30
HETATM   30  C   UNL     1     -12.585   7.918  71.806  1.00  0.00    -0.328 C  
HETATM   31  O   UNL     1     -11.986   7.934  73.101  1.00  0.00    -0.662 OA 
HETATM   32  H   UNL     1     -12.452   8.543  73.661  1.00  0.00     0.000 HD 
ENDBRANCH  20  30
ENDBRANCH  16  18
ENDBRANCH  10  11
ENDBRANCH   7  10
ENDBRANCH   3   4
ENDBRANCH   2   3
TORSDOF 6
ENDMDL
MODEL      147
REMARK 921   NORMALIZED FREE ENERGY PREDICTED BY IDOCK:   -5.14 KCAL/MOL
REMARK 922        TOTAL FREE ENERGY PREDICTED BY IDOCK:   -7.91 KCAL/MOL
REMARK 923 INTER-LIGAND FREE ENERGY PREDICTED BY IDOCK:   -6.70 KCAL/MOL
REMARK 924 INTRA-LIGAND FREE ENERGY PREDICTED BY IDOCK:   -1.21 KCAL/MOL
REMARK 927      BINDING AFFINITY PREDICTED BY RF-SCORE:    0.00 PKD
ROOT
HETATM    1  C   UNL     1      -9.623   5.677  73.865  1.00  0.00    -0.146 C  
HETATM    2  C   UNL     1     -10.109   6.216  72.532  1.00  0.00    -0.178 C  
ENDROOT
BRANCH   2   3
HETATM    3  O   UNL     1     -10.222   5.121  71.625  1.00  0.00    -0.199 OA 
BRANCH   3   4
HETATM    4  C   UNL     1     -10.133   5.411  70.292  1.00  0.00    -0.248 A  
HETATM    5  C   UNL     1      -9.493   4.636  69.328  1.00  0.00    -0.231 A  
HETATM    6  C   UNL     1      -9.482   5.045  67.990  1.00  0.00    -0.165 A  
HETATM    7  C   UNL     1     -10.109   6.233  67.594  1.00  0.00    -0.179 A  
HETATM    8  C   UNL     1     -10.747   6.604  69.905  1.00  0.00    -0.297 A  
HETATM    9  C   UNL     1     -10.736   7.016  68.570  1.00  0.00    -0.219 A  
BRANCH   7  10
HETATM   10  C   UNL     1     -10.026   6.683  66.155  1.00  0.00     0.132 C  
BRANCH  10  11
HETATM   11  C   UNL     1      -9.123   7.860  65.860  1.00  0.00    -0.139 A  
HETATM   12  C   UNL     1      -7.725   7.778  65.850  1.00  0.00    -0.094 A  
HETATM   13 CL   UNL     1      -6.897   6.272  66.011  1.00  0.00    -0.056 Cl 
HETATM   14  C   UNL     1      -6.949   8.941  65.757  1.00  0.00    -0.080 A  
HETATM   15  C   UNL     1      -7.554  10.201  65.690  1.00  0.00    -0.144 A  
HETATM   16  C   UNL     1      -8.947  10.311  65.668  1.00  0.00    -0.198 A  
HETATM   17  C   UNL     1      -9.711   9.128  65.709  1.00  0.00    -0.299 A  
BRANCH  16  18
HETATM   18  C   UNL     1      -9.672  11.651  65.737  1.00  0.00    -0.236 C  
HETATM   19  O   UNL     1     -10.479  11.735  66.927  1.00  0.00    -0.212 OA 
HETATM   20  C   UNL     1     -11.131  13.010  67.067  1.00  0.00    -0.281 C  
HETATM   21  H   UNL     1     -10.266  11.976  62.495  1.00  0.00     0.000 HD 
HETATM   22  C   UNL     1     -12.073  13.273  65.890  1.00  0.00    -0.441 C  
HETATM   23  O   UNL     1      -9.736  11.849  63.273  1.00  0.00    -0.377 OA 
HETATM   24  O   UNL     1     -12.698  14.563  65.963  1.00  0.00    -0.341 OA 
HETATM   25  C   UNL     1     -11.299  13.187  64.574  1.00  0.00    -0.349 C  
HETATM   26  H   UNL     1     -11.716  13.291  62.652  1.00  0.00     0.000 HD 
HETATM   27  O   UNL     1     -12.197  13.345  63.470  1.00  0.00    -0.648 OA 
HETATM   28  H   UNL     1     -13.283  14.726  65.232  1.00  0.00     0.000 HD 
HETATM   29  C   UNL     1     -10.540  11.859  64.464  1.00  0.00    -0.311 C  
BRANCH  20  30
HETATM   30  C   UNL     1     -11.908  13.017  68.393  1.00  0.00    -0.334 C  
HETATM   31  O   UNL     1     -11.036  13.390  69.459  1.00  0.00    -0.433 OA 
HETATM   32  H   UNL     1     -11.516  13.395  70.278  1.00  0.00     0.000 HD 
ENDBRANCH  20  30
ENDBRANCH  16  18
ENDBRANCH  10  11
ENDBRANCH   7  10
ENDBRANCH   3   4
ENDBRANCH   2   3
TORSDOF 6
ENDMDL
MODEL      148
REMARK 921   NORMALIZED FREE ENERGY PREDICTED BY IDOCK:   -5.10 KCAL/MOL
REMARK 922        TOTAL FREE ENERGY PREDICTED BY IDOCK:   -7.86 KCAL/MOL
REMARK 923 INTER-LIGAND FREE ENERGY PREDICTED BY IDOCK:   -7.05 KCAL/MOL
REMARK 924 INTRA-LIGAND FREE ENERGY PREDICTED BY IDOCK:   -0.81 KCAL/MOL
REMARK 927      BINDING AFFINITY PREDICTED BY RF-SCORE:    0.00 PKD
ROOT
HETATM    1  C   UNL     1     -11.029   3.876  73.409  1.00  0.00    -0.327 C  
HETATM    2  C   UNL     1      -9.977   3.030  72.715  1.00  0.00    -0.145 C  
ENDROOT
BRANCH   2   3
HETATM    3  O   UNL     1     -10.021   3.323  71.319  1.00  0.00    -0.149 OA 
BRANCH   3   4
HETATM    4  C   UNL     1      -9.585   4.559  70.933  1.00  0.00    -0.180 A  
HETATM    5  C   UNL     1      -8.389   5.161  71.319  1.00  0.00    -0.118 A  
HETATM    6  C   UNL     1      -8.056   6.434  70.843  1.00  0.00    -0.124 A  
HETATM    7  C   UNL     1      -8.910   7.125  69.973  1.00  0.00    -0.142 A  
HETATM    8  C   UNL     1     -10.447   5.249  70.078  1.00  0.00    -0.351 A  
HETATM    9  C   UNL     1     -10.117   6.521  69.602  1.00  0.00    -0.209 A  
BRANCH   7  10
HETATM   10  C   UNL     1      -8.556   8.522  69.526  1.00  0.00    -0.131 C  
BRANCH  10  11
HETATM   11  C   UNL     1      -8.772   8.844  68.063  1.00  0.00    -0.133 A  
HETATM   12  C   UNL     1      -8.142   8.155  67.019  1.00  0.00    -0.108 A  
HETATM   13 CL   UNL     1      -7.180   6.750  67.301  1.00  0.00    -0.083 Cl 
HETATM   14  C   UNL     1      -8.239   8.625  65.703  1.00  0.00    -0.123 A  
HETATM   15  C   UNL     1      -8.949   9.794  65.410  1.00  0.00    -0.229 A  
HETATM   16  C   UNL     1      -9.612  10.487  66.428  1.00  0.00    -0.220 A  
HETATM   17  C   UNL     1      -9.548   9.971  67.737  1.00  0.00    -0.168 A  
BRANCH  16  18
HETATM   18  C   UNL     1     -10.284  11.837  66.208  1.00  0.00    -0.221 C  
HETATM   19  O   UNL     1     -10.965  11.869  64.939  1.00  0.00    -0.298 OA 
HETATM   20  C   UNL     1     -11.670  13.103  64.717  1.00  0.00    -0.347 C  
HETATM   21  H   UNL     1      -7.960  13.705  67.648  1.00  0.00     0.000 HD 
HETATM   22  C   UNL     1     -10.704  14.290  64.716  1.00  0.00    -0.416 C  
HETATM   23  O   UNL     1      -8.600  13.006  67.591  1.00  0.00    -0.165 OA 
HETATM   24  O   UNL     1     -11.377  15.548  64.557  1.00  0.00    -0.621 OA 
HETATM   25  C   UNL     1      -9.921  14.326  66.030  1.00  0.00    -0.319 C  
HETATM   26  H   UNL     1      -8.469  15.405  66.808  1.00  0.00     0.000 HD 
HETATM   27  O   UNL     1      -8.956  15.383  65.992  1.00  0.00    -0.310 OA 
HETATM   28  H   UNL     1     -10.778  16.285  64.556  1.00  0.00     0.000 HD 
HETATM   29  C   UNL     1      -9.236  12.981  66.302  1.00  0.00    -0.065 C  
BRANCH  20  30
HETATM   30  C   UNL     1     -12.410  13.007  63.374  1.00  0.00    -0.394 C  
HETATM   31  O   UNL     1     -12.583  11.637  63.017  1.00  0.00    -0.950 OA 
HETATM   32  H   UNL     1     -13.041  11.578  62.187  1.00  0.00     0.000 HD 
ENDBRANCH  20  30
ENDBRANCH  16  18
ENDBRANCH  10  11
ENDBRANCH   7  10
ENDBRANCH   3   4
ENDBRANCH   2   3
TORSDOF 6
ENDMDL
MODEL      149
REMARK 921   NORMALIZED FREE ENERGY PREDICTED BY IDOCK:   -5.07 KCAL/MOL
REMARK 922        TOTAL FREE ENERGY PREDICTED BY IDOCK:   -7.81 KCAL/MOL
REMARK 923 INTER-LIGAND FREE ENERGY PREDICTED BY IDOCK:   -6.68 KCAL/MOL
REMARK 924 INTRA-LIGAND FREE ENERGY PREDICTED BY IDOCK:   -1.14 KCAL/MOL
REMARK 927      BINDING AFFINITY PREDICTED BY RF-SCORE:    0.00 PKD
ROOT
HETATM    1  C   UNL     1     -10.226   6.452  74.565  1.00  0.00    -0.310 C  
HETATM    2  C   UNL     1     -10.457   6.576  73.071  1.00  0.00    -0.234 C  
ENDROOT
BRANCH   2   3
HETATM    3  O   UNL     1      -9.286   7.141  72.484  1.00  0.00    -0.137 OA 
BRANCH   3   4
HETATM    4  C   UNL     1      -9.126   6.971  71.137  1.00  0.00    -0.153 A  
HETATM    5  C   UNL     1      -7.989   7.299  70.402  1.00  0.00    -0.104 A  
HETATM    6  C   UNL     1      -7.951   7.065  69.023  1.00  0.00    -0.116 A  
HETATM    7  C   UNL     1      -9.047   6.500  68.357  1.00  0.00    -0.123 A  
HETATM    8  C   UNL     1     -10.226   6.422  70.476  1.00  0.00    -0.230 A  
HETATM    9  C   UNL     1     -10.192   6.189  69.099  1.00  0.00    -0.242 A  
BRANCH   7  10
HETATM   10  C   UNL     1      -9.003   6.318  66.859  1.00  0.00    -0.120 C  
BRANCH  10  11
HETATM   11  C   UNL     1      -8.962   7.577  66.021  1.00  0.00    -0.164 A  
HETATM   12  C   UNL     1      -7.910   7.892  65.150  1.00  0.00    -0.114 A  
HETATM   13 CL   UNL     1      -6.631   6.779  64.824  1.00  0.00    -0.042 Cl 
HETATM   14  C   UNL     1      -7.843   9.155  64.550  1.00  0.00    -0.120 A  
HETATM   15  C   UNL     1      -8.811  10.128  64.821  1.00  0.00    -0.219 A  
HETATM   16  C   UNL     1      -9.887   9.834  65.663  1.00  0.00    -0.371 A  
HETATM   17  C   UNL     1      -9.967   8.540  66.216  1.00  0.00    -0.251 A  
BRANCH  16  18
HETATM   18  C   UNL     1     -10.898  10.883  66.112  1.00  0.00    -0.098 C  
HETATM   19  O   UNL     1     -10.961  11.969  65.169  1.00  0.00    -0.295 OA 
HETATM   20  C   UNL     1     -11.951  12.952  65.518  1.00  0.00    -0.436 C  
HETATM   21  H   UNL     1     -10.323  10.658  69.366  1.00  0.00     0.000 HD 
HETATM   22  C   UNL     1     -11.638  13.582  66.877  1.00  0.00    -0.363 C  
HETATM   23  O   UNL     1     -10.543  10.340  68.498  1.00  0.00    -0.190 OA 
HETATM   24  O   UNL     1     -12.636  14.527  67.290  1.00  0.00    -0.508 OA 
HETATM   25  C   UNL     1     -11.536  12.492  67.946  1.00  0.00    -0.347 C  
HETATM   26  H   UNL     1     -11.092  12.396  69.862  1.00  0.00     0.000 HD 
HETATM   27  O   UNL     1     -11.156  13.072  69.198  1.00  0.00    -0.244 OA 
HETATM   28  H   UNL     1     -12.442  14.918  68.134  1.00  0.00     0.000 HD 
HETATM   29  C   UNL     1     -10.538  11.404  67.532  1.00  0.00    -0.213 C  
BRANCH  20  30
HETATM   30  C   UNL     1     -11.981  14.026  64.419  1.00  0.00    -0.454 C  
HETATM   31  O   UNL     1     -11.018  15.037  64.708  1.00  0.00    -0.476 OA 
HETATM   32  H   UNL     1     -11.036  15.701  64.030  1.00  0.00     0.000 HD 
ENDBRANCH  20  30
ENDBRANCH  16  18
ENDBRANCH  10  11
ENDBRANCH   7  10
ENDBRANCH   3   4
ENDBRANCH   2   3
TORSDOF 6
ENDMDL
MODEL      150
REMARK 921   NORMALIZED FREE ENERGY PREDICTED BY IDOCK:   -5.06 KCAL/MOL
REMARK 922        TOTAL FREE ENERGY PREDICTED BY IDOCK:   -7.80 KCAL/MOL
REMARK 923 INTER-LIGAND FREE ENERGY PREDICTED BY IDOCK:   -6.58 KCAL/MOL
REMARK 924 INTRA-LIGAND FREE ENERGY PREDICTED BY IDOCK:   -1.23 KCAL/MOL
REMARK 927      BINDING AFFINITY PREDICTED BY RF-SCORE:    0.00 PKD
ROOT
HETATM    1  C   UNL     1      -9.030   2.931  69.319  1.00  0.00    -0.175 C  
HETATM    2  C   UNL     1      -9.324   4.418  69.395  1.00  0.00    -0.156 C  
ENDROOT
BRANCH   2   3
HETATM    3  O   UNL     1     -10.314   4.726  68.416  1.00  0.00    -0.041 OA 
BRANCH   3   4
HETATM    4  C   UNL     1     -10.123   5.861  67.679  1.00  0.00    -0.163 A  
HETATM    5  C   UNL     1     -10.979   6.959  67.631  1.00  0.00    -0.304 A  
HETATM    6  C   UNL     1     -10.660   8.067  66.839  1.00  0.00    -0.324 A  
HETATM    7  C   UNL     1      -9.482   8.097  66.082  1.00  0.00    -0.217 A  
HETATM    8  C   UNL     1      -8.954   5.879  66.915  1.00  0.00    -0.115 A  
HETATM    9  C   UNL     1      -8.634   6.984  66.121  1.00  0.00    -0.148 A  
BRANCH   7  10
HETATM   10  C   UNL     1      -9.194   9.277  65.186  1.00  0.00    -0.264 C  
BRANCH  10  11
HETATM   11  C   UNL     1      -8.749  10.554  65.865  1.00  0.00    -0.178 A  
HETATM   12  C   UNL     1      -7.434  10.786  66.289  1.00  0.00    -0.138 A  
HETATM   13 CL   UNL     1      -6.149   9.693  65.922  1.00  0.00    -0.066 Cl 
HETATM   14  C   UNL     1      -7.132  11.905  67.076  1.00  0.00    -0.116 A  
HETATM   15  C   UNL     1      -8.136  12.798  67.465  1.00  0.00    -0.180 A  
HETATM   16  C   UNL     1      -9.452  12.607  67.033  1.00  0.00    -0.220 A  
HETATM   17  C   UNL     1      -9.728  11.506  66.199  1.00  0.00    -0.249 A  
BRANCH  16  18
HETATM   18  C   UNL     1     -10.617  13.456  67.530  1.00  0.00    -0.250 C  
HETATM   19  O   UNL     1     -10.230  14.839  67.645  1.00  0.00    -0.231 OA 
HETATM   20  C   UNL     1     -11.319  15.688  68.048  1.00  0.00    -0.324 C  
HETATM   21  H   UNL     1     -11.912  11.223  69.605  1.00  0.00     0.000 HD 
HETATM   22  C   UNL     1     -11.852  15.276  69.422  1.00  0.00    -0.343 C  
HETATM   23  O   UNL     1     -11.594  11.555  68.773  1.00  0.00    -0.260 OA 
HETATM   24  O   UNL     1     -12.979  16.064  69.834  1.00  0.00    -0.585 OA 
HETATM   25  C   UNL     1     -12.275  13.807  69.398  1.00  0.00    -0.278 C  
HETATM   26  H   UNL     1     -12.952  12.485  70.691  1.00  0.00     0.000 HD 
HETATM   27  O   UNL     1     -12.690  13.398  70.706  1.00  0.00    -0.298 OA 
HETATM   28  H   UNL     1     -13.310  15.808  70.688  1.00  0.00     0.000 HD 
HETATM   29  C   UNL     1     -11.137  12.912  68.891  1.00  0.00    -0.255 C  
BRANCH  20  30
HETATM   30  C   UNL     1     -10.818  17.141  68.077  1.00  0.00    -0.317 C  
HETATM   31  O   UNL     1     -10.666  17.571  69.428  1.00  0.00    -0.383 OA 
HETATM   32  H   UNL     1     -10.357  18.469  69.446  1.00  0.00     0.000 HD 
ENDBRANCH  20  30
ENDBRANCH  16  18
ENDBRANCH  10  11
ENDBRANCH   7  10
ENDBRANCH   3   4
ENDBRANCH   2   3
TORSDOF 6
ENDMDL
MODEL      151
REMARK 921   NORMALIZED FREE ENERGY PREDICTED BY IDOCK:   -5.05 KCAL/MOL
REMARK 922        TOTAL FREE ENERGY PREDICTED BY IDOCK:   -7.79 KCAL/MOL
REMARK 923 INTER-LIGAND FREE ENERGY PREDICTED BY IDOCK:   -6.91 KCAL/MOL
REMARK 924 INTRA-LIGAND FREE ENERGY PREDICTED BY IDOCK:   -0.88 KCAL/MOL
REMARK 927      BINDING AFFINITY PREDICTED BY RF-SCORE:    0.00 PKD
ROOT
HETATM    1  C   UNL     1     -10.306   2.986  74.411  1.00  0.00    -0.222 C  
HETATM    2  C   UNL     1      -9.653   2.678  73.077  1.00  0.00    -0.096 C  
ENDROOT
BRANCH   2   3
HETATM    3  O   UNL     1     -10.382   3.359  72.057  1.00  0.00    -0.100 OA 
BRANCH   3   4
HETATM    4  C   UNL     1      -9.914   4.587  71.678  1.00  0.00    -0.196 A  
HETATM    5  C   UNL     1      -8.583   4.999  71.709  1.00  0.00    -0.132 A  
HETATM    6  C   UNL     1      -8.235   6.286  71.284  1.00  0.00    -0.122 A  
HETATM    7  C   UNL     1      -9.209   7.180  70.822  1.00  0.00    -0.157 A  
HETATM    8  C   UNL     1     -10.890   5.479  71.233  1.00  0.00    -0.250 A  
HETATM    9  C   UNL     1     -10.546   6.766  70.808  1.00  0.00    -0.254 A  
BRANCH   7  10
HETATM   10  C   UNL     1      -8.814   8.584  70.429  1.00  0.00    -0.157 C  
BRANCH  10  11
HETATM   11  C   UNL     1      -9.638   9.245  69.346  1.00  0.00    -0.170 A  
HETATM   12  C   UNL     1      -9.547   8.905  67.990  1.00  0.00    -0.148 A  
HETATM   13 CL   UNL     1      -8.600   7.569  67.445  1.00  0.00    -0.118 Cl 
HETATM   14  C   UNL     1     -10.195   9.683  67.022  1.00  0.00    -0.308 A  
HETATM   15  C   UNL     1     -10.927  10.817  67.387  1.00  0.00    -0.361 A  
HETATM   16  C   UNL     1     -11.058  11.165  68.735  1.00  0.00    -0.291 A  
HETATM   17  C   UNL     1     -10.444  10.342  69.699  1.00  0.00    -0.286 A  
BRANCH  16  18
HETATM   18  C   UNL     1     -11.719  12.459  69.195  1.00  0.00    -0.322 C  
HETATM   19  O   UNL     1     -10.834  13.580  69.008  1.00  0.00    -0.246 OA 
HETATM   20  C   UNL     1     -11.441  14.834  69.368  1.00  0.00    -0.301 C  
HETATM   21  H   UNL     1     -13.362  11.199  71.780  1.00  0.00     0.000 HD 
HETATM   22  C   UNL     1     -11.839  14.843  70.845  1.00  0.00    -0.321 C  
HETATM   23  O   UNL     1     -13.096  11.271  70.871  1.00  0.00    -0.211 OA 
HETATM   24  O   UNL     1     -12.502  16.056  71.230  1.00  0.00    -0.546 OA 
HETATM   25  C   UNL     1     -12.773  13.668  71.142  1.00  0.00    -0.353 C  
HETATM   26  H   UNL     1     -13.653  12.896  72.725  1.00  0.00     0.000 HD 
HETATM   27  O   UNL     1     -13.073  13.626  72.541  1.00  0.00    -0.426 OA 
HETATM   28  H   UNL     1     -12.749  16.062  72.148  1.00  0.00     0.000 HD 
HETATM   29  C   UNL     1     -12.155  12.342  70.683  1.00  0.00    -0.237 C  
BRANCH  20  30
HETATM   30  C   UNL     1     -10.442  15.963  69.070  1.00  0.00    -0.234 C  
HETATM   31  O   UNL     1     -11.042  16.918  68.198  1.00  0.00    -0.347 OA 
HETATM   32  H   UNL     1     -10.425  17.616  68.014  1.00  0.00     0.000 HD 
ENDBRANCH  20  30
ENDBRANCH  16  18
ENDBRANCH  10  11
ENDBRANCH   7  10
ENDBRANCH   3   4
ENDBRANCH   2   3
TORSDOF 6
ENDMDL
MODEL      152
REMARK 921   NORMALIZED FREE ENERGY PREDICTED BY IDOCK:   -5.05 KCAL/MOL
REMARK 922        TOTAL FREE ENERGY PREDICTED BY IDOCK:   -7.79 KCAL/MOL
REMARK 923 INTER-LIGAND FREE ENERGY PREDICTED BY IDOCK:   -6.93 KCAL/MOL
REMARK 924 INTRA-LIGAND FREE ENERGY PREDICTED BY IDOCK:   -0.86 KCAL/MOL
REMARK 927      BINDING AFFINITY PREDICTED BY RF-SCORE:    0.00 PKD
ROOT
HETATM    1  C   UNL     1      -7.369   8.119  74.254  1.00  0.00    -0.232 C  
HETATM    2  C   UNL     1      -6.553   7.844  73.005  1.00  0.00    -0.075 C  
ENDROOT
BRANCH   2   3
HETATM    3  O   UNL     1      -7.336   7.031  72.133  1.00  0.00    -0.080 OA 
BRANCH   3   4
HETATM    4  C   UNL     1      -8.122   7.681  71.223  1.00  0.00    -0.095 A  
HETATM    5  C   UNL     1      -7.764   8.813  70.494  1.00  0.00    -0.089 A  
HETATM    6  C   UNL     1      -8.663   9.378  69.583  1.00  0.00    -0.172 A  
HETATM    7  C   UNL     1      -9.934   8.822  69.387  1.00  0.00    -0.196 A  
HETATM    8  C   UNL     1      -9.393   7.132  71.041  1.00  0.00    -0.158 A  
HETATM    9  C   UNL     1     -10.294   7.695  70.134  1.00  0.00    -0.217 A  
BRANCH   7  10
HETATM   10  C   UNL     1     -10.908   9.490  68.446  1.00  0.00    -0.183 C  
BRANCH  10  11
HETATM   11  C   UNL     1     -10.418   9.766  67.042  1.00  0.00    -0.295 A  
HETATM   12  C   UNL     1      -9.689   8.842  66.282  1.00  0.00    -0.275 A  
HETATM   13 CL   UNL     1      -9.423   7.224  66.820  1.00  0.00    -0.204 Cl 
HETATM   14  C   UNL     1      -9.106   9.229  65.068  1.00  0.00    -0.245 A  
HETATM   15  C   UNL     1      -9.226  10.543  64.603  1.00  0.00    -0.274 A  
HETATM   16  C   UNL     1      -9.972  11.479  65.326  1.00  0.00    -0.302 A  
HETATM   17  C   UNL     1     -10.595  11.059  66.517  1.00  0.00    -0.310 A  
BRANCH  16  18
HETATM   18  C   UNL     1     -10.029  12.957  64.955  1.00  0.00    -0.130 C  
HETATM   19  O   UNL     1      -9.535  13.774  66.033  1.00  0.00    -0.215 OA 
HETATM   20  C   UNL     1      -9.509  15.174  65.702  1.00  0.00    -0.173 C  
HETATM   21  H   UNL     1     -12.848  12.847  63.221  1.00  0.00     0.000 HD 
HETATM   22  C   UNL     1     -10.915  15.686  65.384  1.00  0.00    -0.333 C  
HETATM   23  O   UNL     1     -11.960  12.601  63.453  1.00  0.00    -0.509 OA 
HETATM   24  O   UNL     1     -10.924  17.066  64.990  1.00  0.00    -0.607 OA 
HETATM   25  C   UNL     1     -11.528  14.859  64.253  1.00  0.00    -0.128 C  
HETATM   26  H   UNL     1     -13.257  14.766  63.314  1.00  0.00     0.000 HD 
HETATM   27  O   UNL     1     -12.876  15.280  64.017  1.00  0.00    -0.613 OA 
HETATM   28  H   UNL     1     -11.797  17.384  64.793  1.00  0.00     0.000 HD 
HETATM   29  C   UNL     1     -11.481  13.360  64.575  1.00  0.00    -0.372 C  
BRANCH  20  30
HETATM   30  C   UNL     1      -8.908  15.945  66.888  1.00  0.00    -0.236 C  
HETATM   31  O   UNL     1      -7.544  15.568  67.065  1.00  0.00    -0.215 OA 
HETATM   32  H   UNL     1      -7.173  16.044  67.798  1.00  0.00     0.000 HD 
ENDBRANCH  20  30
ENDBRANCH  16  18
ENDBRANCH  10  11
ENDBRANCH   7  10
ENDBRANCH   3   4
ENDBRANCH   2   3
TORSDOF 6
ENDMDL
MODEL      153
REMARK 921   NORMALIZED FREE ENERGY PREDICTED BY IDOCK:   -5.04 KCAL/MOL
REMARK 922        TOTAL FREE ENERGY PREDICTED BY IDOCK:   -7.78 KCAL/MOL
REMARK 923 INTER-LIGAND FREE ENERGY PREDICTED BY IDOCK:   -7.23 KCAL/MOL
REMARK 924 INTRA-LIGAND FREE ENERGY PREDICTED BY IDOCK:   -0.55 KCAL/MOL
REMARK 927      BINDING AFFINITY PREDICTED BY RF-SCORE:    0.00 PKD
ROOT
HETATM    1  C   UNL     1      -6.908   4.467  64.063  1.00  0.00    -0.045 C  
HETATM    2  C   UNL     1      -7.269   5.032  65.425  1.00  0.00    -0.068 C  
ENDROOT
BRANCH   2   3
HETATM    3  O   UNL     1      -8.589   5.566  65.348  1.00  0.00    -0.144 OA 
BRANCH   3   4
HETATM    4  C   UNL     1      -9.130   6.046  66.509  1.00  0.00    -0.146 A  
HETATM    5  C   UNL     1      -8.417   6.472  67.628  1.00  0.00    -0.117 A  
HETATM    6  C   UNL     1      -9.094   6.951  68.754  1.00  0.00    -0.133 A  
HETATM    7  C   UNL     1     -10.494   7.012  68.781  1.00  0.00    -0.222 A  
HETATM    8  C   UNL     1     -10.525   6.091  66.536  1.00  0.00    -0.227 A  
HETATM    9  C   UNL     1     -11.205   6.568  67.661  1.00  0.00    -0.274 A  
BRANCH   7  10
HETATM   10  C   UNL     1     -11.201   7.473  70.033  1.00  0.00    -0.173 C  
BRANCH  10  11
HETATM   11  C   UNL     1     -11.333   8.967  70.229  1.00  0.00    -0.202 A  
HETATM   12  C   UNL     1     -12.106   9.548  71.244  1.00  0.00    -0.360 A  
HETATM   13 CL   UNL     1     -12.852   8.601  72.479  1.00  0.00    -0.407 Cl 
HETATM   14  C   UNL     1     -12.337  10.929  71.253  1.00  0.00    -0.448 A  
HETATM   15  C   UNL     1     -11.817  11.749  70.246  1.00  0.00    -0.382 A  
HETATM   16  C   UNL     1     -11.019  11.201  69.237  1.00  0.00    -0.300 A  
HETATM   17  C   UNL     1     -10.753   9.818  69.273  1.00  0.00    -0.246 A  
BRANCH  16  18
HETATM   18  C   UNL     1     -10.537  12.006  68.035  1.00  0.00    -0.208 C  
HETATM   19  O   UNL     1     -11.533  12.964  67.628  1.00  0.00    -0.293 OA 
HETATM   20  C   UNL     1     -11.094  13.792  66.537  1.00  0.00    -0.306 C  
HETATM   21  H   UNL     1      -8.906   9.558  66.514  1.00  0.00     0.000 HD 
HETATM   22  C   UNL     1     -10.783  12.946  65.301  1.00  0.00    -0.296 C  
HETATM   23  O   UNL     1      -9.128  10.140  67.232  1.00  0.00    -0.137 OA 
HETATM   24  O   UNL     1     -10.285  13.730  64.207  1.00  0.00    -0.698 OA 
HETATM   25  C   UNL     1      -9.738  11.883  65.646  1.00  0.00    -0.227 C  
HETATM   26  H   UNL     1      -8.864  10.376  64.729  1.00  0.00     0.000 HD 
HETATM   27  O   UNL     1      -9.513  11.036  64.515  1.00  0.00    -0.219 OA 
HETATM   28  H   UNL     1     -10.091  13.205  63.440  1.00  0.00     0.000 HD 
HETATM   29  C   UNL     1     -10.173  11.054  66.861  1.00  0.00    -0.222 C  
BRANCH  20  30
HETATM   30  C   UNL     1     -12.199  14.815  66.227  1.00  0.00    -0.019 C  
HETATM   31  O   UNL     1     -13.068  14.294  65.223  1.00  0.00    -0.707 OA 
HETATM   32  H   UNL     1     -13.750  14.927  65.031  1.00  0.00     0.000 HD 
ENDBRANCH  20  30
ENDBRANCH  16  18
ENDBRANCH  10  11
ENDBRANCH   7  10
ENDBRANCH   3   4
ENDBRANCH   2   3
TORSDOF 6
ENDMDL
MODEL      154
REMARK 921   NORMALIZED FREE ENERGY PREDICTED BY IDOCK:   -5.02 KCAL/MOL
REMARK 922        TOTAL FREE ENERGY PREDICTED BY IDOCK:   -7.75 KCAL/MOL
REMARK 923 INTER-LIGAND FREE ENERGY PREDICTED BY IDOCK:   -6.63 KCAL/MOL
REMARK 924 INTRA-LIGAND FREE ENERGY PREDICTED BY IDOCK:   -1.12 KCAL/MOL
REMARK 927      BINDING AFFINITY PREDICTED BY RF-SCORE:    0.00 PKD
ROOT
HETATM    1  C   UNL     1      -9.956  20.167  67.433  1.00  0.00    -0.570 C  
HETATM    2  C   UNL     1      -9.807  19.278  68.655  1.00  0.00    -0.431 C  
ENDROOT
BRANCH   2   3
HETATM    3  O   UNL     1      -9.084  18.110  68.269  1.00  0.00    -0.284 OA 
BRANCH   3   4
HETATM    4  C   UNL     1      -9.821  17.002  67.959  1.00  0.00    -0.275 A  
HETATM    5  C   UNL     1     -10.801  16.421  68.761  1.00  0.00    -0.338 A  
HETATM    6  C   UNL     1     -11.491  15.287  68.320  1.00  0.00    -0.359 A  
HETATM    7  C   UNL     1     -11.214  14.715  67.071  1.00  0.00    -0.348 A  
HETATM    8  C   UNL     1      -9.530  16.427  66.720  1.00  0.00    -0.265 A  
HETATM    9  C   UNL     1     -10.217  15.293  66.277  1.00  0.00    -0.300 A  
BRANCH   7  10
HETATM   10  C   UNL     1     -11.928  13.454  66.647  1.00  0.00    -0.452 C  
BRANCH  10  11
HETATM   11  C   UNL     1     -11.197  12.549  65.681  1.00  0.00    -0.352 A  
HETATM   12  C   UNL     1     -11.509  12.461  64.317  1.00  0.00    -0.363 A  
HETATM   13 CL   UNL     1     -12.659  13.513  63.574  1.00  0.00    -0.241 Cl 
HETATM   14  C   UNL     1     -10.922  11.470  63.521  1.00  0.00    -0.453 A  
HETATM   15  C   UNL     1     -10.032  10.543  64.072  1.00  0.00    -0.363 A  
HETATM   16  C   UNL     1      -9.679  10.624  65.423  1.00  0.00    -0.306 A  
HETATM   17  C   UNL     1     -10.238  11.660  66.197  1.00  0.00    -0.263 A  
BRANCH  16  18
HETATM   18  C   UNL     1      -8.828   9.569  66.121  1.00  0.00    -0.152 C  
HETATM   19  O   UNL     1      -7.459   9.644  65.680  1.00  0.00    -0.095 OA 
HETATM   20  C   UNL     1      -6.604   8.709  66.362  1.00  0.00    -0.062 C  
HETATM   21  H   UNL     1     -11.114   7.175  66.213  1.00  0.00     0.000 HD 
HETATM   22  C   UNL     1      -7.058   7.270  66.109  1.00  0.00    -0.070 C  
HETATM   23  O   UNL     1     -10.757   8.041  66.368  1.00  0.00     0.111 OA 
HETATM   24  O   UNL     1      -6.266   6.309  66.822  1.00  0.00    -0.036 OA 
HETATM   25  C   UNL     1      -8.518   7.101  66.535  1.00  0.00    -0.125 C  
HETATM   26  H   UNL     1      -9.875   5.676  66.481  1.00  0.00     0.000 HD 
HETATM   27  O   UNL     1      -8.968   5.781  66.216  1.00  0.00    -0.137 OA 
HETATM   28  H   UNL     1      -6.548   5.415  66.664  1.00  0.00     0.000 HD 
HETATM   29  C   UNL     1      -9.414   8.152  65.868  1.00  0.00    -0.012 C  
BRANCH  20  30
HETATM   30  C   UNL     1      -5.163   8.916  65.869  1.00  0.00    -0.036 C  
HETATM   31  O   UNL     1      -5.172   9.224  64.476  1.00  0.00    -0.049 OA 
HETATM   32  H   UNL     1      -4.282   9.351  64.171  1.00  0.00     0.000 HD 
ENDBRANCH  20  30
ENDBRANCH  16  18
ENDBRANCH  10  11
ENDBRANCH   7  10
ENDBRANCH   3   4
ENDBRANCH   2   3
TORSDOF 6
ENDMDL
MODEL      155
REMARK 921   NORMALIZED FREE ENERGY PREDICTED BY IDOCK:   -5.02 KCAL/MOL
REMARK 922        TOTAL FREE ENERGY PREDICTED BY IDOCK:   -7.75 KCAL/MOL
REMARK 923 INTER-LIGAND FREE ENERGY PREDICTED BY IDOCK:   -7.34 KCAL/MOL
REMARK 924 INTRA-LIGAND FREE ENERGY PREDICTED BY IDOCK:   -0.41 KCAL/MOL
REMARK 927      BINDING AFFINITY PREDICTED BY RF-SCORE:    0.00 PKD
ROOT
HETATM    1  C   UNL     1     -14.380   8.040  71.596  1.00  0.00    -0.581 C  
HETATM    2  C   UNL     1     -13.629   8.997  72.502  1.00  0.00    -0.435 C  
ENDROOT
BRANCH   2   3
HETATM    3  O   UNL     1     -13.415  10.213  71.787  1.00  0.00    -0.365 OA 
BRANCH   3   4
HETATM    4  C   UNL     1     -12.377  10.232  70.897  1.00  0.00    -0.373 A  
HETATM    5  C   UNL     1     -12.398  10.808  69.629  1.00  0.00    -0.262 A  
HETATM    6  C   UNL     1     -11.260  10.765  68.817  1.00  0.00    -0.331 A  
HETATM    7  C   UNL     1     -10.083  10.146  69.259  1.00  0.00    -0.237 A  
HETATM    8  C   UNL     1     -11.212   9.601  71.336  1.00  0.00    -0.426 A  
HETATM    9  C   UNL     1     -10.073   9.555  70.527  1.00  0.00    -0.347 A  
BRANCH   7  10
HETATM   10  C   UNL     1      -8.890  10.058  68.338  1.00  0.00    -0.117 C  
BRANCH  10  11
HETATM   11  C   UNL     1      -8.091  11.327  68.135  1.00  0.00    -0.134 A  
HETATM   12  C   UNL     1      -7.021  11.706  68.956  1.00  0.00    -0.111 A  
HETATM   13 CL   UNL     1      -6.401  10.667  70.187  1.00  0.00    -0.125 Cl 
HETATM   14  C   UNL     1      -6.449  12.978  68.829  1.00  0.00    -0.085 A  
HETATM   15  C   UNL     1      -6.944  13.896  67.897  1.00  0.00    -0.165 A  
HETATM   16  C   UNL     1      -7.992  13.535  67.044  1.00  0.00     0.031 A  
HETATM   17  C   UNL     1      -8.520  12.233  67.150  1.00  0.00    -0.184 A  
BRANCH  16  18
HETATM   18  C   UNL     1      -8.672  14.524  66.105  1.00  0.00     0.376 C  
HETATM   19  O   UNL     1      -8.822  15.810  66.737  1.00  0.00    -0.220 OA 
HETATM   20  C   UNL     1      -9.400  16.795  65.862  1.00  0.00    -0.127 C  
HETATM   21  H   UNL     1     -10.751  12.383  64.669  1.00  0.00     0.000 HD 
HETATM   22  C   UNL     1     -10.800  16.372  65.415  1.00  0.00    -0.239 C  
HETATM   23  O   UNL     1      -9.909  12.721  64.949  1.00  0.00    -0.170 OA 
HETATM   24  O   UNL     1     -11.389  17.301  64.493  1.00  0.00    -1.007 OA 
HETATM   25  C   UNL     1     -10.741  14.999  64.742  1.00  0.00    -0.330 C  
HETATM   26  H   UNL     1     -12.025  13.712  63.986  1.00  0.00     0.000 HD 
HETATM   27  O   UNL     1     -12.062  14.565  64.404  1.00  0.00    -0.472 OA 
HETATM   28  H   UNL     1     -12.259  17.038  64.215  1.00  0.00     0.000 HD 
HETATM   29  C   UNL     1     -10.050  13.970  65.646  1.00  0.00    -0.322 C  
BRANCH  20  30
HETATM   30  C   UNL     1      -9.454  18.138  66.608  1.00  0.00    -0.302 C  
HETATM   31  O   UNL     1      -8.193  18.796  66.504  1.00  0.00    -0.273 OA 
HETATM   32  H   UNL     1      -8.226  19.626  66.965  1.00  0.00     0.000 HD 
ENDBRANCH  20  30
ENDBRANCH  16  18
ENDBRANCH  10  11
ENDBRANCH   7  10
ENDBRANCH   3   4
ENDBRANCH   2   3
TORSDOF 6
ENDMDL
MODEL      156
REMARK 921   NORMALIZED FREE ENERGY PREDICTED BY IDOCK:   -4.98 KCAL/MOL
REMARK 922        TOTAL FREE ENERGY PREDICTED BY IDOCK:   -7.69 KCAL/MOL
REMARK 923 INTER-LIGAND FREE ENERGY PREDICTED BY IDOCK:   -7.12 KCAL/MOL
REMARK 924 INTRA-LIGAND FREE ENERGY PREDICTED BY IDOCK:   -0.57 KCAL/MOL
REMARK 927      BINDING AFFINITY PREDICTED BY RF-SCORE:    0.00 PKD
ROOT
HETATM    1  C   UNL     1     -10.893   4.146  65.082  1.00  0.00    -0.014 C  
HETATM    2  C   UNL     1      -9.721   4.356  66.023  1.00  0.00    -0.213 C  
ENDROOT
BRANCH   2   3
HETATM    3  O   UNL     1     -10.236   4.565  67.336  1.00  0.00    -0.113 OA 
BRANCH   3   4
HETATM    4  C   UNL     1     -10.318   5.860  67.769  1.00  0.00    -0.210 A  
HETATM    5  C   UNL     1     -10.206   6.997  66.971  1.00  0.00    -0.330 A  
HETATM    6  C   UNL     1     -10.318   8.270  67.541  1.00  0.00    -0.333 A  
HETATM    7  C   UNL     1     -10.542   8.427  68.915  1.00  0.00    -0.162 A  
HETATM    8  C   UNL     1     -10.526   6.011  69.141  1.00  0.00    -0.321 A  
HETATM    9  C   UNL     1     -10.636   7.282  69.713  1.00  0.00    -0.247 A  
BRANCH   7  10
HETATM   10  C   UNL     1     -10.594   9.812  69.513  1.00  0.00    -0.253 C  
BRANCH  10  11
HETATM   11  C   UNL     1      -9.647  10.841  68.934  1.00  0.00    -0.204 A  
HETATM   12  C   UNL     1      -8.269  10.854  69.190  1.00  0.00    -0.084 A  
HETATM   13 CL   UNL     1      -7.490   9.585  70.063  1.00  0.00    -0.107 Cl 
HETATM   14  C   UNL     1      -7.485  11.938  68.778  1.00  0.00    -0.100 A  
HETATM   15  C   UNL     1      -8.061  13.031  68.122  1.00  0.00    -0.155 A  
HETATM   16  C   UNL     1      -9.428  13.033  67.828  1.00  0.00    -0.209 A  
HETATM   17  C   UNL     1     -10.193  11.910  68.203  1.00  0.00    -0.203 A  
BRANCH  16  18
HETATM   18  C   UNL     1     -10.148  14.244  67.244  1.00  0.00    -0.252 C  
HETATM   19  O   UNL     1     -10.789  13.907  65.999  1.00  0.00    -0.287 OA 
HETATM   20  C   UNL     1     -11.536  15.003  65.444  1.00  0.00    -0.287 C  
HETATM   21  H   UNL     1      -7.949  16.535  68.183  1.00  0.00     0.000 HD 
HETATM   22  C   UNL     1     -10.620  16.193  65.148  1.00  0.00    -0.343 C  
HETATM   23  O   UNL     1      -8.558  15.815  68.301  1.00  0.00    -0.164 OA 
HETATM   24  O   UNL     1     -11.339  17.330  64.647  1.00  0.00    -0.905 OA 
HETATM   25  C   UNL     1      -9.881  16.612  66.420  1.00  0.00    -0.292 C  
HETATM   26  H   UNL     1      -8.500  17.926  66.912  1.00  0.00     0.000 HD 
HETATM   27  O   UNL     1      -8.959  17.666  66.122  1.00  0.00    -0.452 OA 
HETATM   28  H   UNL     1     -10.770  18.068  64.463  1.00  0.00     0.000 HD 
HETATM   29  C   UNL     1      -9.151  15.421  67.053  1.00  0.00    -0.227 C  
BRANCH  20  30
HETATM   30  C   UNL     1     -12.229  14.521  64.160  1.00  0.00    -0.342 C  
HETATM   31  O   UNL     1     -11.290  13.828  63.339  1.00  0.00    -0.313 OA 
HETATM   32  H   UNL     1     -11.718  13.531  62.545  1.00  0.00     0.000 HD 
ENDBRANCH  20  30
ENDBRANCH  16  18
ENDBRANCH  10  11
ENDBRANCH   7  10
ENDBRANCH   3   4
ENDBRANCH   2   3
TORSDOF 6
ENDMDL
MODEL      157
REMARK 921   NORMALIZED FREE ENERGY PREDICTED BY IDOCK:   -4.97 KCAL/MOL
REMARK 922        TOTAL FREE ENERGY PREDICTED BY IDOCK:   -7.68 KCAL/MOL
REMARK 923 INTER-LIGAND FREE ENERGY PREDICTED BY IDOCK:   -6.50 KCAL/MOL
REMARK 924 INTRA-LIGAND FREE ENERGY PREDICTED BY IDOCK:   -1.18 KCAL/MOL
REMARK 927      BINDING AFFINITY PREDICTED BY RF-SCORE:    0.00 PKD
ROOT
HETATM    1  C   UNL     1     -11.151   4.167  73.345  1.00  0.00    -0.354 C  
HETATM    2  C   UNL     1     -10.093   3.293  72.697  1.00  0.00    -0.160 C  
ENDROOT
BRANCH   2   3
HETATM    3  O   UNL     1     -10.010   3.645  71.317  1.00  0.00    -0.170 OA 
BRANCH   3   4
HETATM    4  C   UNL     1      -9.486   4.872  71.022  1.00  0.00    -0.164 A  
HETATM    5  C   UNL     1      -8.287   5.388  71.511  1.00  0.00    -0.122 A  
HETATM    6  C   UNL     1      -7.858   6.661  71.123  1.00  0.00    -0.102 A  
HETATM    7  C   UNL     1      -8.618   7.440  70.241  1.00  0.00    -0.145 A  
HETATM    8  C   UNL     1     -10.255   5.650  70.155  1.00  0.00    -0.318 A  
HETATM    9  C   UNL     1      -9.830   6.924  69.767  1.00  0.00    -0.177 A  
BRANCH   7  10
HETATM   10  C   UNL     1      -8.164   8.836  69.889  1.00  0.00    -0.118 C  
BRANCH  10  11
HETATM   11  C   UNL     1      -8.113   9.186  68.418  1.00  0.00    -0.104 A  
HETATM   12  C   UNL     1      -7.139   8.694  67.540  1.00  0.00    -0.080 A  
HETATM   13 CL   UNL     1      -5.993   7.497  68.025  1.00  0.00    -0.034 Cl 
HETATM   14  C   UNL     1      -7.038   9.203  66.239  1.00  0.00    -0.087 A  
HETATM   15  C   UNL     1      -7.892  10.220  65.801  1.00  0.00    -0.145 A  
HETATM   16  C   UNL     1      -8.892  10.711  66.645  1.00  0.00    -0.149 A  
HETATM   17  C   UNL     1      -9.014  10.149  67.932  1.00  0.00    -0.128 A  
BRANCH  16  18
HETATM   18  C   UNL     1      -9.764  11.909  66.287  1.00  0.00    -0.229 C  
HETATM   19  O   UNL     1     -10.199  12.599  67.474  1.00  0.00    -0.211 OA 
HETATM   20  C   UNL     1     -10.971  13.777  67.181  1.00  0.00    -0.290 C  
HETATM   21  H   UNL     1     -11.308  10.546  63.693  1.00  0.00     0.000 HD 
HETATM   22  C   UNL     1     -12.240  13.418  66.405  1.00  0.00    -0.376 C  
HETATM   23  O   UNL     1     -10.563  10.825  64.212  1.00  0.00    -0.350 OA 
HETATM   24  O   UNL     1     -13.009  14.573  66.042  1.00  0.00    -0.357 OA 
HETATM   25  C   UNL     1     -11.873  12.661  65.127  1.00  0.00    -0.396 C  
HETATM   26  H   UNL     1     -12.836  11.778  63.653  1.00  0.00     0.000 HD 
HETATM   27  O   UNL     1     -13.064  12.248  64.447  1.00  0.00    -0.780 OA 
HETATM   28  H   UNL     1     -13.797  14.350  65.560  1.00  0.00     0.000 HD 
HETATM   29  C   UNL     1     -10.983  11.452  65.436  1.00  0.00    -0.184 C  
BRANCH  20  30
HETATM   30  C   UNL     1     -11.325  14.470  68.506  1.00  0.00    -0.286 C  
HETATM   31  O   UNL     1     -12.641  14.094  68.908  1.00  0.00    -0.485 OA 
HETATM   32  H   UNL     1     -12.861  14.522  69.726  1.00  0.00     0.000 HD 
ENDBRANCH  20  30
ENDBRANCH  16  18
ENDBRANCH  10  11
ENDBRANCH   7  10
ENDBRANCH   3   4
ENDBRANCH   2   3
TORSDOF 6
ENDMDL
MODEL      158
REMARK 921   NORMALIZED FREE ENERGY PREDICTED BY IDOCK:   -4.97 KCAL/MOL
REMARK 922        TOTAL FREE ENERGY PREDICTED BY IDOCK:   -7.67 KCAL/MOL
REMARK 923 INTER-LIGAND FREE ENERGY PREDICTED BY IDOCK:   -6.74 KCAL/MOL
REMARK 924 INTRA-LIGAND FREE ENERGY PREDICTED BY IDOCK:   -0.93 KCAL/MOL
REMARK 927      BINDING AFFINITY PREDICTED BY RF-SCORE:    0.00 PKD
ROOT
HETATM    1  C   UNL     1     -10.660   4.781  72.509  1.00  0.00    -0.262 C  
HETATM    2  C   UNL     1      -9.901   6.072  72.262  1.00  0.00    -0.160 C  
ENDROOT
BRANCH   2   3
HETATM    3  O   UNL     1     -10.849   7.095  71.962  1.00  0.00    -0.216 OA 
BRANCH   3   4
HETATM    4  C   UNL     1     -10.774   7.661  70.720  1.00  0.00    -0.226 A  
HETATM    5  C   UNL     1     -10.516   6.987  69.528  1.00  0.00    -0.235 A  
HETATM    6  C   UNL     1     -10.475   7.687  68.318  1.00  0.00    -0.219 A  
HETATM    7  C   UNL     1     -10.690   9.071  68.278  1.00  0.00    -0.155 A  
HETATM    8  C   UNL     1     -10.975   9.042  70.688  1.00  0.00    -0.308 A  
HETATM    9  C   UNL     1     -10.932   9.745  69.480  1.00  0.00    -0.256 A  
BRANCH   7  10
HETATM   10  C   UNL     1     -10.576   9.812  66.967  1.00  0.00    -0.269 C  
BRANCH  10  11
HETATM   11  C   UNL     1      -9.604  10.970  66.922  1.00  0.00    -0.205 A  
HETATM   12  C   UNL     1      -8.212  10.814  66.976  1.00  0.00    -0.126 A  
HETATM   13 CL   UNL     1      -7.465   9.258  66.931  1.00  0.00    -0.090 Cl 
HETATM   14  C   UNL     1      -7.381  11.932  67.120  1.00  0.00    -0.142 A  
HETATM   15  C   UNL     1      -7.922  13.217  67.229  1.00  0.00    -0.140 A  
HETATM   16  C   UNL     1      -9.305  13.406  67.149  1.00  0.00    -0.240 A  
HETATM   17  C   UNL     1     -10.123  12.276  66.951  1.00  0.00    -0.224 A  
BRANCH  16  18
HETATM   18  C   UNL     1      -9.971  14.754  67.399  1.00  0.00    -0.223 C  
HETATM   19  O   UNL     1      -9.088  15.835  67.044  1.00  0.00    -0.202 OA 
HETATM   20  C   UNL     1      -9.700  17.127  67.200  1.00  0.00    -0.261 C  
HETATM   21  H   UNL     1     -11.626  13.907  70.139  1.00  0.00     0.000 HD 
HETATM   22  C   UNL     1     -10.106  17.366  68.656  1.00  0.00    -0.355 C  
HETATM   23  O   UNL     1     -11.355  13.838  69.232  1.00  0.00    -0.258 OA 
HETATM   24  O   UNL     1     -10.774  18.622  68.844  1.00  0.00    -0.270 OA 
HETATM   25  C   UNL     1     -11.039  16.249  69.127  1.00  0.00    -0.322 C  
HETATM   26  H   UNL     1     -11.926  15.730  70.807  1.00  0.00     0.000 HD 
HETATM   27  O   UNL     1     -11.346  16.423  70.514  1.00  0.00    -0.363 OA 
HETATM   28  H   UNL     1     -11.026  18.770  69.748  1.00  0.00     0.000 HD 
HETATM   29  C   UNL     1     -10.416  14.868  68.884  1.00  0.00    -0.242 C  
BRANCH  20  30
HETATM   30  C   UNL     1      -8.701  18.200  66.736  1.00  0.00    -0.263 C  
HETATM   31  O   UNL     1      -7.758  17.620  65.837  1.00  0.00    -0.508 OA 
HETATM   32  H   UNL     1      -7.141  18.282  65.549  1.00  0.00     0.000 HD 
ENDBRANCH  20  30
ENDBRANCH  16  18
ENDBRANCH  10  11
ENDBRANCH   7  10
ENDBRANCH   3   4
ENDBRANCH   2   3
TORSDOF 6
ENDMDL
MODEL      159
REMARK 921   NORMALIZED FREE ENERGY PREDICTED BY IDOCK:   -4.96 KCAL/MOL
REMARK 922        TOTAL FREE ENERGY PREDICTED BY IDOCK:   -7.66 KCAL/MOL
REMARK 923 INTER-LIGAND FREE ENERGY PREDICTED BY IDOCK:   -6.89 KCAL/MOL
REMARK 924 INTRA-LIGAND FREE ENERGY PREDICTED BY IDOCK:   -0.77 KCAL/MOL
REMARK 927      BINDING AFFINITY PREDICTED BY RF-SCORE:    0.00 PKD
ROOT
HETATM    1  C   UNL     1     -12.706  12.286  63.810  1.00  0.00    -0.516 C  
HETATM    2  C   UNL     1     -11.393  11.743  63.278  1.00  0.00    -0.253 C  
ENDROOT
BRANCH   2   3
HETATM    3  O   UNL     1     -10.330  12.474  63.887  1.00  0.00    -0.405 OA 
BRANCH   3   4
HETATM    4  C   UNL     1     -10.052  12.186  65.194  1.00  0.00    -0.261 A  
HETATM    5  C   UNL     1      -9.870  13.116  66.216  1.00  0.00    -0.284 A  
HETATM    6  C   UNL     1      -9.598  12.686  67.519  1.00  0.00    -0.184 A  
HETATM    7  C   UNL     1      -9.502  11.322  67.823  1.00  0.00    -0.173 A  
HETATM    8  C   UNL     1      -9.943  10.826  65.489  1.00  0.00    -0.321 A  
HETATM    9  C   UNL     1      -9.669  10.393  66.789  1.00  0.00    -0.224 A  
BRANCH   7  10
HETATM   10  C   UNL     1      -9.144  10.888  69.223  1.00  0.00     0.003 C  
BRANCH  10  11
HETATM   11  C   UNL     1     -10.137   9.997  69.936  1.00  0.00    -0.289 A  
HETATM   12  C   UNL     1     -11.372  10.449  70.419  1.00  0.00    -0.337 A  
HETATM   13 CL   UNL     1     -11.953  12.042  70.095  1.00  0.00    -0.422 Cl 
HETATM   14  C   UNL     1     -12.158   9.622  71.232  1.00  0.00    -0.457 A  
HETATM   15  C   UNL     1     -11.719   8.342  71.588  1.00  0.00    -0.354 A  
HETATM   16  C   UNL     1     -10.505   7.854  71.098  1.00  0.00    -0.230 A  
HETATM   17  C   UNL     1      -9.752   8.679  70.239  1.00  0.00    -0.191 A  
BRANCH  16  18
HETATM   18  C   UNL     1      -9.899   6.532  71.554  1.00  0.00    -0.168 C  
HETATM   19  O   UNL     1      -9.994   5.540  70.514  1.00  0.00    -0.186 OA 
HETATM   20  C   UNL     1      -9.376   4.293  70.877  1.00  0.00    -0.150 C  
HETATM   21  H   UNL     1     -10.876   6.689  74.715  1.00  0.00     0.000 HD 
HETATM   22  C   UNL     1     -10.050   3.688  72.110  1.00  0.00    -0.142 C  
HETATM   23  O   UNL     1     -10.449   6.989  73.922  1.00  0.00    -0.375 OA 
HETATM   24  O   UNL     1      -9.423   2.471  72.540  1.00  0.00    -0.087 OA 
HETATM   25  C   UNL     1     -10.011   4.685  73.269  1.00  0.00    -0.151 C  
HETATM   26  H   UNL     1     -10.696   4.774  75.113  1.00  0.00     0.000 HD 
HETATM   27  O   UNL     1     -10.720   4.154  74.393  1.00  0.00    -0.228 OA 
HETATM   28  H   UNL     1      -9.842   2.095  73.306  1.00  0.00     0.000 HD 
HETATM   29  C   UNL     1     -10.598   6.040  72.853  1.00  0.00    -0.235 C  
BRANCH  20  30
HETATM   30  C   UNL     1      -9.474   3.333  69.681  1.00  0.00    -0.139 C  
HETATM   31  O   UNL     1      -9.237   4.048  68.470  1.00  0.00    -0.127 OA 
HETATM   32  H   UNL     1      -9.298   3.454  67.731  1.00  0.00     0.000 HD 
ENDBRANCH  20  30
ENDBRANCH  16  18
ENDBRANCH  10  11
ENDBRANCH   7  10
ENDBRANCH   3   4
ENDBRANCH   2   3
TORSDOF 6
ENDMDL
MODEL      160
REMARK 921   NORMALIZED FREE ENERGY PREDICTED BY IDOCK:   -4.95 KCAL/MOL
REMARK 922        TOTAL FREE ENERGY PREDICTED BY IDOCK:   -7.65 KCAL/MOL
REMARK 923 INTER-LIGAND FREE ENERGY PREDICTED BY IDOCK:   -6.71 KCAL/MOL
REMARK 924 INTRA-LIGAND FREE ENERGY PREDICTED BY IDOCK:   -0.94 KCAL/MOL
REMARK 927      BINDING AFFINITY PREDICTED BY RF-SCORE:    0.00 PKD
ROOT
HETATM    1  C   UNL     1     -11.200   4.598  73.362  1.00  0.00    -0.423 C  
HETATM    2  C   UNL     1     -10.467   5.876  72.998  1.00  0.00    -0.222 C  
ENDROOT
BRANCH   2   3
HETATM    3  O   UNL     1     -11.410   6.783  72.431  1.00  0.00    -0.257 OA 
BRANCH   3   4
HETATM    4  C   UNL     1     -11.192   7.174  71.140  1.00  0.00    -0.262 A  
HETATM    5  C   UNL     1     -10.835   8.455  70.722  1.00  0.00    -0.255 A  
HETATM    6  C   UNL     1     -10.633   8.721  69.364  1.00  0.00    -0.218 A  
HETATM    7  C   UNL     1     -10.784   7.715  68.401  1.00  0.00    -0.098 A  
HETATM    8  C   UNL     1     -11.359   6.171  70.183  1.00  0.00    -0.433 A  
HETATM    9  C   UNL     1     -11.159   6.435  68.825  1.00  0.00    -0.404 A  
BRANCH   7  10
HETATM   10  C   UNL     1     -10.623   8.045  66.937  1.00  0.00    -0.324 C  
BRANCH  10  11
HETATM   11  C   UNL     1      -9.488   8.976  66.570  1.00  0.00    -0.266 A  
HETATM   12  C   UNL     1      -8.153   8.564  66.466  1.00  0.00    -0.103 A  
HETATM   13 CL   UNL     1      -7.698   6.903  66.584  1.00  0.00    -0.103 Cl 
HETATM   14  C   UNL     1      -7.132   9.510  66.310  1.00  0.00    -0.092 A  
HETATM   15  C   UNL     1      -7.422  10.877  66.272  1.00  0.00    -0.129 A  
HETATM   16  C   UNL     1      -8.748  11.317  66.345  1.00  0.00    -0.180 A  
HETATM   17  C   UNL     1      -9.766  10.349  66.448  1.00  0.00    -0.250 A  
BRANCH  16  18
HETATM   18  C   UNL     1      -9.127  12.789  66.450  1.00  0.00    -0.089 C  
HETATM   19  O   UNL     1      -9.056  13.239  67.817  1.00  0.00    -0.183 OA 
HETATM   20  C   UNL     1      -9.342  14.642  67.955  1.00  0.00    -0.198 C  
HETATM   21  H   UNL     1     -11.481  12.787  64.121  1.00  0.00     0.000 HD 
HETATM   22  C   UNL     1     -10.758  14.960  67.472  1.00  0.00    -0.276 C  
HETATM   23  O   UNL     1     -10.613  12.645  64.479  1.00  0.00    -0.307 OA 
HETATM   24  O   UNL     1     -11.062  16.361  67.539  1.00  0.00    -0.241 OA 
HETATM   25  C   UNL     1     -10.931  14.499  66.024  1.00  0.00    -0.324 C  
HETATM   26  H   UNL     1     -12.389  14.429  64.702  1.00  0.00     0.000 HD 
HETATM   27  O   UNL     1     -12.281  14.715  65.601  1.00  0.00    -0.295 OA 
HETATM   28  H   UNL     1     -11.942  16.559  67.239  1.00  0.00     0.000 HD 
HETATM   29  C   UNL     1     -10.548  13.022  65.864  1.00  0.00    -0.275 C  
BRANCH  20  30
HETATM   30  C   UNL     1      -9.176  15.030  69.433  1.00  0.00    -0.111 C  
HETATM   31  O   UNL     1      -7.817  14.850  69.827  1.00  0.00    -0.391 OA 
HETATM   32  H   UNL     1      -7.714  15.089  70.740  1.00  0.00     0.000 HD 
ENDBRANCH  20  30
ENDBRANCH  16  18
ENDBRANCH  10  11
ENDBRANCH   7  10
ENDBRANCH   3   4
ENDBRANCH   2   3
TORSDOF 6
ENDMDL
MODEL      161
REMARK 921   NORMALIZED FREE ENERGY PREDICTED BY IDOCK:   -4.91 KCAL/MOL
REMARK 922        TOTAL FREE ENERGY PREDICTED BY IDOCK:   -7.59 KCAL/MOL
REMARK 923 INTER-LIGAND FREE ENERGY PREDICTED BY IDOCK:   -7.05 KCAL/MOL
REMARK 924 INTRA-LIGAND FREE ENERGY PREDICTED BY IDOCK:   -0.54 KCAL/MOL
REMARK 927      BINDING AFFINITY PREDICTED BY RF-SCORE:    0.00 PKD
ROOT
HETATM    1  C   UNL     1     -10.624  16.591  70.136  1.00  0.00    -0.083 C  
HETATM    2  C   UNL     1     -11.741  16.141  69.213  1.00  0.00    -0.223 C  
ENDROOT
BRANCH   2   3
HETATM    3  O   UNL     1     -11.235  16.125  67.879  1.00  0.00    -0.325 OA 
BRANCH   3   4
HETATM    4  C   UNL     1     -11.157  14.907  67.262  1.00  0.00    -0.336 A  
HETATM    5  C   UNL     1     -12.237  14.116  66.875  1.00  0.00    -0.400 A  
HETATM    6  C   UNL     1     -12.019  12.888  66.242  1.00  0.00    -0.472 A  
HETATM    7  C   UNL     1     -10.720  12.430  65.985  1.00  0.00    -0.294 A  
HETATM    8  C   UNL     1      -9.860  14.449  67.022  1.00  0.00    -0.252 A  
HETATM    9  C   UNL     1      -9.639  13.221  66.391  1.00  0.00    -0.260 A  
BRANCH   7  10
HETATM   10  C   UNL     1     -10.512  11.073  65.359  1.00  0.00    -0.306 C  
BRANCH  10  11
HETATM   11  C   UNL     1      -9.739  10.058  66.172  1.00  0.00    -0.286 A  
HETATM   12  C   UNL     1      -8.947   9.052  65.603  1.00  0.00    -0.202 A  
HETATM   13 CL   UNL     1      -8.643   8.981  63.905  1.00  0.00    -0.183 Cl 
HETATM   14  C   UNL     1      -8.413   8.035  66.404  1.00  0.00    -0.138 A  
HETATM   15  C   UNL     1      -8.674   7.994  67.777  1.00  0.00    -0.127 A  
HETATM   16  C   UNL     1      -9.437   9.000  68.378  1.00  0.00    -0.154 A  
HETATM   17  C   UNL     1      -9.922  10.044  67.566  1.00  0.00    -0.232 A  
BRANCH  16  18
HETATM   18  C   UNL     1      -9.876   8.946  69.837  1.00  0.00    -0.182 C  
HETATM   19  O   UNL     1      -9.699   7.621  70.375  1.00  0.00    -0.179 OA 
HETATM   20  C   UNL     1     -10.040   7.539  71.770  1.00  0.00    -0.176 C  
HETATM   21  H   UNL     1     -12.437  11.031  69.585  1.00  0.00     0.000 HD 
HETATM   22  C   UNL     1     -11.509   7.901  71.996  1.00  0.00    -0.300 C  
HETATM   23  O   UNL     1     -11.533  10.751  69.503  1.00  0.00    -0.246 OA 
HETATM   24  O   UNL     1     -11.874   7.888  73.384  1.00  0.00    -0.544 OA 
HETATM   25  C   UNL     1     -11.795   9.296  71.436  1.00  0.00    -0.358 C  
HETATM   26  H   UNL     1     -13.365  10.463  71.219  1.00  0.00     0.000 HD 
HETATM   27  O   UNL     1     -13.188   9.597  71.567  1.00  0.00    -0.360 OA 
HETATM   28  H   UNL     1     -12.786   8.113  73.524  1.00  0.00     0.000 HD 
HETATM   29  C   UNL     1     -11.356   9.404  69.970  1.00  0.00    -0.141 C  
BRANCH  20  30
HETATM   30  C   UNL     1      -9.754   6.110  72.259  1.00  0.00    -0.155 C  
HETATM   31  O   UNL     1      -9.430   6.132  73.647  1.00  0.00    -0.137 OA 
HETATM   32  H   UNL     1      -9.253   5.249  73.949  1.00  0.00     0.000 HD 
ENDBRANCH  20  30
ENDBRANCH  16  18
ENDBRANCH  10  11
ENDBRANCH   7  10
ENDBRANCH   3   4
ENDBRANCH   2   3
TORSDOF 6
ENDMDL
MODEL      162
REMARK 921   NORMALIZED FREE ENERGY PREDICTED BY IDOCK:   -4.89 KCAL/MOL
REMARK 922        TOTAL FREE ENERGY PREDICTED BY IDOCK:   -7.58 KCAL/MOL
REMARK 923 INTER-LIGAND FREE ENERGY PREDICTED BY IDOCK:   -6.37 KCAL/MOL
REMARK 924 INTRA-LIGAND FREE ENERGY PREDICTED BY IDOCK:   -1.20 KCAL/MOL
REMARK 927      BINDING AFFINITY PREDICTED BY RF-SCORE:    0.00 PKD
ROOT
HETATM    1  C   UNL     1     -10.614  14.021  64.609  1.00  0.00    -0.416 C  
HETATM    2  C   UNL     1     -10.084  13.931  66.028  1.00  0.00    -0.313 C  
ENDROOT
BRANCH   2   3
HETATM    3  O   UNL     1     -10.645  12.770  66.639  1.00  0.00    -0.253 OA 
BRANCH   3   4
HETATM    4  C   UNL     1      -9.928  11.610  66.536  1.00  0.00    -0.203 A  
HETATM    5  C   UNL     1      -8.681  11.367  67.108  1.00  0.00    -0.155 A  
HETATM    6  C   UNL     1      -8.056  10.128  66.932  1.00  0.00    -0.121 A  
HETATM    7  C   UNL     1      -8.665   9.112  66.184  1.00  0.00    -0.169 A  
HETATM    8  C   UNL     1     -10.533  10.607  65.777  1.00  0.00    -0.235 A  
HETATM    9  C   UNL     1      -9.910   9.369  65.598  1.00  0.00    -0.294 A  
BRANCH   7  10
HETATM   10  C   UNL     1      -7.940   7.808  65.957  1.00  0.00    -0.108 C  
BRANCH  10  11
HETATM   11  C   UNL     1      -8.572   6.566  66.546  1.00  0.00    -0.123 A  
HETATM   12  C   UNL     1      -8.799   5.393  65.814  1.00  0.00    -0.151 A  
HETATM   13 CL   UNL     1      -8.219   5.197  64.200  1.00  0.00    -0.126 Cl 
HETATM   14  C   UNL     1      -9.556   4.352  66.365  1.00  0.00    -0.205 A  
HETATM   15  C   UNL     1     -10.112   4.469  67.643  1.00  0.00    -0.075 A  
HETATM   16  C   UNL     1      -9.878   5.616  68.408  1.00  0.00    -0.178 A  
HETATM   17  C   UNL     1      -9.070   6.631  67.859  1.00  0.00    -0.114 A  
BRANCH  16  18
HETATM   18  C   UNL     1     -10.563   5.873  69.745  1.00  0.00    -0.303 C  
HETATM   19  O   UNL     1     -10.887   7.268  69.895  1.00  0.00    -0.242 OA 
HETATM   20  C   UNL     1     -11.595   7.547  71.116  1.00  0.00    -0.282 C  
HETATM   21  H   UNL     1      -8.839   3.680  71.530  1.00  0.00     0.000 HD 
HETATM   22  C   UNL     1     -10.750   7.168  72.335  1.00  0.00    -0.241 C  
HETATM   23  O   UNL     1      -9.391   3.977  70.816  1.00  0.00    -0.119 OA 
HETATM   24  O   UNL     1     -11.446   7.376  73.573  1.00  0.00    -0.582 OA 
HETATM   25  C   UNL     1     -10.345   5.696  72.251  1.00  0.00    -0.206 C  
HETATM   26  H   UNL     1      -9.229   4.451  73.293  1.00  0.00     0.000 HD 
HETATM   27  O   UNL     1      -9.482   5.366  73.345  1.00  0.00    -0.134 OA 
HETATM   28  H   UNL     1     -10.921   7.141  74.330  1.00  0.00     0.000 HD 
HETATM   29  C   UNL     1      -9.661   5.385  70.914  1.00  0.00    -0.180 C  
BRANCH  20  30
HETATM   30  C   UNL     1     -11.947   9.043  71.146  1.00  0.00    -0.298 C  
HETATM   31  O   UNL     1     -13.350   9.210  70.953  1.00  0.00    -0.550 OA 
HETATM   32  H   UNL     1     -13.567  10.134  70.971  1.00  0.00     0.000 HD 
ENDBRANCH  20  30
ENDBRANCH  16  18
ENDBRANCH  10  11
ENDBRANCH   7  10
ENDBRANCH   3   4
ENDBRANCH   2   3
TORSDOF 6
ENDMDL
MODEL      163
REMARK 921   NORMALIZED FREE ENERGY PREDICTED BY IDOCK:   -4.89 KCAL/MOL
REMARK 922        TOTAL FREE ENERGY PREDICTED BY IDOCK:   -7.57 KCAL/MOL
REMARK 923 INTER-LIGAND FREE ENERGY PREDICTED BY IDOCK:   -7.19 KCAL/MOL
REMARK 924 INTRA-LIGAND FREE ENERGY PREDICTED BY IDOCK:   -0.37 KCAL/MOL
REMARK 927      BINDING AFFINITY PREDICTED BY RF-SCORE:    0.00 PKD
ROOT
HETATM    1  C   UNL     1      -9.848  20.050  67.808  1.00  0.00    -0.545 C  
HETATM    2  C   UNL     1      -9.589  19.000  66.744  1.00  0.00    -0.333 C  
ENDROOT
BRANCH   2   3
HETATM    3  O   UNL     1      -8.628  18.077  67.255  1.00  0.00    -0.233 OA 
BRANCH   3   4
HETATM    4  C   UNL     1      -9.025  16.774  67.374  1.00  0.00    -0.204 A  
HETATM    5  C   UNL     1      -9.359  16.126  68.562  1.00  0.00    -0.209 A  
HETATM    6  C   UNL     1      -9.760  14.786  68.544  1.00  0.00    -0.218 A  
HETATM    7  C   UNL     1      -9.834  14.072  67.341  1.00  0.00    -0.240 A  
HETATM    8  C   UNL     1      -9.083  16.063  66.174  1.00  0.00    -0.387 A  
HETATM    9  C   UNL     1      -9.482  14.723  66.153  1.00  0.00    -0.324 A  
BRANCH   7  10
HETATM   10  C   UNL     1     -10.207  12.609  67.358  1.00  0.00    -0.219 C  
BRANCH  10  11
HETATM   11  C   UNL     1      -9.433  11.719  68.305  1.00  0.00    -0.193 A  
HETATM   12  C   UNL     1      -8.065  11.449  68.168  1.00  0.00    -0.137 A  
HETATM   13 CL   UNL     1      -7.090  12.250  66.991  1.00  0.00    -0.092 Cl 
HETATM   14  C   UNL     1      -7.455  10.472  68.964  1.00  0.00    -0.112 A  
HETATM   15  C   UNL     1      -8.199   9.739  69.894  1.00  0.00    -0.196 A  
HETATM   16  C   UNL     1      -9.560  10.006  70.073  1.00  0.00    -0.205 A  
HETATM   17  C   UNL     1     -10.146  11.029  69.301  1.00  0.00    -0.121 A  
BRANCH  16  18
HETATM   18  C   UNL     1     -10.460   9.156  70.962  1.00  0.00    -0.298 C  
HETATM   19  O   UNL     1     -10.254   7.753  70.708  1.00  0.00    -0.196 OA 
HETATM   20  C   UNL     1     -11.036   6.911  71.572  1.00  0.00    -0.238 C  
HETATM   21  H   UNL     1     -13.095  11.162  70.935  1.00  0.00     0.000 HD 
HETATM   22  C   UNL     1     -12.532   7.167  71.376  1.00  0.00    -0.388 C  
HETATM   23  O   UNL     1     -12.185  10.925  71.067  1.00  0.00    -0.342 OA 
HETATM   24  O   UNL     1     -13.346   6.387  72.264  1.00  0.00    -0.502 OA 
HETATM   25  C   UNL     1     -12.843   8.646  71.612  1.00  0.00    -0.345 C  
HETATM   26  H   UNL     1     -14.419   9.820  71.488  1.00  0.00     0.000 HD 
HETATM   27  O   UNL     1     -14.225   8.902  71.342  1.00  0.00    -0.339 OA 
HETATM   28  H   UNL     1     -14.274   6.546  72.142  1.00  0.00     0.000 HD 
HETATM   29  C   UNL     1     -11.950   9.544  70.746  1.00  0.00    -0.252 C  
BRANCH  20  30
HETATM   30  C   UNL     1     -10.694   5.444  71.264  1.00  0.00    -0.179 C  
HETATM   31  O   UNL     1      -9.325   5.341  70.878  1.00  0.00    -0.145 OA 
HETATM   32  H   UNL     1      -9.113   4.435  70.688  1.00  0.00     0.000 HD 
ENDBRANCH  20  30
ENDBRANCH  16  18
ENDBRANCH  10  11
ENDBRANCH   7  10
ENDBRANCH   3   4
ENDBRANCH   2   3
TORSDOF 6
ENDMDL
MODEL      164
REMARK 921   NORMALIZED FREE ENERGY PREDICTED BY IDOCK:   -4.87 KCAL/MOL
REMARK 922        TOTAL FREE ENERGY PREDICTED BY IDOCK:   -7.55 KCAL/MOL
REMARK 923 INTER-LIGAND FREE ENERGY PREDICTED BY IDOCK:   -6.79 KCAL/MOL
REMARK 924 INTRA-LIGAND FREE ENERGY PREDICTED BY IDOCK:   -0.76 KCAL/MOL
REMARK 927      BINDING AFFINITY PREDICTED BY RF-SCORE:    0.00 PKD
ROOT
HETATM    1  C   UNL     1     -10.376  19.379  67.293  1.00  0.00    -0.554 C  
HETATM    2  C   UNL     1      -9.782  18.148  66.634  1.00  0.00    -0.334 C  
ENDROOT
BRANCH   2   3
HETATM    3  O   UNL     1      -9.429  17.221  67.659  1.00  0.00    -0.241 OA 
BRANCH   3   4
HETATM    4  C   UNL     1      -9.905  15.947  67.530  1.00  0.00    -0.230 A  
HETATM    5  C   UNL     1      -9.274  14.903  66.855  1.00  0.00    -0.265 A  
HETATM    6  C   UNL     1      -9.868  13.637  66.804  1.00  0.00    -0.271 A  
HETATM    7  C   UNL     1     -11.100  13.393  67.425  1.00  0.00    -0.297 A  
HETATM    8  C   UNL     1     -11.140  15.713  68.137  1.00  0.00    -0.330 A  
HETATM    9  C   UNL     1     -11.737  14.449  68.086  1.00  0.00    -0.377 A  
BRANCH   7  10
HETATM   10  C   UNL     1     -11.748  12.036  67.300  1.00  0.00    -0.339 C  
BRANCH  10  11
HETATM   11  C   UNL     1     -11.127  10.908  68.095  1.00  0.00    -0.337 A  
HETATM   12  C   UNL     1     -11.177  10.830  69.493  1.00  0.00    -0.281 A  
HETATM   13 CL   UNL     1     -12.107  11.936  70.437  1.00  0.00    -0.442 Cl 
HETATM   14  C   UNL     1     -10.423   9.866  70.174  1.00  0.00    -0.339 A  
HETATM   15  C   UNL     1      -9.597   8.979  69.476  1.00  0.00    -0.165 A  
HETATM   16  C   UNL     1      -9.549   9.015  68.079  1.00  0.00    -0.166 A  
HETATM   17  C   UNL     1     -10.354   9.956  67.408  1.00  0.00    -0.301 A  
BRANCH  16  18
HETATM   18  C   UNL     1      -8.571   8.178  67.263  1.00  0.00    -0.124 C  
HETATM   19  O   UNL     1      -8.557   8.604  65.887  1.00  0.00    -0.138 OA 
HETATM   20  C   UNL     1      -7.598   7.884  65.092  1.00  0.00    -0.092 C  
HETATM   21  H   UNL     1      -9.101   5.292  68.799  1.00  0.00     0.000 HD 
HETATM   22  C   UNL     1      -7.918   6.388  65.074  1.00  0.00    -0.120 C  
HETATM   23  O   UNL     1      -8.879   6.213  68.733  1.00  0.00    -0.121 OA 
HETATM   24  O   UNL     1      -6.949   5.626  64.339  1.00  0.00    -0.049 OA 
HETATM   25  C   UNL     1      -7.969   5.849  66.505  1.00  0.00    -0.102 C  
HETATM   26  H   UNL     1      -8.388   4.135  67.381  1.00  0.00     0.000 HD 
HETATM   27  O   UNL     1      -8.356   4.470  66.492  1.00  0.00    -0.106 OA 
HETATM   28  H   UNL     1      -7.148   4.696  64.328  1.00  0.00     0.000 HD 
HETATM   29  C   UNL     1      -8.933   6.670  67.371  1.00  0.00    -0.114 C  
BRANCH  20  30
HETATM   30  C   UNL     1      -7.618   8.457  63.666  1.00  0.00    -0.132 C  
HETATM   31  O   UNL     1      -8.953   8.812  63.309  1.00  0.00    -0.421 OA 
HETATM   32  H   UNL     1      -8.966   9.166  62.428  1.00  0.00     0.000 HD 
ENDBRANCH  20  30
ENDBRANCH  16  18
ENDBRANCH  10  11
ENDBRANCH   7  10
ENDBRANCH   3   4
ENDBRANCH   2   3
TORSDOF 6
ENDMDL
MODEL      165
REMARK 921   NORMALIZED FREE ENERGY PREDICTED BY IDOCK:   -4.84 KCAL/MOL
REMARK 922        TOTAL FREE ENERGY PREDICTED BY IDOCK:   -7.50 KCAL/MOL
REMARK 923 INTER-LIGAND FREE ENERGY PREDICTED BY IDOCK:   -7.15 KCAL/MOL
REMARK 924 INTRA-LIGAND FREE ENERGY PREDICTED BY IDOCK:   -0.35 KCAL/MOL
REMARK 927      BINDING AFFINITY PREDICTED BY RF-SCORE:    0.00 PKD
ROOT
HETATM    1  C   UNL     1      -9.719   3.877  72.318  1.00  0.00    -0.217 C  
HETATM    2  C   UNL     1     -10.766   4.560  71.459  1.00  0.00     0.243 C  
ENDROOT
BRANCH   2   3
HETATM    3  O   UNL     1     -10.596   5.970  71.587  1.00  0.00    -0.220 OA 
BRANCH   3   4
HETATM    4  C   UNL     1     -10.332   6.667  70.441  1.00  0.00    -0.199 A  
HETATM    5  C   UNL     1      -9.318   7.608  70.271  1.00  0.00    -0.157 A  
HETATM    6  C   UNL     1      -9.150   8.247  69.038  1.00  0.00    -0.147 A  
HETATM    7  C   UNL     1      -9.991   7.957  67.955  1.00  0.00    -0.220 A  
HETATM    8  C   UNL     1     -11.182   6.385  69.369  1.00  0.00    -0.459 A  
HETATM    9  C   UNL     1     -11.017   7.023  68.136  1.00  0.00    -0.165 A  
BRANCH   7  10
HETATM   10  C   UNL     1      -9.827   8.707  66.655  1.00  0.00    -0.336 C  
BRANCH  10  11
HETATM   11  C   UNL     1     -10.421  10.098  66.593  1.00  0.00    -0.254 A  
HETATM   12  C   UNL     1     -10.426  10.884  65.433  1.00  0.00    -0.223 A  
HETATM   13 CL   UNL     1      -9.901  10.267  63.909  1.00  0.00    -0.334 Cl 
HETATM   14  C   UNL     1     -10.818  12.227  65.492  1.00  0.00    -0.319 A  
HETATM   15  C   UNL     1     -11.194  12.811  66.706  1.00  0.00    -0.338 A  
HETATM   16  C   UNL     1     -11.225  12.043  67.875  1.00  0.00    -0.323 A  
HETATM   17  C   UNL     1     -10.879  10.680  67.787  1.00  0.00    -0.338 A  
BRANCH  16  18
HETATM   18  C   UNL     1     -11.488  12.642  69.252  1.00  0.00    -0.294 C  
HETATM   19  O   UNL     1     -12.430  11.840  69.988  1.00  0.00    -0.177 OA 
HETATM   20  C   UNL     1     -12.658  12.332  71.320  1.00  0.00    -0.234 C  
HETATM   21  H   UNL     1     -11.343  15.828  68.360  1.00  0.00     0.000 HD 
HETATM   22  C   UNL     1     -13.235  13.748  71.287  1.00  0.00    -0.261 C  
HETATM   23  O   UNL     1     -11.032  14.935  68.445  1.00  0.00    -0.245 OA 
HETATM   24  O   UNL     1     -13.422  14.299  72.599  1.00  0.00    -0.475 OA 
HETATM   25  C   UNL     1     -12.301  14.674  70.505  1.00  0.00    -0.337 C  
HETATM   26  H   UNL     1     -12.304  16.552  69.913  1.00  0.00     0.000 HD 
HETATM   27  O   UNL     1     -12.884  15.977  70.398  1.00  0.00    -0.313 OA 
HETATM   28  H   UNL     1     -13.780  15.178  72.579  1.00  0.00     0.000 HD 
HETATM   29  C   UNL     1     -11.996  14.105  69.114  1.00  0.00    -0.349 C  
BRANCH  20  30
HETATM   30  C   UNL     1     -13.622  11.372  72.036  1.00  0.00    -0.024 C  
HETATM   31  O   UNL     1     -13.044  10.070  72.101  1.00  0.00    -0.433 OA 
HETATM   32  H   UNL     1     -13.640   9.477  72.543  1.00  0.00     0.000 HD 
ENDBRANCH  20  30
ENDBRANCH  16  18
ENDBRANCH  10  11
ENDBRANCH   7  10
ENDBRANCH   3   4
ENDBRANCH   2   3
TORSDOF 6
ENDMDL
MODEL      166
REMARK 921   NORMALIZED FREE ENERGY PREDICTED BY IDOCK:   -4.83 KCAL/MOL
REMARK 922        TOTAL FREE ENERGY PREDICTED BY IDOCK:   -7.48 KCAL/MOL
REMARK 923 INTER-LIGAND FREE ENERGY PREDICTED BY IDOCK:   -7.08 KCAL/MOL
REMARK 924 INTRA-LIGAND FREE ENERGY PREDICTED BY IDOCK:   -0.40 KCAL/MOL
REMARK 927      BINDING AFFINITY PREDICTED BY RF-SCORE:    0.00 PKD
ROOT
HETATM    1  C   UNL     1     -14.312   8.385  71.564  1.00  0.00    -0.499 C  
HETATM    2  C   UNL     1     -13.241   8.973  72.463  1.00  0.00    -0.406 C  
ENDROOT
BRANCH   2   3
HETATM    3  O   UNL     1     -12.877  10.251  71.943  1.00  0.00    -0.425 OA 
BRANCH   3   4
HETATM    4  C   UNL     1     -12.018  10.264  70.880  1.00  0.00    -0.375 A  
HETATM    5  C   UNL     1     -12.280  10.806  69.624  1.00  0.00    -0.325 A  
HETATM    6  C   UNL     1     -11.306  10.761  68.620  1.00  0.00    -0.356 A  
HETATM    7  C   UNL     1     -10.056  10.174  68.855  1.00  0.00    -0.211 A  
HETATM    8  C   UNL     1     -10.779   9.664  71.114  1.00  0.00    -0.365 A  
HETATM    9  C   UNL     1      -9.805   9.616  70.113  1.00  0.00    -0.310 A  
BRANCH   7  10
HETATM   10  C   UNL     1      -9.048  10.081  67.735  1.00  0.00    -0.137 C  
BRANCH  10  11
HETATM   11  C   UNL     1      -8.088  11.241  67.585  1.00  0.00    -0.119 A  
HETATM   12  C   UNL     1      -6.706  11.131  67.785  1.00  0.00    -0.065 A  
HETATM   13 CL   UNL     1      -5.941   9.608  68.059  1.00  0.00    -0.043 Cl 
HETATM   14  C   UNL     1      -5.903  12.278  67.815  1.00  0.00    -0.098 A  
HETATM   15  C   UNL     1      -6.465  13.550  67.666  1.00  0.00    -0.169 A  
HETATM   16  C   UNL     1      -7.838  13.689  67.437  1.00  0.00    -0.162 A  
HETATM   17  C   UNL     1      -8.622  12.521  67.356  1.00  0.00    -0.187 A  
BRANCH  16  18
HETATM   18  C   UNL     1      -8.539  15.042  67.404  1.00  0.00    -0.192 C  
HETATM   19  O   UNL     1      -7.730  16.052  68.038  1.00  0.00    -0.129 OA 
HETATM   20  C   UNL     1      -8.324  17.361  67.972  1.00  0.00    -0.231 C  
HETATM   21  H   UNL     1     -11.628  13.929  67.831  1.00  0.00     0.000 HD 
HETATM   22  C   UNL     1      -9.677  17.383  68.686  1.00  0.00    -0.308 C  
HETATM   23  O   UNL     1     -10.776  13.990  67.415  1.00  0.00    -0.278 OA 
HETATM   24  O   UNL     1     -10.329  18.658  68.592  1.00  0.00    -0.392 OA 
HETATM   25  C   UNL     1     -10.601  16.323  68.085  1.00  0.00    -0.307 C  
HETATM   26  H   UNL     1     -12.408  15.625  68.439  1.00  0.00     0.000 HD 
HETATM   27  O   UNL     1     -11.834  16.284  68.812  1.00  0.00    -0.278 OA 
HETATM   28  H   UNL     1     -11.169  18.672  69.036  1.00  0.00     0.000 HD 
HETATM   29  C   UNL     1      -9.933  14.943  68.084  1.00  0.00    -0.222 C  
BRANCH  20  30
HETATM   30  C   UNL     1      -7.357  18.368  68.615  1.00  0.00    -0.295 C  
HETATM   31  O   UNL     1      -6.349  18.734  67.674  1.00  0.00    -0.200 OA 
HETATM   32  H   UNL     1      -5.751  19.356  68.071  1.00  0.00     0.000 HD 
ENDBRANCH  20  30
ENDBRANCH  16  18
ENDBRANCH  10  11
ENDBRANCH   7  10
ENDBRANCH   3   4
ENDBRANCH   2   3
TORSDOF 6
ENDMDL
MODEL      167
REMARK 921   NORMALIZED FREE ENERGY PREDICTED BY IDOCK:   -4.81 KCAL/MOL
REMARK 922        TOTAL FREE ENERGY PREDICTED BY IDOCK:   -7.47 KCAL/MOL
REMARK 923 INTER-LIGAND FREE ENERGY PREDICTED BY IDOCK:   -6.72 KCAL/MOL
REMARK 924 INTRA-LIGAND FREE ENERGY PREDICTED BY IDOCK:   -0.74 KCAL/MOL
REMARK 927      BINDING AFFINITY PREDICTED BY RF-SCORE:    0.00 PKD
ROOT
HETATM    1  C   UNL     1      -6.383  19.484  66.474  1.00  0.00    -0.188 C  
HETATM    2  C   UNL     1      -7.623  18.648  66.221  1.00  0.00    -0.263 C  
ENDROOT
BRANCH   2   3
HETATM    3  O   UNL     1      -7.342  17.306  66.617  1.00  0.00    -0.194 OA 
BRANCH   3   4
HETATM    4  C   UNL     1      -8.335  16.385  66.427  1.00  0.00    -0.328 A  
HETATM    5  C   UNL     1      -9.510  16.587  65.705  1.00  0.00    -0.149 A  
HETATM    6  C   UNL     1     -10.444  15.554  65.580  1.00  0.00    -0.407 A  
HETATM    7  C   UNL     1     -10.222  14.304  66.173  1.00  0.00    -0.317 A  
HETATM    8  C   UNL     1      -8.115  15.147  67.033  1.00  0.00    -0.240 A  
HETATM    9  C   UNL     1      -9.049  14.113  66.911  1.00  0.00    -0.260 A  
BRANCH   7  10
HETATM   10  C   UNL     1     -11.277  13.228  66.076  1.00  0.00    -0.316 C  
BRANCH  10  11
HETATM   11  C   UNL     1     -11.255  12.155  67.141  1.00  0.00    -0.372 A  
HETATM   12  C   UNL     1     -11.632  12.378  68.472  1.00  0.00    -0.313 A  
HETATM   13 CL   UNL     1     -12.324  13.874  68.986  1.00  0.00    -0.259 Cl 
HETATM   14  C   UNL     1     -11.409  11.395  69.445  1.00  0.00    -0.365 A  
HETATM   15  C   UNL     1     -10.792  10.185  69.111  1.00  0.00    -0.260 A  
HETATM   16  C   UNL     1     -10.431   9.922  67.786  1.00  0.00    -0.292 A  
HETATM   17  C   UNL     1     -10.711  10.901  66.811  1.00  0.00    -0.309 A  
BRANCH  16  18
HETATM   18  C   UNL     1      -9.633   8.690  67.374  1.00  0.00    -0.159 C  
HETATM   19  O   UNL     1      -9.175   8.808  66.014  1.00  0.00    -0.193 OA 
HETATM   20  C   UNL     1      -8.360   7.697  65.603  1.00  0.00    -0.140 C  
HETATM   21  H   UNL     1     -11.418   6.455  69.042  1.00  0.00     0.000 HD 
HETATM   22  C   UNL     1      -9.147   6.386  65.679  1.00  0.00     0.064 C  
HETATM   23  O   UNL     1     -10.894   7.238  68.929  1.00  0.00    -0.180 OA 
HETATM   24  O   UNL     1      -8.351   5.244  65.333  1.00  0.00    -0.123 OA 
HETATM   25  C   UNL     1      -9.689   6.185  67.095  1.00  0.00    -0.135 C  
HETATM   26  H   UNL     1     -10.836   4.880  68.022  1.00  0.00     0.000 HD 
HETATM   27  O   UNL     1     -10.499   5.006  67.143  1.00  0.00    -0.194 OA 
HETATM   28  H   UNL     1      -8.839   4.430  65.380  1.00  0.00     0.000 HD 
HETATM   29  C   UNL     1     -10.490   7.407  67.560  1.00  0.00    -0.268 C  
BRANCH  20  30
HETATM   30  C   UNL     1      -7.873   7.952  64.168  1.00  0.00    -0.136 C  
HETATM   31  O   UNL     1      -8.891   8.623  63.427  1.00  0.00    -0.429 OA 
HETATM   32  H   UNL     1      -8.591   8.781  62.540  1.00  0.00     0.000 HD 
ENDBRANCH  20  30
ENDBRANCH  16  18
ENDBRANCH  10  11
ENDBRANCH   7  10
ENDBRANCH   3   4
ENDBRANCH   2   3
TORSDOF 6
ENDMDL
MODEL      168
REMARK 921   NORMALIZED FREE ENERGY PREDICTED BY IDOCK:   -4.79 KCAL/MOL
REMARK 922        TOTAL FREE ENERGY PREDICTED BY IDOCK:   -7.44 KCAL/MOL
REMARK 923 INTER-LIGAND FREE ENERGY PREDICTED BY IDOCK:   -6.54 KCAL/MOL
REMARK 924 INTRA-LIGAND FREE ENERGY PREDICTED BY IDOCK:   -0.90 KCAL/MOL
REMARK 927      BINDING AFFINITY PREDICTED BY RF-SCORE:    0.00 PKD
ROOT
HETATM    1  C   UNL     1     -10.485  16.039  70.168  1.00  0.00    -0.198 C  
HETATM    2  C   UNL     1     -11.693  15.805  69.279  1.00  0.00    -0.374 C  
ENDROOT
BRANCH   2   3
HETATM    3  O   UNL     1     -11.316  16.087  67.933  1.00  0.00    -0.314 OA 
BRANCH   3   4
HETATM    4  C   UNL     1     -11.225  15.022  67.080  1.00  0.00    -0.336 A  
HETATM    5  C   UNL     1     -12.289  14.246  66.626  1.00  0.00    -0.320 A  
HETATM    6  C   UNL     1     -12.059  13.184  65.744  1.00  0.00    -0.502 A  
HETATM    7  C   UNL     1     -10.765  12.880  65.304  1.00  0.00    -0.318 A  
HETATM    8  C   UNL     1      -9.931  14.714  66.656  1.00  0.00    -0.281 A  
HETATM    9  C   UNL     1      -9.698  13.652  65.777  1.00  0.00    -0.162 A  
BRANCH   7  10
HETATM   10  C   UNL     1     -10.538  11.689  64.404  1.00  0.00    -0.377 C  
BRANCH  10  11
HETATM   11  C   UNL     1      -9.549  10.650  64.884  1.00  0.00    -0.323 A  
HETATM   12  C   UNL     1      -8.718   9.918  64.026  1.00  0.00    -0.212 A  
HETATM   13 CL   UNL     1      -8.626  10.257  62.335  1.00  0.00    -0.193 Cl 
HETATM   14  C   UNL     1      -7.965   8.844  64.517  1.00  0.00    -0.135 A  
HETATM   15  C   UNL     1      -8.041   8.473  65.863  1.00  0.00    -0.116 A  
HETATM   16  C   UNL     1      -8.839   9.203  66.749  1.00  0.00    -0.143 A  
HETATM   17  C   UNL     1      -9.548  10.313  66.249  1.00  0.00    -0.238 A  
BRANCH  16  18
HETATM   18  C   UNL     1      -9.079   8.774  68.192  1.00  0.00    -0.140 C  
HETATM   19  O   UNL     1      -9.858   7.564  68.244  1.00  0.00    -0.155 OA 
HETATM   20  C   UNL     1     -10.053   7.085  69.586  1.00  0.00    -0.186 C  
HETATM   21  H   UNL     1      -9.403  11.805  69.486  1.00  0.00     0.000 HD 
HETATM   22  C   UNL     1     -10.806   8.116  70.429  1.00  0.00    -0.236 C  
HETATM   23  O   UNL     1      -8.976  11.108  69.002  1.00  0.00    -0.126 OA 
HETATM   24  O   UNL     1     -10.969   7.700  71.793  1.00  0.00    -0.232 OA 
HETATM   25  C   UNL     1     -10.054   9.448  70.418  1.00  0.00    -0.255 C  
HETATM   26  H   UNL     1     -10.337  11.263  71.126  1.00  0.00     0.000 HD 
HETATM   27  O   UNL     1     -10.803  10.436  71.133  1.00  0.00     0.104 OA 
HETATM   28  H   UNL     1     -11.437   8.340  72.316  1.00  0.00     0.000 HD 
HETATM   29  C   UNL     1      -9.777   9.915  68.984  1.00  0.00    -0.193 C  
BRANCH  20  30
HETATM   30  C   UNL     1     -10.835   5.763  69.523  1.00  0.00    -0.340 C  
HETATM   31  O   UNL     1     -10.338   4.864  70.513  1.00  0.00    -0.239 OA 
HETATM   32  H   UNL     1     -10.821   4.047  70.474  1.00  0.00     0.000 HD 
ENDBRANCH  20  30
ENDBRANCH  16  18
ENDBRANCH  10  11
ENDBRANCH   7  10
ENDBRANCH   3   4
ENDBRANCH   2   3
TORSDOF 6
ENDMDL
MODEL      169
REMARK 921   NORMALIZED FREE ENERGY PREDICTED BY IDOCK:   -4.77 KCAL/MOL
REMARK 922        TOTAL FREE ENERGY PREDICTED BY IDOCK:   -7.41 KCAL/MOL
REMARK 923 INTER-LIGAND FREE ENERGY PREDICTED BY IDOCK:   -6.26 KCAL/MOL
REMARK 924 INTRA-LIGAND FREE ENERGY PREDICTED BY IDOCK:   -1.15 KCAL/MOL
REMARK 927      BINDING AFFINITY PREDICTED BY RF-SCORE:    0.00 PKD
ROOT
HETATM    1  C   UNL     1     -12.701  12.186  63.414  1.00  0.00    -0.508 C  
HETATM    2  C   UNL     1     -11.198  12.386  63.483  1.00  0.00    -0.469 C  
ENDROOT
BRANCH   2   3
HETATM    3  O   UNL     1     -10.795  12.254  64.845  1.00  0.00    -0.283 OA 
BRANCH   3   4
HETATM    4  C   UNL     1     -10.080  11.135  65.172  1.00  0.00    -0.281 A  
HETATM    5  C   UNL     1      -9.975  10.575  66.444  1.00  0.00    -0.271 A  
HETATM    6  C   UNL     1      -9.215   9.418  66.643  1.00  0.00    -0.193 A  
HETATM    7  C   UNL     1      -8.547   8.801  65.576  1.00  0.00    -0.198 A  
HETATM    8  C   UNL     1      -9.405  10.534  64.109  1.00  0.00    -0.309 A  
HETATM    9  C   UNL     1      -8.643   9.378  64.304  1.00  0.00    -0.216 A  
BRANCH   7  10
HETATM   10  C   UNL     1      -7.682   7.591  65.830  1.00  0.00    -0.098 C  
BRANCH  10  11
HETATM   11  C   UNL     1      -8.352   6.399  66.479  1.00  0.00    -0.115 A  
HETATM   12  C   UNL     1      -8.913   5.339  65.755  1.00  0.00    -0.154 A  
HETATM   13 CL   UNL     1      -8.742   5.211  64.042  1.00  0.00    -0.098 Cl 
HETATM   14  C   UNL     1      -9.680   4.366  66.407  1.00  0.00    -0.227 A  
HETATM   15  C   UNL     1      -9.914   4.443  67.784  1.00  0.00    -0.098 A  
HETATM   16  C   UNL     1      -9.343   5.474  68.537  1.00  0.00    -0.143 A  
HETATM   17  C   UNL     1      -8.531   6.414  67.873  1.00  0.00    -0.118 A  
BRANCH  16  18
HETATM   18  C   UNL     1      -9.667   5.700  70.009  1.00  0.00    -0.173 C  
HETATM   19  O   UNL     1      -9.680   4.452  70.728  1.00  0.00    -0.173 OA 
HETATM   20  C   UNL     1      -9.917   4.624  72.136  1.00  0.00    -0.181 C  
HETATM   21  H   UNL     1     -11.837   8.166  69.590  1.00  0.00     0.000 HD 
HETATM   22  C   UNL     1     -11.278   5.277  72.385  1.00  0.00    -0.165 C  
HETATM   23  O   UNL     1     -11.005   7.717  69.502  1.00  0.00    -0.204 OA 
HETATM   24  O   UNL     1     -11.527   5.520  73.777  1.00  0.00    -0.376 OA 
HETATM   25  C   UNL     1     -11.361   6.611  71.641  1.00  0.00    -0.276 C  
HETATM   26  H   UNL     1     -12.717   8.007  71.339  1.00  0.00     0.000 HD 
HETATM   27  O   UNL     1     -12.665   7.178  71.801  1.00  0.00    -0.340 OA 
HETATM   28  H   UNL     1     -12.372   5.926  73.932  1.00  0.00     0.000 HD 
HETATM   29  C   UNL     1     -11.029   6.436  70.154  1.00  0.00    -0.334 C  
BRANCH  20  30
HETATM   30  C   UNL     1      -9.846   3.247  72.815  1.00  0.00    -0.140 C  
HETATM   31  O   UNL     1     -11.165   2.777  73.087  1.00  0.00    -0.121 OA 
HETATM   32  H   UNL     1     -11.121   1.926  73.506  1.00  0.00     0.000 HD 
ENDBRANCH  20  30
ENDBRANCH  16  18
ENDBRANCH  10  11
ENDBRANCH   7  10
ENDBRANCH   3   4
ENDBRANCH   2   3
TORSDOF 6
ENDMDL
MODEL      170
REMARK 921   NORMALIZED FREE ENERGY PREDICTED BY IDOCK:   -4.77 KCAL/MOL
REMARK 922        TOTAL FREE ENERGY PREDICTED BY IDOCK:   -7.40 KCAL/MOL
REMARK 923 INTER-LIGAND FREE ENERGY PREDICTED BY IDOCK:   -6.72 KCAL/MOL
REMARK 924 INTRA-LIGAND FREE ENERGY PREDICTED BY IDOCK:   -0.68 KCAL/MOL
REMARK 927      BINDING AFFINITY PREDICTED BY RF-SCORE:    0.00 PKD
ROOT
HETATM    1  C   UNL     1     -12.650  12.184  63.409  1.00  0.00    -0.584 C  
HETATM    2  C   UNL     1     -11.440  12.933  63.935  1.00  0.00    -0.446 C  
ENDROOT
BRANCH   2   3
HETATM    3  O   UNL     1     -10.594  11.999  64.602  1.00  0.00    -0.279 OA 
BRANCH   3   4
HETATM    4  C   UNL     1     -10.820  11.803  65.936  1.00  0.00    -0.291 A  
HETATM    5  C   UNL     1     -10.968  10.570  66.568  1.00  0.00    -0.054 A  
HETATM    6  C   UNL     1     -11.188  10.508  67.948  1.00  0.00    -0.358 A  
HETATM    7  C   UNL     1     -11.266  11.675  68.719  1.00  0.00    -0.304 A  
HETATM    8  C   UNL     1     -10.911  12.970  66.697  1.00  0.00    -0.301 A  
HETATM    9  C   UNL     1     -11.134  12.911  68.076  1.00  0.00    -0.283 A  
BRANCH   7  10
HETATM   10  C   UNL     1     -11.568  11.582  70.195  1.00  0.00    -0.336 C  
BRANCH  10  11
HETATM   11  C   UNL     1     -11.427  10.218  70.834  1.00  0.00    -0.425 A  
HETATM   12  C   UNL     1     -12.381   9.667  71.700  1.00  0.00    -0.404 A  
HETATM   13 CL   UNL     1     -13.903  10.431  71.986  1.00  0.00    -0.102 Cl 
HETATM   14  C   UNL     1     -12.101   8.489  72.402  1.00  0.00    -0.436 A  
HETATM   15  C   UNL     1     -10.863   7.852  72.268  1.00  0.00    -0.353 A  
HETATM   16  C   UNL     1      -9.902   8.363  71.390  1.00  0.00    -0.259 A  
HETATM   17  C   UNL     1     -10.221   9.519  70.651  1.00  0.00    -0.364 A  
BRANCH  16  18
HETATM   18  C   UNL     1      -8.486   7.805  71.297  1.00  0.00    -0.119 C  
HETATM   19  O   UNL     1      -8.461   6.602  70.505  1.00  0.00    -0.134 OA 
HETATM   20  C   UNL     1      -7.134   6.076  70.335  1.00  0.00    -0.070 C  
HETATM   21  H   UNL     1      -7.521   8.589  74.366  1.00  0.00     0.000 HD 
HETATM   22  C   UNL     1      -6.514   5.713  71.686  1.00  0.00    -0.048 C  
HETATM   23  O   UNL     1      -7.869   8.750  73.497  1.00  0.00    -0.408 OA 
HETATM   24  O   UNL     1      -5.165   5.239  71.564  1.00  0.00    -0.005 OA 
HETATM   25  C   UNL     1      -6.513   6.936  72.605  1.00  0.00    -0.054 C  
HETATM   26  H   UNL     1      -6.015   7.333  74.468  1.00  0.00     0.000 HD 
HETATM   27  O   UNL     1      -6.016   6.573  73.897  1.00  0.00    -0.061 OA 
HETATM   28  H   UNL     1      -4.780   5.013  72.403  1.00  0.00     0.000 HD 
HETATM   29  C   UNL     1      -7.917   7.542  72.720  1.00  0.00    -0.104 C  
BRANCH  20  30
HETATM   30  C   UNL     1      -7.212   4.839  69.426  1.00  0.00    -0.052 C  
HETATM   31  O   UNL     1      -8.538   4.696  68.923  1.00  0.00    -0.084 OA 
HETATM   32  H   UNL     1      -8.587   3.931  68.361  1.00  0.00     0.000 HD 
ENDBRANCH  20  30
ENDBRANCH  16  18
ENDBRANCH  10  11
ENDBRANCH   7  10
ENDBRANCH   3   4
ENDBRANCH   2   3
TORSDOF 6
ENDMDL
MODEL      171
REMARK 921   NORMALIZED FREE ENERGY PREDICTED BY IDOCK:   -4.76 KCAL/MOL
REMARK 922        TOTAL FREE ENERGY PREDICTED BY IDOCK:   -7.39 KCAL/MOL
REMARK 923 INTER-LIGAND FREE ENERGY PREDICTED BY IDOCK:   -6.27 KCAL/MOL
REMARK 924 INTRA-LIGAND FREE ENERGY PREDICTED BY IDOCK:   -1.12 KCAL/MOL
REMARK 927      BINDING AFFINITY PREDICTED BY RF-SCORE:    0.00 PKD
ROOT
HETATM    1  C   UNL     1      -7.228   8.030  74.345  1.00  0.00    -0.202 C  
HETATM    2  C   UNL     1      -6.621   7.470  73.072  1.00  0.00    -0.065 C  
ENDROOT
BRANCH   2   3
HETATM    3  O   UNL     1      -7.657   6.832  72.328  1.00  0.00    -0.092 OA 
BRANCH   3   4
HETATM    4  C   UNL     1      -8.461   7.639  71.572  1.00  0.00    -0.115 A  
HETATM    5  C   UNL     1      -8.079   8.832  70.960  1.00  0.00    -0.186 A  
HETATM    6  C   UNL     1      -9.001   9.562  70.203  1.00  0.00    -0.269 A  
HETATM    7  C   UNL     1     -10.319   9.113  70.044  1.00  0.00    -0.231 A  
HETATM    8  C   UNL     1      -9.777   7.196  71.429  1.00  0.00    -0.170 A  
HETATM    9  C   UNL     1     -10.701   7.924  70.674  1.00  0.00    -0.230 A  
BRANCH   7  10
HETATM   10  C   UNL     1     -11.310   9.953  69.275  1.00  0.00    -0.116 C  
BRANCH  10  11
HETATM   11  C   UNL     1     -10.865  10.465  67.923  1.00  0.00    -0.331 A  
HETATM   12  C   UNL     1     -10.511   9.628  66.857  1.00  0.00    -0.212 A  
HETATM   13 CL   UNL     1     -10.714   7.915  66.936  1.00  0.00    -0.350 Cl 
HETATM   14  C   UNL     1      -9.930  10.163  65.701  1.00  0.00    -0.348 A  
HETATM   15  C   UNL     1      -9.676  11.534  65.596  1.00  0.00    -0.261 A  
HETATM   16  C   UNL     1     -10.045  12.398  66.632  1.00  0.00    -0.234 A  
HETATM   17  C   UNL     1     -10.677  11.850  67.765  1.00  0.00    -0.243 A  
BRANCH  16  18
HETATM   18  C   UNL     1      -9.675  13.877  66.647  1.00  0.00    -0.289 C  
HETATM   19  O   UNL     1      -8.317  14.060  67.090  1.00  0.00    -0.193 OA 
HETATM   20  C   UNL     1      -7.902  15.437  67.057  1.00  0.00    -0.209 C  
HETATM   21  H   UNL     1     -12.618  15.038  67.626  1.00  0.00     0.000 HD 
HETATM   22  C   UNL     1      -8.774  16.291  67.980  1.00  0.00    -0.178 C  
HETATM   23  O   UNL     1     -12.015  14.554  67.074  1.00  0.00    -0.404 OA 
HETATM   24  O   UNL     1      -8.430  17.684  67.930  1.00  0.00    -0.224 OA 
HETATM   25  C   UNL     1     -10.246  16.145  67.590  1.00  0.00    -0.265 C  
HETATM   26  H   UNL     1     -11.982  16.782  68.267  1.00  0.00     0.000 HD 
HETATM   27  O   UNL     1     -11.068  16.873  68.509  1.00  0.00    -0.327 OA 
HETATM   28  H   UNL     1      -8.971  18.214  68.503  1.00  0.00     0.000 HD 
HETATM   29  C   UNL     1     -10.663  14.669  67.548  1.00  0.00    -0.268 C  
BRANCH  20  30
HETATM   30  C   UNL     1      -6.428  15.513  67.483  1.00  0.00    -0.156 C  
HETATM   31  O   UNL     1      -6.334  15.432  68.904  1.00  0.00    -0.102 OA 
HETATM   32  H   UNL     1      -5.422  15.479  69.167  1.00  0.00     0.000 HD 
ENDBRANCH  20  30
ENDBRANCH  16  18
ENDBRANCH  10  11
ENDBRANCH   7  10
ENDBRANCH   3   4
ENDBRANCH   2   3
TORSDOF 6
ENDMDL
MODEL      172
REMARK 921   NORMALIZED FREE ENERGY PREDICTED BY IDOCK:   -4.75 KCAL/MOL
REMARK 922        TOTAL FREE ENERGY PREDICTED BY IDOCK:   -7.38 KCAL/MOL
REMARK 923 INTER-LIGAND FREE ENERGY PREDICTED BY IDOCK:   -7.79 KCAL/MOL
REMARK 924 INTRA-LIGAND FREE ENERGY PREDICTED BY IDOCK:    0.42 KCAL/MOL
REMARK 927      BINDING AFFINITY PREDICTED BY RF-SCORE:    0.00 PKD
ROOT
HETATM    1  C   UNL     1     -14.091   8.362  71.706  1.00  0.00    -0.509 C  
HETATM    2  C   UNL     1     -12.742   9.040  71.861  1.00  0.00    -0.382 C  
ENDROOT
BRANCH   2   3
HETATM    3  O   UNL     1     -12.958  10.449  71.932  1.00  0.00    -0.438 OA 
BRANCH   3   4
HETATM    4  C   UNL     1     -12.460  11.202  70.906  1.00  0.00    -0.409 A  
HETATM    5  C   UNL     1     -12.348  12.591  70.891  1.00  0.00    -0.349 A  
HETATM    6  C   UNL     1     -11.810  13.242  69.776  1.00  0.00    -0.394 A  
HETATM    7  C   UNL     1     -11.376  12.518  68.658  1.00  0.00    -0.329 A  
HETATM    8  C   UNL     1     -12.042  10.477  69.789  1.00  0.00    -0.285 A  
HETATM    9  C   UNL     1     -11.506  11.124  68.672  1.00  0.00    -0.363 A  
BRANCH   7  10
HETATM   10  C   UNL     1     -10.859  13.250  67.443  1.00  0.00    -0.279 C  
BRANCH  10  11
HETATM   11  C   UNL     1      -9.365  13.473  67.367  1.00  0.00    -0.228 A  
HETATM   12  C   UNL     1      -8.421  12.449  67.526  1.00  0.00    -0.175 A  
HETATM   13 CL   UNL     1      -8.886  10.791  67.658  1.00  0.00    -0.132 Cl 
HETATM   14  C   UNL     1      -7.059  12.754  67.632  1.00  0.00    -0.145 A  
HETATM   15  C   UNL     1      -6.617  14.081  67.599  1.00  0.00    -0.175 A  
HETATM   16  C   UNL     1      -7.533  15.121  67.412  1.00  0.00    -0.239 A  
HETATM   17  C   UNL     1      -8.894  14.792  67.254  1.00  0.00    -0.218 A  
BRANCH  16  18
HETATM   18  C   UNL     1      -7.144  16.592  67.506  1.00  0.00    -0.144 C  
HETATM   19  O   UNL     1      -6.718  16.925  68.841  1.00  0.00    -0.175 OA 
HETATM   20  C   UNL     1      -6.278  18.289  68.960  1.00  0.00    -0.234 C  
HETATM   21  H   UNL     1      -9.446  17.770  65.437  1.00  0.00     0.000 HD 
HETATM   22  C   UNL     1      -7.410  19.260  68.616  1.00  0.00    -0.338 C  
HETATM   23  O   UNL     1      -8.720  17.220  65.707  1.00  0.00    -0.531 OA 
HETATM   24  O   UNL     1      -6.994  20.632  68.666  1.00  0.00    -0.126 OA 
HETATM   25  C   UNL     1      -7.939  18.967  67.211  1.00  0.00    -0.254 C  
HETATM   26  H   UNL     1      -9.385  19.634  66.052  1.00  0.00     0.000 HD 
HETATM   27  O   UNL     1      -9.056  19.816  66.925  1.00  0.00    -0.315 OA 
HETATM   28  H   UNL     1      -7.697  21.235  68.452  1.00  0.00     0.000 HD 
HETATM   29  C   UNL     1      -8.332  17.492  67.064  1.00  0.00    -0.219 C  
BRANCH  20  30
HETATM   30  C   UNL     1      -5.787  18.520  70.398  1.00  0.00    -0.112 C  
HETATM   31  O   UNL     1      -6.075  19.859  70.795  1.00  0.00    -0.296 OA 
HETATM   32  H   UNL     1      -5.772  20.002  71.683  1.00  0.00     0.000 HD 
ENDBRANCH  20  30
ENDBRANCH  16  18
ENDBRANCH  10  11
ENDBRANCH   7  10
ENDBRANCH   3   4
ENDBRANCH   2   3
TORSDOF 6
ENDMDL
MODEL      173
REMARK 921   NORMALIZED FREE ENERGY PREDICTED BY IDOCK:   -4.74 KCAL/MOL
REMARK 922        TOTAL FREE ENERGY PREDICTED BY IDOCK:   -7.37 KCAL/MOL
REMARK 923 INTER-LIGAND FREE ENERGY PREDICTED BY IDOCK:   -6.93 KCAL/MOL
REMARK 924 INTRA-LIGAND FREE ENERGY PREDICTED BY IDOCK:   -0.44 KCAL/MOL
REMARK 927      BINDING AFFINITY PREDICTED BY RF-SCORE:    0.00 PKD
ROOT
HETATM    1  C   UNL     1     -11.552   4.903  72.989  1.00  0.00    -0.284 C  
HETATM    2  C   UNL     1     -11.087   6.347  72.942  1.00  0.00    -0.226 C  
ENDROOT
BRANCH   2   3
HETATM    3  O   UNL     1     -11.694   6.973  71.812  1.00  0.00    -0.271 OA 
BRANCH   3   4
HETATM    4  C   UNL     1     -10.854   7.546  70.899  1.00  0.00    -0.240 A  
HETATM    5  C   UNL     1     -11.137   8.666  70.118  1.00  0.00    -0.199 A  
HETATM    6  C   UNL     1     -10.183   9.159  69.223  1.00  0.00    -0.215 A  
HETATM    7  C   UNL     1      -8.931   8.544  69.092  1.00  0.00    -0.146 A  
HETATM    8  C   UNL     1      -9.614   6.920  70.761  1.00  0.00    -0.167 A  
HETATM    9  C   UNL     1      -8.659   7.410  69.866  1.00  0.00    -0.140 A  
BRANCH   7  10
HETATM   10  C   UNL     1      -7.944   9.059  68.073  1.00  0.00    -0.101 C  
BRANCH  10  11
HETATM   11  C   UNL     1      -7.811  10.561  67.951  1.00  0.00    -0.105 A  
HETATM   12  C   UNL     1      -7.196  11.364  68.920  1.00  0.00    -0.113 A  
HETATM   13 CL   UNL     1      -6.373  10.687  70.278  1.00  0.00    -0.138 Cl 
HETATM   14  C   UNL     1      -7.275  12.759  68.835  1.00  0.00    -0.039 A  
HETATM   15  C   UNL     1      -7.981  13.375  67.796  1.00  0.00    -0.167 A  
HETATM   16  C   UNL     1      -8.581  12.600  66.799  1.00  0.00    -0.101 A  
HETATM   17  C   UNL     1      -8.446  11.199  66.871  1.00  0.00    -0.147 A  
BRANCH  16  18
HETATM   18  C   UNL     1      -9.480  13.192  65.720  1.00  0.00     0.047 C  
HETATM   19  O   UNL     1      -9.673  14.603  65.932  1.00  0.00    -0.312 OA 
HETATM   20  C   UNL     1     -10.462  15.218  64.899  1.00  0.00    -0.302 C  
HETATM   21  H   UNL     1     -11.505  10.593  65.384  1.00  0.00     0.000 HD 
HETATM   22  C   UNL     1     -11.860  14.599  64.839  1.00  0.00    -0.403 C  
HETATM   23  O   UNL     1     -10.671  11.048  65.404  1.00  0.00    -0.236 OA 
HETATM   24  O   UNL     1     -12.660  15.145  63.781  1.00  0.00    -0.982 OA 
HETATM   25  C   UNL     1     -11.752  13.087  64.630  1.00  0.00    -0.361 C  
HETATM   26  H   UNL     1     -12.989  11.558  64.534  1.00  0.00     0.000 HD 
HETATM   27  O   UNL     1     -13.056  12.497  64.664  1.00  0.00    -0.845 OA 
HETATM   28  H   UNL     1     -13.529  14.760  63.743  1.00  0.00     0.000 HD 
HETATM   29  C   UNL     1     -10.844  12.446  65.687  1.00  0.00    -0.277 C  
BRANCH  20  30
HETATM   30  C   UNL     1     -10.551  16.726  65.185  1.00  0.00    -0.114 C  
HETATM   31  O   UNL     1      -9.603  17.081  66.190  1.00  0.00    -0.346 OA 
HETATM   32  H   UNL     1      -9.658  18.013  66.367  1.00  0.00     0.000 HD 
ENDBRANCH  20  30
ENDBRANCH  16  18
ENDBRANCH  10  11
ENDBRANCH   7  10
ENDBRANCH   3   4
ENDBRANCH   2   3
TORSDOF 6
ENDMDL
MODEL      174
REMARK 921   NORMALIZED FREE ENERGY PREDICTED BY IDOCK:   -4.73 KCAL/MOL
REMARK 922        TOTAL FREE ENERGY PREDICTED BY IDOCK:   -7.35 KCAL/MOL
REMARK 923 INTER-LIGAND FREE ENERGY PREDICTED BY IDOCK:   -6.16 KCAL/MOL
REMARK 924 INTRA-LIGAND FREE ENERGY PREDICTED BY IDOCK:   -1.20 KCAL/MOL
REMARK 927      BINDING AFFINITY PREDICTED BY RF-SCORE:    0.00 PKD
ROOT
HETATM    1  C   UNL     1     -10.843  15.826  65.144  1.00  0.00    -0.444 C  
HETATM    2  C   UNL     1     -11.943  14.914  64.634  1.00  0.00    -0.401 C  
ENDROOT
BRANCH   2   3
HETATM    3  O   UNL     1     -12.308  14.025  65.688  1.00  0.00    -0.427 OA 
BRANCH   3   4
HETATM    4  C   UNL     1     -11.666  12.819  65.730  1.00  0.00    -0.402 A  
HETATM    5  C   UNL     1     -11.230  12.086  64.628  1.00  0.00    -0.380 A  
HETATM    6  C   UNL     1     -10.574  10.864  64.811  1.00  0.00    -0.316 A  
HETATM    7  C   UNL     1     -10.344  10.354  66.095  1.00  0.00    -0.269 A  
HETATM    8  C   UNL     1     -11.451  12.309  67.012  1.00  0.00    -0.419 A  
HETATM    9  C   UNL     1     -10.798  11.087  67.197  1.00  0.00    -0.336 A  
BRANCH   7  10
HETATM   10  C   UNL     1      -9.691   9.003  66.261  1.00  0.00    -0.345 C  
BRANCH  10  11
HETATM   11  C   UNL     1      -8.500   8.931  67.191  1.00  0.00    -0.106 A  
HETATM   12  C   UNL     1      -7.215   9.362  66.836  1.00  0.00    -0.087 A  
HETATM   13 CL   UNL     1      -6.905  10.179  65.348  1.00  0.00    -0.123 Cl 
HETATM   14  C   UNL     1      -6.124   9.094  67.672  1.00  0.00    -0.054 A  
HETATM   15  C   UNL     1      -6.293   8.379  68.862  1.00  0.00    -0.045 A  
HETATM   16  C   UNL     1      -7.567   7.961  69.256  1.00  0.00    -0.097 A  
HETATM   17  C   UNL     1      -8.661   8.286  68.430  1.00  0.00    -0.133 A  
BRANCH  16  18
HETATM   18  C   UNL     1      -7.807   7.061  70.463  1.00  0.00    -0.101 C  
HETATM   19  O   UNL     1      -8.459   5.839  70.069  1.00  0.00    -0.120 OA 
HETATM   20  C   UNL     1      -8.646   4.929  71.167  1.00  0.00    -0.122 C  
HETATM   21  H   UNL     1      -8.480   9.456  72.649  1.00  0.00     0.000 HD 
HETATM   22  C   UNL     1      -9.527   5.555  72.250  1.00  0.00    -0.145 C  
HETATM   23  O   UNL     1      -7.969   8.997  71.993  1.00  0.00    -0.356 OA 
HETATM   24  O   UNL     1      -9.689   4.701  73.391  1.00  0.00    -0.130 OA 
HETATM   25  C   UNL     1      -8.915   6.876  72.721  1.00  0.00    -0.130 C  
HETATM   26  H   UNL     1      -9.405   8.325  73.961  1.00  0.00     0.000 HD 
HETATM   27  O   UNL     1      -9.784   7.505  73.669  1.00  0.00    -0.270 OA 
HETATM   28  H   UNL     1     -10.236   5.089  74.064  1.00  0.00     0.000 HD 
HETATM   29  C   UNL     1      -8.643   7.812  71.537  1.00  0.00    -0.117 C  
BRANCH  20  30
HETATM   30  C   UNL     1      -9.286   3.639  70.629  1.00  0.00    -0.158 C  
HETATM   31  O   UNL     1      -9.575   2.758  71.712  1.00  0.00    -0.125 OA 
HETATM   32  H   UNL     1      -9.970   1.961  71.380  1.00  0.00     0.000 HD 
ENDBRANCH  20  30
ENDBRANCH  16  18
ENDBRANCH  10  11
ENDBRANCH   7  10
ENDBRANCH   3   4
ENDBRANCH   2   3
TORSDOF 6
ENDMDL
MODEL      175
REMARK 921   NORMALIZED FREE ENERGY PREDICTED BY IDOCK:   -4.73 KCAL/MOL
REMARK 922        TOTAL FREE ENERGY PREDICTED BY IDOCK:   -7.35 KCAL/MOL
REMARK 923 INTER-LIGAND FREE ENERGY PREDICTED BY IDOCK:   -6.40 KCAL/MOL
REMARK 924 INTRA-LIGAND FREE ENERGY PREDICTED BY IDOCK:   -0.95 KCAL/MOL
REMARK 927      BINDING AFFINITY PREDICTED BY RF-SCORE:    0.00 PKD
ROOT
HETATM    1  C   UNL     1     -13.387  13.844  72.807  1.00  0.00    -0.567 C  
HETATM    2  C   UNL     1     -14.146  15.023  72.227  1.00  0.00    -0.513 C  
ENDROOT
BRANCH   2   3
HETATM    3  O   UNL     1     -13.194  15.962  71.729  1.00  0.00    -0.451 OA 
BRANCH   3   4
HETATM    4  C   UNL     1     -12.376  15.536  70.720  1.00  0.00    -0.414 A  
HETATM    5  C   UNL     1     -12.758  14.754  69.632  1.00  0.00     0.017 A  
HETATM    6  C   UNL     1     -11.819  14.393  68.660  1.00  0.00    -0.366 A  
HETATM    7  C   UNL     1     -10.484  14.806  68.759  1.00  0.00    -0.250 A  
HETATM    8  C   UNL     1     -11.043  15.938  70.831  1.00  0.00    -0.317 A  
HETATM    9  C   UNL     1     -10.102  15.577  69.863  1.00  0.00    -0.282 A  
BRANCH   7  10
HETATM   10  C   UNL     1      -9.478  14.348  67.731  1.00  0.00    -0.211 C  
BRANCH  10  11
HETATM   11  C   UNL     1      -8.676  13.110  68.067  1.00  0.00    -0.190 A  
HETATM   12  C   UNL     1      -7.280  13.041  67.959  1.00  0.00    -0.119 A  
HETATM   13 CL   UNL     1      -6.323  14.429  67.590  1.00  0.00    -0.166 Cl 
HETATM   14  C   UNL     1      -6.621  11.814  68.104  1.00  0.00    -0.056 A  
HETATM   15  C   UNL     1      -7.340  10.637  68.339  1.00  0.00    -0.091 A  
HETATM   16  C   UNL     1      -8.731  10.680  68.479  1.00  0.00    -0.141 A  
HETATM   17  C   UNL     1      -9.372  11.931  68.384  1.00  0.00    -0.184 A  
BRANCH  16  18
HETATM   18  C   UNL     1      -9.589   9.426  68.596  1.00  0.00    -0.147 C  
HETATM   19  O   UNL     1      -9.628   8.958  69.958  1.00  0.00    -0.166 OA 
HETATM   20  C   UNL     1     -10.482   7.813  70.128  1.00  0.00    -0.231 C  
HETATM   21  H   UNL     1      -8.755   8.070  65.693  1.00  0.00     0.000 HD 
HETATM   22  C   UNL     1      -9.990   6.636  69.283  1.00  0.00    -0.158 C  
HETATM   23  O   UNL     1      -9.081   8.747  66.274  1.00  0.00    -0.166 OA 
HETATM   24  O   UNL     1     -10.850   5.491  69.379  1.00  0.00    -0.298 OA 
HETATM   25  C   UNL     1      -9.902   7.050  67.813  1.00  0.00    -0.139 C  
HETATM   26  H   UNL     1      -9.302   6.234  66.124  1.00  0.00     0.000 HD 
HETATM   27  O   UNL     1      -9.357   5.977  67.037  1.00  0.00    -0.118 OA 
HETATM   28  H   UNL     1     -10.544   4.760  68.855  1.00  0.00     0.000 HD 
HETATM   29  C   UNL     1      -9.056   8.318  67.645  1.00  0.00    -0.131 C  
BRANCH  20  30
HETATM   30  C   UNL     1     -10.503   7.437  71.618  1.00  0.00    -0.197 C  
HETATM   31  O   UNL     1     -10.823   8.587  72.399  1.00  0.00    -0.346 OA 
HETATM   32  H   UNL     1     -10.836   8.355  73.320  1.00  0.00     0.000 HD 
ENDBRANCH  20  30
ENDBRANCH  16  18
ENDBRANCH  10  11
ENDBRANCH   7  10
ENDBRANCH   3   4
ENDBRANCH   2   3
TORSDOF 6
ENDMDL
MODEL      176
REMARK 921   NORMALIZED FREE ENERGY PREDICTED BY IDOCK:   -4.71 KCAL/MOL
REMARK 922        TOTAL FREE ENERGY PREDICTED BY IDOCK:   -7.33 KCAL/MOL
REMARK 923 INTER-LIGAND FREE ENERGY PREDICTED BY IDOCK:   -6.32 KCAL/MOL
REMARK 924 INTRA-LIGAND FREE ENERGY PREDICTED BY IDOCK:   -1.01 KCAL/MOL
REMARK 927      BINDING AFFINITY PREDICTED BY RF-SCORE:    0.00 PKD
ROOT
HETATM    1  C   UNL     1      -6.803   7.396  66.526  1.00  0.00    -0.062 C  
HETATM    2  C   UNL     1      -6.181   8.224  67.635  1.00  0.00    -0.052 C  
ENDROOT
BRANCH   2   3
HETATM    3  O   UNL     1      -6.080   9.572  67.180  1.00  0.00    -0.061 OA 
BRANCH   3   4
HETATM    4  C   UNL     1      -7.189  10.358  67.323  1.00  0.00    -0.089 A  
HETATM    5  C   UNL     1      -7.423  11.261  68.358  1.00  0.00    -0.108 A  
HETATM    6  C   UNL     1      -8.602  12.013  68.383  1.00  0.00    -0.147 A  
HETATM    7  C   UNL     1      -9.566  11.877  67.375  1.00  0.00    -0.176 A  
HETATM    8  C   UNL     1      -8.153  10.207  66.324  1.00  0.00    -0.124 A  
HETATM    9  C   UNL     1      -9.332  10.956  66.347  1.00  0.00    -0.199 A  
BRANCH   7  10
HETATM   10  C   UNL     1     -10.857  12.654  67.460  1.00  0.00    -0.267 C  
BRANCH  10  11
HETATM   11  C   UNL     1     -11.577  12.634  68.790  1.00  0.00    -0.355 A  
HETATM   12  C   UNL     1     -12.052  13.787  69.430  1.00  0.00    -0.328 A  
HETATM   13 CL   UNL     1     -12.007  15.337  68.670  1.00  0.00    -0.311 Cl 
HETATM   14  C   UNL     1     -12.539  13.718  70.741  1.00  0.00    -0.410 A  
HETATM   15  C   UNL     1     -12.544  12.507  71.440  1.00  0.00    -0.297 A  
HETATM   16  C   UNL     1     -12.103  11.335  70.818  1.00  0.00    -0.450 A  
HETATM   17  C   UNL     1     -11.667  11.413  69.481  1.00  0.00    -0.417 A  
BRANCH  16  18
HETATM   18  C   UNL     1     -11.950  10.012  71.560  1.00  0.00    -0.353 C  
HETATM   19  O   UNL     1     -10.726   9.352  71.181  1.00  0.00    -0.298 OA 
HETATM   20  C   UNL     1     -10.507   8.130  71.906  1.00  0.00    -0.248 C  
HETATM   21  H   UNL     1     -15.149   9.156  71.564  1.00  0.00     0.000 HD 
HETATM   22  C   UNL     1     -11.634   7.129  71.642  1.00  0.00    -0.276 C  
HETATM   23  O   UNL     1     -14.398   9.715  71.730  1.00  0.00     0.049 OA 
HETATM   24  O   UNL     1     -11.482   5.916  72.395  1.00  0.00    -0.292 OA 
HETATM   25  C   UNL     1     -12.982   7.754  72.003  1.00  0.00    -0.222 C  
HETATM   26  H   UNL     1     -14.880   7.239  71.896  1.00  0.00     0.000 HD 
HETATM   27  O   UNL     1     -14.042   6.851  71.672  1.00  0.00    -0.297 OA 
HETATM   28  H   UNL     1     -12.182   5.295  72.230  1.00  0.00     0.000 HD 
HETATM   29  C   UNL     1     -13.177   9.098  71.289  1.00  0.00    -0.238 C  
BRANCH  20  30
HETATM   30  C   UNL     1      -9.152   7.544  71.477  1.00  0.00    -0.135 C  
HETATM   31  O   UNL     1      -9.363   6.418  70.627  1.00  0.00    -0.160 OA 
HETATM   32  H   UNL     1      -8.526   6.056  70.361  1.00  0.00     0.000 HD 
ENDBRANCH  20  30
ENDBRANCH  16  18
ENDBRANCH  10  11
ENDBRANCH   7  10
ENDBRANCH   3   4
ENDBRANCH   2   3
TORSDOF 6
ENDMDL
MODEL      177
REMARK 921   NORMALIZED FREE ENERGY PREDICTED BY IDOCK:   -4.70 KCAL/MOL
REMARK 922        TOTAL FREE ENERGY PREDICTED BY IDOCK:   -7.32 KCAL/MOL
REMARK 923 INTER-LIGAND FREE ENERGY PREDICTED BY IDOCK:   -6.48 KCAL/MOL
REMARK 924 INTRA-LIGAND FREE ENERGY PREDICTED BY IDOCK:   -0.84 KCAL/MOL
REMARK 927      BINDING AFFINITY PREDICTED BY RF-SCORE:    0.00 PKD
ROOT
HETATM    1  C   UNL     1     -10.261   3.755  64.132  1.00  0.00    -0.240 C  
HETATM    2  C   UNL     1      -9.575   3.880  65.480  1.00  0.00    -0.184 C  
ENDROOT
BRANCH   2   3
HETATM    3  O   UNL     1      -8.676   4.986  65.421  1.00  0.00    -0.136 OA 
BRANCH   3   4
HETATM    4  C   UNL     1      -9.156   6.195  65.841  1.00  0.00    -0.085 A  
HETATM    5  C   UNL     1     -10.216   6.392  66.723  1.00  0.00    -0.259 A  
HETATM    6  C   UNL     1     -10.604   7.688  67.080  1.00  0.00    -0.410 A  
HETATM    7  C   UNL     1      -9.939   8.807  66.562  1.00  0.00    -0.360 A  
HETATM    8  C   UNL     1      -8.500   7.307  65.310  1.00  0.00    -0.067 A  
HETATM    9  C   UNL     1      -8.886   8.603  65.663  1.00  0.00    -0.227 A  
BRANCH   7  10
HETATM   10  C   UNL     1     -10.419  10.195  66.913  1.00  0.00    -0.286 C  
BRANCH  10  11
HETATM   11  C   UNL     1      -9.362  11.198  67.321  1.00  0.00    -0.170 A  
HETATM   12  C   UNL     1      -8.410  10.955  68.320  1.00  0.00    -0.129 A  
HETATM   13 CL   UNL     1      -8.247   9.409  69.070  1.00  0.00    -0.105 Cl 
HETATM   14  C   UNL     1      -7.586  11.991  68.777  1.00  0.00    -0.070 A  
HETATM   15  C   UNL     1      -7.709  13.285  68.260  1.00  0.00    -0.141 A  
HETATM   16  C   UNL     1      -8.630  13.550  67.242  1.00  0.00    -0.218 A  
HETATM   17  C   UNL     1      -9.414  12.485  66.757  1.00  0.00    -0.231 A  
BRANCH  16  18
HETATM   18  C   UNL     1      -8.916  14.958  66.731  1.00  0.00    -0.268 C  
HETATM   19  O   UNL     1      -7.700  15.726  66.643  1.00  0.00    -0.217 OA 
HETATM   20  C   UNL     1      -7.913  17.042  66.102  1.00  0.00    -0.264 C  
HETATM   21  H   UNL     1     -11.828  15.377  68.251  1.00  0.00     0.000 HD 
HETATM   22  C   UNL     1      -8.867  17.848  66.986  1.00  0.00    -0.250 C  
HETATM   23  O   UNL     1     -11.195  14.945  67.689  1.00  0.00    -0.301 OA 
HETATM   24  O   UNL     1      -9.152  19.147  66.448  1.00  0.00    -0.330 OA 
HETATM   25  C   UNL     1     -10.189  17.094  67.149  1.00  0.00    -0.316 C  
HETATM   26  H   UNL     1     -11.867  17.337  68.149  1.00  0.00     0.000 HD 
HETATM   27  O   UNL     1     -11.047  17.805  68.047  1.00  0.00    -0.195 OA 
HETATM   28  H   UNL     1      -9.745  19.648  66.997  1.00  0.00     0.000 HD 
HETATM   29  C   UNL     1      -9.951  15.664  67.650  1.00  0.00    -0.237 C  
BRANCH  20  30
HETATM   30  C   UNL     1      -6.553  17.749  65.990  1.00  0.00    -0.270 C  
HETATM   31  O   UNL     1      -6.601  18.721  64.948  1.00  0.00    -0.516 OA 
HETATM   32  H   UNL     1      -5.760  19.158  64.879  1.00  0.00     0.000 HD 
ENDBRANCH  20  30
ENDBRANCH  16  18
ENDBRANCH  10  11
ENDBRANCH   7  10
ENDBRANCH   3   4
ENDBRANCH   2   3
TORSDOF 6
ENDMDL
MODEL      178
REMARK 921   NORMALIZED FREE ENERGY PREDICTED BY IDOCK:   -4.69 KCAL/MOL
REMARK 922        TOTAL FREE ENERGY PREDICTED BY IDOCK:   -7.31 KCAL/MOL
REMARK 923 INTER-LIGAND FREE ENERGY PREDICTED BY IDOCK:   -6.35 KCAL/MOL
REMARK 924 INTRA-LIGAND FREE ENERGY PREDICTED BY IDOCK:   -0.95 KCAL/MOL
REMARK 927      BINDING AFFINITY PREDICTED BY RF-SCORE:    0.00 PKD
ROOT
HETATM    1  C   UNL     1      -7.161   6.769  67.007  1.00  0.00    -0.072 C  
HETATM    2  C   UNL     1      -7.187   7.615  68.267  1.00  0.00    -0.093 C  
ENDROOT
BRANCH   2   3
HETATM    3  O   UNL     1      -6.043   8.467  68.254  1.00  0.00    -0.048 OA 
BRANCH   3   4
HETATM    4  C   UNL     1      -6.277   9.814  68.263  1.00  0.00    -0.051 A  
HETATM    5  C   UNL     1      -6.282  10.635  69.389  1.00  0.00    -0.051 A  
HETATM    6  C   UNL     1      -6.528  12.006  69.259  1.00  0.00    -0.111 A  
HETATM    7  C   UNL     1      -6.772  12.579  68.004  1.00  0.00    -0.090 A  
HETATM    8  C   UNL     1      -6.534  10.377  67.012  1.00  0.00    -0.074 A  
HETATM    9  C   UNL     1      -6.782  11.747  66.879  1.00  0.00    -0.105 A  
BRANCH   7  10
HETATM   10  C   UNL     1      -7.098  14.050  67.901  1.00  0.00    -0.166 C  
BRANCH  10  11
HETATM   11  C   UNL     1      -8.542  14.410  67.631  1.00  0.00    -0.189 A  
HETATM   12  C   UNL     1      -8.933  15.542  66.904  1.00  0.00    -0.246 A  
HETATM   13 CL   UNL     1      -7.788  16.550  66.097  1.00  0.00    -0.261 Cl 
HETATM   14  C   UNL     1     -10.281  15.918  66.854  1.00  0.00    -0.277 A  
HETATM   15  C   UNL     1     -11.256  15.184  67.539  1.00  0.00    -0.331 A  
HETATM   16  C   UNL     1     -10.898  14.034  68.249  1.00  0.00    -0.268 A  
HETATM   17  C   UNL     1      -9.546  13.640  68.245  1.00  0.00    -0.215 A  
BRANCH  16  18
HETATM   18  C   UNL     1     -11.879  13.267  69.129  1.00  0.00    -0.329 C  
HETATM   19  O   UNL     1     -12.048  13.926  70.399  1.00  0.00    -0.315 OA 
HETATM   20  C   UNL     1     -13.016  13.273  71.239  1.00  0.00    -0.270 C  
HETATM   21  H   UNL     1     -10.995  10.217  68.190  1.00  0.00     0.000 HD 
HETATM   22  C   UNL     1     -12.586  11.838  71.553  1.00  0.00    -0.215 C  
HETATM   23  O   UNL     1     -11.291  11.112  68.070  1.00  0.00    -0.274 OA 
HETATM   24  O   UNL     1     -13.555  11.132  72.342  1.00  0.00    -0.538 OA 
HETATM   25  C   UNL     1     -12.366  11.063  70.253  1.00  0.00    -0.328 C  
HETATM   26  H   UNL     1     -11.742   9.268  69.738  1.00  0.00     0.000 HD 
HETATM   27  O   UNL     1     -11.879   9.749  70.546  1.00  0.00    -0.266 OA 
HETATM   28  H   UNL     1     -13.289  10.241  72.537  1.00  0.00     0.000 HD 
HETATM   29  C   UNL     1     -11.395  11.803  69.325  1.00  0.00    -0.286 C  
BRANCH  20  30
HETATM   30  C   UNL     1     -13.167  14.087  72.534  1.00  0.00    -0.505 C  
HETATM   31  O   UNL     1     -13.378  15.461  72.215  1.00  0.00    -0.377 OA 
HETATM   32  H   UNL     1     -13.471  15.965  73.015  1.00  0.00     0.000 HD 
ENDBRANCH  20  30
ENDBRANCH  16  18
ENDBRANCH  10  11
ENDBRANCH   7  10
ENDBRANCH   3   4
ENDBRANCH   2   3
TORSDOF 6
ENDMDL
MODEL      179
REMARK 921   NORMALIZED FREE ENERGY PREDICTED BY IDOCK:   -4.68 KCAL/MOL
REMARK 922        TOTAL FREE ENERGY PREDICTED BY IDOCK:   -7.29 KCAL/MOL
REMARK 923 INTER-LIGAND FREE ENERGY PREDICTED BY IDOCK:   -6.26 KCAL/MOL
REMARK 924 INTRA-LIGAND FREE ENERGY PREDICTED BY IDOCK:   -1.03 KCAL/MOL
REMARK 927      BINDING AFFINITY PREDICTED BY RF-SCORE:    0.00 PKD
ROOT
HETATM    1  C   UNL     1     -12.735   8.265  72.155  1.00  0.00    -0.366 C  
HETATM    2  C   UNL     1     -12.481   9.428  71.216  1.00  0.00    -0.335 C  
ENDROOT
BRANCH   2   3
HETATM    3  O   UNL     1     -12.994  10.612  71.825  1.00  0.00    -0.438 OA 
BRANCH   3   4
HETATM    4  C   UNL     1     -12.645  11.803  71.251  1.00  0.00    -0.296 A  
HETATM    5  C   UNL     1     -12.832  13.066  71.811  1.00  0.00    -0.351 A  
HETATM    6  C   UNL     1     -12.420  14.210  71.119  1.00  0.00    -0.445 A  
HETATM    7  C   UNL     1     -11.816  14.112  69.859  1.00  0.00    -0.387 A  
HETATM    8  C   UNL     1     -12.057  11.701  69.989  1.00  0.00    -0.395 A  
HETATM    9  C   UNL     1     -11.647  12.842  69.295  1.00  0.00    -0.368 A  
BRANCH   7  10
HETATM   10  C   UNL     1     -11.441  15.366  69.107  1.00  0.00    -0.344 C  
BRANCH  10  11
HETATM   11  C   UNL     1     -10.016  15.459  68.606  1.00  0.00    -0.210 A  
HETATM   12  C   UNL     1      -9.534  16.529  67.841  1.00  0.00    -0.220 A  
HETATM   13 CL   UNL     1     -10.486  17.937  67.538  1.00  0.00    -0.388 Cl 
HETATM   14  C   UNL     1      -8.264  16.462  67.253  1.00  0.00    -0.193 A  
HETATM   15  C   UNL     1      -7.465  15.324  67.403  1.00  0.00    -0.239 A  
HETATM   16  C   UNL     1      -7.908  14.252  68.185  1.00  0.00    -0.139 A  
HETATM   17  C   UNL     1      -9.165  14.359  68.812  1.00  0.00    -0.144 A  
BRANCH  16  18
HETATM   18  C   UNL     1      -7.156  12.929  68.278  1.00  0.00    -0.102 C  
HETATM   19  O   UNL     1      -7.963  11.845  67.781  1.00  0.00    -0.127 OA 
HETATM   20  C   UNL     1      -7.269  10.586  67.788  1.00  0.00    -0.085 C  
HETATM   21  H   UNL     1      -5.582  13.539  71.127  1.00  0.00     0.000 HD 
HETATM   22  C   UNL     1      -6.859  10.198  69.210  1.00  0.00    -0.063 C  
HETATM   23  O   UNL     1      -5.850  13.702  70.231  1.00  0.00    -0.132 OA 
HETATM   24  O   UNL     1      -6.110   8.974  69.254  1.00  0.00    -0.041 OA 
HETATM   25  C   UNL     1      -6.005  11.307  69.828  1.00  0.00    -0.103 C  
HETATM   26  H   UNL     1      -5.167  11.672  71.572  1.00  0.00     0.000 HD 
HETATM   27  O   UNL     1      -5.697  10.984  71.188  1.00  0.00    -0.319 OA 
HETATM   28  H   UNL     1      -5.855   8.733  70.137  1.00  0.00     0.000 HD 
HETATM   29  C   UNL     1      -6.716  12.663  69.745  1.00  0.00     0.157 C  
BRANCH  20  30
HETATM   30  C   UNL     1      -8.190   9.517  67.181  1.00  0.00    -0.113 C  
HETATM   31  O   UNL     1      -7.414   8.399  66.755  1.00  0.00    -0.082 OA 
HETATM   32  H   UNL     1      -7.983   7.738  66.379  1.00  0.00     0.000 HD 
ENDBRANCH  20  30
ENDBRANCH  16  18
ENDBRANCH  10  11
ENDBRANCH   7  10
ENDBRANCH   3   4
ENDBRANCH   2   3
TORSDOF 6
ENDMDL
MODEL      180
REMARK 921   NORMALIZED FREE ENERGY PREDICTED BY IDOCK:   -4.68 KCAL/MOL
REMARK 922        TOTAL FREE ENERGY PREDICTED BY IDOCK:   -7.28 KCAL/MOL
REMARK 923 INTER-LIGAND FREE ENERGY PREDICTED BY IDOCK:   -7.06 KCAL/MOL
REMARK 924 INTRA-LIGAND FREE ENERGY PREDICTED BY IDOCK:   -0.23 KCAL/MOL
REMARK 927      BINDING AFFINITY PREDICTED BY RF-SCORE:    0.00 PKD
ROOT
HETATM    1  C   UNL     1     -14.210  14.484  72.057  1.00  0.00    -0.630 C  
HETATM    2  C   UNL     1     -12.726  14.591  71.758  1.00  0.00    -0.343 C  
ENDROOT
BRANCH   2   3
HETATM    3  O   UNL     1     -12.535  15.657  70.830  1.00  0.00    -0.415 OA 
BRANCH   3   4
HETATM    4  C   UNL     1     -12.053  15.322  69.595  1.00  0.00    -0.312 A  
HETATM    5  C   UNL     1     -12.200  14.086  68.968  1.00  0.00    -0.280 A  
HETATM    6  C   UNL     1     -11.662  13.876  67.694  1.00  0.00    -0.403 A  
HETATM    7  C   UNL     1     -10.970  14.894  67.026  1.00  0.00    -0.327 A  
HETATM    8  C   UNL     1     -11.351  16.336  68.941  1.00  0.00    -0.317 A  
HETATM    9  C   UNL     1     -10.811  16.128  67.668  1.00  0.00    -0.297 A  
BRANCH   7  10
HETATM   10  C   UNL     1     -10.345  14.620  65.679  1.00  0.00    -0.370 C  
BRANCH  10  11
HETATM   11  C   UNL     1     -10.272  13.173  65.245  1.00  0.00    -0.299 A  
HETATM   12  C   UNL     1     -11.004  12.650  64.171  1.00  0.00    -0.387 A  
HETATM   13 CL   UNL     1     -11.940  13.657  63.127  1.00  0.00    -0.113 Cl 
HETATM   14  C   UNL     1     -11.034  11.268  63.942  1.00  0.00    -0.382 A  
HETATM   15  C   UNL     1     -10.351  10.388  64.787  1.00  0.00    -0.221 A  
HETATM   16  C   UNL     1      -9.589  10.883  65.850  1.00  0.00    -0.257 A  
HETATM   17  C   UNL     1      -9.527  12.278  66.033  1.00  0.00    -0.194 A  
BRANCH  16  18
HETATM   18  C   UNL     1      -8.936   9.980  66.891  1.00  0.00    -0.135 C  
HETATM   19  O   UNL     1      -9.728   8.798  67.112  1.00  0.00    -0.165 OA 
HETATM   20  C   UNL     1      -9.116   7.884  68.039  1.00  0.00    -0.132 C  
HETATM   21  H   UNL     1      -7.740  12.377  68.838  1.00  0.00     0.000 HD 
HETATM   22  C   UNL     1      -8.932   8.540  69.409  1.00  0.00    -0.149 C  
HETATM   23  O   UNL     1      -7.871  11.901  68.026  1.00  0.00    -0.122 OA 
HETATM   24  O   UNL     1      -8.269   7.679  70.347  1.00  0.00    -0.118 OA 
HETATM   25  C   UNL     1      -8.109   9.821  69.268  1.00  0.00    -0.115 C  
HETATM   26  H   UNL     1      -7.501  11.277  70.447  1.00  0.00     0.000 HD 
HETATM   27  O   UNL     1      -8.012  10.480  70.535  1.00  0.00     0.237 OA 
HETATM   28  H   UNL     1      -8.155   8.086  71.198  1.00  0.00     0.000 HD 
HETATM   29  C   UNL     1      -8.721  10.758  68.219  1.00  0.00    -0.136 C  
BRANCH  20  30
HETATM   30  C   UNL     1     -10.006   6.636  68.153  1.00  0.00    -0.147 C  
HETATM   31  O   UNL     1     -11.369   6.996  67.938  1.00  0.00    -0.529 OA 
HETATM   32  H   UNL     1     -11.919   6.225  68.009  1.00  0.00     0.000 HD 
ENDBRANCH  20  30
ENDBRANCH  16  18
ENDBRANCH  10  11
ENDBRANCH   7  10
ENDBRANCH   3   4
ENDBRANCH   2   3
TORSDOF 6
ENDMDL
MODEL      181
REMARK 921   NORMALIZED FREE ENERGY PREDICTED BY IDOCK:   -4.61 KCAL/MOL
REMARK 922        TOTAL FREE ENERGY PREDICTED BY IDOCK:   -7.20 KCAL/MOL
REMARK 923 INTER-LIGAND FREE ENERGY PREDICTED BY IDOCK:   -6.02 KCAL/MOL
REMARK 924 INTRA-LIGAND FREE ENERGY PREDICTED BY IDOCK:   -1.17 KCAL/MOL
REMARK 927      BINDING AFFINITY PREDICTED BY RF-SCORE:    0.00 PKD
ROOT
HETATM    1  C   UNL     1      -6.192  19.281  67.575  1.00  0.00    -0.205 C  
HETATM    2  C   UNL     1      -7.052  18.725  68.695  1.00  0.00    -0.295 C  
ENDROOT
BRANCH   2   3
HETATM    3  O   UNL     1      -8.391  18.616  68.215  1.00  0.00    -0.303 OA 
BRANCH   3   4
HETATM    4  C   UNL     1      -8.713  17.475  67.535  1.00  0.00    -0.225 A  
HETATM    5  C   UNL     1      -8.165  16.212  67.751  1.00  0.00    -0.162 A  
HETATM    6  C   UNL     1      -8.591  15.120  66.988  1.00  0.00    -0.265 A  
HETATM    7  C   UNL     1      -9.570  15.270  65.998  1.00  0.00    -0.372 A  
HETATM    8  C   UNL     1      -9.679  17.633  66.539  1.00  0.00    -0.310 A  
HETATM    9  C   UNL     1     -10.105  16.544  65.774  1.00  0.00    -0.328 A  
BRANCH   7  10
HETATM   10  C   UNL     1      -9.964  14.088  65.146  1.00  0.00    -0.257 C  
BRANCH  10  11
HETATM   11  C   UNL     1     -10.384  12.832  65.876  1.00  0.00    -0.298 A  
HETATM   12  C   UNL     1     -11.494  12.768  66.729  1.00  0.00    -0.343 A  
HETATM   13 CL   UNL     1     -12.596  14.087  66.894  1.00  0.00    -0.173 Cl 
HETATM   14  C   UNL     1     -11.716  11.632  67.517  1.00  0.00    -0.288 A  
HETATM   15  C   UNL     1     -10.827  10.552  67.482  1.00  0.00    -0.357 A  
HETATM   16  C   UNL     1      -9.726  10.576  66.620  1.00  0.00    -0.232 A  
HETATM   17  C   UNL     1      -9.549  11.704  65.795  1.00  0.00    -0.255 A  
BRANCH  16  18
HETATM   18  C   UNL     1      -8.644   9.502  66.630  1.00  0.00    -0.134 C  
HETATM   19  O   UNL     1      -9.193   8.219  66.271  1.00  0.00    -0.181 OA 
HETATM   20  C   UNL     1      -8.194   7.187  66.202  1.00  0.00    -0.128 C  
HETATM   21  H   UNL     1      -6.928  10.655  69.217  1.00  0.00     0.000 HD 
HETATM   22  C   UNL     1      -7.513   6.997  67.559  1.00  0.00    -0.097 C  
HETATM   23  O   UNL     1      -7.345  10.693  68.365  1.00  0.00    -0.084 OA 
HETATM   24  O   UNL     1      -6.467   6.015  67.518  1.00  0.00    -0.043 OA 
HETATM   25  C   UNL     1      -6.911   8.322  68.031  1.00  0.00    -0.066 C  
HETATM   26  H   UNL     1      -5.978   8.987  69.632  1.00  0.00     0.000 HD 
HETATM   27  O   UNL     1      -6.352   8.164  69.339  1.00  0.00    -0.034 OA 
HETATM   28  H   UNL     1      -6.044   5.897  68.361  1.00  0.00     0.000 HD 
HETATM   29  C   UNL     1      -7.961   9.439  68.025  1.00  0.00    -0.092 C  
BRANCH  20  30
HETATM   30  C   UNL     1      -8.870   5.883  65.750  1.00  0.00    -0.139 C  
HETATM   31  O   UNL     1      -8.851   5.800  64.326  1.00  0.00    -0.355 OA 
HETATM   32  H   UNL     1      -9.269   4.995  64.047  1.00  0.00     0.000 HD 
ENDBRANCH  20  30
ENDBRANCH  16  18
ENDBRANCH  10  11
ENDBRANCH   7  10
ENDBRANCH   3   4
ENDBRANCH   2   3
TORSDOF 6
ENDMDL
MODEL      182
REMARK 921   NORMALIZED FREE ENERGY PREDICTED BY IDOCK:   -4.57 KCAL/MOL
REMARK 922        TOTAL FREE ENERGY PREDICTED BY IDOCK:   -7.14 KCAL/MOL
REMARK 923 INTER-LIGAND FREE ENERGY PREDICTED BY IDOCK:   -6.10 KCAL/MOL
REMARK 924 INTRA-LIGAND FREE ENERGY PREDICTED BY IDOCK:   -1.05 KCAL/MOL
REMARK 927      BINDING AFFINITY PREDICTED BY RF-SCORE:    0.00 PKD
ROOT
HETATM    1  C   UNL     1      -6.226  14.826  71.189  1.00  0.00     0.181 C  
HETATM    2  C   UNL     1      -5.681  13.418  71.035  1.00  0.00    -0.165 C  
ENDROOT
BRANCH   2   3
HETATM    3  O   UNL     1      -5.126  13.297  69.727  1.00  0.00    -0.080 OA 
BRANCH   3   4
HETATM    4  C   UNL     1      -5.905  12.696  68.778  1.00  0.00    -0.068 A  
HETATM    5  C   UNL     1      -6.525  13.334  67.705  1.00  0.00    -0.161 A  
HETATM    6  C   UNL     1      -7.293  12.598  66.797  1.00  0.00     0.352 A  
HETATM    7  C   UNL     1      -7.454  11.214  66.945  1.00  0.00    -0.138 A  
HETATM    8  C   UNL     1      -6.075  11.320  68.939  1.00  0.00    -0.046 A  
HETATM    9  C   UNL     1      -6.843  10.582  68.034  1.00  0.00    -0.073 A  
BRANCH   7  10
HETATM   10  C   UNL     1      -8.340  10.455  65.987  1.00  0.00    -0.149 C  
BRANCH  10  11
HETATM   11  C   UNL     1      -9.674  11.084  65.648  1.00  0.00    -0.276 A  
HETATM   12  C   UNL     1     -10.238  11.056  64.366  1.00  0.00    -0.346 A  
HETATM   13 CL   UNL     1      -9.535  10.145  63.078  1.00  0.00    -0.326 Cl 
HETATM   14  C   UNL     1     -11.378  11.817  64.078  1.00  0.00    -0.461 A  
HETATM   15  C   UNL     1     -11.962  12.629  65.056  1.00  0.00    -0.467 A  
HETATM   16  C   UNL     1     -11.438  12.655  66.352  1.00  0.00    -0.409 A  
HETATM   17  C   UNL     1     -10.323  11.843  66.638  1.00  0.00    -0.242 A  
BRANCH  16  18
HETATM   18  C   UNL     1     -11.933  13.617  67.426  1.00  0.00    -0.376 C  
HETATM   19  O   UNL     1     -11.213  14.863  67.368  1.00  0.00    -0.318 OA 
HETATM   20  C   UNL     1     -11.693  15.827  68.322  1.00  0.00    -0.222 C  
HETATM   21  H   UNL     1     -12.497  11.363  69.785  1.00  0.00     0.000 HD 
HETATM   22  C   UNL     1     -11.535  15.306  69.752  1.00  0.00    -0.313 C  
HETATM   23  O   UNL     1     -12.577  11.760  68.926  1.00  0.00    -0.044 OA 
HETATM   24  O   UNL     1     -12.057  16.215  70.731  1.00  0.00    -0.500 OA 
HETATM   25  C   UNL     1     -12.260  13.967  69.902  1.00  0.00    -0.340 C  
HETATM   26  H   UNL     1     -12.488  12.606  71.306  1.00  0.00     0.000 HD 
HETATM   27  O   UNL     1     -12.037  13.437  71.212  1.00  0.00    -0.191 OA 
HETATM   28  H   UNL     1     -11.959  15.891  71.619  1.00  0.00     0.000 HD 
HETATM   29  C   UNL     1     -11.803  12.968  68.832  1.00  0.00    -0.316 C  
BRANCH  20  30
HETATM   30  C   UNL     1     -10.905  17.134  68.133  1.00  0.00    -0.316 C  
HETATM   31  O   UNL     1     -10.624  17.330  66.749  1.00  0.00    -0.286 OA 
HETATM   32  H   UNL     1     -10.138  18.137  66.632  1.00  0.00     0.000 HD 
ENDBRANCH  20  30
ENDBRANCH  16  18
ENDBRANCH  10  11
ENDBRANCH   7  10
ENDBRANCH   3   4
ENDBRANCH   2   3
TORSDOF 6
ENDMDL
MODEL      183
REMARK 921   NORMALIZED FREE ENERGY PREDICTED BY IDOCK:   -4.57 KCAL/MOL
REMARK 922        TOTAL FREE ENERGY PREDICTED BY IDOCK:   -7.14 KCAL/MOL
REMARK 923 INTER-LIGAND FREE ENERGY PREDICTED BY IDOCK:   -6.50 KCAL/MOL
REMARK 924 INTRA-LIGAND FREE ENERGY PREDICTED BY IDOCK:   -0.64 KCAL/MOL
REMARK 927      BINDING AFFINITY PREDICTED BY RF-SCORE:    0.00 PKD
ROOT
HETATM    1  C   UNL     1      -6.387  10.826  62.547  1.00  0.00    -0.084 C  
HETATM    2  C   UNL     1      -7.190  10.014  63.547  1.00  0.00    -0.135 C  
ENDROOT
BRANCH   2   3
HETATM    3  O   UNL     1      -7.079   8.637  63.193  1.00  0.00    -0.090 OA 
BRANCH   3   4
HETATM    4  C   UNL     1      -7.730   7.739  63.992  1.00  0.00    -0.126 A  
HETATM    5  C   UNL     1      -7.655   6.351  63.892  1.00  0.00    -0.099 A  
HETATM    6  C   UNL     1      -8.368   5.542  64.783  1.00  0.00    -0.136 A  
HETATM    7  C   UNL     1      -9.167   6.105  65.787  1.00  0.00    -0.014 A  
HETATM    8  C   UNL     1      -8.536   8.305  64.981  1.00  0.00    -0.141 A  
HETATM    9  C   UNL     1      -9.251   7.499  65.872  1.00  0.00    -0.034 A  
BRANCH   7  10
HETATM   10  C   UNL     1      -9.976   5.209  66.693  1.00  0.00    -0.235 C  
BRANCH  10  11
HETATM   11  C   UNL     1      -9.725   5.338  68.179  1.00  0.00    -0.184 A  
HETATM   12  C   UNL     1      -9.308   4.272  68.988  1.00  0.00    -0.160 A  
HETATM   13 CL   UNL     1      -8.876   2.738  68.326  1.00  0.00    -0.142 Cl 
HETATM   14  C   UNL     1      -9.277   4.413  70.381  1.00  0.00    -0.184 A  
HETATM   15  C   UNL     1      -9.676   5.607  70.990  1.00  0.00    -0.221 A  
HETATM   16  C   UNL     1     -10.069   6.697  70.207  1.00  0.00    -0.201 A  
HETATM   17  C   UNL     1     -10.044   6.556  68.805  1.00  0.00    -0.178 A  
BRANCH  16  18
HETATM   18  C   UNL     1     -10.647   7.977  70.801  1.00  0.00    -0.214 C  
HETATM   19  O   UNL     1     -12.051   7.821  71.084  1.00  0.00    -0.306 OA 
HETATM   20  C   UNL     1     -12.625   8.983  71.707  1.00  0.00    -0.367 C  
HETATM   21  H   UNL     1      -8.858  10.116  69.016  1.00  0.00     0.000 HD 
HETATM   22  C   UNL     1     -12.504  10.206  70.796  1.00  0.00    -0.326 C  
HETATM   23  O   UNL     1      -9.004   9.385  69.605  1.00  0.00    -0.148 OA 
HETATM   24  O   UNL     1     -13.012  11.401  71.408  1.00  0.00    -0.412 OA 
HETATM   25  C   UNL     1     -11.037  10.440  70.429  1.00  0.00    -0.296 C  
HETATM   26  H   UNL     1     -10.024  11.675  69.278  1.00  0.00     0.000 HD 
HETATM   27  O   UNL     1     -10.934  11.530  69.506  1.00  0.00    -0.211 OA 
HETATM   28  H   UNL     1     -12.937  12.161  70.842  1.00  0.00     0.000 HD 
HETATM   29  C   UNL     1     -10.407   9.173  69.838  1.00  0.00    -0.212 C  
BRANCH  20  30
HETATM   30  C   UNL     1     -14.099   8.688  72.024  1.00  0.00    -0.453 C  
HETATM   31  O   UNL     1     -14.332   8.850  73.422  1.00  0.00    -1.192 OA 
HETATM   32  H   UNL     1     -15.243   8.668  73.618  1.00  0.00     0.000 HD 
ENDBRANCH  20  30
ENDBRANCH  16  18
ENDBRANCH  10  11
ENDBRANCH   7  10
ENDBRANCH   3   4
ENDBRANCH   2   3
TORSDOF 6
ENDMDL
MODEL      184
REMARK 921   NORMALIZED FREE ENERGY PREDICTED BY IDOCK:   -4.55 KCAL/MOL
REMARK 922        TOTAL FREE ENERGY PREDICTED BY IDOCK:   -7.11 KCAL/MOL
REMARK 923 INTER-LIGAND FREE ENERGY PREDICTED BY IDOCK:   -5.75 KCAL/MOL
REMARK 924 INTRA-LIGAND FREE ENERGY PREDICTED BY IDOCK:   -1.36 KCAL/MOL
REMARK 927      BINDING AFFINITY PREDICTED BY RF-SCORE:    0.00 PKD
ROOT
HETATM    1  C   UNL     1      -9.423   2.428  69.299  1.00  0.00    -0.136 C  
HETATM    2  C   UNL     1      -8.886   3.551  68.430  1.00  0.00    -0.117 C  
ENDROOT
BRANCH   2   3
HETATM    3  O   UNL     1      -9.791   4.650  68.516  1.00  0.00    -0.156 OA 
BRANCH   3   4
HETATM    4  C   UNL     1      -9.586   5.688  67.651  1.00  0.00    -0.118 A  
HETATM    5  C   UNL     1      -8.757   5.667  66.530  1.00  0.00    -0.121 A  
HETATM    6  C   UNL     1      -8.642   6.800  65.719  1.00  0.00    -0.144 A  
HETATM    7  C   UNL     1      -9.351   7.972  66.012  1.00  0.00    -0.158 A  
HETATM    8  C   UNL     1     -10.283   6.859  67.956  1.00  0.00    -0.209 A  
HETATM    9  C   UNL     1     -10.168   7.993  67.148  1.00  0.00    -0.362 A  
BRANCH   7  10
HETATM   10  C   UNL     1      -9.158   9.201  65.156  1.00  0.00    -0.234 C  
BRANCH  10  11
HETATM   11  C   UNL     1      -8.333  10.322  65.749  1.00  0.00    -0.152 A  
HETATM   12  C   UNL     1      -6.935  10.287  65.842  1.00  0.00    -0.126 A  
HETATM   13 CL   UNL     1      -6.004   9.021  65.129  1.00  0.00    -0.058 Cl 
HETATM   14  C   UNL     1      -6.251  11.269  66.570  1.00  0.00    -0.130 A  
HETATM   15  C   UNL     1      -6.948  12.287  67.228  1.00  0.00    -0.142 A  
HETATM   16  C   UNL     1      -8.340  12.364  67.129  1.00  0.00    -0.181 A  
HETATM   17  C   UNL     1      -9.008  11.399  66.349  1.00  0.00    -0.196 A  
BRANCH  16  18
HETATM   18  C   UNL     1      -9.174  13.359  67.929  1.00  0.00    -0.216 C  
HETATM   19  O   UNL     1     -10.277  12.697  68.577  1.00  0.00    -0.229 OA 
HETATM   20  C   UNL     1     -11.054  13.587  69.398  1.00  0.00    -0.119 C  
HETATM   21  H   UNL     1      -8.894  15.917  65.846  1.00  0.00     0.000 HD 
HETATM   22  C   UNL     1     -11.661  14.713  68.559  1.00  0.00    -0.317 C  
HETATM   23  O   UNL     1      -8.585  15.218  66.410  1.00  0.00    -0.276 OA 
HETATM   24  O   UNL     1     -12.396  15.657  69.353  1.00  0.00    -0.563 OA 
HETATM   25  C   UNL     1     -10.555  15.466  67.818  1.00  0.00    -0.274 C  
HETATM   26  H   UNL     1     -10.444  16.928  66.504  1.00  0.00     0.000 HD 
HETATM   27  O   UNL     1     -11.130  16.461  66.965  1.00  0.00    -0.119 OA 
HETATM   28  H   UNL     1     -12.773  16.356  68.832  1.00  0.00     0.000 HD 
HETATM   29  C   UNL     1      -9.679  14.503  67.006  1.00  0.00    -0.245 C  
BRANCH  20  30
HETATM   30  C   UNL     1     -12.159  12.772  70.090  1.00  0.00    -0.298 C  
HETATM   31  O   UNL     1     -12.573  13.439  71.281  1.00  0.00    -0.354 OA 
HETATM   32  H   UNL     1     -13.255  12.936  71.708  1.00  0.00     0.000 HD 
ENDBRANCH  20  30
ENDBRANCH  16  18
ENDBRANCH  10  11
ENDBRANCH   7  10
ENDBRANCH   3   4
ENDBRANCH   2   3
TORSDOF 6
ENDMDL
MODEL      185
REMARK 921   NORMALIZED FREE ENERGY PREDICTED BY IDOCK:   -4.54 KCAL/MOL
REMARK 922        TOTAL FREE ENERGY PREDICTED BY IDOCK:   -7.10 KCAL/MOL
REMARK 923 INTER-LIGAND FREE ENERGY PREDICTED BY IDOCK:   -7.10 KCAL/MOL
REMARK 924 INTRA-LIGAND FREE ENERGY PREDICTED BY IDOCK:   -0.01 KCAL/MOL
REMARK 927      BINDING AFFINITY PREDICTED BY RF-SCORE:    0.00 PKD
ROOT
HETATM    1  C   UNL     1     -13.018  12.535  64.457  1.00  0.00    -0.215 C  
HETATM    2  C   UNL     1     -12.254  12.024  63.250  1.00  0.00    -0.421 C  
ENDROOT
BRANCH   2   3
HETATM    3  O   UNL     1     -10.922  12.528  63.320  1.00  0.00    -0.425 OA 
BRANCH   3   4
HETATM    4  C   UNL     1     -10.304  12.474  64.539  1.00  0.00    -0.336 A  
HETATM    5  C   UNL     1      -9.688  11.354  65.093  1.00  0.00    -0.280 A  
HETATM    6  C   UNL     1      -9.082  11.435  66.351  1.00  0.00    -0.201 A  
HETATM    7  C   UNL     1      -9.082  12.634  67.076  1.00  0.00    -0.215 A  
HETATM    8  C   UNL     1     -10.321  13.667  65.263  1.00  0.00    -0.362 A  
HETATM    9  C   UNL     1      -9.718  13.750  66.521  1.00  0.00    -0.301 A  
BRANCH   7  10
HETATM   10  C   UNL     1      -8.478  12.676  68.459  1.00  0.00    -0.051 C  
BRANCH  10  11
HETATM   11  C   UNL     1      -7.439  13.745  68.716  1.00  0.00    -0.098 A  
HETATM   12  C   UNL     1      -6.216  13.497  69.353  1.00  0.00    -0.107 A  
HETATM   13 CL   UNL     1      -5.704  11.899  69.757  1.00  0.00    -0.094 Cl 
HETATM   14  C   UNL     1      -5.385  14.561  69.727  1.00  0.00    -0.093 A  
HETATM   15  C   UNL     1      -5.768  15.885  69.489  1.00  0.00    -0.129 A  
HETATM   16  C   UNL     1      -6.969  16.162  68.829  1.00  0.00    -0.148 A  
HETATM   17  C   UNL     1      -7.767  15.078  68.413  1.00  0.00    -0.113 A  
BRANCH  16  18
HETATM   18  C   UNL     1      -7.514  17.576  68.662  1.00  0.00    -0.265 C  
HETATM   19  O   UNL     1      -8.792  17.556  67.997  1.00  0.00    -0.245 OA 
HETATM   20  C   UNL     1      -9.376  18.865  67.875  1.00  0.00    -0.299 C  
HETATM   21  H   UNL     1      -4.619  19.080  68.093  1.00  0.00     0.000 HD 
HETATM   22  C   UNL     1      -8.477  19.789  67.051  1.00  0.00    -0.319 C  
HETATM   23  O   UNL     1      -5.240  18.543  68.571  1.00  0.00    -0.171 OA 
HETATM   24  O   UNL     1      -8.997  21.123  66.956  1.00  0.00    -0.572 OA 
HETATM   25  C   UNL     1      -7.084  19.858  67.679  1.00  0.00    -0.262 C  
HETATM   26  H   UNL     1      -5.353  20.694  67.248  1.00  0.00     0.000 HD 
HETATM   27  O   UNL     1      -6.219  20.651  66.858  1.00  0.00    -0.200 OA 
HETATM   28  H   UNL     1      -8.439  21.697  66.444  1.00  0.00     0.000 HD 
HETATM   29  C   UNL     1      -6.498  18.455  67.880  1.00  0.00    -0.200 C  
BRANCH  20  30
HETATM   30  C   UNL     1     -10.757  18.724  67.215  1.00  0.00    -0.425 C  
HETATM   31  O   UNL     1     -10.624  18.825  65.799  1.00  0.00    -0.551 OA 
HETATM   32  H   UNL     1     -11.477  18.738  65.391  1.00  0.00     0.000 HD 
ENDBRANCH  20  30
ENDBRANCH  16  18
ENDBRANCH  10  11
ENDBRANCH   7  10
ENDBRANCH   3   4
ENDBRANCH   2   3
TORSDOF 6
ENDMDL
MODEL      186
REMARK 921   NORMALIZED FREE ENERGY PREDICTED BY IDOCK:   -4.48 KCAL/MOL
REMARK 922        TOTAL FREE ENERGY PREDICTED BY IDOCK:   -7.02 KCAL/MOL
REMARK 923 INTER-LIGAND FREE ENERGY PREDICTED BY IDOCK:   -7.19 KCAL/MOL
REMARK 924 INTRA-LIGAND FREE ENERGY PREDICTED BY IDOCK:    0.17 KCAL/MOL
REMARK 927      BINDING AFFINITY PREDICTED BY RF-SCORE:    0.00 PKD
ROOT
HETATM    1  C   UNL     1     -13.128  11.745  63.538  1.00  0.00    -0.055 C  
HETATM    2  C   UNL     1     -11.683  11.562  63.110  1.00  0.00     0.127 C  
ENDROOT
BRANCH   2   3
HETATM    3  O   UNL     1     -10.851  11.796  64.244  1.00  0.00    -0.304 OA 
BRANCH   3   4
HETATM    4  C   UNL     1     -10.710  13.094  64.651  1.00  0.00    -0.380 A  
HETATM    5  C   UNL     1      -9.723  13.581  65.504  1.00  0.00    -0.072 A  
HETATM    6  C   UNL     1      -9.687  14.939  65.836  1.00  0.00    -0.366 A  
HETATM    7  C   UNL     1     -10.635  15.833  65.321  1.00  0.00    -0.446 A  
HETATM    8  C   UNL     1     -11.667  13.977  64.147  1.00  0.00    -0.340 A  
HETATM    9  C   UNL     1     -11.634  15.335  64.477  1.00  0.00    -0.312 A  
BRANCH   7  10
HETATM   10  C   UNL     1     -10.611  17.281  65.746  1.00  0.00    -0.198 C  
BRANCH  10  11
HETATM   11  C   UNL     1     -10.604  17.554  67.234  1.00  0.00    -0.287 A  
HETATM   12  C   UNL     1     -10.084  18.724  67.803  1.00  0.00    -0.368 A  
HETATM   13 CL   UNL     1      -9.549  20.050  66.835  1.00  0.00    -0.506 Cl 
HETATM   14  C   UNL     1      -9.937  18.830  69.191  1.00  0.00    -0.257 A  
HETATM   15  C   UNL     1     -10.290  17.769  70.032  1.00  0.00     0.847 A  
HETATM   16  C   UNL     1     -10.838  16.600  69.495  1.00  0.00    -0.285 A  
HETATM   17  C   UNL     1     -11.028  16.532  68.101  1.00  0.00    -0.336 A  
BRANCH  16  18
HETATM   18  C   UNL     1     -11.114  15.356  70.331  1.00  0.00    -0.328 C  
HETATM   19  O   UNL     1     -11.479  14.245  69.490  1.00  0.00    -0.261 OA 
HETATM   20  C   UNL     1     -11.685  13.030  70.232  1.00  0.00    -0.114 C  
HETATM   21  H   UNL     1     -12.524  16.883  72.909  1.00  0.00     0.000 HD 
HETATM   22  C   UNL     1     -12.821  13.194  71.243  1.00  0.00    -0.296 C  
HETATM   23  O   UNL     1     -11.844  16.706  72.270  1.00  0.00    -0.466 OA 
HETATM   24  O   UNL     1     -13.019  12.021  72.046  1.00  0.00    -0.385 OA 
HETATM   25  C   UNL     1     -12.524  14.371  72.175  1.00  0.00    -0.257 C  
HETATM   26  H   UNL     1     -13.444  15.310  73.641  1.00  0.00     0.000 HD 
HETATM   27  O   UNL     1     -13.628  14.579  73.062  1.00  0.00    -0.586 OA 
HETATM   28  H   UNL     1     -13.725  12.123  72.674  1.00  0.00     0.000 HD 
HETATM   29  C   UNL     1     -12.227  15.646  71.377  1.00  0.00    -0.419 C  
BRANCH  20  30
HETATM   30  C   UNL     1     -12.003  11.900  69.240  1.00  0.00    -0.281 C  
HETATM   31  O   UNL     1     -11.640  10.644  69.809  1.00  0.00    -0.261 OA 
HETATM   32  H   UNL     1     -11.837   9.946  69.196  1.00  0.00     0.000 HD 
ENDBRANCH  20  30
ENDBRANCH  16  18
ENDBRANCH  10  11
ENDBRANCH   7  10
ENDBRANCH   3   4
ENDBRANCH   2   3
TORSDOF 6
ENDMDL
MODEL      187
REMARK 921   NORMALIZED FREE ENERGY PREDICTED BY IDOCK:   -4.47 KCAL/MOL
REMARK 922        TOTAL FREE ENERGY PREDICTED BY IDOCK:   -7.00 KCAL/MOL
REMARK 923 INTER-LIGAND FREE ENERGY PREDICTED BY IDOCK:   -6.19 KCAL/MOL
REMARK 924 INTRA-LIGAND FREE ENERGY PREDICTED BY IDOCK:   -0.81 KCAL/MOL
REMARK 927      BINDING AFFINITY PREDICTED BY RF-SCORE:    0.00 PKD
ROOT
HETATM    1  C   UNL     1     -11.946  16.864  73.907  1.00  0.00    -0.141 C  
HETATM    2  C   UNL     1     -13.340  16.304  73.693  1.00  0.00    -0.110 C  
ENDROOT
BRANCH   2   3
HETATM    3  O   UNL     1     -13.232  14.890  73.540  1.00  0.00    -0.532 OA 
BRANCH   3   4
HETATM    4  C   UNL     1     -12.916  14.425  72.294  1.00  0.00    -0.374 A  
HETATM    5  C   UNL     1     -12.811  13.086  71.923  1.00  0.00    -0.316 A  
HETATM    6  C   UNL     1     -12.487  12.744  70.606  1.00  0.00    -0.328 A  
HETATM    7  C   UNL     1     -12.263  13.732  69.639  1.00  0.00    -0.359 A  
HETATM    8  C   UNL     1     -12.679  15.414  71.338  1.00  0.00    -0.488 A  
HETATM    9  C   UNL     1     -12.354  15.075  70.021  1.00  0.00    -0.353 A  
BRANCH   7  10
HETATM   10  C   UNL     1     -11.852  13.336  68.241  1.00  0.00    -0.389 C  
BRANCH  10  11
HETATM   11  C   UNL     1     -10.367  13.282  67.957  1.00  0.00    -0.243 A  
HETATM   12  C   UNL     1      -9.651  14.341  67.384  1.00  0.00    -0.214 A  
HETATM   13 CL   UNL     1     -10.372  15.884  67.100  1.00  0.00    -0.294 Cl 
HETATM   14  C   UNL     1      -8.324  14.158  66.975  1.00  0.00    -0.142 A  
HETATM   15  C   UNL     1      -7.697  12.915  67.115  1.00  0.00    -0.058 A  
HETATM   16  C   UNL     1      -8.378  11.848  67.710  1.00  0.00    -0.149 A  
HETATM   17  C   UNL     1      -9.694  12.065  68.163  1.00  0.00    -0.199 A  
BRANCH  16  18
HETATM   18  C   UNL     1      -7.810  10.434  67.768  1.00  0.00    -0.101 C  
HETATM   19  O   UNL     1      -8.646   9.517  67.037  1.00  0.00    -0.126 OA 
HETATM   20  C   UNL     1      -8.114   8.181  67.009  1.00  0.00    -0.108 C  
HETATM   21  H   UNL     1      -6.663  10.567  70.872  1.00  0.00     0.000 HD 
HETATM   22  C   UNL     1      -7.990   7.614  68.425  1.00  0.00    -0.123 C  
HETATM   23  O   UNL     1      -6.760  10.845  69.969  1.00  0.00    -0.152 OA 
HETATM   24  O   UNL     1      -7.407   6.303  68.444  1.00  0.00    -0.082 OA 
HETATM   25  C   UNL     1      -7.126   8.538  69.284  1.00  0.00    -0.059 C  
HETATM   26  H   UNL     1      -6.547   8.628  71.164  1.00  0.00     0.000 HD 
HETATM   27  O   UNL     1      -7.084   8.054  70.630  1.00  0.00    -0.044 OA 
HETATM   28  H   UNL     1      -7.330   5.950  69.323  1.00  0.00     0.000 HD 
HETATM   29  C   UNL     1      -7.651   9.979  69.246  1.00  0.00    -0.109 C  
BRANCH  20  30
HETATM   30  C   UNL     1      -9.042   7.304  66.154  1.00  0.00    -0.122 C  
HETATM   31  O   UNL     1     -10.402   7.577  66.486  1.00  0.00    -0.474 OA 
HETATM   32  H   UNL     1     -10.976   7.035  65.958  1.00  0.00     0.000 HD 
ENDBRANCH  20  30
ENDBRANCH  16  18
ENDBRANCH  10  11
ENDBRANCH   7  10
ENDBRANCH   3   4
ENDBRANCH   2   3
TORSDOF 6
ENDMDL
MODEL      188
REMARK 921   NORMALIZED FREE ENERGY PREDICTED BY IDOCK:   -4.43 KCAL/MOL
REMARK 922        TOTAL FREE ENERGY PREDICTED BY IDOCK:   -6.95 KCAL/MOL
REMARK 923 INTER-LIGAND FREE ENERGY PREDICTED BY IDOCK:   -6.48 KCAL/MOL
REMARK 924 INTRA-LIGAND FREE ENERGY PREDICTED BY IDOCK:   -0.47 KCAL/MOL
REMARK 927      BINDING AFFINITY PREDICTED BY RF-SCORE:    0.00 PKD
ROOT
HETATM    1  C   UNL     1     -10.319  19.776  67.339  1.00  0.00    -0.582 C  
HETATM    2  C   UNL     1     -10.196  18.625  66.358  1.00  0.00    -0.425 C  
ENDROOT
BRANCH   2   3
HETATM    3  O   UNL     1      -9.249  17.694  66.880  1.00  0.00    -0.249 OA 
BRANCH   3   4
HETATM    4  C   UNL     1      -9.601  16.373  66.852  1.00  0.00    -0.244 A  
HETATM    5  C   UNL     1      -8.720  15.294  66.808  1.00  0.00    -0.304 A  
HETATM    6  C   UNL     1      -9.213  13.985  66.791  1.00  0.00    -0.280 A  
HETATM    7  C   UNL     1     -10.590  13.732  66.817  1.00  0.00    -0.273 A  
HETATM    8  C   UNL     1     -10.975  16.128  66.863  1.00  0.00    -0.094 A  
HETATM    9  C   UNL     1     -11.470  14.820  66.845  1.00  0.00    -0.354 A  
BRANCH   7  10
HETATM   10  C   UNL     1     -11.095  12.312  66.733  1.00  0.00    -0.345 C  
BRANCH  10  11
HETATM   11  C   UNL     1     -10.303  11.357  65.867  1.00  0.00    -0.299 A  
HETATM   12  C   UNL     1     -10.294  11.411  64.467  1.00  0.00    -0.313 A  
HETATM   13 CL   UNL     1     -11.060  12.690  63.596  1.00  0.00    -0.497 Cl 
HETATM   14  C   UNL     1      -9.694  10.386  63.724  1.00  0.00    -0.351 A  
HETATM   15  C   UNL     1      -9.111   9.286  64.363  1.00  0.00    -0.111 A  
HETATM   16  C   UNL     1      -9.080   9.220  65.759  1.00  0.00    -0.260 A  
HETATM   17  C   UNL     1      -9.641  10.285  66.491  1.00  0.00    -0.228 A  
BRANCH  16  18
HETATM   18  C   UNL     1      -8.590   7.992  66.519  1.00  0.00    -0.140 C  
HETATM   19  O   UNL     1      -8.060   7.007  65.611  1.00  0.00    -0.115 OA 
HETATM   20  C   UNL     1      -7.524   5.858  66.289  1.00  0.00    -0.086 C  
HETATM   21  H   UNL     1     -10.935   7.977  68.857  1.00  0.00     0.000 HD 
HETATM   22  C   UNL     1      -8.609   5.151  67.105  1.00  0.00    -0.105 C  
HETATM   23  O   UNL     1     -10.231   8.344  68.335  1.00  0.00    -0.197 OA 
HETATM   24  O   UNL     1      -8.101   4.031  67.845  1.00  0.00    -0.088 OA 
HETATM   25  C   UNL     1      -9.243   6.132  68.091  1.00  0.00    -0.117 C  
HETATM   26  H   UNL     1     -10.712   6.104  69.403  1.00  0.00     0.000 HD 
HETATM   27  O   UNL     1     -10.317   5.495  68.790  1.00  0.00    -0.195 OA 
HETATM   28  H   UNL     1      -8.775   3.592  68.351  1.00  0.00     0.000 HD 
HETATM   29  C   UNL     1      -9.741   7.393  67.374  1.00  0.00    -0.153 C  
BRANCH  20  30
HETATM   30  C   UNL     1      -6.930   4.905  65.240  1.00  0.00    -0.062 C  
HETATM   31  O   UNL     1      -5.678   5.414  64.783  1.00  0.00    -0.016 OA 
HETATM   32  H   UNL     1      -5.311   4.826  64.135  1.00  0.00     0.000 HD 
ENDBRANCH  20  30
ENDBRANCH  16  18
ENDBRANCH  10  11
ENDBRANCH   7  10
ENDBRANCH   3   4
ENDBRANCH   2   3
TORSDOF 6
ENDMDL
MODEL      189
REMARK 921   NORMALIZED FREE ENERGY PREDICTED BY IDOCK:   -4.43 KCAL/MOL
REMARK 922        TOTAL FREE ENERGY PREDICTED BY IDOCK:   -6.94 KCAL/MOL
REMARK 923 INTER-LIGAND FREE ENERGY PREDICTED BY IDOCK:   -6.51 KCAL/MOL
REMARK 924 INTRA-LIGAND FREE ENERGY PREDICTED BY IDOCK:   -0.44 KCAL/MOL
REMARK 927      BINDING AFFINITY PREDICTED BY RF-SCORE:    0.00 PKD
ROOT
HETATM    1  C   UNL     1      -8.478  19.706  68.528  1.00  0.00    -0.334 C  
HETATM    2  C   UNL     1      -9.916  19.397  68.151  1.00  0.00    -0.413 C  
ENDROOT
BRANCH   2   3
HETATM    3  O   UNL     1      -9.906  18.659  66.931  1.00  0.00    -0.304 OA 
BRANCH   3   4
HETATM    4  C   UNL     1     -10.075  17.306  67.025  1.00  0.00    -0.303 A  
HETATM    5  C   UNL     1     -11.021  16.653  67.814  1.00  0.00    -0.234 A  
HETATM    6  C   UNL     1     -11.095  15.256  67.814  1.00  0.00    -0.318 A  
HETATM    7  C   UNL     1     -10.226  14.489  67.027  1.00  0.00    -0.262 A  
HETATM    8  C   UNL     1      -9.197  16.545  66.251  1.00  0.00    -0.345 A  
HETATM    9  C   UNL     1      -9.267  15.149  66.251  1.00  0.00    -0.336 A  
BRANCH   7  10
HETATM   10  C   UNL     1     -10.285  12.982  67.095  1.00  0.00    -0.243 C  
BRANCH  10  11
HETATM   11  C   UNL     1     -10.071  12.233  65.799  1.00  0.00    -0.274 A  
HETATM   12  C   UNL     1     -10.865  12.417  64.659  1.00  0.00    -0.309 A  
HETATM   13 CL   UNL     1     -12.069  13.651  64.575  1.00  0.00    -0.440 Cl 
HETATM   14  C   UNL     1     -10.733  11.559  63.560  1.00  0.00    -0.483 A  
HETATM   15  C   UNL     1      -9.823  10.498  63.585  1.00  0.00    -0.354 A  
HETATM   16  C   UNL     1      -8.997  10.307  64.697  1.00  0.00    -0.240 A  
HETATM   17  C   UNL     1      -9.106  11.211  65.772  1.00  0.00    -0.222 A  
BRANCH  16  18
HETATM   18  C   UNL     1      -8.085   9.095  64.852  1.00  0.00    -0.133 C  
HETATM   19  O   UNL     1      -8.208   8.214  63.719  1.00  0.00    -0.145 OA 
HETATM   20  C   UNL     1      -7.316   7.088  63.791  1.00  0.00    -0.081 C  
HETATM   21  H   UNL     1      -8.418   8.732  68.127  1.00  0.00     0.000 HD 
HETATM   22  C   UNL     1      -7.609   6.238  65.029  1.00  0.00    -0.090 C  
HETATM   23  O   UNL     1      -8.220   9.191  67.319  1.00  0.00    -0.112 OA 
HETATM   24  O   UNL     1      -6.701   5.136  65.169  1.00  0.00    -0.046 OA 
HETATM   25  C   UNL     1      -7.517   7.101  66.288  1.00  0.00    -0.087 C  
HETATM   26  H   UNL     1      -7.821   6.864  68.219  1.00  0.00     0.000 HD 
HETATM   27  O   UNL     1      -7.878   6.327  67.437  1.00  0.00    -0.099 OA 
HETATM   28  H   UNL     1      -6.883   4.608  65.938  1.00  0.00     0.000 HD 
HETATM   29  C   UNL     1      -8.409   8.344  66.174  1.00  0.00    -0.125 C  
BRANCH  20  30
HETATM   30  C   UNL     1      -7.480   6.253  62.511  1.00  0.00    -0.063 C  
HETATM   31  O   UNL     1      -8.435   5.218  62.732  1.00  0.00    -0.111 OA 
HETATM   32  H   UNL     1      -8.537   4.701  61.941  1.00  0.00     0.000 HD 
ENDBRANCH  20  30
ENDBRANCH  16  18
ENDBRANCH  10  11
ENDBRANCH   7  10
ENDBRANCH   3   4
ENDBRANCH   2   3
TORSDOF 6
ENDMDL
MODEL      190
REMARK 921   NORMALIZED FREE ENERGY PREDICTED BY IDOCK:   -4.42 KCAL/MOL
REMARK 922        TOTAL FREE ENERGY PREDICTED BY IDOCK:   -6.94 KCAL/MOL
REMARK 923 INTER-LIGAND FREE ENERGY PREDICTED BY IDOCK:   -6.21 KCAL/MOL
REMARK 924 INTRA-LIGAND FREE ENERGY PREDICTED BY IDOCK:   -0.73 KCAL/MOL
REMARK 927      BINDING AFFINITY PREDICTED BY RF-SCORE:    0.00 PKD
ROOT
HETATM    1  C   UNL     1      -9.906   3.813  64.899  1.00  0.00    -0.183 C  
HETATM    2  C   UNL     1     -10.641   4.953  65.580  1.00  0.00    -0.049 C  
ENDROOT
BRANCH   2   3
HETATM    3  O   UNL     1     -10.101   5.110  66.891  1.00  0.00    -0.179 OA 
BRANCH   3   4
HETATM    4  C   UNL     1     -10.269   6.330  67.486  1.00  0.00    -0.173 A  
HETATM    5  C   UNL     1     -10.416   6.559  68.853  1.00  0.00    -0.249 A  
HETATM    6  C   UNL     1     -10.573   7.862  69.335  1.00  0.00    -0.209 A  
HETATM    7  C   UNL     1     -10.587   8.958  68.461  1.00  0.00    -0.183 A  
HETATM    8  C   UNL     1     -10.297   7.416  66.609  1.00  0.00    -0.241 A  
HETATM    9  C   UNL     1     -10.456   8.720  67.088  1.00  0.00    -0.354 A  
BRANCH   7  10
HETATM   10  C   UNL     1     -10.822  10.347  69.002  1.00  0.00    -0.273 C  
BRANCH  10  11
HETATM   11  C   UNL     1      -9.897  11.437  68.506  1.00  0.00    -0.200 A  
HETATM   12  C   UNL     1      -8.500  11.337  68.536  1.00  0.00    -0.156 A  
HETATM   13 CL   UNL     1      -7.697   9.878  68.990  1.00  0.00    -0.083 Cl 
HETATM   14  C   UNL     1      -7.705  12.452  68.239  1.00  0.00    -0.140 A  
HETATM   15  C   UNL     1      -8.289  13.684  67.926  1.00  0.00    -0.174 A  
HETATM   16  C   UNL     1      -9.680  13.806  67.861  1.00  0.00    -0.229 A  
HETATM   17  C   UNL     1     -10.463  12.661  68.111  1.00  0.00    -0.239 A  
BRANCH  16  18
HETATM   18  C   UNL     1     -10.385  15.143  67.666  1.00  0.00    -0.248 C  
HETATM   19  O   UNL     1     -10.226  15.612  66.313  1.00  0.00    -0.270 OA 
HETATM   20  C   UNL     1     -10.932  16.840  66.064  1.00  0.00     0.117 C  
HETATM   21  H   UNL     1      -9.734  16.407  70.657  1.00  0.00     0.000 HD 
HETATM   22  C   UNL     1     -10.414  17.960  66.970  1.00  0.00    -0.340 C  
HETATM   23  O   UNL     1     -10.064  15.767  70.037  1.00  0.00    -0.278 OA 
HETATM   24  O   UNL     1     -11.134  19.189  66.793  1.00  0.00    -0.257 OA 
HETATM   25  C   UNL     1     -10.530  17.540  68.436  1.00  0.00    -0.372 C  
HETATM   26  H   UNL     1     -10.036  18.290  70.189  1.00  0.00     0.000 HD 
HETATM   27  O   UNL     1      -9.964  18.550  69.278  1.00  0.00    -0.265 OA 
HETATM   28  H   UNL     1     -10.813  19.884  67.355  1.00  0.00     0.000 HD 
HETATM   29  C   UNL     1      -9.846  16.190  68.680  1.00  0.00    -0.226 C  
BRANCH  20  30
HETATM   30  C   UNL     1     -10.751  17.216  64.584  1.00  0.00     0.849 C  
HETATM   31  O   UNL     1     -11.632  16.434  63.780  1.00  0.00    -1.605 OA 
HETATM   32  H   UNL     1     -11.521  16.665  62.865  1.00  0.00     0.000 HD 
ENDBRANCH  20  30
ENDBRANCH  16  18
ENDBRANCH  10  11
ENDBRANCH   7  10
ENDBRANCH   3   4
ENDBRANCH   2   3
TORSDOF 6
ENDMDL
MODEL      191
REMARK 921   NORMALIZED FREE ENERGY PREDICTED BY IDOCK:   -4.42 KCAL/MOL
REMARK 922        TOTAL FREE ENERGY PREDICTED BY IDOCK:   -6.94 KCAL/MOL
REMARK 923 INTER-LIGAND FREE ENERGY PREDICTED BY IDOCK:   -5.64 KCAL/MOL
REMARK 924 INTRA-LIGAND FREE ENERGY PREDICTED BY IDOCK:   -1.30 KCAL/MOL
REMARK 927      BINDING AFFINITY PREDICTED BY RF-SCORE:    0.00 PKD
ROOT
HETATM    1  C   UNL     1     -12.064  15.393  73.745  1.00  0.00    -0.639 C  
HETATM    2  C   UNL     1     -13.372  14.995  73.086  1.00  0.00    -0.418 C  
ENDROOT
BRANCH   2   3
HETATM    3  O   UNL     1     -13.355  15.472  71.742  1.00  0.00    -0.437 OA 
BRANCH   3   4
HETATM    4  C   UNL     1     -12.827  14.638  70.797  1.00  0.00    -0.358 A  
HETATM    5  C   UNL     1     -12.998  13.256  70.739  1.00  0.00    -0.097 A  
HETATM    6  C   UNL     1     -12.406  12.516  69.709  1.00  0.00    -0.085 A  
HETATM    7  C   UNL     1     -11.635  13.144  68.722  1.00  0.00    -0.348 A  
HETATM    8  C   UNL     1     -12.047  15.266  69.824  1.00  0.00    -0.357 A  
HETATM    9  C   UNL     1     -11.454  14.529  68.795  1.00  0.00    -0.322 A  
BRANCH   7  10
HETATM   10  C   UNL     1     -10.956  12.314  67.659  1.00  0.00    -0.287 C  
BRANCH  10  11
HETATM   11  C   UNL     1      -9.785  11.465  68.103  1.00  0.00    -0.194 A  
HETATM   12  C   UNL     1      -8.477  11.953  68.222  1.00  0.00    -0.161 A  
HETATM   13 CL   UNL     1      -8.107  13.628  68.032  1.00  0.00    -0.148 Cl 
HETATM   14  C   UNL     1      -7.413  11.073  68.453  1.00  0.00    -0.100 A  
HETATM   15  C   UNL     1      -7.632   9.695  68.552  1.00  0.00    -0.080 A  
HETATM   16  C   UNL     1      -8.930   9.182  68.466  1.00  0.00    -0.133 A  
HETATM   17  C   UNL     1      -9.994  10.086  68.286  1.00  0.00    -0.173 A  
BRANCH  16  18
HETATM   18  C   UNL     1      -9.228   7.687  68.425  1.00  0.00    -0.140 C  
HETATM   19  O   UNL     1      -9.209   7.125  69.751  1.00  0.00    -0.145 OA 
HETATM   20  C   UNL     1      -9.550   5.728  69.767  1.00  0.00    -0.157 C  
HETATM   21  H   UNL     1      -7.646   7.019  65.593  1.00  0.00     0.000 HD 
HETATM   22  C   UNL     1      -8.552   4.913  68.942  1.00  0.00    -0.085 C  
HETATM   23  O   UNL     1      -8.268   7.463  66.157  1.00  0.00    -0.116 OA 
HETATM   24  O   UNL     1      -8.892   3.520  68.884  1.00  0.00    -0.091 OA 
HETATM   25  C   UNL     1      -8.494   5.454  67.512  1.00  0.00    -0.106 C  
HETATM   26  H   UNL     1      -7.459   5.085  65.877  1.00  0.00     0.000 HD 
HETATM   27  O   UNL     1      -7.496   4.749  66.765  1.00  0.00    -0.084 OA 
HETATM   28  H   UNL     1      -8.272   3.014  68.371  1.00  0.00     0.000 HD 
HETATM   29  C   UNL     1      -8.209   6.961  67.502  1.00  0.00    -0.116 C  
BRANCH  20  30
HETATM   30  C   UNL     1      -9.565   5.246  71.227  1.00  0.00    -0.159 C  
HETATM   31  O   UNL     1      -8.256   4.826  71.607  1.00  0.00    -0.104 OA 
HETATM   32  H   UNL     1      -8.265   4.528  72.508  1.00  0.00     0.000 HD 
ENDBRANCH  20  30
ENDBRANCH  16  18
ENDBRANCH  10  11
ENDBRANCH   7  10
ENDBRANCH   3   4
ENDBRANCH   2   3
TORSDOF 6
ENDMDL
MODEL      192
REMARK 921   NORMALIZED FREE ENERGY PREDICTED BY IDOCK:   -4.40 KCAL/MOL
REMARK 922        TOTAL FREE ENERGY PREDICTED BY IDOCK:   -6.90 KCAL/MOL
REMARK 923 INTER-LIGAND FREE ENERGY PREDICTED BY IDOCK:   -5.83 KCAL/MOL
REMARK 924 INTRA-LIGAND FREE ENERGY PREDICTED BY IDOCK:   -1.07 KCAL/MOL
REMARK 927      BINDING AFFINITY PREDICTED BY RF-SCORE:    0.00 PKD
ROOT
HETATM    1  C   UNL     1     -10.088  19.275  67.067  1.00  0.00    -0.468 C  
HETATM    2  C   UNL     1      -9.691  17.824  67.273  1.00  0.00    -0.285 C  
ENDROOT
BRANCH   2   3
HETATM    3  O   UNL     1     -10.215  17.062  66.187  1.00  0.00    -0.324 OA 
BRANCH   3   4
HETATM    4  C   UNL     1     -10.479  15.743  66.428  1.00  0.00    -0.303 A  
HETATM    5  C   UNL     1     -10.081  15.022  67.553  1.00  0.00    -0.228 A  
HETATM    6  C   UNL     1     -10.425  13.673  67.682  1.00  0.00    -0.238 A  
HETATM    7  C   UNL     1     -11.171  13.021  66.692  1.00  0.00    -0.341 A  
HETATM    8  C   UNL     1     -11.210  15.094  65.431  1.00  0.00    -0.338 A  
HETATM    9  C   UNL     1     -11.554  13.745  65.557  1.00  0.00    -0.335 A  
BRANCH   7  10
HETATM   10  C   UNL     1     -11.473  11.548  66.826  1.00  0.00    -0.233 C  
BRANCH  10  11
HETATM   11  C   UNL     1     -10.289  10.622  66.994  1.00  0.00    -0.280 A  
HETATM   12  C   UNL     1      -9.497  10.178  65.927  1.00  0.00    -0.196 A  
HETATM   13 CL   UNL     1      -9.700  10.787  64.324  1.00  0.00    -0.324 Cl 
HETATM   14  C   UNL     1      -8.538   9.177  66.127  1.00  0.00    -0.149 A  
HETATM   15  C   UNL     1      -8.365   8.593  67.385  1.00  0.00    -0.116 A  
HETATM   16  C   UNL     1      -9.120   9.036  68.476  1.00  0.00    -0.133 A  
HETATM   17  C   UNL     1     -10.043  10.080  68.268  1.00  0.00    -0.182 A  
BRANCH  16  18
HETATM   18  C   UNL     1      -9.085   8.353  69.838  1.00  0.00    -0.146 C  
HETATM   19  O   UNL     1      -7.728   8.096  70.247  1.00  0.00    -0.081 OA 
HETATM   20  C   UNL     1      -7.644   7.512  71.558  1.00  0.00    -0.084 C  
HETATM   21  H   UNL     1     -11.789   6.483  69.444  1.00  0.00     0.000 HD 
HETATM   22  C   UNL     1      -8.368   6.165  71.603  1.00  0.00    -0.126 C  
HETATM   23  O   UNL     1     -11.285   7.287  69.466  1.00  0.00    -0.160 OA 
HETATM   24  O   UNL     1      -8.357   5.576  72.912  1.00  0.00    -0.115 OA 
HETATM   25  C   UNL     1      -9.823   6.340  71.166  1.00  0.00    -0.180 C  
HETATM   26  H   UNL     1     -11.379   5.175  70.850  1.00  0.00     0.000 HD 
HETATM   27  O   UNL     1     -10.475   5.066  71.122  1.00  0.00    -0.205 OA 
HETATM   28  H   UNL     1      -8.807   4.740  72.940  1.00  0.00     0.000 HD 
HETATM   29  C   UNL     1      -9.910   7.036  69.802  1.00  0.00    -0.169 C  
BRANCH  20  30
HETATM   30  C   UNL     1      -6.160   7.341  71.922  1.00  0.00    -0.037 C  
HETATM   31  O   UNL     1      -5.934   7.804  73.252  1.00  0.00    -0.057 OA 
HETATM   32  H   UNL     1      -5.018   7.698  73.476  1.00  0.00     0.000 HD 
ENDBRANCH  20  30
ENDBRANCH  16  18
ENDBRANCH  10  11
ENDBRANCH   7  10
ENDBRANCH   3   4
ENDBRANCH   2   3
TORSDOF 6
ENDMDL
MODEL      193
REMARK 921   NORMALIZED FREE ENERGY PREDICTED BY IDOCK:   -4.40 KCAL/MOL
REMARK 922        TOTAL FREE ENERGY PREDICTED BY IDOCK:   -6.90 KCAL/MOL
REMARK 923 INTER-LIGAND FREE ENERGY PREDICTED BY IDOCK:   -5.98 KCAL/MOL
REMARK 924 INTRA-LIGAND FREE ENERGY PREDICTED BY IDOCK:   -0.93 KCAL/MOL
REMARK 927      BINDING AFFINITY PREDICTED BY RF-SCORE:    0.00 PKD
ROOT
HETATM    1  C   UNL     1      -6.357   3.893  63.411  1.00  0.00    -0.022 C  
HETATM    2  C   UNL     1      -7.095   3.791  64.733  1.00  0.00    -0.065 C  
ENDROOT
BRANCH   2   3
HETATM    3  O   UNL     1      -8.253   4.622  64.661  1.00  0.00    -0.103 OA 
BRANCH   3   4
HETATM    4  C   UNL     1      -8.836   4.973  65.846  1.00  0.00    -0.134 A  
HETATM    5  C   UNL     1      -8.266   4.837  67.110  1.00  0.00    -0.106 A  
HETATM    6  C   UNL     1      -8.970   5.246  68.247  1.00  0.00    -0.116 A  
HETATM    7  C   UNL     1     -10.254   5.796  68.142  1.00  0.00    -0.235 A  
HETATM    8  C   UNL     1     -10.121   5.507  65.736  1.00  0.00     0.106 A  
HETATM    9  C   UNL     1     -10.828   5.915  66.871  1.00  0.00    -0.376 A  
BRANCH   7  10
HETATM   10  C   UNL     1     -11.017   6.169  69.390  1.00  0.00    -0.454 C  
BRANCH  10  11
HETATM   11  C   UNL     1     -10.891   7.601  69.862  1.00  0.00    -0.241 A  
HETATM   12  C   UNL     1     -11.419   8.063  71.075  1.00  0.00    -0.279 A  
HETATM   13 CL   UNL     1     -12.122   6.993  72.233  1.00  0.00    -0.258 Cl 
HETATM   14  C   UNL     1     -11.433   9.434  71.363  1.00  0.00    -0.449 A  
HETATM   15  C   UNL     1     -10.939  10.364  70.442  1.00  0.00    -0.320 A  
HETATM   16  C   UNL     1     -10.381   9.929  69.235  1.00  0.00    -0.235 A  
HETATM   17  C   UNL     1     -10.326   8.544  68.986  1.00  0.00    -0.229 A  
BRANCH  16  18
HETATM   18  C   UNL     1      -9.953  10.887  68.129  1.00  0.00    -0.174 C  
HETATM   19  O   UNL     1      -8.643  11.423  68.395  1.00  0.00    -0.146 OA 
HETATM   20  C   UNL     1      -8.170  12.282  67.343  1.00  0.00    -0.178 C  
HETATM   21  H   UNL     1     -12.931  12.210  67.541  1.00  0.00     0.000 HD 
HETATM   22  C   UNL     1      -9.097  13.486  67.163  1.00  0.00    -0.232 C  
HETATM   23  O   UNL     1     -12.294  11.512  67.636  1.00  0.00    -0.273 OA 
HETATM   24  O   UNL     1      -8.692  14.338  66.082  1.00  0.00    -0.412 OA 
HETATM   25  C   UNL     1     -10.525  13.008  66.891  1.00  0.00    -0.254 C  
HETATM   26  H   UNL     1     -12.294  13.836  66.643  1.00  0.00     0.000 HD 
HETATM   27  O   UNL     1     -11.407  14.133  66.812  1.00  0.00    -0.319 OA 
HETATM   28  H   UNL     1      -9.268  15.085  65.970  1.00  0.00     0.000 HD 
HETATM   29  C   UNL     1     -10.996  12.029  67.973  1.00  0.00    -0.223 C  
BRANCH  20  30
HETATM   30  C   UNL     1      -6.746  12.744  67.693  1.00  0.00    -0.147 C  
HETATM   31  O   UNL     1      -6.721  13.255  69.024  1.00  0.00    -0.103 OA 
HETATM   32  H   UNL     1      -5.841  13.540  69.240  1.00  0.00     0.000 HD 
ENDBRANCH  20  30
ENDBRANCH  16  18
ENDBRANCH  10  11
ENDBRANCH   7  10
ENDBRANCH   3   4
ENDBRANCH   2   3
TORSDOF 6
ENDMDL
MODEL      194
REMARK 921   NORMALIZED FREE ENERGY PREDICTED BY IDOCK:   -4.38 KCAL/MOL
REMARK 922        TOTAL FREE ENERGY PREDICTED BY IDOCK:   -6.88 KCAL/MOL
REMARK 923 INTER-LIGAND FREE ENERGY PREDICTED BY IDOCK:   -5.57 KCAL/MOL
REMARK 924 INTRA-LIGAND FREE ENERGY PREDICTED BY IDOCK:   -1.31 KCAL/MOL
REMARK 927      BINDING AFFINITY PREDICTED BY RF-SCORE:    0.00 PKD
ROOT
HETATM    1  C   UNL     1      -7.567   5.688  73.952  1.00  0.00    -0.097 C  
HETATM    2  C   UNL     1      -8.789   6.552  73.700  1.00  0.00    -0.125 C  
ENDROOT
BRANCH   2   3
HETATM    3  O   UNL     1      -9.847   5.706  73.254  1.00  0.00    -0.162 OA 
BRANCH   3   4
HETATM    4  C   UNL     1     -10.165   5.763  71.926  1.00  0.00    -0.200 A  
HETATM    5  C   UNL     1      -9.675   4.918  70.932  1.00  0.00    -0.264 A  
HETATM    6  C   UNL     1     -10.090   5.078  69.605  1.00  0.00    -0.321 A  
HETATM    7  C   UNL     1     -10.999   6.083  69.250  1.00  0.00    -0.436 A  
HETATM    8  C   UNL     1     -11.060   6.775  71.575  1.00  0.00    -0.289 A  
HETATM    9  C   UNL     1     -11.475   6.939  70.250  1.00  0.00    -0.373 A  
BRANCH   7  10
HETATM   10  C   UNL     1     -11.379   6.274  67.802  1.00  0.00     0.004 C  
BRANCH  10  11
HETATM   11  C   UNL     1     -10.308   6.817  66.882  1.00  0.00    -0.324 A  
HETATM   12  C   UNL     1      -9.406   6.005  66.182  1.00  0.00    -0.118 A  
HETATM   13 CL   UNL     1      -9.544   4.284  66.173  1.00  0.00    -0.179 Cl 
HETATM   14  C   UNL     1      -8.324   6.575  65.500  1.00  0.00    -0.146 A  
HETATM   15  C   UNL     1      -8.114   7.958  65.519  1.00  0.00    -0.130 A  
HETATM   16  C   UNL     1      -9.013   8.796  66.185  1.00  0.00    -0.225 A  
HETATM   17  C   UNL     1     -10.125   8.210  66.821  1.00  0.00    -0.365 A  
BRANCH  16  18
HETATM   18  C   UNL     1      -8.773  10.290  66.366  1.00  0.00    -0.135 C  
HETATM   19  O   UNL     1      -8.227  10.567  67.670  1.00  0.00    -0.110 OA 
HETATM   20  C   UNL     1      -7.922  11.959  67.861  1.00  0.00    -0.144 C  
HETATM   21  H   UNL     1     -11.420  11.350  64.681  1.00  0.00     0.000 HD 
HETATM   22  C   UNL     1      -9.184  12.816  67.733  1.00  0.00    -0.199 C  
HETATM   23  O   UNL     1     -10.612  10.868  64.817  1.00  0.00    -0.315 OA 
HETATM   24  O   UNL     1      -8.912  14.220  67.859  1.00  0.00    -0.172 OA 
HETATM   25  C   UNL     1      -9.844  12.573  66.375  1.00  0.00    -0.253 C  
HETATM   26  H   UNL     1     -11.481  13.156  65.449  1.00  0.00     0.000 HD 
HETATM   27  O   UNL     1     -11.071  13.307  66.293  1.00  0.00    -0.286 OA 
HETATM   28  H   UNL     1      -9.695  14.752  67.780  1.00  0.00     0.000 HD 
HETATM   29  C   UNL     1     -10.094  11.078  66.141  1.00  0.00    -0.237 C  
BRANCH  20  30
HETATM   30  C   UNL     1      -7.288  12.134  69.250  1.00  0.00     0.157 C  
HETATM   31  O   UNL     1      -6.808  10.876  69.721  1.00  0.00    -0.129 OA 
HETATM   32  H   UNL     1      -6.417  10.984  70.579  1.00  0.00     0.000 HD 
ENDBRANCH  20  30
ENDBRANCH  16  18
ENDBRANCH  10  11
ENDBRANCH   7  10
ENDBRANCH   3   4
ENDBRANCH   2   3
TORSDOF 6
ENDMDL
MODEL      195
REMARK 921   NORMALIZED FREE ENERGY PREDICTED BY IDOCK:   -4.36 KCAL/MOL
REMARK 922        TOTAL FREE ENERGY PREDICTED BY IDOCK:   -6.86 KCAL/MOL
REMARK 923 INTER-LIGAND FREE ENERGY PREDICTED BY IDOCK:   -6.95 KCAL/MOL
REMARK 924 INTRA-LIGAND FREE ENERGY PREDICTED BY IDOCK:    0.09 KCAL/MOL
REMARK 927      BINDING AFFINITY PREDICTED BY RF-SCORE:    0.00 PKD
ROOT
HETATM    1  C   UNL     1      -9.198   9.817  62.663  1.00  0.00    -0.268 C  
HETATM    2  C   UNL     1      -9.170  11.203  63.280  1.00  0.00    -0.253 C  
ENDROOT
BRANCH   2   3
HETATM    3  O   UNL     1     -10.494  11.531  63.698  1.00  0.00    -0.348 OA 
BRANCH   3   4
HETATM    4  C   UNL     1     -10.704  11.660  65.042  1.00  0.00    -0.296 A  
HETATM    5  C   UNL     1      -9.916  11.106  66.049  1.00  0.00    -0.280 A  
HETATM    6  C   UNL     1     -10.238  11.322  67.394  1.00  0.00    -0.217 A  
HETATM    7  C   UNL     1     -11.350  12.093  67.754  1.00  0.00    -0.371 A  
HETATM    8  C   UNL     1     -11.822  12.417  65.395  1.00  0.00    -0.460 A  
HETATM    9  C   UNL     1     -12.147  12.633  66.738  1.00  0.00    -0.236 A  
BRANCH   7  10
HETATM   10  C   UNL     1     -11.711  12.257  69.210  1.00  0.00    -0.388 C  
BRANCH  10  11
HETATM   11  C   UNL     1     -11.896  10.988  70.013  1.00  0.00    -0.435 A  
HETATM   12  C   UNL     1     -12.507  10.952  71.273  1.00  0.00    -0.388 A  
HETATM   13 CL   UNL     1     -13.265  12.343  71.960  1.00  0.00    -0.572 Cl 
HETATM   14  C   UNL     1     -12.477   9.781  72.041  1.00  0.00    -0.390 A  
HETATM   15  C   UNL     1     -11.824   8.636  71.574  1.00  0.00    -0.366 A  
HETATM   16  C   UNL     1     -11.230   8.633  70.308  1.00  0.00    -0.196 A  
HETATM   17  C   UNL     1     -11.316   9.802  69.527  1.00  0.00    -0.127 A  
BRANCH  16  18
HETATM   18  C   UNL     1     -10.384   7.473  69.793  1.00  0.00    -0.221 C  
HETATM   19  O   UNL     1     -10.501   7.350  68.363  1.00  0.00    -0.195 OA 
HETATM   20  C   UNL     1      -9.668   6.309  67.825  1.00  0.00    -0.118 C  
HETATM   21  H   UNL     1     -10.871   5.428  72.352  1.00  0.00     0.000 HD 
HETATM   22  C   UNL     1     -10.053   4.947  68.406  1.00  0.00    -0.078 C  
HETATM   23  O   UNL     1     -10.618   6.236  71.921  1.00  0.00    -0.209 OA 
HETATM   24  O   UNL     1      -9.204   3.888  67.938  1.00  0.00    -0.138 OA 
HETATM   25  C   UNL     1      -9.972   4.989  69.933  1.00  0.00    -0.251 C  
HETATM   26  H   UNL     1     -10.368   3.770  71.427  1.00  0.00     0.000 HD 
HETATM   27  O   UNL     1     -10.418   3.743  70.479  1.00  0.00     0.498 OA 
HETATM   28  H   UNL     1      -9.444   3.042  68.299  1.00  0.00     0.000 HD 
HETATM   29  C   UNL     1     -10.799   6.151  70.498  1.00  0.00    -0.300 C  
BRANCH  20  30
HETATM   30  C   UNL     1      -9.817   6.306  66.295  1.00  0.00    -0.009 C  
HETATM   31  O   UNL     1     -10.305   5.037  65.863  1.00  0.00    -0.342 OA 
HETATM   32  H   UNL     1     -10.397   5.035  64.918  1.00  0.00     0.000 HD 
ENDBRANCH  20  30
ENDBRANCH  16  18
ENDBRANCH  10  11
ENDBRANCH   7  10
ENDBRANCH   3   4
ENDBRANCH   2   3
TORSDOF 6
ENDMDL
MODEL      196
REMARK 921   NORMALIZED FREE ENERGY PREDICTED BY IDOCK:   -4.35 KCAL/MOL
REMARK 922        TOTAL FREE ENERGY PREDICTED BY IDOCK:   -6.84 KCAL/MOL
REMARK 923 INTER-LIGAND FREE ENERGY PREDICTED BY IDOCK:   -6.51 KCAL/MOL
REMARK 924 INTRA-LIGAND FREE ENERGY PREDICTED BY IDOCK:   -0.33 KCAL/MOL
REMARK 927      BINDING AFFINITY PREDICTED BY RF-SCORE:    0.00 PKD
ROOT
HETATM    1  C   UNL     1     -10.640  16.085  65.228  1.00  0.00    -0.424 C  
HETATM    2  C   UNL     1     -11.850  15.854  64.341  1.00  0.00    -0.101 C  
ENDROOT
BRANCH   2   3
HETATM    3  O   UNL     1     -12.546  14.709  64.829  1.00  0.00    -0.514 OA 
BRANCH   3   4
HETATM    4  C   UNL     1     -11.901  13.507  64.734  1.00  0.00    -0.381 A  
HETATM    5  C   UNL     1     -11.348  12.966  63.575  1.00  0.00    -0.408 A  
HETATM    6  C   UNL     1     -10.705  11.724  63.616  1.00  0.00    -0.503 A  
HETATM    7  C   UNL     1     -10.604  11.003  64.813  1.00  0.00    -0.350 A  
HETATM    8  C   UNL     1     -11.817  12.786  65.927  1.00  0.00    -0.490 A  
HETATM    9  C   UNL     1     -11.177  11.544  65.970  1.00  0.00    -0.240 A  
BRANCH   7  10
HETATM   10  C   UNL     1      -9.962   9.637  64.816  1.00  0.00     0.184 C  
BRANCH  10  11
HETATM   11  C   UNL     1      -9.145   9.271  66.035  1.00  0.00    -0.235 A  
HETATM   12  C   UNL     1      -7.931   8.574  65.972  1.00  0.00    -0.107 A  
HETATM   13 CL   UNL     1      -7.162   8.213  64.469  1.00  0.00    -0.080 Cl 
HETATM   14  C   UNL     1      -7.325   8.103  67.144  1.00  0.00    -0.088 A  
HETATM   15  C   UNL     1      -7.926   8.303  68.391  1.00  0.00    -0.119 A  
HETATM   16  C   UNL     1      -9.123   9.019  68.488  1.00  0.00    -0.133 A  
HETATM   17  C   UNL     1      -9.691   9.532  67.305  1.00  0.00    -0.215 A  
BRANCH  16  18
HETATM   18  C   UNL     1      -9.903   9.155  69.790  1.00  0.00    -0.181 C  
HETATM   19  O   UNL     1     -10.707   7.984  70.029  1.00  0.00    -0.240 OA 
HETATM   20  C   UNL     1     -11.411   8.039  71.282  1.00  0.00    -0.264 C  
HETATM   21  H   UNL     1     -10.528  12.400  69.573  1.00  0.00     0.000 HD 
HETATM   22  C   UNL     1     -12.369   9.231  71.317  1.00  0.00    -0.328 C  
HETATM   23  O   UNL     1      -9.988  11.618  69.593  1.00  0.00     0.436 OA 
HETATM   24  O   UNL     1     -13.048   9.356  72.575  1.00  0.00    -0.438 OA 
HETATM   25  C   UNL     1     -11.599  10.527  71.055  1.00  0.00    -0.227 C  
HETATM   26  H   UNL     1     -12.031  12.436  70.836  1.00  0.00     0.000 HD 
HETATM   27  O   UNL     1     -12.509  11.631  70.999  1.00  0.00    -0.379 OA 
HETATM   28  H   UNL     1     -13.643  10.097  72.597  1.00  0.00     0.000 HD 
HETATM   29  C   UNL     1     -10.786  10.434  69.758  1.00  0.00    -0.278 C  
BRANCH  20  30
HETATM   30  C   UNL     1     -12.180   6.722  71.468  1.00  0.00    -0.366 C  
HETATM   31  O   UNL     1     -13.201   6.618  70.477  1.00  0.00    -0.040 OA 
HETATM   32  H   UNL     1     -13.677   5.804  70.592  1.00  0.00     0.000 HD 
ENDBRANCH  20  30
ENDBRANCH  16  18
ENDBRANCH  10  11
ENDBRANCH   7  10
ENDBRANCH   3   4
ENDBRANCH   2   3
TORSDOF 6
ENDMDL
MODEL      197
REMARK 921   NORMALIZED FREE ENERGY PREDICTED BY IDOCK:   -4.34 KCAL/MOL
REMARK 922        TOTAL FREE ENERGY PREDICTED BY IDOCK:   -6.83 KCAL/MOL
REMARK 923 INTER-LIGAND FREE ENERGY PREDICTED BY IDOCK:   -6.07 KCAL/MOL
REMARK 924 INTRA-LIGAND FREE ENERGY PREDICTED BY IDOCK:   -0.76 KCAL/MOL
REMARK 927      BINDING AFFINITY PREDICTED BY RF-SCORE:    0.00 PKD
ROOT
HETATM    1  C   UNL     1      -8.704   3.201  63.080  1.00  0.00    -0.089 C  
HETATM    2  C   UNL     1      -9.784   2.777  64.057  1.00  0.00    -0.148 C  
ENDROOT
BRANCH   2   3
HETATM    3  O   UNL     1      -9.161   2.467  65.302  1.00  0.00    -0.143 OA 
BRANCH   3   4
HETATM    4  C   UNL     1      -9.470   3.270  66.365  1.00  0.00    -0.082 A  
HETATM    5  C   UNL     1      -9.173   3.009  67.701  1.00  0.00    -0.240 A  
HETATM    6  C   UNL     1      -9.540   3.922  68.695  1.00  0.00    -0.181 A  
HETATM    7  C   UNL     1     -10.210   5.109  68.372  1.00  0.00    -0.175 A  
HETATM    8  C   UNL     1     -10.151   4.445  66.038  1.00  0.00    -0.260 A  
HETATM    9  C   UNL     1     -10.520   5.358  67.030  1.00  0.00    -0.319 A  
BRANCH   7  10
HETATM   10  C   UNL     1     -10.651   6.046  69.470  1.00  0.00    -0.363 C  
BRANCH  10  11
HETATM   11  C   UNL     1      -9.908   7.359  69.585  1.00  0.00    -0.175 A  
HETATM   12  C   UNL     1      -8.618   7.474  70.119  1.00  0.00    -0.141 A  
HETATM   13 CL   UNL     1      -7.680   6.089  70.545  1.00  0.00    -0.098 Cl 
HETATM   14  C   UNL     1      -8.066   8.736  70.369  1.00  0.00    -0.118 A  
HETATM   15  C   UNL     1      -8.796   9.901  70.108  1.00  0.00    -0.146 A  
HETATM   16  C   UNL     1     -10.075   9.818  69.549  1.00  0.00    -0.233 A  
HETATM   17  C   UNL     1     -10.593   8.542  69.254  1.00  0.00    -0.193 A  
BRANCH  16  18
HETATM   18  C   UNL     1     -10.979  11.032  69.369  1.00  0.00    -0.248 C  
HETATM   19  O   UNL     1     -10.218  12.179  68.944  1.00  0.00    -0.157 OA 
HETATM   20  C   UNL     1     -11.041  13.332  68.697  1.00  0.00    -0.268 C  
HETATM   21  H   UNL     1     -13.030  10.409  71.893  1.00  0.00     0.000 HD 
HETATM   22  C   UNL     1     -11.781  13.756  69.968  1.00  0.00    -0.257 C  
HETATM   23  O   UNL     1     -12.564  10.224  71.087  1.00  0.00    -0.333 OA 
HETATM   24  O   UNL     1     -12.660  14.869  69.749  1.00  0.00    -0.546 OA 
HETATM   25  C   UNL     1     -12.609  12.587  70.504  1.00  0.00    -0.098 C  
HETATM   26  H   UNL     1     -13.744  12.230  72.073  1.00  0.00     0.000 HD 
HETATM   27  O   UNL     1     -13.229  12.956  71.740  1.00  0.00    -0.422 OA 
HETATM   28  H   UNL     1     -13.119  15.132  70.538  1.00  0.00     0.000 HD 
HETATM   29  C   UNL     1     -11.743  11.335  70.689  1.00  0.00    -0.161 C  
BRANCH  20  30
HETATM   30  C   UNL     1     -10.144  14.472  68.188  1.00  0.00    -0.227 C  
HETATM   31  O   UNL     1      -9.695  14.177  66.867  1.00  0.00    -0.252 OA 
HETATM   32  H   UNL     1      -9.141  14.881  66.553  1.00  0.00     0.000 HD 
ENDBRANCH  20  30
ENDBRANCH  16  18
ENDBRANCH  10  11
ENDBRANCH   7  10
ENDBRANCH   3   4
ENDBRANCH   2   3
TORSDOF 6
ENDMDL
MODEL      198
REMARK 921   NORMALIZED FREE ENERGY PREDICTED BY IDOCK:   -4.33 KCAL/MOL
REMARK 922        TOTAL FREE ENERGY PREDICTED BY IDOCK:   -6.81 KCAL/MOL
REMARK 923 INTER-LIGAND FREE ENERGY PREDICTED BY IDOCK:   -5.66 KCAL/MOL
REMARK 924 INTRA-LIGAND FREE ENERGY PREDICTED BY IDOCK:   -1.15 KCAL/MOL
REMARK 927      BINDING AFFINITY PREDICTED BY RF-SCORE:    0.00 PKD
ROOT
HETATM    1  C   UNL     1     -12.126  11.835  63.245  1.00  0.00    -0.375 C  
HETATM    2  C   UNL     1     -12.705  12.553  64.450  1.00  0.00    -0.358 C  
ENDROOT
BRANCH   2   3
HETATM    3  O   UNL     1     -12.437  13.947  64.308  1.00  0.00    -0.638 OA 
BRANCH   3   4
HETATM    4  C   UNL     1     -11.614  14.516  65.240  1.00  0.00    -0.359 A  
HETATM    5  C   UNL     1     -10.430  15.201  64.976  1.00  0.00    -0.418 A  
HETATM    6  C   UNL     1      -9.682  15.745  66.025  1.00  0.00    -0.377 A  
HETATM    7  C   UNL     1     -10.104  15.613  67.355  1.00  0.00    -0.251 A  
HETATM    8  C   UNL     1     -12.031  14.368  66.564  1.00  0.00    -0.406 A  
HETATM    9  C   UNL     1     -11.285  14.909  67.616  1.00  0.00    -0.330 A  
BRANCH   7  10
HETATM   10  C   UNL     1      -9.245  16.154  68.473  1.00  0.00    -0.210 C  
BRANCH  10  11
HETATM   11  C   UNL     1      -8.055  15.315  68.884  1.00  0.00    -0.180 A  
HETATM   12  C   UNL     1      -6.805  15.856  69.214  1.00  0.00    -0.189 A  
HETATM   13 CL   UNL     1      -6.552  17.558  69.345  1.00  0.00    -0.237 Cl 
HETATM   14  C   UNL     1      -5.699  15.017  69.401  1.00  0.00    -0.101 A  
HETATM   15  C   UNL     1      -5.817  13.632  69.246  1.00  0.00    -0.085 A  
HETATM   16  C   UNL     1      -7.058  13.061  68.945  1.00  0.00    -0.068 A  
HETATM   17  C   UNL     1      -8.170  13.916  68.812  1.00  0.00    -0.028 A  
BRANCH  16  18
HETATM   18  C   UNL     1      -7.232  11.581  68.625  1.00  0.00    -0.102 C  
HETATM   19  O   UNL     1      -7.191  10.789  69.827  1.00  0.00    -0.151 OA 
HETATM   20  C   UNL     1      -7.418   9.391  69.580  1.00  0.00    -0.083 C  
HETATM   21  H   UNL     1      -5.552  11.565  65.771  1.00  0.00     0.000 HD 
HETATM   22  C   UNL     1      -6.343   8.819  68.653  1.00  0.00    -0.053 C  
HETATM   23  O   UNL     1      -6.219  11.849  66.385  1.00  0.00    -0.083 OA 
HETATM   24  O   UNL     1      -6.567   7.438  68.334  1.00  0.00    -0.043 OA 
HETATM   25  C   UNL     1      -6.303   9.615  67.347  1.00  0.00    -0.068 C  
HETATM   26  H   UNL     1      -5.214   9.632  65.707  1.00  0.00     0.000 HD 
HETATM   27  O   UNL     1      -5.239   9.137  66.518  1.00  0.00    -0.036 OA 
HETATM   28  H   UNL     1      -5.900   7.084  67.758  1.00  0.00     0.000 HD 
HETATM   29  C   UNL     1      -6.142  11.116  67.619  1.00  0.00    -0.049 C  
BRANCH  20  30
HETATM   30  C   UNL     1      -7.419   8.651  70.927  1.00  0.00    -0.083 C  
HETATM   31  O   UNL     1      -6.712   9.420  71.898  1.00  0.00    -0.301 OA 
HETATM   32  H   UNL     1      -6.712   8.963  72.730  1.00  0.00     0.000 HD 
ENDBRANCH  20  30
ENDBRANCH  16  18
ENDBRANCH  10  11
ENDBRANCH   7  10
ENDBRANCH   3   4
ENDBRANCH   2   3
TORSDOF 6
ENDMDL
MODEL      199
REMARK 921   NORMALIZED FREE ENERGY PREDICTED BY IDOCK:   -4.27 KCAL/MOL
REMARK 922        TOTAL FREE ENERGY PREDICTED BY IDOCK:   -6.74 KCAL/MOL
REMARK 923 INTER-LIGAND FREE ENERGY PREDICTED BY IDOCK:   -6.05 KCAL/MOL
REMARK 924 INTRA-LIGAND FREE ENERGY PREDICTED BY IDOCK:   -0.68 KCAL/MOL
REMARK 927      BINDING AFFINITY PREDICTED BY RF-SCORE:    0.00 PKD
ROOT
HETATM    1  C   UNL     1      -7.009  14.663  69.702  1.00  0.00    -0.149 C  
HETATM    2  C   UNL     1      -7.410  14.374  68.267  1.00  0.00    -0.122 C  
ENDROOT
BRANCH   2   3
HETATM    3  O   UNL     1      -8.602  13.591  68.289  1.00  0.00    -0.166 OA 
BRANCH   3   4
HETATM    4  C   UNL     1      -8.573  12.402  67.613  1.00  0.00    -0.172 A  
HETATM    5  C   UNL     1      -7.445  11.614  67.395  1.00  0.00    -0.135 A  
HETATM    6  C   UNL     1      -7.554  10.409  66.692  1.00  0.00    -0.114 A  
HETATM    7  C   UNL     1      -8.789   9.974  66.194  1.00  0.00    -0.165 A  
HETATM    8  C   UNL     1      -9.804  11.981  67.107  1.00  0.00    -0.205 A  
HETATM    9  C   UNL     1      -9.915  10.779  66.402  1.00  0.00    -0.264 A  
BRANCH   7  10
HETATM   10  C   UNL     1      -8.867   8.703  65.384  1.00  0.00    -0.198 C  
BRANCH  10  11
HETATM   11  C   UNL     1      -9.098   7.419  66.150  1.00  0.00    -0.167 A  
HETATM   12  C   UNL     1      -8.914   6.145  65.597  1.00  0.00    -0.041 A  
HETATM   13 CL   UNL     1      -8.236   5.921  64.026  1.00  0.00    -0.104 Cl 
HETATM   14  C   UNL     1      -9.326   5.004  66.298  1.00  0.00    -0.151 A  
HETATM   15  C   UNL     1      -9.942   5.116  67.548  1.00  0.00    -0.211 A  
HETATM   16  C   UNL     1     -10.114   6.373  68.137  1.00  0.00    -0.167 A  
HETATM   17  C   UNL     1      -9.645   7.505  67.442  1.00  0.00    -0.187 A  
BRANCH  16  18
HETATM   18  C   UNL     1     -10.899   6.582  69.427  1.00  0.00    -0.308 C  
HETATM   19  O   UNL     1     -11.003   7.983  69.742  1.00  0.00    -0.227 OA 
HETATM   20  C   UNL     1     -11.793   8.232  70.917  1.00  0.00    -0.216 C  
HETATM   21  H   UNL     1      -9.782   3.913  71.039  1.00  0.00     0.000 HD 
HETATM   22  C   UNL     1     -11.171   7.562  72.144  1.00  0.00    -0.270 C  
HETATM   23  O   UNL     1     -10.189   4.390  70.325  1.00  0.00    -0.180 OA 
HETATM   24  O   UNL     1     -11.963   7.738  73.329  1.00  0.00    -0.602 OA 
HETATM   25  C   UNL     1     -11.007   6.062  71.893  1.00  0.00    -0.264 C  
HETATM   26  H   UNL     1     -10.242   4.520  72.849  1.00  0.00     0.000 HD 
HETATM   27  O   UNL     1     -10.345   5.452  73.005  1.00  0.00    -0.178 OA 
HETATM   28  H   UNL     1     -11.577   7.322  74.091  1.00  0.00     0.000 HD 
HETATM   29  C   UNL     1     -10.233   5.801  70.595  1.00  0.00    -0.218 C  
BRANCH  20  30
HETATM   30  C   UNL     1     -11.894   9.752  71.125  1.00  0.00    -0.382 C  
HETATM   31  O   UNL     1     -12.294  10.377  69.907  1.00  0.00    -0.489 OA 
HETATM   32  H   UNL     1     -12.357  11.316  70.035  1.00  0.00     0.000 HD 
ENDBRANCH  20  30
ENDBRANCH  16  18
ENDBRANCH  10  11
ENDBRANCH   7  10
ENDBRANCH   3   4
ENDBRANCH   2   3
TORSDOF 6
ENDMDL
MODEL      200
REMARK 921   NORMALIZED FREE ENERGY PREDICTED BY IDOCK:   -4.27 KCAL/MOL
REMARK 922        TOTAL FREE ENERGY PREDICTED BY IDOCK:   -6.73 KCAL/MOL
REMARK 923 INTER-LIGAND FREE ENERGY PREDICTED BY IDOCK:   -6.35 KCAL/MOL
REMARK 924 INTRA-LIGAND FREE ENERGY PREDICTED BY IDOCK:   -0.38 KCAL/MOL
REMARK 927      BINDING AFFINITY PREDICTED BY RF-SCORE:    0.00 PKD
ROOT
HETATM    1  C   UNL     1      -9.956   3.106  74.063  1.00  0.00    -0.166 C  
HETATM    2  C   UNL     1     -10.699   4.296  73.485  1.00  0.00    -0.242 C  
ENDROOT
BRANCH   2   3
HETATM    3  O   UNL     1      -9.750   5.329  73.224  1.00  0.00    -0.141 OA 
BRANCH   3   4
HETATM    4  C   UNL     1      -9.477   5.600  71.912  1.00  0.00    -0.151 A  
HETATM    5  C   UNL     1      -8.231   5.939  71.389  1.00  0.00    -0.123 A  
HETATM    6  C   UNL     1      -8.085   6.185  70.020  1.00  0.00    -0.119 A  
HETATM    7  C   UNL     1      -9.180   6.096  69.151  1.00  0.00    -0.129 A  
HETATM    8  C   UNL     1     -10.575   5.525  71.053  1.00  0.00    -0.300 A  
HETATM    9  C   UNL     1     -10.433   5.771  69.684  1.00  0.00    -0.363 A  
BRANCH   7  10
HETATM   10  C   UNL     1      -9.008   6.429  67.689  1.00  0.00    -0.113 C  
BRANCH  10  11
HETATM   11  C   UNL     1      -9.482   7.794  67.240  1.00  0.00    -0.187 A  
HETATM   12  C   UNL     1      -9.272   8.300  65.950  1.00  0.00    -0.123 A  
HETATM   13 CL   UNL     1      -8.595   7.335  64.690  1.00  0.00     0.153 Cl 
HETATM   14  C   UNL     1      -9.568   9.638  65.659  1.00  0.00    -0.338 A  
HETATM   15  C   UNL     1     -10.059  10.494  66.650  1.00  0.00    -0.275 A  
HETATM   16  C   UNL     1     -10.305  10.010  67.939  1.00  0.00    -0.249 A  
HETATM   17  C   UNL     1     -10.052   8.649  68.200  1.00  0.00    -0.236 A  
BRANCH  16  18
HETATM   18  C   UNL     1     -10.704  10.914  69.100  1.00  0.00    -0.226 C  
HETATM   19  O   UNL     1     -11.718  10.288  69.909  1.00  0.00    -0.252 OA 
HETATM   20  C   UNL     1     -12.079  11.078  71.056  1.00  0.00    -0.301 C  
HETATM   21  H   UNL     1     -10.464  13.799  67.492  1.00  0.00     0.000 HD 
HETATM   22  C   UNL     1     -12.647  12.433  70.628  1.00  0.00    -0.153 C  
HETATM   23  O   UNL     1     -10.165  12.958  67.818  1.00  0.00    -0.215 OA 
HETATM   24  O   UNL     1     -12.965  13.275  71.746  1.00  0.00    -0.358 OA 
HETATM   25  C   UNL     1     -11.637  13.166  69.745  1.00  0.00    -0.221 C  
HETATM   26  H   UNL     1     -11.576  14.849  68.724  1.00  0.00     0.000 HD 
HETATM   27  O   UNL     1     -12.203  14.393  69.273  1.00  0.00    -0.306 OA 
HETATM   28  H   UNL     1     -13.318  14.116  71.481  1.00  0.00     0.000 HD 
HETATM   29  C   UNL     1     -11.193  12.290  68.567  1.00  0.00    -0.271 C  
BRANCH  20  30
HETATM   30  C   UNL     1     -13.113  10.295  71.881  1.00  0.00    -0.463 C  
HETATM   31  O   UNL     1     -13.401   9.054  71.239  1.00  0.00    -0.485 OA 
HETATM   32  H   UNL     1     -14.039   8.571  71.749  1.00  0.00     0.000 HD 
ENDBRANCH  20  30
ENDBRANCH  16  18
ENDBRANCH  10  11
ENDBRANCH   7  10
ENDBRANCH   3   4
ENDBRANCH   2   3
TORSDOF 6
ENDMDL
MODEL      201
REMARK 921   NORMALIZED FREE ENERGY PREDICTED BY IDOCK:   -4.27 KCAL/MOL
REMARK 922        TOTAL FREE ENERGY PREDICTED BY IDOCK:   -6.73 KCAL/MOL
REMARK 923 INTER-LIGAND FREE ENERGY PREDICTED BY IDOCK:   -5.68 KCAL/MOL
REMARK 924 INTRA-LIGAND FREE ENERGY PREDICTED BY IDOCK:   -1.04 KCAL/MOL
REMARK 927      BINDING AFFINITY PREDICTED BY RF-SCORE:    0.00 PKD
ROOT
HETATM    1  C   UNL     1     -12.701  12.277  63.807  1.00  0.00    -0.516 C  
HETATM    2  C   UNL     1     -11.206  12.019  63.865  1.00  0.00    -0.417 C  
ENDROOT
BRANCH   2   3
HETATM    3  O   UNL     1     -10.647  12.869  64.866  1.00  0.00    -0.297 OA 
BRANCH   3   4
HETATM    4  C   UNL     1     -10.570  12.362  66.133  1.00  0.00    -0.254 A  
HETATM    5  C   UNL     1     -11.060  12.970  67.287  1.00  0.00    -0.303 A  
HETATM    6  C   UNL     1     -10.922  12.338  68.528  1.00  0.00    -0.275 A  
HETATM    7  C   UNL     1     -10.293  11.091  68.636  1.00  0.00    -0.209 A  
HETATM    8  C   UNL     1      -9.929  11.127  66.237  1.00  0.00    -0.261 A  
HETATM    9  C   UNL     1      -9.788  10.494  67.475  1.00  0.00    -0.196 A  
BRANCH   7  10
HETATM   10  C   UNL     1     -10.101  10.462  69.995  1.00  0.00    -0.078 C  
BRANCH  10  11
HETATM   11  C   UNL     1     -10.586   9.038  70.160  1.00  0.00    -0.250 A  
HETATM   12  C   UNL     1     -11.826   8.703  70.721  1.00  0.00    -0.171 A  
HETATM   13 CL   UNL     1     -12.999   9.904  71.124  1.00  0.00    -0.447 Cl 
HETATM   14  C   UNL     1     -12.130   7.369  71.017  1.00  0.00    -0.330 A  
HETATM   15  C   UNL     1     -11.200   6.352  70.777  1.00  0.00    -0.386 A  
HETATM   16  C   UNL     1      -9.966   6.652  70.193  1.00  0.00    -0.190 A  
HETATM   17  C   UNL     1      -9.698   7.993  69.852  1.00  0.00    -0.180 A  
BRANCH  16  18
HETATM   18  C   UNL     1      -8.854   5.622  70.032  1.00  0.00    -0.130 C  
HETATM   19  O   UNL     1      -9.147   4.718  68.949  1.00  0.00    -0.104 OA 
HETATM   20  C   UNL     1      -8.093   3.768  68.718  1.00  0.00    -0.069 C  
HETATM   21  H   UNL     1      -8.154   5.250  73.247  1.00  0.00     0.000 HD 
HETATM   22  C   UNL     1      -7.863   2.896  69.954  1.00  0.00    -0.042 C  
HETATM   23  O   UNL     1      -8.281   5.726  72.435  1.00  0.00    -0.107 OA 
HETATM   24  O   UNL     1      -6.777   1.973  69.784  1.00  0.00    -0.032 OA 
HETATM   25  C   UNL     1      -7.559   3.779  71.166  1.00  0.00    -0.044 C  
HETATM   26  H   UNL     1      -7.244   3.517  73.092  1.00  0.00     0.000 HD 
HETATM   27  O   UNL     1      -7.432   2.969  72.339  1.00  0.00    -0.049 OA 
HETATM   28  H   UNL     1      -6.635   1.431  70.552  1.00  0.00     0.000 HD 
HETATM   29  C   UNL     1      -8.646   4.843  71.361  1.00  0.00    -0.124 C  
BRANCH  20  30
HETATM   30  C   UNL     1      -8.475   2.900  67.508  1.00  0.00    -0.089 C  
HETATM   31  O   UNL     1      -9.052   3.718  66.493  1.00  0.00    -0.134 OA 
HETATM   32  H   UNL     1      -9.289   3.182  65.745  1.00  0.00     0.000 HD 
ENDBRANCH  20  30
ENDBRANCH  16  18
ENDBRANCH  10  11
ENDBRANCH   7  10
ENDBRANCH   3   4
ENDBRANCH   2   3
TORSDOF 6
ENDMDL
MODEL      202
REMARK 921   NORMALIZED FREE ENERGY PREDICTED BY IDOCK:   -4.24 KCAL/MOL
REMARK 922        TOTAL FREE ENERGY PREDICTED BY IDOCK:   -6.69 KCAL/MOL
REMARK 923 INTER-LIGAND FREE ENERGY PREDICTED BY IDOCK:   -5.63 KCAL/MOL
REMARK 924 INTRA-LIGAND FREE ENERGY PREDICTED BY IDOCK:   -1.06 KCAL/MOL
REMARK 927      BINDING AFFINITY PREDICTED BY RF-SCORE:    0.00 PKD
ROOT
HETATM    1  C   UNL     1      -5.443  17.159  66.526  1.00  0.00    -0.180 C  
HETATM    2  C   UNL     1      -6.762  16.649  67.077  1.00  0.00    -0.207 C  
ENDROOT
BRANCH   2   3
HETATM    3  O   UNL     1      -6.648  15.240  67.269  1.00  0.00    -0.283 OA 
BRANCH   3   4
HETATM    4  C   UNL     1      -7.814  14.530  67.339  1.00  0.00    -0.199 A  
HETATM    5  C   UNL     1      -9.096  15.042  67.148  1.00  0.00    -0.229 A  
HETATM    6  C   UNL     1     -10.210  14.201  67.239  1.00  0.00    -0.256 A  
HETATM    7  C   UNL     1     -10.063  12.837  67.524  1.00  0.00    -0.213 A  
HETATM    8  C   UNL     1      -7.663  13.174  67.638  1.00  0.00    -0.168 A  
HETATM    9  C   UNL     1      -8.775  12.332  67.732  1.00  0.00    -0.174 A  
BRANCH   7  10
HETATM   10  C   UNL     1     -11.287  11.967  67.681  1.00  0.00    -0.372 C  
BRANCH  10  11
HETATM   11  C   UNL     1     -11.292  11.003  68.847  1.00  0.00    -0.346 A  
HETATM   12  C   UNL     1     -11.858  11.300  70.093  1.00  0.00    -0.364 A  
HETATM   13 CL   UNL     1     -12.761  12.747  70.365  1.00  0.00    -0.082 Cl 
HETATM   14  C   UNL     1     -11.662  10.441  71.181  1.00  0.00    -0.387 A  
HETATM   15  C   UNL     1     -10.887   9.284  71.050  1.00  0.00    -0.385 A  
HETATM   16  C   UNL     1     -10.333   8.947  69.811  1.00  0.00    -0.213 A  
HETATM   17  C   UNL     1     -10.585   9.795  68.715  1.00  0.00    -0.244 A  
BRANCH  16  18
HETATM   18  C   UNL     1      -9.367   7.782  69.626  1.00  0.00    -0.153 C  
HETATM   19  O   UNL     1      -8.076   8.253  69.194  1.00  0.00    -0.116 OA 
HETATM   20  C   UNL     1      -7.111   7.193  69.070  1.00  0.00    -0.084 C  
HETATM   21  H   UNL     1     -11.559   5.597  68.449  1.00  0.00     0.000 HD 
HETATM   22  C   UNL     1      -7.562   6.164  68.032  1.00  0.00    -0.101 C  
HETATM   23  O   UNL     1     -11.204   6.224  69.068  1.00  0.00    -0.375 OA 
HETATM   24  O   UNL     1      -6.654   5.058  67.921  1.00  0.00    -0.047 OA 
HETATM   25  C   UNL     1      -8.942   5.618  68.403  1.00  0.00    -0.114 C  
HETATM   26  H   UNL     1     -10.258   4.384  67.616  1.00  0.00     0.000 HD 
HETATM   27  O   UNL     1      -9.401   4.723  67.385  1.00  0.00    -0.124 OA 
HETATM   28  H   UNL     1      -6.933   4.419  67.276  1.00  0.00     0.000 HD 
HETATM   29  C   UNL     1      -9.948   6.756  68.613  1.00  0.00    -0.146 C  
BRANCH  20  30
HETATM   30  C   UNL     1      -5.760   7.808  68.671  1.00  0.00    -0.028 C  
HETATM   31  O   UNL     1      -5.905   8.538  67.455  1.00  0.00    -0.042 OA 
HETATM   32  H   UNL     1      -5.070   8.917  67.208  1.00  0.00     0.000 HD 
ENDBRANCH  20  30
ENDBRANCH  16  18
ENDBRANCH  10  11
ENDBRANCH   7  10
ENDBRANCH   3   4
ENDBRANCH   2   3
TORSDOF 6
ENDMDL
MODEL      203
REMARK 921   NORMALIZED FREE ENERGY PREDICTED BY IDOCK:   -4.24 KCAL/MOL
REMARK 922        TOTAL FREE ENERGY PREDICTED BY IDOCK:   -6.69 KCAL/MOL
REMARK 923 INTER-LIGAND FREE ENERGY PREDICTED BY IDOCK:   -5.70 KCAL/MOL
REMARK 924 INTRA-LIGAND FREE ENERGY PREDICTED BY IDOCK:   -0.98 KCAL/MOL
REMARK 927      BINDING AFFINITY PREDICTED BY RF-SCORE:    0.00 PKD
ROOT
HETATM    1  C   UNL     1     -12.761  12.252  63.882  1.00  0.00    -0.490 C  
HETATM    2  C   UNL     1     -11.374  11.913  63.368  1.00  0.00    -0.374 C  
ENDROOT
BRANCH   2   3
HETATM    3  O   UNL     1     -10.433  12.744  64.045  1.00  0.00    -0.406 OA 
BRANCH   3   4
HETATM    4  C   UNL     1     -10.152  12.426  65.345  1.00  0.00    -0.269 A  
HETATM    5  C   UNL     1     -10.284  13.277  66.441  1.00  0.00    -0.292 A  
HETATM    6  C   UNL     1      -9.969  12.823  67.726  1.00  0.00    -0.219 A  
HETATM    7  C   UNL     1      -9.517  11.513  67.938  1.00  0.00    -0.178 A  
HETATM    8  C   UNL     1      -9.688  11.125  65.548  1.00  0.00    -0.271 A  
HETATM    9  C   UNL     1      -9.371  10.669  66.831  1.00  0.00    -0.180 A  
BRANCH   7  10
HETATM   10  C   UNL     1      -9.124  11.070  69.326  1.00  0.00     0.074 C  
BRANCH  10  11
HETATM   11  C   UNL     1      -9.889   9.903  69.911  1.00  0.00    -0.285 A  
HETATM   12  C   UNL     1     -11.190  10.010  70.419  1.00  0.00    -0.323 A  
HETATM   13 CL   UNL     1     -12.113  11.461  70.270  1.00  0.00    -0.439 Cl 
HETATM   14  C   UNL     1     -11.767   8.940  71.115  1.00  0.00    -0.356 A  
HETATM   15  C   UNL     1     -11.051   7.757  71.330  1.00  0.00    -0.271 A  
HETATM   16  C   UNL     1      -9.762   7.612  70.810  1.00  0.00    -0.173 A  
HETATM   17  C   UNL     1      -9.218   8.678  70.067  1.00  0.00    -0.160 A  
BRANCH  16  18
HETATM   18  C   UNL     1      -8.874   6.412  71.121  1.00  0.00    -0.138 C  
HETATM   19  O   UNL     1      -9.669   5.271  71.497  1.00  0.00    -0.153 OA 
HETATM   20  C   UNL     1      -8.876   4.096  71.737  1.00  0.00    -0.114 C  
HETATM   21  H   UNL     1      -6.389   8.082  72.536  1.00  0.00     0.000 HD 
HETATM   22  C   UNL     1      -7.890   4.328  72.883  1.00  0.00    -0.082 C  
HETATM   23  O   UNL     1      -7.009   7.863  71.851  1.00  0.00    -0.061 OA 
HETATM   24  O   UNL     1      -7.038   3.196  73.115  1.00  0.00    -0.041 OA 
HETATM   25  C   UNL     1      -7.008   5.539  72.576  1.00  0.00    -0.083 C  
HETATM   26  H   UNL     1      -5.600   6.562  73.497  1.00  0.00     0.000 HD 
HETATM   27  O   UNL     1      -6.148   5.810  73.688  1.00  0.00    -0.057 OA 
HETATM   28  H   UNL     1      -6.425   3.340  73.827  1.00  0.00     0.000 HD 
HETATM   29  C   UNL     1      -7.858   6.771  72.242  1.00  0.00    -0.095 C  
BRANCH  20  30
HETATM   30  C   UNL     1      -9.820   2.928  72.064  1.00  0.00    -0.172 C  
HETATM   31  O   UNL     1      -9.791   2.665  73.465  1.00  0.00    -0.097 OA 
HETATM   32  H   UNL     1     -10.375   1.944  73.668  1.00  0.00     0.000 HD 
ENDBRANCH  20  30
ENDBRANCH  16  18
ENDBRANCH  10  11
ENDBRANCH   7  10
ENDBRANCH   3   4
ENDBRANCH   2   3
TORSDOF 6
ENDMDL
MODEL      204
REMARK 921   NORMALIZED FREE ENERGY PREDICTED BY IDOCK:   -4.22 KCAL/MOL
REMARK 922        TOTAL FREE ENERGY PREDICTED BY IDOCK:   -6.67 KCAL/MOL
REMARK 923 INTER-LIGAND FREE ENERGY PREDICTED BY IDOCK:   -5.82 KCAL/MOL
REMARK 924 INTRA-LIGAND FREE ENERGY PREDICTED BY IDOCK:   -0.85 KCAL/MOL
REMARK 927      BINDING AFFINITY PREDICTED BY RF-SCORE:    0.00 PKD
ROOT
HETATM    1  C   UNL     1     -11.859   6.406  71.525  1.00  0.00    -0.355 C  
HETATM    2  C   UNL     1     -10.648   5.584  71.925  1.00  0.00    -0.234 C  
ENDROOT
BRANCH   2   3
HETATM    3  O   UNL     1      -9.610   6.481  72.315  1.00  0.00    -0.149 OA 
BRANCH   3   4
HETATM    4  C   UNL     1      -9.134   7.330  71.354  1.00  0.00    -0.142 A  
HETATM    5  C   UNL     1      -9.143   8.722  71.417  1.00  0.00    -0.313 A  
HETATM    6  C   UNL     1      -8.615   9.477  70.364  1.00  0.00    -0.246 A  
HETATM    7  C   UNL     1      -8.070   8.855  69.233  1.00  0.00    -0.109 A  
HETATM    8  C   UNL     1      -8.607   6.705  70.223  1.00  0.00    -0.140 A  
HETATM    9  C   UNL     1      -8.080   7.457  69.169  1.00  0.00    -0.120 A  
BRANCH   7  10
HETATM   10  C   UNL     1      -7.566   9.694  68.084  1.00  0.00    -0.082 C  
BRANCH  10  11
HETATM   11  C   UNL     1      -8.422  10.872  67.673  1.00  0.00    -0.123 A  
HETATM   12  C   UNL     1      -9.380  10.813  66.653  1.00  0.00    -0.166 A  
HETATM   13 CL   UNL     1      -9.795   9.329  65.874  1.00  0.00    -0.360 Cl 
HETATM   14  C   UNL     1     -10.001  11.983  66.198  1.00  0.00    -0.254 A  
HETATM   15  C   UNL     1      -9.665  13.228  66.739  1.00  0.00    -0.258 A  
HETATM   16  C   UNL     1      -8.733  13.315  67.778  1.00  0.00    -0.194 A  
HETATM   17  C   UNL     1      -8.158  12.122  68.259  1.00  0.00    -0.166 A  
BRANCH  16  18
HETATM   18  C   UNL     1      -8.217  14.644  68.318  1.00  0.00    -0.146 C  
HETATM   19  O   UNL     1      -9.286  15.603  68.424  1.00  0.00    -0.189 OA 
HETATM   20  C   UNL     1      -8.858  16.853  68.992  1.00  0.00    -0.159 C  
HETATM   21  H   UNL     1      -5.272  14.600  66.803  1.00  0.00     0.000 HD 
HETATM   22  C   UNL     1      -7.780  17.505  68.124  1.00  0.00    -0.231 C  
HETATM   23  O   UNL     1      -5.970  14.269  67.357  1.00  0.00    -0.346 OA 
HETATM   24  O   UNL     1      -7.283  18.727  68.688  1.00  0.00    -0.283 OA 
HETATM   25  C   UNL     1      -6.603  16.545  67.943  1.00  0.00    -0.141 C  
HETATM   26  H   UNL     1      -4.905  16.524  66.946  1.00  0.00     0.000 HD 
HETATM   27  O   UNL     1      -5.636  17.121  67.059  1.00  0.00    -0.137 OA 
HETATM   28  H   UNL     1      -6.614  19.133  68.149  1.00  0.00     0.000 HD 
HETATM   29  C   UNL     1      -7.075  15.185  67.413  1.00  0.00    -0.187 C  
BRANCH  20  30
HETATM   30  C   UNL     1     -10.080  17.775  69.120  1.00  0.00    -0.220 C  
HETATM   31  O   UNL     1     -10.910  17.636  67.968  1.00  0.00    -0.369 OA 
HETATM   32  H   UNL     1     -11.665  18.206  68.047  1.00  0.00     0.000 HD 
ENDBRANCH  20  30
ENDBRANCH  16  18
ENDBRANCH  10  11
ENDBRANCH   7  10
ENDBRANCH   3   4
ENDBRANCH   2   3
TORSDOF 6
ENDMDL
MODEL      205
REMARK 921   NORMALIZED FREE ENERGY PREDICTED BY IDOCK:   -4.21 KCAL/MOL
REMARK 922        TOTAL FREE ENERGY PREDICTED BY IDOCK:   -6.65 KCAL/MOL
REMARK 923 INTER-LIGAND FREE ENERGY PREDICTED BY IDOCK:   -5.68 KCAL/MOL
REMARK 924 INTRA-LIGAND FREE ENERGY PREDICTED BY IDOCK:   -0.97 KCAL/MOL
REMARK 927      BINDING AFFINITY PREDICTED BY RF-SCORE:    0.00 PKD
ROOT
HETATM    1  C   UNL     1      -8.910   4.061  73.521  1.00  0.00    -0.093 C  
HETATM    2  C   UNL     1      -9.436   5.417  73.087  1.00  0.00    -0.142 C  
ENDROOT
BRANCH   2   3
HETATM    3  O   UNL     1     -10.626   5.209  72.328  1.00  0.00    -0.213 OA 
BRANCH   3   4
HETATM    4  C   UNL     1     -10.507   5.259  70.967  1.00  0.00    -0.203 A  
HETATM    5  C   UNL     1     -11.122   6.185  70.126  1.00  0.00    -0.448 A  
HETATM    6  C   UNL     1     -10.910   6.131  68.745  1.00  0.00    -0.402 A  
HETATM    7  C   UNL     1     -10.081   5.152  68.180  1.00  0.00    -0.192 A  
HETATM    8  C   UNL     1      -9.692   4.273  70.408  1.00  0.00    -0.280 A  
HETATM    9  C   UNL     1      -9.479   4.216  69.028  1.00  0.00    -0.244 A  
BRANCH   7  10
HETATM   10  C   UNL     1      -9.921   5.078  66.681  1.00  0.00    -0.246 C  
BRANCH  10  11
HETATM   11  C   UNL     1      -8.828   5.927  66.070  1.00  0.00    -0.153 A  
HETATM   12  C   UNL     1      -7.531   5.457  65.823  1.00  0.00    -0.081 A  
HETATM   13 CL   UNL     1      -7.103   3.799  66.041  1.00  0.00    -0.062 Cl 
HETATM   14  C   UNL     1      -6.520   6.344  65.434  1.00  0.00    -0.039 A  
HETATM   15  C   UNL     1      -6.780   7.712  65.301  1.00  0.00    -0.044 A  
HETATM   16  C   UNL     1      -8.072   8.206  65.513  1.00  0.00    -0.130 A  
HETATM   17  C   UNL     1      -9.088   7.291  65.852  1.00  0.00    -0.064 A  
BRANCH  16  18
HETATM   18  C   UNL     1      -8.397   9.695  65.523  1.00  0.00    -0.139 C  
HETATM   19  O   UNL     1      -8.771  10.127  66.846  1.00  0.00    -0.129 OA 
HETATM   20  C   UNL     1      -9.023  11.542  66.917  1.00  0.00    -0.179 C  
HETATM   21  H   UNL     1      -9.825   9.837  62.539  1.00  0.00     0.000 HD 
HETATM   22  C   UNL     1     -10.177  11.937  65.993  1.00  0.00    -0.229 C  
HETATM   23  O   UNL     1      -9.135   9.646  63.164  1.00  0.00    -0.259 OA 
HETATM   24  O   UNL     1     -10.422  13.351  65.991  1.00  0.00    -0.283 OA 
HETATM   25  C   UNL     1      -9.872  11.499  64.560  1.00  0.00    -0.241 C  
HETATM   26  H   UNL     1     -10.800  11.517  62.823  1.00  0.00     0.000 HD 
HETATM   27  O   UNL     1     -10.989  11.789  63.714  1.00  0.00    -0.361 OA 
HETATM   28  H   UNL     1     -11.139  13.597  65.418  1.00  0.00     0.000 HD 
HETATM   29  C   UNL     1      -9.525  10.007  64.500  1.00  0.00    -0.296 C  
BRANCH  20  30
HETATM   30  C   UNL     1      -9.348  11.906  68.374  1.00  0.00    -0.184 C  
HETATM   31  O   UNL     1      -8.137  12.118  69.098  1.00  0.00    -0.343 OA 
HETATM   32  H   UNL     1      -8.338  12.343  69.998  1.00  0.00     0.000 HD 
ENDBRANCH  20  30
ENDBRANCH  16  18
ENDBRANCH  10  11
ENDBRANCH   7  10
ENDBRANCH   3   4
ENDBRANCH   2   3
TORSDOF 6
ENDMDL
MODEL      206
REMARK 921   NORMALIZED FREE ENERGY PREDICTED BY IDOCK:   -4.20 KCAL/MOL
REMARK 922        TOTAL FREE ENERGY PREDICTED BY IDOCK:   -6.64 KCAL/MOL
REMARK 923 INTER-LIGAND FREE ENERGY PREDICTED BY IDOCK:   -5.80 KCAL/MOL
REMARK 924 INTRA-LIGAND FREE ENERGY PREDICTED BY IDOCK:   -0.84 KCAL/MOL
REMARK 927      BINDING AFFINITY PREDICTED BY RF-SCORE:    0.00 PKD
ROOT
HETATM    1  C   UNL     1      -9.445   4.549  74.385  1.00  0.00    -0.137 C  
HETATM    2  C   UNL     1      -9.653   4.369  72.893  1.00  0.00    -0.132 C  
ENDROOT
BRANCH   2   3
HETATM    3  O   UNL     1      -8.395   4.543  72.244  1.00  0.00    -0.106 OA 
BRANCH   3   4
HETATM    4  C   UNL     1      -8.419   4.731  70.890  1.00  0.00    -0.106 A  
HETATM    5  C   UNL     1      -7.403   5.302  70.126  1.00  0.00    -0.067 A  
HETATM    6  C   UNL     1      -7.551   5.429  68.741  1.00  0.00    -0.079 A  
HETATM    7  C   UNL     1      -8.715   4.989  68.096  1.00  0.00    -0.106 A  
HETATM    8  C   UNL     1      -9.587   4.305  70.255  1.00  0.00    -0.269 A  
HETATM    9  C   UNL     1      -9.738   4.432  68.871  1.00  0.00    -0.211 A  
BRANCH   7  10
HETATM   10  C   UNL     1      -8.875   5.196  66.610  1.00  0.00    -0.112 C  
BRANCH  10  11
HETATM   11  C   UNL     1      -9.050   6.622  66.136  1.00  0.00    -0.143 A  
HETATM   12  C   UNL     1      -8.272   7.202  65.124  1.00  0.00    -0.113 A  
HETATM   13 CL   UNL     1      -7.144   6.280  64.199  1.00  0.00    -0.054 Cl 
HETATM   14  C   UNL     1      -8.358   8.576  64.867  1.00  0.00    -0.171 A  
HETATM   15  C   UNL     1      -9.204   9.394  65.622  1.00  0.00    -0.285 A  
HETATM   16  C   UNL     1     -10.012   8.840  66.619  1.00  0.00    -0.355 A  
HETATM   17  C   UNL     1      -9.953   7.448  66.829  1.00  0.00    -0.300 A  
BRANCH  16  18
HETATM   18  C   UNL     1     -10.850   9.686  67.571  1.00  0.00    -0.198 C  
HETATM   19  O   UNL     1     -10.680  11.089  67.293  1.00  0.00    -0.233 OA 
HETATM   20  C   UNL     1     -11.504  11.924  68.125  1.00  0.00    -0.320 C  
HETATM   21  H   UNL     1     -10.481   7.787  70.259  1.00  0.00     0.000 HD 
HETATM   22  C   UNL     1     -11.155  11.735  69.603  1.00  0.00    -0.070 C  
HETATM   23  O   UNL     1     -10.710   7.982  69.358  1.00  0.00    -0.224 OA 
HETATM   24  O   UNL     1     -11.997  12.508  70.471  1.00  0.00    -0.489 OA 
HETATM   25  C   UNL     1     -11.293  10.261  69.986  1.00  0.00    -0.301 C  
HETATM   26  H   UNL     1     -10.967   9.155  71.583  1.00  0.00     0.000 HD 
HETATM   27  O   UNL     1     -10.881  10.070  71.344  1.00  0.00    -0.140 OA 
HETATM   28  H   UNL     1     -11.780  12.391  71.389  1.00  0.00     0.000 HD 
HETATM   29  C   UNL     1     -10.476   9.366  69.046  1.00  0.00    -0.217 C  
BRANCH  20  30
HETATM   30  C   UNL     1     -11.297  13.388  67.704  1.00  0.00    -0.290 C  
HETATM   31  O   UNL     1     -12.287  14.209  68.319  1.00  0.00    -0.574 OA 
HETATM   32  H   UNL     1     -12.160  15.114  68.059  1.00  0.00     0.000 HD 
ENDBRANCH  20  30
ENDBRANCH  16  18
ENDBRANCH  10  11
ENDBRANCH   7  10
ENDBRANCH   3   4
ENDBRANCH   2   3
TORSDOF 6
ENDMDL
MODEL      207
REMARK 921   NORMALIZED FREE ENERGY PREDICTED BY IDOCK:   -4.20 KCAL/MOL
REMARK 922        TOTAL FREE ENERGY PREDICTED BY IDOCK:   -6.63 KCAL/MOL
REMARK 923 INTER-LIGAND FREE ENERGY PREDICTED BY IDOCK:   -5.83 KCAL/MOL
REMARK 924 INTRA-LIGAND FREE ENERGY PREDICTED BY IDOCK:   -0.81 KCAL/MOL
REMARK 927      BINDING AFFINITY PREDICTED BY RF-SCORE:    0.00 PKD
ROOT
HETATM    1  C   UNL     1      -7.864  19.875  68.027  1.00  0.00    -0.317 C  
HETATM    2  C   UNL     1      -9.159  20.374  67.413  1.00  0.00    -0.358 C  
ENDROOT
BRANCH   2   3
HETATM    3  O   UNL     1      -9.581  19.425  66.434  1.00  0.00    -0.341 OA 
BRANCH   3   4
HETATM    4  C   UNL     1      -9.750  18.136  66.856  1.00  0.00    -0.318 A  
HETATM    5  C   UNL     1     -10.571  17.719  67.901  1.00  0.00    -0.389 A  
HETATM    6  C   UNL     1     -10.661  16.362  68.227  1.00  0.00    -0.337 A  
HETATM    7  C   UNL     1      -9.933  15.399  67.515  1.00  0.00    -0.226 A  
HETATM    8  C   UNL     1      -9.010  17.183  66.153  1.00  0.00    -0.217 A  
HETATM    9  C   UNL     1      -9.097  15.826  66.477  1.00  0.00    -0.327 A  
BRANCH   7  10
HETATM   10  C   UNL     1      -9.999  13.949  67.929  1.00  0.00    -0.242 C  
BRANCH  10  11
HETATM   11  C   UNL     1      -8.691  13.189  67.960  1.00  0.00    -0.190 A  
HETATM   12  C   UNL     1      -7.549  13.642  68.633  1.00  0.00    -0.115 A  
HETATM   13 CL   UNL     1      -7.579  15.043  69.642  1.00  0.00    -0.185 Cl 
HETATM   14  C   UNL     1      -6.323  12.987  68.464  1.00  0.00    -0.081 A  
HETATM   15  C   UNL     1      -6.212  11.884  67.611  1.00  0.00    -0.083 A  
HETATM   16  C   UNL     1      -7.340  11.393  66.947  1.00  0.00    -0.147 A  
HETATM   17  C   UNL     1      -8.576  12.031  67.170  1.00  0.00    -0.182 A  
BRANCH  16  18
HETATM   18  C   UNL     1      -7.268  10.288  65.899  1.00  0.00    -0.131 C  
HETATM   19  O   UNL     1      -8.192  10.543  64.823  1.00  0.00    -0.162 OA 
HETATM   20  C   UNL     1      -8.111   9.560  63.777  1.00  0.00    -0.152 C  
HETATM   21  H   UNL     1      -6.761   7.763  67.980  1.00  0.00     0.000 HD 
HETATM   22  C   UNL     1      -8.448   8.166  64.311  1.00  0.00     0.057 C  
HETATM   23  O   UNL     1      -6.589   8.607  67.580  1.00  0.00    -0.060 OA 
HETATM   24  O   UNL     1      -8.322   7.146  63.310  1.00  0.00    -0.344 OA 
HETATM   25  C   UNL     1      -7.521   7.815  65.476  1.00  0.00    -0.076 C  
HETATM   26  H   UNL     1      -7.319   6.332  66.756  1.00  0.00     0.000 HD 
HETATM   27  O   UNL     1      -7.895   6.550  66.032  1.00  0.00    -0.096 OA 
HETATM   28  H   UNL     1      -8.531   6.281  63.641  1.00  0.00     0.000 HD 
HETATM   29  C   UNL     1      -7.549   8.906  66.553  1.00  0.00    -0.092 C  
BRANCH  20  30
HETATM   30  C   UNL     1      -9.084   9.959  62.656  1.00  0.00    -0.286 C  
HETATM   31  O   UNL     1     -10.301  10.438  63.225  1.00  0.00    -0.430 OA 
HETATM   32  H   UNL     1     -10.903  10.684  62.532  1.00  0.00     0.000 HD 
ENDBRANCH  20  30
ENDBRANCH  16  18
ENDBRANCH  10  11
ENDBRANCH   7  10
ENDBRANCH   3   4
ENDBRANCH   2   3
TORSDOF 6
ENDMDL
MODEL      208
REMARK 921   NORMALIZED FREE ENERGY PREDICTED BY IDOCK:   -4.15 KCAL/MOL
REMARK 922        TOTAL FREE ENERGY PREDICTED BY IDOCK:   -6.58 KCAL/MOL
REMARK 923 INTER-LIGAND FREE ENERGY PREDICTED BY IDOCK:   -5.16 KCAL/MOL
REMARK 924 INTRA-LIGAND FREE ENERGY PREDICTED BY IDOCK:   -1.42 KCAL/MOL
REMARK 927      BINDING AFFINITY PREDICTED BY RF-SCORE:    0.00 PKD
ROOT
HETATM    1  C   UNL     1     -11.583  12.126  65.532  1.00  0.00    -0.398 C  
HETATM    2  C   UNL     1     -11.828  12.378  67.008  1.00  0.00    -0.297 C  
ENDROOT
BRANCH   2   3
HETATM    3  O   UNL     1     -10.580  12.711  67.616  1.00  0.00    -0.214 OA 
BRANCH   3   4
HETATM    4  C   UNL     1      -9.979  11.738  68.364  1.00  0.00    -0.202 A  
HETATM    5  C   UNL     1      -8.612  11.470  68.410  1.00  0.00    -0.159 A  
HETATM    6  C   UNL     1      -8.123  10.446  69.229  1.00  0.00    -0.159 A  
HETATM    7  C   UNL     1      -8.989   9.674  70.013  1.00  0.00    -0.266 A  
HETATM    8  C   UNL     1     -10.848  10.962  69.133  1.00  0.00    -0.280 A  
HETATM    9  C   UNL     1     -10.362   9.937  69.950  1.00  0.00    -0.298 A  
BRANCH   7  10
HETATM   10  C   UNL     1      -8.441   8.534  70.838  1.00  0.00    -0.176 C  
BRANCH  10  11
HETATM   11  C   UNL     1      -9.249   7.256  70.855  1.00  0.00    -0.155 A  
HETATM   12  C   UNL     1      -9.942   6.794  71.982  1.00  0.00    -0.171 A  
HETATM   13 CL   UNL     1     -10.076   7.737  73.422  1.00  0.00    -0.372 Cl 
HETATM   14  C   UNL     1     -10.511   5.514  71.986  1.00  0.00    -0.277 A  
HETATM   15  C   UNL     1     -10.384   4.671  70.877  1.00  0.00    -0.137 A  
HETATM   16  C   UNL     1      -9.724   5.115  69.728  1.00  0.00    -0.263 A  
HETATM   17  C   UNL     1      -9.204   6.425  69.722  1.00  0.00    -0.145 A  
BRANCH  16  18
HETATM   18  C   UNL     1      -9.427   4.207  68.540  1.00  0.00    -0.153 C  
HETATM   19  O   UNL     1      -8.122   3.611  68.665  1.00  0.00    -0.069 OA 
HETATM   20  C   UNL     1      -7.825   2.693  67.598  1.00  0.00    -0.064 C  
HETATM   21  H   UNL     1     -10.940   6.029  66.226  1.00  0.00     0.000 HD 
HETATM   22  C   UNL     1      -7.844   3.406  66.244  1.00  0.00    -0.084 C  
HETATM   23  O   UNL     1     -10.868   5.543  67.038  1.00  0.00    -0.249 OA 
HETATM   24  O   UNL     1      -7.611   2.511  65.147  1.00  0.00    -0.073 OA 
HETATM   25  C   UNL     1      -9.197   4.086  66.032  1.00  0.00    -0.153 C  
HETATM   26  H   UNL     1     -10.023   5.250  64.674  1.00  0.00     0.000 HD 
HETATM   27  O   UNL     1      -9.183   4.827  64.807  1.00  0.00    -0.154 OA 
HETATM   28  H   UNL     1      -7.622   2.954  64.306  1.00  0.00     0.000 HD 
HETATM   29  C   UNL     1      -9.547   5.003  67.210  1.00  0.00    -0.148 C  
BRANCH  20  30
HETATM   30  C   UNL     1      -6.446   2.069  67.861  1.00  0.00    -0.028 C  
HETATM   31  O   UNL     1      -5.448   2.784  67.134  1.00  0.00    -0.016 OA 
HETATM   32  H   UNL     1      -4.596   2.398  67.296  1.00  0.00     0.000 HD 
ENDBRANCH  20  30
ENDBRANCH  16  18
ENDBRANCH  10  11
ENDBRANCH   7  10
ENDBRANCH   3   4
ENDBRANCH   2   3
TORSDOF 6
ENDMDL
MODEL      209
REMARK 921   NORMALIZED FREE ENERGY PREDICTED BY IDOCK:   -4.14 KCAL/MOL
REMARK 922        TOTAL FREE ENERGY PREDICTED BY IDOCK:   -6.55 KCAL/MOL
REMARK 923 INTER-LIGAND FREE ENERGY PREDICTED BY IDOCK:   -6.00 KCAL/MOL
REMARK 924 INTRA-LIGAND FREE ENERGY PREDICTED BY IDOCK:   -0.55 KCAL/MOL
REMARK 927      BINDING AFFINITY PREDICTED BY RF-SCORE:    0.00 PKD
ROOT
HETATM    1  C   UNL     1     -10.145   4.383  68.606  1.00  0.00     0.035 C  
HETATM    2  C   UNL     1      -9.551   5.588  69.311  1.00  0.00    -0.136 C  
ENDROOT
BRANCH   2   3
HETATM    3  O   UNL     1      -8.652   6.232  68.410  1.00  0.00    -0.114 OA 
BRANCH   3   4
HETATM    4  C   UNL     1      -9.023   7.460  67.938  1.00  0.00    -0.131 A  
HETATM    5  C   UNL     1      -9.945   7.700  66.921  1.00  0.00    -0.325 A  
HETATM    6  C   UNL     1     -10.244   9.012  66.538  1.00  0.00    -0.318 A  
HETATM    7  C   UNL     1      -9.627  10.104  67.163  1.00  0.00    -0.202 A  
HETATM    8  C   UNL     1      -8.395   8.544  68.554  1.00  0.00    -0.123 A  
HETATM    9  C   UNL     1      -8.690   9.856  68.172  1.00  0.00    -0.122 A  
BRANCH   7  10
HETATM   10  C   UNL     1      -9.920  11.506  66.686  1.00  0.00    -0.236 C  
BRANCH  10  11
HETATM   11  C   UNL     1     -10.029  12.578  67.748  1.00  0.00    -0.210 A  
HETATM   12  C   UNL     1     -10.978  12.552  68.778  1.00  0.00    -0.253 A  
HETATM   13 CL   UNL     1     -12.013  11.194  69.032  1.00  0.00    -0.408 Cl 
HETATM   14  C   UNL     1     -11.147  13.664  69.612  1.00  0.00    -0.067 A  
HETATM   15  C   UNL     1     -10.387  14.823  69.422  1.00  0.00    -0.171 A  
HETATM   16  C   UNL     1      -9.413  14.868  68.420  1.00  0.00    -0.209 A  
HETATM   17  C   UNL     1      -9.220  13.721  67.625  1.00  0.00    -0.207 A  
BRANCH  16  18
HETATM   18  C   UNL     1      -8.649  16.139  68.066  1.00  0.00    -0.171 C  
HETATM   19  O   UNL     1      -9.473  17.034  67.295  1.00  0.00    -0.234 OA 
HETATM   20  C   UNL     1      -8.814  18.276  66.994  1.00  0.00    -0.266 C  
HETATM   21  H   UNL     1      -5.684  14.735  67.611  1.00  0.00     0.000 HD 
HETATM   22  C   UNL     1      -7.550  18.036  66.165  1.00  0.00    -0.250 C  
HETATM   23  O   UNL     1      -6.480  14.951  68.082  1.00  0.00    -0.108 OA 
HETATM   24  O   UNL     1      -6.831  19.248  65.893  1.00  0.00    -0.236 OA 
HETATM   25  C   UNL     1      -6.616  17.077  66.904  1.00  0.00    -0.216 C  
HETATM   26  H   UNL     1      -4.896  16.187  66.549  1.00  0.00     0.000 HD 
HETATM   27  O   UNL     1      -5.476  16.783  66.090  1.00  0.00    -0.239 OA 
HETATM   28  H   UNL     1      -6.046  19.099  65.378  1.00  0.00     0.000 HD 
HETATM   29  C   UNL     1      -7.346  15.785  67.295  1.00  0.00    -0.222 C  
BRANCH  20  30
HETATM   30  C   UNL     1      -9.798  19.177  66.230  1.00  0.00    -0.383 C  
HETATM   31  O   UNL     1      -9.088  20.251  65.617  1.00  0.00    -0.480 OA 
HETATM   32  H   UNL     1      -9.695  20.809  65.145  1.00  0.00     0.000 HD 
ENDBRANCH  20  30
ENDBRANCH  16  18
ENDBRANCH  10  11
ENDBRANCH   7  10
ENDBRANCH   3   4
ENDBRANCH   2   3
TORSDOF 6
ENDMDL
MODEL      210
REMARK 921   NORMALIZED FREE ENERGY PREDICTED BY IDOCK:   -4.13 KCAL/MOL
REMARK 922        TOTAL FREE ENERGY PREDICTED BY IDOCK:   -6.54 KCAL/MOL
REMARK 923 INTER-LIGAND FREE ENERGY PREDICTED BY IDOCK:   -6.24 KCAL/MOL
REMARK 924 INTRA-LIGAND FREE ENERGY PREDICTED BY IDOCK:   -0.30 KCAL/MOL
REMARK 927      BINDING AFFINITY PREDICTED BY RF-SCORE:    0.00 PKD
ROOT
HETATM    1  C   UNL     1      -9.697  15.407  69.545  1.00  0.00    -0.259 C  
HETATM    2  C   UNL     1     -11.125  15.313  70.050  1.00  0.00    -0.287 C  
ENDROOT
BRANCH   2   3
HETATM    3  O   UNL     1     -11.999  15.370  68.925  1.00  0.00    -0.336 OA 
BRANCH   3   4
HETATM    4  C   UNL     1     -11.887  14.365  68.004  1.00  0.00    -0.325 A  
HETATM    5  C   UNL     1     -11.910  12.999  68.277  1.00  0.00    -0.381 A  
HETATM    6  C   UNL     1     -11.793  12.071  67.237  1.00  0.00    -0.257 A  
HETATM    7  C   UNL     1     -11.651  12.492  65.908  1.00  0.00    -0.454 A  
HETATM    8  C   UNL     1     -11.731  14.790  66.683  1.00  0.00    -0.293 A  
HETATM    9  C   UNL     1     -11.613  13.865  65.642  1.00  0.00    -0.338 A  
BRANCH   7  10
HETATM   10  C   UNL     1     -11.463  11.470  64.813  1.00  0.00    -0.142 C  
BRANCH  10  11
HETATM   11  C   UNL     1     -10.311  10.503  64.974  1.00  0.00    -0.310 A  
HETATM   12  C   UNL     1      -9.424  10.179  63.939  1.00  0.00    -0.275 A  
HETATM   13 CL   UNL     1      -9.462  10.989  62.415  1.00  0.00    -0.242 Cl 
HETATM   14  C   UNL     1      -8.499   9.139  64.101  1.00  0.00    -0.198 A  
HETATM   15  C   UNL     1      -8.456   8.397  65.286  1.00  0.00    -0.189 A  
HETATM   16  C   UNL     1      -9.310   8.717  66.346  1.00  0.00    -0.271 A  
HETATM   17  C   UNL     1     -10.197   9.800  66.186  1.00  0.00    -0.278 A  
BRANCH  16  18
HETATM   18  C   UNL     1      -9.416   7.868  67.608  1.00  0.00    -0.144 C  
HETATM   19  O   UNL     1      -8.739   8.503  68.710  1.00  0.00    -0.136 OA 
HETATM   20  C   UNL     1      -8.870   7.769  69.940  1.00  0.00    -0.142 C  
HETATM   21  H   UNL     1      -9.202   4.906  66.144  1.00  0.00     0.000 HD 
HETATM   22  C   UNL     1      -8.258   6.372  69.808  1.00  0.00    -0.126 C  
HETATM   23  O   UNL     1      -9.555   5.774  66.301  1.00  0.00    -0.157 OA 
HETATM   24  O   UNL     1      -8.421   5.585  70.997  1.00  0.00    -0.121 OA 
HETATM   25  C   UNL     1      -8.910   5.625  68.644  1.00  0.00    -0.109 C  
HETATM   26  H   UNL     1      -8.681   3.890  67.742  1.00  0.00     0.000 HD 
HETATM   27  O   UNL     1      -8.277   4.354  68.465  1.00  0.00    -0.084 OA 
HETATM   28  H   UNL     1      -8.041   4.718  70.916  1.00  0.00     0.000 HD 
HETATM   29  C   UNL     1      -8.840   6.447  67.351  1.00  0.00    -0.104 C  
BRANCH  20  30
HETATM   30  C   UNL     1      -8.172   8.561  71.057  1.00  0.00    -0.140 C  
HETATM   31  O   UNL     1      -7.418   9.630  70.490  1.00  0.00    -0.140 OA 
HETATM   32  H   UNL     1      -6.987  10.119  71.180  1.00  0.00     0.000 HD 
ENDBRANCH  20  30
ENDBRANCH  16  18
ENDBRANCH  10  11
ENDBRANCH   7  10
ENDBRANCH   3   4
ENDBRANCH   2   3
TORSDOF 6
ENDMDL
MODEL      211
REMARK 921   NORMALIZED FREE ENERGY PREDICTED BY IDOCK:   -4.10 KCAL/MOL
REMARK 922        TOTAL FREE ENERGY PREDICTED BY IDOCK:   -6.50 KCAL/MOL
REMARK 923 INTER-LIGAND FREE ENERGY PREDICTED BY IDOCK:   -6.19 KCAL/MOL
REMARK 924 INTRA-LIGAND FREE ENERGY PREDICTED BY IDOCK:   -0.31 KCAL/MOL
REMARK 927      BINDING AFFINITY PREDICTED BY RF-SCORE:    0.00 PKD
ROOT
HETATM    1  C   UNL     1     -11.520   4.578  73.435  1.00  0.00    -0.322 C  
HETATM    2  C   UNL     1     -10.425   5.466  73.995  1.00  0.00    -0.284 C  
ENDROOT
BRANCH   2   3
HETATM    3  O   UNL     1     -10.830   6.824  73.837  1.00  0.00    -0.228 OA 
BRANCH   3   4
HETATM    4  C   UNL     1     -10.255   7.525  72.813  1.00  0.00    -0.255 A  
HETATM    5  C   UNL     1     -10.836   8.585  72.121  1.00  0.00    -0.427 A  
HETATM    6  C   UNL     1     -10.134   9.225  71.094  1.00  0.00    -0.374 A  
HETATM    7  C   UNL     1      -8.841   8.816  70.741  1.00  0.00    -0.228 A  
HETATM    8  C   UNL     1      -8.973   7.103  72.456  1.00  0.00    -0.147 A  
HETATM    9  C   UNL     1      -8.269   7.739  71.429  1.00  0.00    -0.106 A  
BRANCH   7  10
HETATM   10  C   UNL     1      -8.131   9.481  69.587  1.00  0.00    -0.128 C  
BRANCH  10  11
HETATM   11  C   UNL     1      -9.003  10.063  68.496  1.00  0.00    -0.124 A  
HETATM   12  C   UNL     1      -9.899   9.302  67.734  1.00  0.00    -0.171 A  
HETATM   13 CL   UNL     1     -10.217   7.643  68.086  1.00  0.00    -0.223 Cl 
HETATM   14  C   UNL     1     -10.533   9.865  66.619  1.00  0.00    -0.239 A  
HETATM   15  C   UNL     1     -10.272  11.185  66.237  1.00  0.00    -0.286 A  
HETATM   16  C   UNL     1      -9.404  11.977  66.995  1.00  0.00    -0.191 A  
HETATM   17  C   UNL     1      -8.816  11.412  68.143  1.00  0.00    -0.162 A  
BRANCH  16  18
HETATM   18  C   UNL     1      -8.966  13.371  66.562  1.00  0.00    -0.048 C  
HETATM   19  O   UNL     1      -8.092  13.961  67.544  1.00  0.00    -0.158 OA 
HETATM   20  C   UNL     1      -7.600  15.252  67.146  1.00  0.00    -0.189 C  
HETATM   21  H   UNL     1     -11.810  14.284  65.133  1.00  0.00     0.000 HD 
HETATM   22  C   UNL     1      -8.753  16.239  66.950  1.00  0.00    -0.208 C  
HETATM   23  O   UNL     1     -11.051  13.733  65.284  1.00  0.00    -0.299 OA 
HETATM   24  O   UNL     1      -8.307  17.525  66.495  1.00  0.00    -0.243 OA 
HETATM   25  C   UNL     1      -9.746  15.684  65.928  1.00  0.00    -0.353 C  
HETATM   26  H   UNL     1     -11.486  16.220  65.177  1.00  0.00     0.000 HD 
HETATM   27  O   UNL     1     -10.869  16.565  65.812  1.00  0.00    -0.254 OA 
HETATM   28  H   UNL     1      -9.023  18.137  66.373  1.00  0.00     0.000 HD 
HETATM   29  C   UNL     1     -10.207  14.273  66.314  1.00  0.00    -0.301 C  
BRANCH  20  30
HETATM   30  C   UNL     1      -6.632  15.760  68.227  1.00  0.00    -0.120 C  
HETATM   31  O   UNL     1      -5.301  15.768  67.714  1.00  0.00    -0.123 OA 
HETATM   32  H   UNL     1      -4.703  16.081  68.382  1.00  0.00     0.000 HD 
ENDBRANCH  20  30
ENDBRANCH  16  18
ENDBRANCH  10  11
ENDBRANCH   7  10
ENDBRANCH   3   4
ENDBRANCH   2   3
TORSDOF 6
ENDMDL
MODEL      212
REMARK 921   NORMALIZED FREE ENERGY PREDICTED BY IDOCK:   -4.08 KCAL/MOL
REMARK 922        TOTAL FREE ENERGY PREDICTED BY IDOCK:   -6.48 KCAL/MOL
REMARK 923 INTER-LIGAND FREE ENERGY PREDICTED BY IDOCK:   -6.12 KCAL/MOL
REMARK 924 INTRA-LIGAND FREE ENERGY PREDICTED BY IDOCK:   -0.35 KCAL/MOL
REMARK 927      BINDING AFFINITY PREDICTED BY RF-SCORE:    0.00 PKD
ROOT
HETATM    1  C   UNL     1      -6.135   4.013  63.455  1.00  0.00    -0.018 C  
HETATM    2  C   UNL     1      -6.589   4.014  64.903  1.00  0.00    -0.043 C  
ENDROOT
BRANCH   2   3
HETATM    3  O   UNL     1      -7.951   4.437  64.941  1.00  0.00    -0.091 OA 
BRANCH   3   4
HETATM    4  C   UNL     1      -8.506   4.622  66.176  1.00  0.00    -0.114 A  
HETATM    5  C   UNL     1      -7.830   4.567  67.393  1.00  0.00    -0.089 A  
HETATM    6  C   UNL     1      -8.518   4.783  68.592  1.00  0.00    -0.090 A  
HETATM    7  C   UNL     1      -9.892   5.058  68.595  1.00  0.00    -0.227 A  
HETATM    8  C   UNL     1      -9.878   4.881  66.174  1.00  0.00    -0.222 A  
HETATM    9  C   UNL     1     -10.569   5.096  67.370  1.00  0.00    -0.108 A  
BRANCH   7  10
HETATM   10  C   UNL     1     -10.621   5.225  69.905  1.00  0.00    -0.292 C  
BRANCH  10  11
HETATM   11  C   UNL     1     -10.570   6.595  70.545  1.00  0.00    -0.270 A  
HETATM   12  C   UNL     1     -11.075   6.871  71.822  1.00  0.00    -0.244 A  
HETATM   13 CL   UNL     1     -11.658   5.624  72.863  1.00  0.00    -0.297 Cl 
HETATM   14  C   UNL     1     -11.166   8.193  72.275  1.00  0.00    -0.425 A  
HETATM   15  C   UNL     1     -10.773   9.259  71.458  1.00  0.00    -0.425 A  
HETATM   16  C   UNL     1     -10.239   9.012  70.190  1.00  0.00    -0.224 A  
HETATM   17  C   UNL     1     -10.105   7.673  69.771  1.00  0.00    -0.196 A  
BRANCH  16  18
HETATM   18  C   UNL     1      -9.921  10.122  69.195  1.00  0.00    -0.210 C  
HETATM   19  O   UNL     1     -10.745  11.279  69.439  1.00  0.00    -0.213 OA 
HETATM   20  C   UNL     1     -10.433  12.377  68.565  1.00  0.00    -0.228 C  
HETATM   21  H   UNL     1      -9.350   8.187  66.569  1.00  0.00     0.000 HD 
HETATM   22  C   UNL     1     -10.659  11.991  67.102  1.00  0.00    -0.224 C  
HETATM   23  O   UNL     1      -9.237   8.500  67.459  1.00  0.00    -0.132 OA 
HETATM   24  O   UNL     1     -10.303  13.043  66.193  1.00  0.00    -0.267 OA 
HETATM   25  C   UNL     1      -9.831  10.753  66.755  1.00  0.00    -0.193 C  
HETATM   26  H   UNL     1      -9.596   9.571  65.198  1.00  0.00     0.000 HD 
HETATM   27  O   UNL     1     -10.111  10.340  65.413  1.00  0.00    -0.293 OA 
HETATM   28  H   UNL     1     -10.444  12.803  65.284  1.00  0.00     0.000 HD 
HETATM   29  C   UNL     1     -10.106   9.609  67.739  1.00  0.00    -0.187 C  
BRANCH  20  30
HETATM   30  C   UNL     1     -11.317  13.574  68.951  1.00  0.00    -0.289 C  
HETATM   31  O   UNL     1     -11.429  13.650  70.371  1.00  0.00    -0.509 OA 
HETATM   32  H   UNL     1     -11.975  14.389  70.610  1.00  0.00     0.000 HD 
ENDBRANCH  20  30
ENDBRANCH  16  18
ENDBRANCH  10  11
ENDBRANCH   7  10
ENDBRANCH   3   4
ENDBRANCH   2   3
TORSDOF 6
ENDMDL
MODEL      213
REMARK 921   NORMALIZED FREE ENERGY PREDICTED BY IDOCK:   -4.07 KCAL/MOL
REMARK 922        TOTAL FREE ENERGY PREDICTED BY IDOCK:   -6.46 KCAL/MOL
REMARK 923 INTER-LIGAND FREE ENERGY PREDICTED BY IDOCK:   -6.06 KCAL/MOL
REMARK 924 INTRA-LIGAND FREE ENERGY PREDICTED BY IDOCK:   -0.40 KCAL/MOL
REMARK 927      BINDING AFFINITY PREDICTED BY RF-SCORE:    0.00 PKD
ROOT
HETATM    1  C   UNL     1     -11.736  14.074  68.172  1.00  0.00    -0.387 C  
HETATM    2  C   UNL     1     -11.345  12.652  67.814  1.00  0.00    -0.297 C  
ENDROOT
BRANCH   2   3
HETATM    3  O   UNL     1     -12.248  11.764  68.471  1.00  0.00    -0.430 OA 
BRANCH   3   4
HETATM    4  C   UNL     1     -11.718  10.930  69.415  1.00  0.00    -0.325 A  
HETATM    5  C   UNL     1     -10.433  10.390  69.401  1.00  0.00    -0.261 A  
HETATM    6  C   UNL     1     -10.009   9.554  70.438  1.00  0.00    -0.325 A  
HETATM    7  C   UNL     1     -10.860   9.242  71.507  1.00  0.00    -0.442 A  
HETATM    8  C   UNL     1     -12.575  10.611  70.470  1.00  0.00    -0.433 A  
HETATM    9  C   UNL     1     -12.155   9.774  71.507  1.00  0.00    -0.493 A  
BRANCH   7  10
HETATM   10  C   UNL     1     -10.400   8.286  72.580  1.00  0.00    -0.401 C  
BRANCH  10  11
HETATM   11  C   UNL     1      -9.183   7.444  72.265  1.00  0.00    -0.162 A  
HETATM   12  C   UNL     1      -8.006   7.471  73.025  1.00  0.00    -0.106 A  
HETATM   13 CL   UNL     1      -7.895   8.353  74.505  1.00  0.00    -0.301 Cl 
HETATM   14  C   UNL     1      -6.856   6.812  72.572  1.00  0.00    -0.063 A  
HETATM   15  C   UNL     1      -6.856   6.133  71.350  1.00  0.00    -0.067 A  
HETATM   16  C   UNL     1      -8.023   6.064  70.583  1.00  0.00    -0.111 A  
HETATM   17  C   UNL     1      -9.185   6.688  71.080  1.00  0.00    -0.160 A  
BRANCH  16  18
HETATM   18  C   UNL     1      -8.060   5.464  69.182  1.00  0.00    -0.094 C  
HETATM   19  O   UNL     1      -7.106   6.116  68.322  1.00  0.00    -0.077 OA 
HETATM   20  C   UNL     1      -7.058   5.537  67.006  1.00  0.00    -0.070 C  
HETATM   21  H   UNL     1     -11.322   4.915  69.042  1.00  0.00     0.000 HD 
HETATM   22  C   UNL     1      -8.415   5.655  66.309  1.00  0.00    -0.124 C  
HETATM   23  O   UNL     1     -10.446   4.854  69.403  1.00  0.00    -0.167 OA 
HETATM   24  O   UNL     1      -8.426   5.036  65.014  1.00  0.00    -0.133 OA 
HETATM   25  C   UNL     1      -9.500   4.999  67.165  1.00  0.00    -0.136 C  
HETATM   26  H   UNL     1     -11.455   4.781  67.087  1.00  0.00     0.000 HD 
HETATM   27  O   UNL     1     -10.781   5.188  66.556  1.00  0.00    -0.300 OA 
HETATM   28  H   UNL     1      -9.268   5.109  64.581  1.00  0.00     0.000 HD 
HETATM   29  C   UNL     1      -9.494   5.563  68.592  1.00  0.00    -0.129 C  
BRANCH  20  30
HETATM   30  C   UNL     1      -5.969   6.258  66.195  1.00  0.00    -0.029 C  
HETATM   31  O   UNL     1      -6.299   7.640  66.070  1.00  0.00    -0.041 OA 
HETATM   32  H   UNL     1      -5.627   8.085  65.569  1.00  0.00     0.000 HD 
ENDBRANCH  20  30
ENDBRANCH  16  18
ENDBRANCH  10  11
ENDBRANCH   7  10
ENDBRANCH   3   4
ENDBRANCH   2   3
TORSDOF 6
ENDMDL
MODEL      214
REMARK 921   NORMALIZED FREE ENERGY PREDICTED BY IDOCK:   -4.07 KCAL/MOL
REMARK 922        TOTAL FREE ENERGY PREDICTED BY IDOCK:   -6.46 KCAL/MOL
REMARK 923 INTER-LIGAND FREE ENERGY PREDICTED BY IDOCK:   -5.22 KCAL/MOL
REMARK 924 INTRA-LIGAND FREE ENERGY PREDICTED BY IDOCK:   -1.24 KCAL/MOL
REMARK 927      BINDING AFFINITY PREDICTED BY RF-SCORE:    0.00 PKD
ROOT
HETATM    1  C   UNL     1     -12.638  13.795  65.316  1.00  0.00    -0.510 C  
HETATM    2  C   UNL     1     -11.321  14.200  64.680  1.00  0.00    -0.371 C  
ENDROOT
BRANCH   2   3
HETATM    3  O   UNL     1     -10.468  13.057  64.657  1.00  0.00    -0.343 OA 
BRANCH   3   4
HETATM    4  C   UNL     1     -10.229  12.441  65.854  1.00  0.00    -0.251 A  
HETATM    5  C   UNL     1      -9.799  13.066  67.023  1.00  0.00    -0.238 A  
HETATM    6  C   UNL     1      -9.598  12.318  68.188  1.00  0.00    -0.213 A  
HETATM    7  C   UNL     1      -9.823  10.935  68.205  1.00  0.00    -0.187 A  
HETATM    8  C   UNL     1     -10.440  11.061  65.861  1.00  0.00    -0.300 A  
HETATM    9  C   UNL     1     -10.238  10.311  67.023  1.00  0.00    -0.282 A  
BRANCH   7  10
HETATM   10  C   UNL     1      -9.537  10.143  69.457  1.00  0.00    -0.243 C  
BRANCH  10  11
HETATM   11  C   UNL     1      -8.317   9.248  69.434  1.00  0.00    -0.127 A  
HETATM   12  C   UNL     1      -7.003   9.734  69.416  1.00  0.00    -0.059 A  
HETATM   13 CL   UNL     1      -6.648  11.414  69.592  1.00  0.00    -0.132 Cl 
HETATM   14  C   UNL     1      -5.929   8.860  69.205  1.00  0.00    -0.042 A  
HETATM   15  C   UNL     1      -6.149   7.495  68.990  1.00  0.00    -0.034 A  
HETATM   16  C   UNL     1      -7.447   6.978  69.030  1.00  0.00    -0.095 A  
HETATM   17  C   UNL     1      -8.510   7.863  69.297  1.00  0.00    -0.137 A  
BRANCH  16  18
HETATM   18  C   UNL     1      -7.773   5.533  68.669  1.00  0.00    -0.088 C  
HETATM   19  O   UNL     1      -8.604   5.475  67.493  1.00  0.00    -0.110 OA 
HETATM   20  C   UNL     1      -8.883   4.127  67.076  1.00  0.00    -0.119 C  
HETATM   21  H   UNL     1      -8.032   4.372  71.759  1.00  0.00     0.000 HD 
HETATM   22  C   UNL     1      -9.632   3.362  68.169  1.00  0.00    -0.094 C  
HETATM   23  O   UNL     1      -7.611   4.807  71.027  1.00  0.00    -0.072 OA 
HETATM   24  O   UNL     1      -9.877   1.993  67.814  1.00  0.00    -0.367 OA 
HETATM   25  C   UNL     1      -8.825   3.385  69.468  1.00  0.00    -0.092 C  
HETATM   26  H   UNL     1      -9.065   2.761  71.320  1.00  0.00     0.000 HD 
HETATM   27  O   UNL     1      -9.566   2.746  70.513  1.00  0.00    -0.149 OA 
HETATM   28  H   UNL     1     -10.342   1.518  68.492  1.00  0.00     0.000 HD 
HETATM   29  C   UNL     1      -8.460   4.820  69.867  1.00  0.00    -0.074 C  
BRANCH  20  30
HETATM   30  C   UNL     1      -9.715   4.179  65.785  1.00  0.00    -0.204 C  
HETATM   31  O   UNL     1      -9.630   2.927  65.108  1.00  0.00    -0.288 OA 
HETATM   32  H   UNL     1     -10.144   2.958  64.310  1.00  0.00     0.000 HD 
ENDBRANCH  20  30
ENDBRANCH  16  18
ENDBRANCH  10  11
ENDBRANCH   7  10
ENDBRANCH   3   4
ENDBRANCH   2   3
TORSDOF 6
ENDMDL
MODEL      215
REMARK 921   NORMALIZED FREE ENERGY PREDICTED BY IDOCK:   -4.04 KCAL/MOL
REMARK 922        TOTAL FREE ENERGY PREDICTED BY IDOCK:   -6.42 KCAL/MOL
REMARK 923 INTER-LIGAND FREE ENERGY PREDICTED BY IDOCK:   -5.26 KCAL/MOL
REMARK 924 INTRA-LIGAND FREE ENERGY PREDICTED BY IDOCK:   -1.16 KCAL/MOL
REMARK 927      BINDING AFFINITY PREDICTED BY RF-SCORE:    0.00 PKD
ROOT
HETATM    1  C   UNL     1      -7.015   7.428  74.522  1.00  0.00    -0.114 C  
HETATM    2  C   UNL     1      -6.433   7.094  73.161  1.00  0.00    -0.064 C  
ENDROOT
BRANCH   2   3
HETATM    3  O   UNL     1      -7.477   6.560  72.350  1.00  0.00    -0.092 OA 
BRANCH   3   4
HETATM    4  C   UNL     1      -8.234   7.456  71.647  1.00  0.00    -0.103 A  
HETATM    5  C   UNL     1      -7.863   8.759  71.319  1.00  0.00    -0.167 A  
HETATM    6  C   UNL     1      -8.731   9.574  70.585  1.00  0.00    -0.189 A  
HETATM    7  C   UNL     1      -9.982   9.102  70.166  1.00  0.00    -0.231 A  
HETATM    8  C   UNL     1      -9.485   6.986  71.246  1.00  0.00    -0.164 A  
HETATM    9  C   UNL     1     -10.355   7.799  70.513  1.00  0.00    -0.205 A  
BRANCH   7  10
HETATM   10  C   UNL     1     -10.924  10.023  69.431  1.00  0.00    -0.280 C  
BRANCH  10  11
HETATM   11  C   UNL     1     -10.398  10.671  68.169  1.00  0.00    -0.203 A  
HETATM   12  C   UNL     1     -10.072   9.954  67.010  1.00  0.00    -0.218 A  
HETATM   13 CL   UNL     1     -10.404   8.267  66.857  1.00  0.00    -0.391 Cl 
HETATM   14  C   UNL     1      -9.414  10.587  65.948  1.00  0.00    -0.236 A  
HETATM   15  C   UNL     1      -9.056  11.937  66.031  1.00  0.00    -0.120 A  
HETATM   16  C   UNL     1      -9.394  12.685  67.164  1.00  0.00    -0.210 A  
HETATM   17  C   UNL     1     -10.102  12.045  68.199  1.00  0.00    -0.200 A  
BRANCH  16  18
HETATM   18  C   UNL     1      -8.916  14.116  67.382  1.00  0.00    -0.202 C  
HETATM   19  O   UNL     1      -9.682  15.039  66.585  1.00  0.00    -0.237 OA 
HETATM   20  C   UNL     1      -9.309  16.410  66.809  1.00  0.00    -0.245 C  
HETATM   21  H   UNL     1      -5.690  13.440  67.702  1.00  0.00     0.000 HD 
HETATM   22  C   UNL     1      -7.841  16.643  66.444  1.00  0.00    -0.312 C  
HETATM   23  O   UNL     1      -6.616  13.369  67.900  1.00  0.00    -0.114 OA 
HETATM   24  O   UNL     1      -7.414  17.986  66.710  1.00  0.00    -0.195 OA 
HETATM   25  C   UNL     1      -6.948  15.687  67.238  1.00  0.00    -0.189 C  
HETATM   26  H   UNL     1      -5.030  15.250  67.324  1.00  0.00     0.000 HD 
HETATM   27  O   UNL     1      -5.585  15.844  66.831  1.00  0.00    -0.290 OA 
HETATM   28  H   UNL     1      -6.502  18.131  66.483  1.00  0.00     0.000 HD 
HETATM   29  C   UNL     1      -7.399  14.232  67.059  1.00  0.00     0.378 C  
BRANCH  20  30
HETATM   30  C   UNL     1     -10.225  17.309  65.964  1.00  0.00    -0.304 C  
HETATM   31  O   UNL     1     -10.755  18.354  66.777  1.00  0.00    -0.357 OA 
HETATM   32  H   UNL     1     -11.322  18.910  66.255  1.00  0.00     0.000 HD 
ENDBRANCH  20  30
ENDBRANCH  16  18
ENDBRANCH  10  11
ENDBRANCH   7  10
ENDBRANCH   3   4
ENDBRANCH   2   3
TORSDOF 6
ENDMDL
MODEL      216
REMARK 921   NORMALIZED FREE ENERGY PREDICTED BY IDOCK:   -4.00 KCAL/MOL
REMARK 922        TOTAL FREE ENERGY PREDICTED BY IDOCK:   -6.37 KCAL/MOL
REMARK 923 INTER-LIGAND FREE ENERGY PREDICTED BY IDOCK:   -5.45 KCAL/MOL
REMARK 924 INTRA-LIGAND FREE ENERGY PREDICTED BY IDOCK:   -0.92 KCAL/MOL
REMARK 927      BINDING AFFINITY PREDICTED BY RF-SCORE:    0.00 PKD
ROOT
HETATM    1  C   UNL     1     -11.668  14.084  68.142  1.00  0.00    -0.387 C  
HETATM    2  C   UNL     1     -11.309  12.657  67.771  1.00  0.00    -0.297 C  
ENDROOT
BRANCH   2   3
HETATM    3  O   UNL     1     -12.248  11.785  68.398  1.00  0.00    -0.467 OA 
BRANCH   3   4
HETATM    4  C   UNL     1     -11.756  10.914  69.329  1.00  0.00    -0.324 A  
HETATM    5  C   UNL     1     -10.511  10.292  69.289  1.00  0.00    -0.250 A  
HETATM    6  C   UNL     1     -10.124   9.424  70.316  1.00  0.00    -0.288 A  
HETATM    7  C   UNL     1     -10.974   9.163  71.398  1.00  0.00    -0.414 A  
HETATM    8  C   UNL     1     -12.614  10.647  70.398  1.00  0.00    -0.395 A  
HETATM    9  C   UNL     1     -12.231   9.779  71.425  1.00  0.00    -0.486 A  
BRANCH   7  10
HETATM   10  C   UNL     1     -10.557   8.174  72.459  1.00  0.00    -0.411 C  
BRANCH  10  11
HETATM   11  C   UNL     1      -9.350   7.315  72.153  1.00  0.00    -0.156 A  
HETATM   12  C   UNL     1      -8.141   7.403  72.855  1.00  0.00    -0.108 A  
HETATM   13 CL   UNL     1      -7.969   8.394  74.258  1.00  0.00    -0.284 Cl 
HETATM   14  C   UNL     1      -7.008   6.717  72.400  1.00  0.00    -0.068 A  
HETATM   15  C   UNL     1      -7.058   5.947  71.233  1.00  0.00    -0.073 A  
HETATM   16  C   UNL     1      -8.258   5.817  70.528  1.00  0.00    -0.118 A  
HETATM   17  C   UNL     1      -9.401   6.472  71.029  1.00  0.00    -0.164 A  
BRANCH  16  18
HETATM   18  C   UNL     1      -8.354   5.113  69.179  1.00  0.00    -0.087 C  
HETATM   19  O   UNL     1      -7.907   3.748  69.282  1.00  0.00    -0.052 OA 
HETATM   20  C   UNL     1      -8.042   3.025  68.046  1.00  0.00    -0.077 C  
HETATM   21  H   UNL     1      -7.510   7.701  67.292  1.00  0.00     0.000 HD 
HETATM   22  C   UNL     1      -7.200   3.669  66.942  1.00  0.00    -0.064 C  
HETATM   23  O   UNL     1      -8.013   7.229  67.945  1.00  0.00    -0.115 OA 
HETATM   24  O   UNL     1      -7.354   3.011  65.676  1.00  0.00    -0.069 OA 
HETATM   25  C   UNL     1      -7.598   5.136  66.773  1.00  0.00    -0.088 C  
HETATM   26  H   UNL     1      -6.997   6.673  65.699  1.00  0.00     0.000 HD 
HETATM   27  O   UNL     1      -6.750   5.762  65.804  1.00  0.00    -0.049 OA 
HETATM   28  H   UNL     1      -6.831   3.411  64.991  1.00  0.00     0.000 HD 
HETATM   29  C   UNL     1      -7.530   5.885  68.110  1.00  0.00    -0.081 C  
BRANCH  20  30
HETATM   30  C   UNL     1      -7.602   1.571  68.281  1.00  0.00    -0.046 C  
HETATM   31  O   UNL     1      -6.560   1.535  69.254  1.00  0.00    -0.028 OA 
HETATM   32  H   UNL     1      -6.288   0.637  69.399  1.00  0.00     0.000 HD 
ENDBRANCH  20  30
ENDBRANCH  16  18
ENDBRANCH  10  11
ENDBRANCH   7  10
ENDBRANCH   3   4
ENDBRANCH   2   3
TORSDOF 6
ENDMDL
MODEL      217
REMARK 921   NORMALIZED FREE ENERGY PREDICTED BY IDOCK:   -3.98 KCAL/MOL
REMARK 922        TOTAL FREE ENERGY PREDICTED BY IDOCK:   -6.34 KCAL/MOL
REMARK 923 INTER-LIGAND FREE ENERGY PREDICTED BY IDOCK:   -5.19 KCAL/MOL
REMARK 924 INTRA-LIGAND FREE ENERGY PREDICTED BY IDOCK:   -1.15 KCAL/MOL
REMARK 927      BINDING AFFINITY PREDICTED BY RF-SCORE:    0.00 PKD
ROOT
HETATM    1  C   UNL     1     -10.983   3.887  64.426  1.00  0.00    -0.046 C  
HETATM    2  C   UNL     1     -10.044   4.449  65.478  1.00  0.00    -0.236 C  
ENDROOT
BRANCH   2   3
HETATM    3  O   UNL     1     -10.825   4.848  66.603  1.00  0.00    -0.142 OA 
BRANCH   3   4
HETATM    4  C   UNL     1     -10.306   5.831  67.399  1.00  0.00    -0.225 A  
HETATM    5  C   UNL     1     -10.905   7.057  67.680  1.00  0.00    -0.312 A  
HETATM    6  C   UNL     1     -10.267   7.975  68.521  1.00  0.00    -0.231 A  
HETATM    7  C   UNL     1      -9.023   7.685  69.094  1.00  0.00    -0.135 A  
HETATM    8  C   UNL     1      -9.058   5.542  67.955  1.00  0.00    -0.110 A  
HETATM    9  C   UNL     1      -8.418   6.458  68.795  1.00  0.00    -0.121 A  
BRANCH   7  10
HETATM   10  C   UNL     1      -8.328   8.719  69.946  1.00  0.00    -0.125 C  
BRANCH  10  11
HETATM   11  C   UNL     1      -7.693   9.885  69.220  1.00  0.00    -0.109 A  
HETATM   12  C   UNL     1      -6.766  10.752  69.812  1.00  0.00    -0.139 A  
HETATM   13 CL   UNL     1      -6.130  10.469  71.392  1.00  0.00     0.259 Cl 
HETATM   14  C   UNL     1      -6.362  11.917  69.147  1.00  0.00    -0.092 A  
HETATM   15  C   UNL     1      -6.887  12.242  67.892  1.00  0.00    -0.093 A  
HETATM   16  C   UNL     1      -7.791  11.381  67.263  1.00  0.00    -0.149 A  
HETATM   17  C   UNL     1      -8.146  10.188  67.924  1.00  0.00    -0.109 A  
BRANCH  16  18
HETATM   18  C   UNL     1      -8.508  11.737  65.966  1.00  0.00     0.126 C  
HETATM   19  O   UNL     1      -9.899  12.019  66.210  1.00  0.00    -0.220 OA 
HETATM   20  C   UNL     1     -10.601  12.425  65.022  1.00  0.00    -0.298 C  
HETATM   21  H   UNL     1      -6.871   9.642  63.991  1.00  0.00     0.000 HD 
HETATM   22  C   UNL     1     -10.566  11.320  63.964  1.00  0.00    -0.386 C  
HETATM   23  O   UNL     1      -6.967  10.345  64.623  1.00  0.00    -0.111 OA 
HETATM   24  O   UNL     1     -11.206  11.709  62.740  1.00  0.00    -0.529 OA 
HETATM   25  C   UNL     1      -9.117  10.942  63.651  1.00  0.00    -0.186 C  
HETATM   26  H   UNL     1      -8.188   9.613  62.535  1.00  0.00     0.000 HD 
HETATM   27  O   UNL     1      -9.088   9.848  62.729  1.00  0.00    -0.252 OA 
HETATM   28  H   UNL     1     -11.185  11.022  62.083  1.00  0.00     0.000 HD 
HETATM   29  C   UNL     1      -8.350  10.588  64.931  1.00  0.00    -0.135 C  
BRANCH  20  30
HETATM   30  C   UNL     1     -12.051  12.763  65.403  1.00  0.00    -0.462 C  
HETATM   31  O   UNL     1     -12.607  13.652  64.437  1.00  0.00    -0.624 OA 
HETATM   32  H   UNL     1     -13.503  13.861  64.672  1.00  0.00     0.000 HD 
ENDBRANCH  20  30
ENDBRANCH  16  18
ENDBRANCH  10  11
ENDBRANCH   7  10
ENDBRANCH   3   4
ENDBRANCH   2   3
TORSDOF 6
ENDMDL
MODEL      218
REMARK 921   NORMALIZED FREE ENERGY PREDICTED BY IDOCK:   -3.98 KCAL/MOL
REMARK 922        TOTAL FREE ENERGY PREDICTED BY IDOCK:   -6.34 KCAL/MOL
REMARK 923 INTER-LIGAND FREE ENERGY PREDICTED BY IDOCK:   -5.73 KCAL/MOL
REMARK 924 INTRA-LIGAND FREE ENERGY PREDICTED BY IDOCK:   -0.61 KCAL/MOL
REMARK 927      BINDING AFFINITY PREDICTED BY RF-SCORE:    0.00 PKD
ROOT
HETATM    1  C   UNL     1     -12.609  13.539  65.324  1.00  0.00    -0.517 C  
HETATM    2  C   UNL     1     -12.083  13.923  66.695  1.00  0.00    -0.448 C  
ENDROOT
BRANCH   2   3
HETATM    3  O   UNL     1     -10.691  13.614  66.740  1.00  0.00    -0.271 OA 
BRANCH   3   4
HETATM    4  C   UNL     1     -10.303  12.639  67.616  1.00  0.00    -0.220 A  
HETATM    5  C   UNL     1      -9.003  12.168  67.791  1.00  0.00    -0.179 A  
HETATM    6  C   UNL     1      -8.738  11.167  68.732  1.00  0.00    -0.130 A  
HETATM    7  C   UNL     1      -9.766  10.620  69.512  1.00  0.00    -0.085 A  
HETATM    8  C   UNL     1     -11.333  12.087  68.380  1.00  0.00    -0.332 A  
HETATM    9  C   UNL     1     -11.071  11.086  69.319  1.00  0.00    -0.312 A  
BRANCH   7  10
HETATM   10  C   UNL     1      -9.462   9.497  70.474  1.00  0.00    -0.306 C  
BRANCH  10  11
HETATM   11  C   UNL     1      -9.920   8.113  70.070  1.00  0.00    -0.192 A  
HETATM   12  C   UNL     1     -10.756   7.314  70.862  1.00  0.00    -0.234 A  
HETATM   13 CL   UNL     1     -11.484   7.908  72.309  1.00  0.00    -0.371 Cl 
HETATM   14  C   UNL     1     -10.987   5.976  70.518  1.00  0.00    -0.388 A  
HETATM   15  C   UNL     1     -10.376   5.410  69.394  1.00  0.00    -0.339 A  
HETATM   16  C   UNL     1      -9.560   6.190  68.570  1.00  0.00    -0.127 A  
HETATM   17  C   UNL     1      -9.382   7.548  68.901  1.00  0.00    -0.142 A  
BRANCH  16  18
HETATM   18  C   UNL     1      -8.754   5.609  67.414  1.00  0.00    -0.107 C  
HETATM   19  O   UNL     1      -8.385   6.640  66.478  1.00  0.00    -0.110 OA 
HETATM   20  C   UNL     1      -7.567   6.148  65.403  1.00  0.00    -0.087 C  
HETATM   21  H   UNL     1     -10.367   2.726  67.182  1.00  0.00     0.000 HD 
HETATM   22  C   UNL     1      -8.309   5.081  64.596  1.00  0.00    -0.141 C  
HETATM   23  O   UNL     1      -9.874   3.413  67.614  1.00  0.00    -0.078 OA 
HETATM   24  O   UNL     1      -7.504   4.522  63.548  1.00  0.00    -0.053 OA 
HETATM   25  C   UNL     1      -8.756   3.946  65.518  1.00  0.00    -0.116 C  
HETATM   26  H   UNL     1      -9.806   2.288  65.352  1.00  0.00     0.000 HD 
HETATM   27  O   UNL     1      -9.528   2.993  64.779  1.00  0.00    -0.149 OA 
HETATM   28  H   UNL     1      -7.965   3.859  63.047  1.00  0.00     0.000 HD 
HETATM   29  C   UNL     1      -9.562   4.484  66.707  1.00  0.00    -0.190 C  
BRANCH  20  30
HETATM   30  C   UNL     1      -7.177   7.332  64.504  1.00  0.00    -0.070 C  
HETATM   31  O   UNL     1      -5.783   7.275  64.211  1.00  0.00    -0.032 OA 
HETATM   32  H   UNL     1      -5.542   8.007  63.656  1.00  0.00     0.000 HD 
ENDBRANCH  20  30
ENDBRANCH  16  18
ENDBRANCH  10  11
ENDBRANCH   7  10
ENDBRANCH   3   4
ENDBRANCH   2   3
TORSDOF 6
ENDMDL
MODEL      219
REMARK 921   NORMALIZED FREE ENERGY PREDICTED BY IDOCK:   -3.96 KCAL/MOL
REMARK 922        TOTAL FREE ENERGY PREDICTED BY IDOCK:   -6.32 KCAL/MOL
REMARK 923 INTER-LIGAND FREE ENERGY PREDICTED BY IDOCK:   -5.08 KCAL/MOL
REMARK 924 INTRA-LIGAND FREE ENERGY PREDICTED BY IDOCK:   -1.24 KCAL/MOL
REMARK 927      BINDING AFFINITY PREDICTED BY RF-SCORE:    0.00 PKD
ROOT
HETATM    1  C   UNL     1     -10.862  16.853  68.343  1.00  0.00    -0.347 C  
HETATM    2  C   UNL     1     -10.810  15.396  68.764  1.00  0.00    -0.252 C  
ENDROOT
BRANCH   2   3
HETATM    3  O   UNL     1     -11.785  14.680  68.009  1.00  0.00    -0.330 OA 
BRANCH   3   4
HETATM    4  C   UNL     1     -11.387  13.498  67.448  1.00  0.00    -0.311 A  
HETATM    5  C   UNL     1     -10.688  13.357  66.251  1.00  0.00    -0.290 A  
HETATM    6  C   UNL     1     -10.332  12.085  65.790  1.00  0.00    -0.289 A  
HETATM    7  C   UNL     1     -10.668  10.935  66.516  1.00  0.00    -0.270 A  
HETATM    8  C   UNL     1     -11.738  12.355  68.168  1.00  0.00    -0.408 A  
HETATM    9  C   UNL     1     -11.385  11.082  67.709  1.00  0.00    -0.365 A  
BRANCH   7  10
HETATM   10  C   UNL     1     -10.328   9.572  65.964  1.00  0.00    -0.130 C  
BRANCH  10  11
HETATM   11  C   UNL     1      -9.171   8.844  66.611  1.00  0.00    -0.215 A  
HETATM   12  C   UNL     1      -7.883   8.796  66.061  1.00  0.00    -0.105 A  
HETATM   13 CL   UNL     1      -7.452   9.714  64.664  1.00  0.00    -0.117 Cl 
HETATM   14  C   UNL     1      -6.910   7.952  66.611  1.00  0.00    -0.071 A  
HETATM   15  C   UNL     1      -7.210   7.131  67.703  1.00  0.00    -0.091 A  
HETATM   16  C   UNL     1      -8.478   7.178  68.291  1.00  0.00    -0.124 A  
HETATM   17  C   UNL     1      -9.427   8.072  67.758  1.00  0.00    -0.166 A  
BRANCH  16  18
HETATM   18  C   UNL     1      -8.918   6.217  69.389  1.00  0.00    -0.128 C  
HETATM   19  O   UNL     1      -8.124   6.400  70.577  1.00  0.00    -0.113 OA 
HETATM   20  C   UNL     1      -8.547   5.558  71.664  1.00  0.00    -0.132 C  
HETATM   21  H   UNL     1      -9.618   3.636  67.436  1.00  0.00     0.000 HD 
HETATM   22  C   UNL     1      -8.423   4.080  71.289  1.00  0.00    -0.081 C  
HETATM   23  O   UNL     1      -9.673   4.533  67.743  1.00  0.00    -0.161 OA 
HETATM   24  O   UNL     1      -8.892   3.207  72.327  1.00  0.00    -0.084 OA 
HETATM   25  C   UNL     1      -9.227   3.795  70.019  1.00  0.00    -0.150 C  
HETATM   26  H   UNL     1      -9.537   2.256  68.831  1.00  0.00     0.000 HD 
HETATM   27  O   UNL     1      -9.038   2.433  69.619  1.00  0.00    -0.093 OA 
HETATM   28  H   UNL     1      -8.815   2.289  72.094  1.00  0.00     0.000 HD 
HETATM   29  C   UNL     1      -8.829   4.749  68.886  1.00  0.00    -0.094 C  
BRANCH  20  30
HETATM   30  C   UNL     1      -7.683   5.878  72.894  1.00  0.00    -0.100 C  
HETATM   31  O   UNL     1      -6.678   4.879  73.048  1.00  0.00    -0.061 OA 
HETATM   32  H   UNL     1      -6.144   5.076  73.808  1.00  0.00     0.000 HD 
ENDBRANCH  20  30
ENDBRANCH  16  18
ENDBRANCH  10  11
ENDBRANCH   7  10
ENDBRANCH   3   4
ENDBRANCH   2   3
TORSDOF 6
ENDMDL
MODEL      220
REMARK 921   NORMALIZED FREE ENERGY PREDICTED BY IDOCK:   -3.94 KCAL/MOL
REMARK 922        TOTAL FREE ENERGY PREDICTED BY IDOCK:   -6.28 KCAL/MOL
REMARK 923 INTER-LIGAND FREE ENERGY PREDICTED BY IDOCK:   -5.49 KCAL/MOL
REMARK 924 INTRA-LIGAND FREE ENERGY PREDICTED BY IDOCK:   -0.79 KCAL/MOL
REMARK 927      BINDING AFFINITY PREDICTED BY RF-SCORE:    0.00 PKD
ROOT
HETATM    1  C   UNL     1     -10.855  15.343  69.540  1.00  0.00    -0.268 C  
HETATM    2  C   UNL     1     -12.155  14.798  68.979  1.00  0.00    -0.221 C  
ENDROOT
BRANCH   2   3
HETATM    3  O   UNL     1     -12.021  14.701  67.562  1.00  0.00    -0.375 OA 
BRANCH   3   4
HETATM    4  C   UNL     1     -11.479  13.546  67.070  1.00  0.00    -0.340 A  
HETATM    5  C   UNL     1     -11.444  12.316  67.725  1.00  0.00    -0.392 A  
HETATM    6  C   UNL     1     -10.864  11.205  67.104  1.00  0.00    -0.326 A  
HETATM    7  C   UNL     1     -10.310  11.303  65.821  1.00  0.00    -0.310 A  
HETATM    8  C   UNL     1     -10.915  13.653  65.798  1.00  0.00    -0.281 A  
HETATM    9  C   UNL     1     -10.333  12.545  65.175  1.00  0.00    -0.312 A  
BRANCH   7  10
HETATM   10  C   UNL     1      -9.634  10.104  65.201  1.00  0.00    -0.354 C  
BRANCH  10  11
HETATM   11  C   UNL     1      -8.707   9.308  66.093  1.00  0.00    -0.169 A  
HETATM   12  C   UNL     1      -7.638   9.876  66.799  1.00  0.00    -0.095 A  
HETATM   13 CL   UNL     1      -7.380  11.582  66.850  1.00  0.00    -0.146 Cl 
HETATM   14  C   UNL     1      -6.709   9.057  67.453  1.00  0.00    -0.069 A  
HETATM   15  C   UNL     1      -6.819   7.664  67.398  1.00  0.00    -0.069 A  
HETATM   16  C   UNL     1      -7.891   7.070  66.725  1.00  0.00    -0.107 A  
HETATM   17  C   UNL     1      -8.846   7.910  66.118  1.00  0.00    -0.197 A  
BRANCH  16  18
HETATM   18  C   UNL     1      -7.999   5.565  66.506  1.00  0.00    -0.101 C  
HETATM   19  O   UNL     1      -8.796   5.273  65.342  1.00  0.00    -0.151 OA 
HETATM   20  C   UNL     1      -8.870   3.865  65.058  1.00  0.00    -0.126 C  
HETATM   21  H   UNL     1      -8.132   4.683  69.695  1.00  0.00     0.000 HD 
HETATM   22  C   UNL     1      -9.516   3.108  66.220  1.00  0.00    -0.038 C  
HETATM   23  O   UNL     1      -7.769   5.102  68.924  1.00  0.00    -0.079 OA 
HETATM   24  O   UNL     1      -9.556   1.690  66.000  1.00  0.00    -0.327 OA 
HETATM   25  C   UNL     1      -8.741   3.374  67.511  1.00  0.00    -0.116 C  
HETATM   26  H   UNL     1      -8.915   2.903  69.415  1.00  0.00     0.000 HD 
HETATM   27  O   UNL     1      -9.397   2.738  68.613  1.00  0.00    -0.168 OA 
HETATM   28  H   UNL     1      -9.957   1.220  66.722  1.00  0.00     0.000 HD 
HETATM   29  C   UNL     1      -8.594   4.879  67.768  1.00  0.00    -0.103 C  
BRANCH  20  30
HETATM   30  C   UNL     1      -9.683   3.670  63.768  1.00  0.00    -0.157 C  
HETATM   31  O   UNL     1      -9.552   2.323  63.317  1.00  0.00    -0.092 OA 
HETATM   32  H   UNL     1     -10.054   2.202  62.520  1.00  0.00     0.000 HD 
ENDBRANCH  20  30
ENDBRANCH  16  18
ENDBRANCH  10  11
ENDBRANCH   7  10
ENDBRANCH   3   4
ENDBRANCH   2   3
TORSDOF 6
ENDMDL
MODEL      221
REMARK 921   NORMALIZED FREE ENERGY PREDICTED BY IDOCK:   -3.92 KCAL/MOL
REMARK 922        TOTAL FREE ENERGY PREDICTED BY IDOCK:   -6.26 KCAL/MOL
REMARK 923 INTER-LIGAND FREE ENERGY PREDICTED BY IDOCK:   -5.70 KCAL/MOL
REMARK 924 INTRA-LIGAND FREE ENERGY PREDICTED BY IDOCK:   -0.56 KCAL/MOL
REMARK 927      BINDING AFFINITY PREDICTED BY RF-SCORE:    0.00 PKD
ROOT
HETATM    1  C   UNL     1     -10.492  17.664  67.319  1.00  0.00    -0.338 C  
HETATM    2  C   UNL     1      -9.865  16.411  67.900  1.00  0.00    -0.238 C  
ENDROOT
BRANCH   2   3
HETATM    3  O   UNL     1      -9.354  15.629  66.822  1.00  0.00    -0.220 OA 
BRANCH   3   4
HETATM    4  C   UNL     1      -9.555  14.279  66.887  1.00  0.00    -0.262 A  
HETATM    5  C   UNL     1      -9.078  13.428  67.882  1.00  0.00    -0.208 A  
HETATM    6  C   UNL     1      -9.364  12.060  67.836  1.00  0.00    -0.190 A  
HETATM    7  C   UNL     1     -10.131  11.519  66.796  1.00  0.00    -0.245 A  
HETATM    8  C   UNL     1     -10.307  13.742  65.840  1.00  0.00    -0.315 A  
HETATM    9  C   UNL     1     -10.594  12.375  65.790  1.00  0.00    -0.288 A  
BRANCH   7  10
HETATM   10  C   UNL     1     -10.371  10.029  66.736  1.00  0.00    -0.283 C  
BRANCH  10  11
HETATM   11  C   UNL     1      -9.290   9.142  67.312  1.00  0.00    -0.166 A  
HETATM   12  C   UNL     1      -8.197   8.674  66.570  1.00  0.00    -0.107 A  
HETATM   13 CL   UNL     1      -7.890   9.211  64.959  1.00  0.00    -0.108 Cl 
HETATM   14  C   UNL     1      -7.338   7.707  67.110  1.00  0.00    -0.091 A  
HETATM   15  C   UNL     1      -7.565   7.180  68.385  1.00  0.00    -0.118 A  
HETATM   16  C   UNL     1      -8.632   7.648  69.159  1.00  0.00    -0.139 A  
HETATM   17  C   UNL     1      -9.453   8.659  68.622  1.00  0.00    -0.144 A  
BRANCH  16  18
HETATM   18  C   UNL     1      -9.021   7.024  70.494  1.00  0.00    -0.155 C  
HETATM   19  O   UNL     1      -9.396   5.644  70.324  1.00  0.00    -0.147 OA 
HETATM   20  C   UNL     1      -9.708   4.995  71.569  1.00  0.00    -0.169 C  
HETATM   21  H   UNL     1     -10.495   9.690  71.793  1.00  0.00     0.000 HD 
HETATM   22  C   UNL     1     -10.891   5.678  72.258  1.00  0.00    -0.242 C  
HETATM   23  O   UNL     1      -9.789   9.196  71.393  1.00  0.00    -0.298 OA 
HETATM   24  O   UNL     1     -11.197   5.096  73.534  1.00  0.00    -0.384 OA 
HETATM   25  C   UNL     1     -10.587   7.162  72.467  1.00  0.00    -0.240 C  
HETATM   26  H   UNL     1     -11.538   8.741  73.160  1.00  0.00     0.000 HD 
HETATM   27  O   UNL     1     -11.727   7.819  73.030  1.00  0.00    -0.277 OA 
HETATM   28  H   UNL     1     -11.932   5.520  73.962  1.00  0.00     0.000 HD 
HETATM   29  C   UNL     1     -10.176   7.833  71.150  1.00  0.00    -0.195 C  
BRANCH  20  30
HETATM   30  C   UNL     1     -10.029   3.519  71.283  1.00  0.00    -0.052 C  
HETATM   31  O   UNL     1      -9.002   2.953  70.471  1.00  0.00    -0.081 OA 
HETATM   32  H   UNL     1      -9.200   2.041  70.294  1.00  0.00     0.000 HD 
ENDBRANCH  20  30
ENDBRANCH  16  18
ENDBRANCH  10  11
ENDBRANCH   7  10
ENDBRANCH   3   4
ENDBRANCH   2   3
TORSDOF 6
ENDMDL
MODEL      222
REMARK 921   NORMALIZED FREE ENERGY PREDICTED BY IDOCK:   -3.88 KCAL/MOL
REMARK 922        TOTAL FREE ENERGY PREDICTED BY IDOCK:   -6.21 KCAL/MOL
REMARK 923 INTER-LIGAND FREE ENERGY PREDICTED BY IDOCK:   -5.74 KCAL/MOL
REMARK 924 INTRA-LIGAND FREE ENERGY PREDICTED BY IDOCK:   -0.47 KCAL/MOL
REMARK 927      BINDING AFFINITY PREDICTED BY RF-SCORE:    0.00 PKD
ROOT
HETATM    1  C   UNL     1     -10.653  20.039  66.784  1.00  0.00    -0.454 C  
HETATM    2  C   UNL     1     -10.673  18.911  65.769  1.00  0.00    -0.243 C  
ENDROOT
BRANCH   2   3
HETATM    3  O   UNL     1      -9.375  18.321  65.734  1.00  0.00    -0.460 OA 
BRANCH   3   4
HETATM    4  C   UNL     1      -9.218  17.132  66.390  1.00  0.00    -0.258 A  
HETATM    5  C   UNL     1      -9.051  15.884  65.793  1.00  0.00    -0.188 A  
HETATM    6  C   UNL     1      -8.892  14.741  66.583  1.00  0.00    -0.262 A  
HETATM    7  C   UNL     1      -8.898  14.824  67.981  1.00  0.00    -0.169 A  
HETATM    8  C   UNL     1      -9.240  17.219  67.784  1.00  0.00    -0.239 A  
HETATM    9  C   UNL     1      -9.084  16.078  68.576  1.00  0.00    -0.203 A  
BRANCH   7  10
HETATM   10  C   UNL     1      -8.789  13.567  68.809  1.00  0.00     0.104 C  
BRANCH  10  11
HETATM   11  C   UNL     1      -9.607  12.378  68.353  1.00  0.00    -0.180 A  
HETATM   12  C   UNL     1     -10.979  12.443  68.078  1.00  0.00    -0.225 A  
HETATM   13 CL   UNL     1     -11.839  13.940  68.073  1.00  0.00    -0.396 Cl 
HETATM   14  C   UNL     1     -11.709  11.271  67.844  1.00  0.00    -0.289 A  
HETATM   15  C   UNL     1     -11.089  10.018  67.898  1.00  0.00    -0.260 A  
HETATM   16  C   UNL     1      -9.715   9.924  68.142  1.00  0.00    -0.161 A  
HETATM   17  C   UNL     1      -8.987  11.117  68.322  1.00  0.00    -0.166 A  
BRANCH  16  18
HETATM   18  C   UNL     1      -9.001   8.594  68.353  1.00  0.00    -0.142 C  
HETATM   19  O   UNL     1      -8.937   7.848  67.122  1.00  0.00    -0.125 OA 
HETATM   20  C   UNL     1      -8.212   6.613  67.259  1.00  0.00    -0.121 C  
HETATM   21  H   UNL     1     -10.157   7.971  71.393  1.00  0.00     0.000 HD 
HETATM   22  C   UNL     1      -8.886   5.696  68.282  1.00  0.00    -0.108 C  
HETATM   23  O   UNL     1      -9.721   8.474  70.715  1.00  0.00    -0.170 OA 
HETATM   24  O   UNL     1      -8.160   4.476  68.491  1.00  0.00    -0.082 OA 
HETATM   25  C   UNL     1      -9.012   6.417  69.625  1.00  0.00    -0.137 C  
HETATM   26  H   UNL     1      -9.800   6.040  71.390  1.00  0.00     0.000 HD 
HETATM   27  O   UNL     1      -9.721   5.592  70.556  1.00  0.00    -0.167 OA 
HETATM   28  H   UNL     1      -8.578   3.906  69.127  1.00  0.00     0.000 HD 
HETATM   29  C   UNL     1      -9.714   7.771  69.462  1.00  0.00    -0.165 C  
BRANCH  20  30
HETATM   30  C   UNL     1      -8.147   5.931  65.883  1.00  0.00    -0.118 C  
HETATM   31  O   UNL     1      -8.751   6.771  64.901  1.00  0.00    -0.354 OA 
HETATM   32  H   UNL     1      -8.711   6.349  64.051  1.00  0.00     0.000 HD 
ENDBRANCH  20  30
ENDBRANCH  16  18
ENDBRANCH  10  11
ENDBRANCH   7  10
ENDBRANCH   3   4
ENDBRANCH   2   3
TORSDOF 6
ENDMDL
MODEL      223
REMARK 921   NORMALIZED FREE ENERGY PREDICTED BY IDOCK:   -3.88 KCAL/MOL
REMARK 922        TOTAL FREE ENERGY PREDICTED BY IDOCK:   -6.21 KCAL/MOL
REMARK 923 INTER-LIGAND FREE ENERGY PREDICTED BY IDOCK:   -5.40 KCAL/MOL
REMARK 924 INTRA-LIGAND FREE ENERGY PREDICTED BY IDOCK:   -0.81 KCAL/MOL
REMARK 927      BINDING AFFINITY PREDICTED BY RF-SCORE:    0.00 PKD
ROOT
HETATM    1  C   UNL     1     -14.408  15.703  71.470  1.00  0.00    -0.261 C  
HETATM    2  C   UNL     1     -14.204  14.510  72.386  1.00  0.00    -0.378 C  
ENDROOT
BRANCH   2   3
HETATM    3  O   UNL     1     -12.803  14.273  72.503  1.00  0.00    -0.365 OA 
BRANCH   3   4
HETATM    4  C   UNL     1     -12.082  14.247  71.341  1.00  0.00    -0.279 A  
HETATM    5  C   UNL     1     -11.177  15.219  70.919  1.00  0.00    -0.367 A  
HETATM    6  C   UNL     1     -10.496  15.067  69.707  1.00  0.00    -0.204 A  
HETATM    7  C   UNL     1     -10.706  13.943  68.897  1.00  0.00    -0.256 A  
HETATM    8  C   UNL     1     -12.306  13.132  70.531  1.00  0.00    -0.380 A  
HETATM    9  C   UNL     1     -11.628  12.979  69.319  1.00  0.00    -0.367 A  
BRANCH   7  10
HETATM   10  C   UNL     1     -10.006  13.836  67.564  1.00  0.00    -0.233 C  
BRANCH  10  11
HETATM   11  C   UNL     1      -8.835  12.882  67.485  1.00  0.00    -0.192 A  
HETATM   12  C   UNL     1      -7.505  13.300  67.338  1.00  0.00    -0.124 A  
HETATM   13 CL   UNL     1      -7.059  14.966  67.403  1.00  0.00    -0.220 Cl 
HETATM   14  C   UNL     1      -6.495  12.364  67.082  1.00  0.00    -0.097 A  
HETATM   15  C   UNL     1      -6.794  11.004  66.952  1.00  0.00    -0.121 A  
HETATM   16  C   UNL     1      -8.107  10.554  67.122  1.00  0.00    -0.120 A  
HETATM   17  C   UNL     1      -9.102  11.503  67.432  1.00  0.00    -0.166 A  
BRANCH  16  18
HETATM   18  C   UNL     1      -8.529   9.114  66.858  1.00  0.00    -0.123 C  
HETATM   19  O   UNL     1      -8.081   8.247  67.918  1.00  0.00    -0.123 OA 
HETATM   20  C   UNL     1      -8.514   6.887  67.744  1.00  0.00    -0.123 C  
HETATM   21  H   UNL     1      -8.144   9.157  63.569  1.00  0.00     0.000 HD 
HETATM   22  C   UNL     1      -7.958   6.299  66.445  1.00  0.00    -0.109 C  
HETATM   23  O   UNL     1      -8.479   9.449  64.409  1.00  0.00    -0.162 OA 
HETATM   24  O   UNL     1      -8.416   4.960  66.205  1.00  0.00    -0.111 OA 
HETATM   25  C   UNL     1      -8.373   7.170  65.258  1.00  0.00    -0.096 C  
HETATM   26  H   UNL     1      -8.037   7.212  63.319  1.00  0.00     0.000 HD 
HETATM   27  O   UNL     1      -7.779   6.671  64.056  1.00  0.00    -0.102 OA 
HETATM   28  H   UNL     1      -8.070   4.596  65.398  1.00  0.00     0.000 HD 
HETATM   29  C   UNL     1      -7.981   8.636  65.484  1.00  0.00    -0.108 C  
BRANCH  20  30
HETATM   30  C   UNL     1      -8.042   6.065  68.954  1.00  0.00    -0.104 C  
HETATM   31  O   UNL     1      -9.127   5.294  69.464  1.00  0.00    -0.108 OA 
HETATM   32  H   UNL     1      -8.836   4.786  70.212  1.00  0.00     0.000 HD 
ENDBRANCH  20  30
ENDBRANCH  16  18
ENDBRANCH  10  11
ENDBRANCH   7  10
ENDBRANCH   3   4
ENDBRANCH   2   3
TORSDOF 6
ENDMDL
MODEL      224
REMARK 921   NORMALIZED FREE ENERGY PREDICTED BY IDOCK:   -3.85 KCAL/MOL
REMARK 922        TOTAL FREE ENERGY PREDICTED BY IDOCK:   -6.16 KCAL/MOL
REMARK 923 INTER-LIGAND FREE ENERGY PREDICTED BY IDOCK:   -5.40 KCAL/MOL
REMARK 924 INTRA-LIGAND FREE ENERGY PREDICTED BY IDOCK:   -0.76 KCAL/MOL
REMARK 927      BINDING AFFINITY PREDICTED BY RF-SCORE:    0.00 PKD
ROOT
HETATM    1  C   UNL     1      -5.443  17.159  66.526  1.00  0.00    -0.180 C  
HETATM    2  C   UNL     1      -6.762  16.649  67.077  1.00  0.00    -0.207 C  
ENDROOT
BRANCH   2   3
HETATM    3  O   UNL     1      -6.648  15.240  67.269  1.00  0.00    -0.283 OA 
BRANCH   3   4
HETATM    4  C   UNL     1      -7.814  14.530  67.339  1.00  0.00    -0.199 A  
HETATM    5  C   UNL     1      -9.096  15.042  67.148  1.00  0.00    -0.229 A  
HETATM    6  C   UNL     1     -10.210  14.201  67.239  1.00  0.00    -0.256 A  
HETATM    7  C   UNL     1     -10.063  12.837  67.524  1.00  0.00    -0.213 A  
HETATM    8  C   UNL     1      -7.663  13.174  67.638  1.00  0.00    -0.168 A  
HETATM    9  C   UNL     1      -8.775  12.332  67.732  1.00  0.00    -0.174 A  
BRANCH   7  10
HETATM   10  C   UNL     1     -11.287  11.967  67.681  1.00  0.00    -0.372 C  
BRANCH  10  11
HETATM   11  C   UNL     1     -11.292  11.003  68.847  1.00  0.00    -0.346 A  
HETATM   12  C   UNL     1     -11.858  11.300  70.093  1.00  0.00    -0.364 A  
HETATM   13 CL   UNL     1     -12.761  12.747  70.365  1.00  0.00    -0.082 Cl 
HETATM   14  C   UNL     1     -11.662  10.441  71.181  1.00  0.00    -0.387 A  
HETATM   15  C   UNL     1     -10.887   9.284  71.050  1.00  0.00    -0.385 A  
HETATM   16  C   UNL     1     -10.333   8.947  69.811  1.00  0.00    -0.213 A  
HETATM   17  C   UNL     1     -10.585   9.795  68.715  1.00  0.00    -0.244 A  
BRANCH  16  18
HETATM   18  C   UNL     1      -9.367   7.782  69.626  1.00  0.00    -0.153 C  
HETATM   19  O   UNL     1      -9.667   6.717  70.547  1.00  0.00    -0.175 OA 
HETATM   20  C   UNL     1      -8.821   5.568  70.364  1.00  0.00    -0.131 C  
HETATM   21  H   UNL     1      -6.668   9.577  68.946  1.00  0.00     0.000 HD 
HETATM   22  C   UNL     1      -7.352   5.931  70.592  1.00  0.00    -0.085 C  
HETATM   23  O   UNL     1      -7.564   9.281  68.839  1.00  0.00    -0.074 OA 
HETATM   24  O   UNL     1      -6.468   4.824  70.361  1.00  0.00    -0.028 OA 
HETATM   25  C   UNL     1      -6.947   7.074  69.660  1.00  0.00    -0.062 C  
HETATM   26  H   UNL     1      -5.348   8.183  69.358  1.00  0.00     0.000 HD 
HETATM   27  O   UNL     1      -5.600   7.473  69.936  1.00  0.00    -0.023 OA 
HETATM   28  H   UNL     1      -5.556   5.050  70.503  1.00  0.00     0.000 HD 
HETATM   29  C   UNL     1      -7.900   8.267  69.801  1.00  0.00    -0.100 C  
BRANCH  20  30
HETATM   30  C   UNL     1      -9.266   4.473  71.346  1.00  0.00    -0.136 C  
HETATM   31  O   UNL     1      -9.203   4.970  72.681  1.00  0.00    -0.130 OA 
HETATM   32  H   UNL     1      -9.478   4.294  73.288  1.00  0.00     0.000 HD 
ENDBRANCH  20  30
ENDBRANCH  16  18
ENDBRANCH  10  11
ENDBRANCH   7  10
ENDBRANCH   3   4
ENDBRANCH   2   3
TORSDOF 6
ENDMDL
MODEL      225
REMARK 921   NORMALIZED FREE ENERGY PREDICTED BY IDOCK:   -3.85 KCAL/MOL
REMARK 922        TOTAL FREE ENERGY PREDICTED BY IDOCK:   -6.16 KCAL/MOL
REMARK 923 INTER-LIGAND FREE ENERGY PREDICTED BY IDOCK:   -4.92 KCAL/MOL
REMARK 924 INTRA-LIGAND FREE ENERGY PREDICTED BY IDOCK:   -1.24 KCAL/MOL
REMARK 927      BINDING AFFINITY PREDICTED BY RF-SCORE:    0.00 PKD
ROOT
HETATM    1  C   UNL     1      -6.131   4.318  69.919  1.00  0.00    -0.022 C  
HETATM    2  C   UNL     1      -7.523   4.880  69.697  1.00  0.00    -0.056 C  
ENDROOT
BRANCH   2   3
HETATM    3  O   UNL     1      -7.714   5.050  68.294  1.00  0.00    -0.081 OA 
BRANCH   3   4
HETATM    4  C   UNL     1      -8.584   6.029  67.903  1.00  0.00    -0.113 A  
HETATM    5  C   UNL     1      -9.907   5.838  67.510  1.00  0.00    -0.145 A  
HETATM    6  C   UNL     1     -10.697   6.932  67.140  1.00  0.00    -0.436 A  
HETATM    7  C   UNL     1     -10.178   8.234  67.157  1.00  0.00    -0.365 A  
HETATM    8  C   UNL     1      -8.058   7.322  67.907  1.00  0.00    -0.119 A  
HETATM    9  C   UNL     1      -8.844   8.417  67.537  1.00  0.00    -0.139 A  
BRANCH   7  10
HETATM   10  C   UNL     1     -11.032   9.388  66.692  1.00  0.00     0.244 C  
BRANCH  10  11
HETATM   11  C   UNL     1     -10.927  10.675  67.481  1.00  0.00    -0.371 A  
HETATM   12  C   UNL     1     -11.614  10.904  68.680  1.00  0.00    -0.303 A  
HETATM   13 CL   UNL     1     -12.523   9.663  69.464  1.00  0.00     0.819 Cl 
HETATM   14  C   UNL     1     -11.620  12.180  69.258  1.00  0.00    -0.377 A  
HETATM   15  C   UNL     1     -10.959  13.248  68.643  1.00  0.00    -0.294 A  
HETATM   16  C   UNL     1     -10.242  13.043  67.460  1.00  0.00    -0.221 A  
HETATM   17  C   UNL     1     -10.202  11.742  66.922  1.00  0.00    -0.236 A  
BRANCH  16  18
HETATM   18  C   UNL     1      -9.617  14.182  66.663  1.00  0.00    -0.289 C  
HETATM   19  O   UNL     1      -8.418  14.657  67.304  1.00  0.00    -0.189 OA 
HETATM   20  C   UNL     1      -7.757  15.690  66.552  1.00  0.00     0.117 C  
HETATM   21  H   UNL     1     -12.440  15.598  65.667  1.00  0.00     0.000 HD 
HETATM   22  C   UNL     1      -8.666  16.909  66.384  1.00  0.00    -0.286 C  
HETATM   23  O   UNL     1     -11.813  14.893  65.778  1.00  0.00    -0.257 OA 
HETATM   24  O   UNL     1      -8.065  17.940  65.587  1.00  0.00    -0.514 OA 
HETATM   25  C   UNL     1      -9.980  16.493  65.721  1.00  0.00    -0.274 C  
HETATM   26  H   UNL     1     -11.681  17.357  65.234  1.00  0.00     0.000 HD 
HETATM   27  O   UNL     1     -10.865  17.616  65.646  1.00  0.00    -0.372 OA 
HETATM   28  H   UNL     1      -8.629  18.697  65.483  1.00  0.00     0.000 HD 
HETATM   29  C   UNL     1     -10.642  15.337  66.482  1.00  0.00    -0.304 C  
BRANCH  20  30
HETATM   30  C   UNL     1      -6.464  16.077  67.286  1.00  0.00    -0.165 C  
HETATM   31  O   UNL     1      -6.673  17.277  68.028  1.00  0.00    -0.166 OA 
HETATM   32  H   UNL     1      -5.874  17.516  68.482  1.00  0.00     0.000 HD 
ENDBRANCH  20  30
ENDBRANCH  16  18
ENDBRANCH  10  11
ENDBRANCH   7  10
ENDBRANCH   3   4
ENDBRANCH   2   3
TORSDOF 6
ENDMDL
MODEL      226
REMARK 921   NORMALIZED FREE ENERGY PREDICTED BY IDOCK:   -3.85 KCAL/MOL
REMARK 922        TOTAL FREE ENERGY PREDICTED BY IDOCK:   -6.16 KCAL/MOL
REMARK 923 INTER-LIGAND FREE ENERGY PREDICTED BY IDOCK:   -6.08 KCAL/MOL
REMARK 924 INTRA-LIGAND FREE ENERGY PREDICTED BY IDOCK:   -0.08 KCAL/MOL
REMARK 927      BINDING AFFINITY PREDICTED BY RF-SCORE:    0.00 PKD
ROOT
HETATM    1  C   UNL     1      -9.902  20.573  66.705  1.00  0.00    -0.405 C  
HETATM    2  C   UNL     1      -9.901  19.257  67.461  1.00  0.00    -0.340 C  
ENDROOT
BRANCH   2   3
HETATM    3  O   UNL     1      -8.614  18.660  67.311  1.00  0.00    -0.261 OA 
BRANCH   3   4
HETATM    4  C   UNL     1      -8.543  17.302  67.455  1.00  0.00    -0.209 A  
HETATM    5  C   UNL     1      -8.946  16.358  66.513  1.00  0.00    -0.311 A  
HETATM    6  C   UNL     1      -8.811  14.992  66.783  1.00  0.00    -0.299 A  
HETATM    7  C   UNL     1      -8.272  14.547  67.998  1.00  0.00    -0.145 A  
HETATM    8  C   UNL     1      -8.019  16.864  68.673  1.00  0.00    -0.256 A  
HETATM    9  C   UNL     1      -7.884  15.500  68.946  1.00  0.00    -0.182 A  
BRANCH   7  10
HETATM   10  C   UNL     1      -8.197  13.068  68.289  1.00  0.00    -0.150 C  
BRANCH  10  11
HETATM   11  C   UNL     1      -9.499  12.299  68.252  1.00  0.00    -0.209 A  
HETATM   12  C   UNL     1     -10.677  12.743  68.868  1.00  0.00    -0.163 A  
HETATM   13 CL   UNL     1     -10.796  14.306  69.592  1.00  0.00    -0.161 Cl 
HETATM   14  C   UNL     1     -11.790  11.898  68.956  1.00  0.00    -0.368 A  
HETATM   15  C   UNL     1     -11.742  10.596  68.448  1.00  0.00    -0.168 A  
HETATM   16  C   UNL     1     -10.591  10.135  67.803  1.00  0.00    -0.304 A  
HETATM   17  C   UNL     1      -9.499  11.016  67.677  1.00  0.00    -0.173 A  
BRANCH  16  18
HETATM   18  C   UNL     1     -10.417   8.689  67.352  1.00  0.00    -0.281 C  
HETATM   19  O   UNL     1     -10.393   7.799  68.485  1.00  0.00    -0.198 OA 
HETATM   20  C   UNL     1     -10.297   6.416  68.103  1.00  0.00    -0.192 C  
HETATM   21  H   UNL     1      -8.372   9.280  64.815  1.00  0.00     0.000 HD 
HETATM   22  C   UNL     1      -9.006   6.154  67.324  1.00  0.00    -0.112 C  
HETATM   23  O   UNL     1      -9.164   9.370  65.332  1.00  0.00    -0.217 OA 
HETATM   24  O   UNL     1      -8.901   4.795  66.873  1.00  0.00    -0.111 OA 
HETATM   25  C   UNL     1      -8.938   7.073  66.103  1.00  0.00    -0.136 C  
HETATM   26  H   UNL     1      -7.648   7.461  64.667  1.00  0.00     0.000 HD 
HETATM   27  O   UNL     1      -7.691   6.890  65.425  1.00  0.00    -0.093 OA 
HETATM   28  H   UNL     1      -8.100   4.632  66.389  1.00  0.00     0.000 HD 
HETATM   29  C   UNL     1      -9.122   8.541  66.506  1.00  0.00    -0.176 C  
BRANCH  20  30
HETATM   30  C   UNL     1     -10.345   5.554  69.375  1.00  0.00    -0.278 C  
HETATM   31  O   UNL     1     -10.215   6.388  70.525  1.00  0.00    -0.183 OA 
HETATM   32  H   UNL     1     -10.244   5.856  71.311  1.00  0.00     0.000 HD 
ENDBRANCH  20  30
ENDBRANCH  16  18
ENDBRANCH  10  11
ENDBRANCH   7  10
ENDBRANCH   3   4
ENDBRANCH   2   3
TORSDOF 6
ENDMDL
MODEL      227
REMARK 921   NORMALIZED FREE ENERGY PREDICTED BY IDOCK:   -3.81 KCAL/MOL
REMARK 922        TOTAL FREE ENERGY PREDICTED BY IDOCK:   -6.11 KCAL/MOL
REMARK 923 INTER-LIGAND FREE ENERGY PREDICTED BY IDOCK:   -5.16 KCAL/MOL
REMARK 924 INTRA-LIGAND FREE ENERGY PREDICTED BY IDOCK:   -0.96 KCAL/MOL
REMARK 927      BINDING AFFINITY PREDICTED BY RF-SCORE:    0.00 PKD
ROOT
HETATM    1  C   UNL     1     -12.400  15.508  64.253  1.00  0.00    -0.009 C  
HETATM    2  C   UNL     1     -12.115  14.040  63.994  1.00  0.00    -0.376 C  
ENDROOT
BRANCH   2   3
HETATM    3  O   UNL     1     -12.417  13.312  65.182  1.00  0.00    -0.438 OA 
BRANCH   3   4
HETATM    4  C   UNL     1     -11.572  12.289  65.512  1.00  0.00    -0.371 A  
HETATM    5  C   UNL     1     -10.673  11.662  64.651  1.00  0.00    -0.371 A  
HETATM    6  C   UNL     1      -9.855  10.629  65.119  1.00  0.00    -0.344 A  
HETATM    7  C   UNL     1      -9.921  10.205  66.453  1.00  0.00    -0.295 A  
HETATM    8  C   UNL     1     -11.652  11.861  66.838  1.00  0.00    -0.358 A  
HETATM    9  C   UNL     1     -10.837  10.828  67.308  1.00  0.00    -0.344 A  
BRANCH   7  10
HETATM   10  C   UNL     1      -9.072   9.045  66.915  1.00  0.00    -0.161 C  
BRANCH  10  11
HETATM   11  C   UNL     1      -8.532   9.117  68.327  1.00  0.00    -0.125 A  
HETATM   12  C   UNL     1      -7.705  10.150  68.786  1.00  0.00    -0.088 A  
HETATM   13 CL   UNL     1      -7.359  11.540  67.823  1.00  0.00    -0.091 Cl 
HETATM   14  C   UNL     1      -7.088  10.057  70.040  1.00  0.00    -0.146 A  
HETATM   15  C   UNL     1      -7.272   8.929  70.846  1.00  0.00    -0.093 A  
HETATM   16  C   UNL     1      -8.114   7.895  70.426  1.00  0.00    -0.114 A  
HETATM   17  C   UNL     1      -8.768   8.029  69.186  1.00  0.00    -0.137 A  
BRANCH  16  18
HETATM   18  C   UNL     1      -8.251   6.579  71.185  1.00  0.00    -0.121 C  
HETATM   19  O   UNL     1      -9.222   6.697  72.242  1.00  0.00    -0.138 OA 
HETATM   20  C   UNL     1      -9.432   5.459  72.944  1.00  0.00    -0.144 C  
HETATM   21  H   UNL     1      -5.068   5.675  71.039  1.00  0.00     0.000 HD 
HETATM   22  C   UNL     1      -8.137   4.978  73.601  1.00  0.00    -0.106 C  
HETATM   23  O   UNL     1      -5.911   5.945  70.695  1.00  0.00    -0.027 OA 
HETATM   24  O   UNL     1      -8.292   3.713  74.263  1.00  0.00    -0.081 OA 
HETATM   25  C   UNL     1      -7.037   4.839  72.548  1.00  0.00    -0.080 C  
HETATM   26  H   UNL     1      -5.120   4.389  72.522  1.00  0.00     0.000 HD 
HETATM   27  O   UNL     1      -5.804   4.475  73.176  1.00  0.00    -0.008 OA 
HETATM   28  H   UNL     1      -7.487   3.415  74.671  1.00  0.00     0.000 HD 
HETATM   29  C   UNL     1      -6.871   6.137  71.747  1.00  0.00    -0.068 C  
BRANCH  20  30
HETATM   30  C   UNL     1     -10.527   5.677  74.001  1.00  0.00    -0.273 C  
HETATM   31  O   UNL     1     -11.265   4.471  74.183  1.00  0.00    -0.248 OA 
HETATM   32  H   UNL     1     -11.941   4.605  74.836  1.00  0.00     0.000 HD 
ENDBRANCH  20  30
ENDBRANCH  16  18
ENDBRANCH  10  11
ENDBRANCH   7  10
ENDBRANCH   3   4
ENDBRANCH   2   3
TORSDOF 6
ENDMDL
MODEL      228
REMARK 921   NORMALIZED FREE ENERGY PREDICTED BY IDOCK:   -3.81 KCAL/MOL
REMARK 922        TOTAL FREE ENERGY PREDICTED BY IDOCK:   -6.11 KCAL/MOL
REMARK 923 INTER-LIGAND FREE ENERGY PREDICTED BY IDOCK:   -6.36 KCAL/MOL
REMARK 924 INTRA-LIGAND FREE ENERGY PREDICTED BY IDOCK:    0.25 KCAL/MOL
REMARK 927      BINDING AFFINITY PREDICTED BY RF-SCORE:    0.00 PKD
ROOT
HETATM    1  C   UNL     1      -7.686   7.155  69.430  1.00  0.00    -0.107 C  
HETATM    2  C   UNL     1      -7.667   8.433  68.612  1.00  0.00    -0.107 C  
ENDROOT
BRANCH   2   3
HETATM    3  O   UNL     1      -9.017   8.806  68.340  1.00  0.00    -0.140 OA 
BRANCH   3   4
HETATM    4  C   UNL     1      -9.208   9.962  67.636  1.00  0.00    -0.133 A  
HETATM    5  C   UNL     1      -8.840  10.182  66.310  1.00  0.00    -0.163 A  
HETATM    6  C   UNL     1      -9.102  11.414  65.702  1.00  0.00    -0.173 A  
HETATM    7  C   UNL     1      -9.735  12.446  66.407  1.00  0.00    -0.246 A  
HETATM    8  C   UNL     1      -9.827  10.992  68.347  1.00  0.00    -0.186 A  
HETATM    9  C   UNL     1     -10.088  12.225  67.743  1.00  0.00    -0.202 A  
BRANCH   7  10
HETATM   10  C   UNL     1      -9.948  13.787  65.747  1.00  0.00    -0.293 C  
BRANCH  10  11
HETATM   11  C   UNL     1     -10.161  14.971  66.663  1.00  0.00    -0.267 A  
HETATM   12  C   UNL     1     -11.274  15.108  67.504  1.00  0.00    -0.330 A  
HETATM   13 CL   UNL     1     -12.433  13.844  67.697  1.00  0.00    -0.047 Cl 
HETATM   14  C   UNL     1     -11.503  16.312  68.182  1.00  0.00    -0.173 A  
HETATM   15  C   UNL     1     -10.639  17.401  68.020  1.00  0.00    -0.389 A  
HETATM   16  C   UNL     1      -9.506  17.284  67.210  1.00  0.00    -0.250 A  
HETATM   17  C   UNL     1      -9.262  16.049  66.578  1.00  0.00    -0.307 A  
BRANCH  16  18
HETATM   18  C   UNL     1      -8.601  18.465  66.878  1.00  0.00    -0.271 C  
HETATM   19  O   UNL     1      -7.644  18.107  65.863  1.00  0.00    -0.471 OA 
HETATM   20  C   UNL     1      -6.811  19.211  65.470  1.00  0.00    -0.245 C  
HETATM   21  H   UNL     1      -8.390  19.710  69.939  1.00  0.00     0.000 HD 
HETATM   22  C   UNL     1      -6.001  19.734  66.658  1.00  0.00    -0.167 C  
HETATM   23  O   UNL     1      -8.828  19.401  69.155  1.00  0.00    -0.300 OA 
HETATM   24  O   UNL     1      -5.200  20.876  66.320  1.00  0.00    -0.173 OA 
HETATM   25  C   UNL     1      -6.942  20.127  67.798  1.00  0.00    -0.278 C  
HETATM   26  H   UNL     1      -6.765  20.774  69.650  1.00  0.00     0.000 HD 
HETATM   27  O   UNL     1      -6.181  20.531  68.941  1.00  0.00    -0.328 OA 
HETATM   28  H   UNL     1      -4.697  21.200  67.058  1.00  0.00     0.000 HD 
HETATM   29  C   UNL     1      -7.884  18.971  68.161  1.00  0.00    -0.300 C  
BRANCH  20  30
HETATM   30  C   UNL     1      -5.876  18.741  64.344  1.00  0.00    -0.122 C  
HETATM   31  O   UNL     1      -5.373  19.871  63.634  1.00  0.00    -0.195 OA 
HETATM   32  H   UNL     1      -4.795  19.580  62.938  1.00  0.00     0.000 HD 
ENDBRANCH  20  30
ENDBRANCH  16  18
ENDBRANCH  10  11
ENDBRANCH   7  10
ENDBRANCH   3   4
ENDBRANCH   2   3
TORSDOF 6
ENDMDL
MODEL      229
REMARK 921   NORMALIZED FREE ENERGY PREDICTED BY IDOCK:   -3.81 KCAL/MOL
REMARK 922        TOTAL FREE ENERGY PREDICTED BY IDOCK:   -6.11 KCAL/MOL
REMARK 923 INTER-LIGAND FREE ENERGY PREDICTED BY IDOCK:   -5.43 KCAL/MOL
REMARK 924 INTRA-LIGAND FREE ENERGY PREDICTED BY IDOCK:   -0.68 KCAL/MOL
REMARK 927      BINDING AFFINITY PREDICTED BY RF-SCORE:    0.00 PKD
ROOT
HETATM    1  C   UNL     1     -11.498  15.401  71.795  1.00  0.00    -0.497 C  
HETATM    2  C   UNL     1     -12.721  14.503  71.792  1.00  0.00    -0.343 C  
ENDROOT
BRANCH   2   3
HETATM    3  O   UNL     1     -13.112  14.288  70.437  1.00  0.00    -0.247 OA 
BRANCH   3   4
HETATM    4  C   UNL     1     -12.372  13.394  69.715  1.00  0.00    -0.159 A  
HETATM    5  C   UNL     1     -11.975  12.128  70.142  1.00  0.00    -0.394 A  
HETATM    6  C   UNL     1     -11.223  11.304  69.297  1.00  0.00    -0.336 A  
HETATM    7  C   UNL     1     -10.856  11.731  68.014  1.00  0.00    -0.256 A  
HETATM    8  C   UNL     1     -11.996  13.829  68.443  1.00  0.00    -0.395 A  
HETATM    9  C   UNL     1     -11.244  13.009  67.598  1.00  0.00    -0.315 A  
BRANCH   7  10
HETATM   10  C   UNL     1      -9.990  10.847  67.148  1.00  0.00    -0.221 C  
BRANCH  10  11
HETATM   11  C   UNL     1      -9.183   9.782  67.856  1.00  0.00    -0.133 A  
HETATM   12  C   UNL     1      -8.114  10.066  68.716  1.00  0.00    -0.106 A  
HETATM   13 CL   UNL     1      -7.723  11.680  69.185  1.00  0.00     0.001 Cl 
HETATM   14  C   UNL     1      -7.292   9.034  69.187  1.00  0.00    -0.072 A  
HETATM   15  C   UNL     1      -7.511   7.709  68.795  1.00  0.00    -0.100 A  
HETATM   16  C   UNL     1      -8.587   7.392  67.960  1.00  0.00    -0.122 A  
HETATM   17  C   UNL     1      -9.435   8.435  67.539  1.00  0.00    -0.182 A  
BRANCH  16  18
HETATM   18  C   UNL     1      -8.804   5.998  67.382  1.00  0.00    -0.106 C  
HETATM   19  O   UNL     1      -7.679   5.599  66.575  1.00  0.00    -0.097 OA 
HETATM   20  C   UNL     1      -7.810   4.261  66.062  1.00  0.00    -0.094 C  
HETATM   21  H   UNL     1     -12.064   6.257  66.862  1.00  0.00     0.000 HD 
HETATM   22  C   UNL     1      -9.046   4.139  65.167  1.00  0.00    -0.142 C  
HETATM   23  O   UNL     1     -11.260   6.282  67.368  1.00  0.00    -0.328 OA 
HETATM   24  O   UNL     1      -9.245   2.803  64.682  1.00  0.00    -0.127 OA 
HETATM   25  C   UNL     1     -10.295   4.562  65.942  1.00  0.00    -0.258 C  
HETATM   26  H   UNL     1     -12.213   4.795  65.560  1.00  0.00     0.000 HD 
HETATM   27  O   UNL     1     -11.436   4.532  65.079  1.00  0.00    -0.157 OA 
HETATM   28  H   UNL     1     -10.012   2.727  64.127  1.00  0.00     0.000 HD 
HETATM   29  C   UNL     1     -10.120   5.956  66.556  1.00  0.00    -0.156 C  
BRANCH  20  30
HETATM   30  C   UNL     1      -6.537   3.913  65.275  1.00  0.00    -0.044 C  
HETATM   31  O   UNL     1      -6.818   3.924  63.877  1.00  0.00    -0.042 OA 
HETATM   32  H   UNL     1      -6.031   3.709  63.391  1.00  0.00     0.000 HD 
ENDBRANCH  20  30
ENDBRANCH  16  18
ENDBRANCH  10  11
ENDBRANCH   7  10
ENDBRANCH   3   4
ENDBRANCH   2   3
TORSDOF 6
ENDMDL
MODEL      230
REMARK 921   NORMALIZED FREE ENERGY PREDICTED BY IDOCK:   -3.78 KCAL/MOL
REMARK 922        TOTAL FREE ENERGY PREDICTED BY IDOCK:   -6.08 KCAL/MOL
REMARK 923 INTER-LIGAND FREE ENERGY PREDICTED BY IDOCK:   -5.47 KCAL/MOL
REMARK 924 INTRA-LIGAND FREE ENERGY PREDICTED BY IDOCK:   -0.61 KCAL/MOL
REMARK 927      BINDING AFFINITY PREDICTED BY RF-SCORE:    0.00 PKD
ROOT
HETATM    1  C   UNL     1      -7.402   3.160  62.722  1.00  0.00    -0.052 C  
HETATM    2  C   UNL     1      -7.515   2.932  64.218  1.00  0.00    -0.070 C  
ENDROOT
BRANCH   2   3
HETATM    3  O   UNL     1      -8.659   3.641  64.691  1.00  0.00    -0.103 OA 
BRANCH   3   4
HETATM    4  C   UNL     1      -8.644   4.034  66.001  1.00  0.00    -0.110 A  
HETATM    5  C   UNL     1      -7.525   4.072  66.830  1.00  0.00    -0.073 A  
HETATM    6  C   UNL     1      -7.646   4.505  68.155  1.00  0.00    -0.076 A  
HETATM    7  C   UNL     1      -8.884   4.907  68.672  1.00  0.00    -0.116 A  
HETATM    8  C   UNL     1      -9.883   4.420  66.515  1.00  0.00    -0.247 A  
HETATM    9  C   UNL     1     -10.007   4.851  67.839  1.00  0.00    -0.181 A  
BRANCH   7  10
HETATM   10  C   UNL     1      -8.998   5.308  70.123  1.00  0.00    -0.156 C  
BRANCH  10  11
HETATM   11  C   UNL     1      -9.004   6.791  70.421  1.00  0.00    -0.152 A  
HETATM   12  C   UNL     1      -8.609   7.335  71.651  1.00  0.00    -0.117 A  
HETATM   13 CL   UNL     1      -7.910   6.364  72.895  1.00  0.00    -0.103 Cl 
HETATM   14  C   UNL     1      -8.818   8.693  71.923  1.00  0.00    -0.275 A  
HETATM   15  C   UNL     1      -9.439   9.524  70.985  1.00  0.00    -0.118 A  
HETATM   16  C   UNL     1      -9.818   9.016  69.738  1.00  0.00    -0.188 A  
HETATM   17  C   UNL     1      -9.552   7.661  69.461  1.00  0.00    -0.163 A  
BRANCH  16  18
HETATM   18  C   UNL     1     -10.622   9.824  68.726  1.00  0.00    -0.219 C  
HETATM   19  O   UNL     1      -9.909   9.933  67.478  1.00  0.00    -0.158 OA 
HETATM   20  C   UNL     1     -10.659  10.632  66.470  1.00  0.00    -0.193 C  
HETATM   21  H   UNL     1     -11.926  11.996  70.857  1.00  0.00     0.000 HD 
HETATM   22  C   UNL     1     -10.969  12.063  66.914  1.00  0.00    -0.281 C  
HETATM   23  O   UNL     1     -11.725  11.137  70.507  1.00  0.00    -0.333 OA 
HETATM   24  O   UNL     1     -11.768  12.777  65.959  1.00  0.00    -0.372 OA 
HETATM   25  C   UNL     1     -11.716  12.045  68.249  1.00  0.00    -0.334 C  
HETATM   26  H   UNL     1     -12.390  13.374  69.537  1.00  0.00     0.000 HD 
HETATM   27  O   UNL     1     -11.926  13.385  68.707  1.00  0.00    -0.335 OA 
HETATM   28  H   UNL     1     -11.960  13.665  66.235  1.00  0.00     0.000 HD 
HETATM   29  C   UNL     1     -10.951  11.230  69.299  1.00  0.00    -0.243 C  
BRANCH  20  30
HETATM   30  C   UNL     1      -9.842  10.636  65.168  1.00  0.00    -0.284 C  
HETATM   31  O   UNL     1      -9.047  11.818  65.103  1.00  0.00    -0.418 OA 
HETATM   32  H   UNL     1      -8.542  11.820  64.299  1.00  0.00     0.000 HD 
ENDBRANCH  20  30
ENDBRANCH  16  18
ENDBRANCH  10  11
ENDBRANCH   7  10
ENDBRANCH   3   4
ENDBRANCH   2   3
TORSDOF 6
ENDMDL
MODEL      231
REMARK 921   NORMALIZED FREE ENERGY PREDICTED BY IDOCK:   -3.78 KCAL/MOL
REMARK 922        TOTAL FREE ENERGY PREDICTED BY IDOCK:   -6.07 KCAL/MOL
REMARK 923 INTER-LIGAND FREE ENERGY PREDICTED BY IDOCK:   -5.33 KCAL/MOL
REMARK 924 INTRA-LIGAND FREE ENERGY PREDICTED BY IDOCK:   -0.74 KCAL/MOL
REMARK 927      BINDING AFFINITY PREDICTED BY RF-SCORE:    0.00 PKD
ROOT
HETATM    1  C   UNL     1      -8.692   6.919  66.161  1.00  0.00    -0.153 C  
HETATM    2  C   UNL     1      -9.344   7.449  67.424  1.00  0.00    -0.132 C  
ENDROOT
BRANCH   2   3
HETATM    3  O   UNL     1      -8.688   8.662  67.788  1.00  0.00    -0.135 OA 
BRANCH   3   4
HETATM    4  C   UNL     1      -9.476   9.768  67.945  1.00  0.00    -0.130 A  
HETATM    5  C   UNL     1     -10.054  10.198  69.138  1.00  0.00    -0.226 A  
HETATM    6  C   UNL     1     -10.836  11.357  69.164  1.00  0.00    -0.260 A  
HETATM    7  C   UNL     1     -11.054  12.105  67.999  1.00  0.00    -0.292 A  
HETATM    8  C   UNL     1      -9.703  10.502  66.779  1.00  0.00    -0.220 A  
HETATM    9  C   UNL     1     -10.485  11.660  66.801  1.00  0.00    -0.265 A  
BRANCH   7  10
HETATM   10  C   UNL     1     -11.955  13.316  68.043  1.00  0.00    -0.351 C  
BRANCH  10  11
HETATM   11  C   UNL     1     -11.531  14.510  67.216  1.00  0.00    -0.381 A  
HETATM   12  C   UNL     1     -11.895  14.690  65.875  1.00  0.00    -0.272 A  
HETATM   13 CL   UNL     1     -13.012  13.639  65.083  1.00  0.00    -0.369 Cl 
HETATM   14  C   UNL     1     -11.316  15.716  65.117  1.00  0.00    -0.198 A  
HETATM   15  C   UNL     1     -10.355  16.564  65.677  1.00  0.00    -0.342 A  
HETATM   16  C   UNL     1      -9.994  16.427  67.021  1.00  0.00    -0.261 A  
HETATM   17  C   UNL     1     -10.625  15.424  67.782  1.00  0.00    -0.274 A  
BRANCH  16  18
HETATM   18  C   UNL     1      -8.858  17.220  67.658  1.00  0.00    -0.220 C  
HETATM   19  O   UNL     1      -9.370  18.170  68.612  1.00  0.00    -0.309 OA 
HETATM   20  C   UNL     1      -8.329  18.896  69.287  1.00  0.00     0.107 C  
HETATM   21  H   UNL     1      -6.932  17.430  64.973  1.00  0.00     0.000 HD 
HETATM   22  C   UNL     1      -7.490  19.699  68.291  1.00  0.00    -0.314 C  
HETATM   23  O   UNL     1      -7.443  16.993  65.643  1.00  0.00    -0.121 OA 
HETATM   24  O   UNL     1      -6.402  20.392  68.919  1.00  0.00    -0.318 OA 
HETATM   25  C   UNL     1      -6.915  18.767  67.223  1.00  0.00    -0.204 C  
HETATM   26  H   UNL     1      -5.848  18.952  65.578  1.00  0.00     0.000 HD 
HETATM   27  O   UNL     1      -6.205  19.530  66.241  1.00  0.00    -0.173 OA 
HETATM   28  H   UNL     1      -5.881  20.891  68.300  1.00  0.00     0.000 HD 
HETATM   29  C   UNL     1      -8.021  17.936  66.561  1.00  0.00    -0.270 C  
BRANCH  20  30
HETATM   30  C   UNL     1      -8.977  19.829  70.323  1.00  0.00     1.330 C  
HETATM   31  O   UNL     1     -10.378  19.922  70.075  1.00  0.00    -0.572 OA 
HETATM   32  H   UNL     1     -10.778  20.498  70.715  1.00  0.00     0.000 HD 
ENDBRANCH  20  30
ENDBRANCH  16  18
ENDBRANCH  10  11
ENDBRANCH   7  10
ENDBRANCH   3   4
ENDBRANCH   2   3
TORSDOF 6
ENDMDL
MODEL      232
REMARK 921   NORMALIZED FREE ENERGY PREDICTED BY IDOCK:   -3.77 KCAL/MOL
REMARK 922        TOTAL FREE ENERGY PREDICTED BY IDOCK:   -6.06 KCAL/MOL
REMARK 923 INTER-LIGAND FREE ENERGY PREDICTED BY IDOCK:   -5.87 KCAL/MOL
REMARK 924 INTRA-LIGAND FREE ENERGY PREDICTED BY IDOCK:   -0.18 KCAL/MOL
REMARK 927      BINDING AFFINITY PREDICTED BY RF-SCORE:    0.00 PKD
ROOT
HETATM    1  C   UNL     1     -10.051   3.480  72.441  1.00  0.00    -0.232 C  
HETATM    2  C   UNL     1      -9.358   2.164  72.743  1.00  0.00    -0.078 C  
ENDROOT
BRANCH   2   3
HETATM    3  O   UNL     1      -8.469   1.872  71.666  1.00  0.00    -0.053 OA 
BRANCH   3   4
HETATM    4  C   UNL     1      -8.252   2.870  70.757  1.00  0.00    -0.052 A  
HETATM    5  C   UNL     1      -7.422   3.975  70.938  1.00  0.00    -0.044 A  
HETATM    6  C   UNL     1      -7.281   4.923  69.920  1.00  0.00    -0.055 A  
HETATM    7  C   UNL     1      -7.964   4.784  68.705  1.00  0.00    -0.080 A  
HETATM    8  C   UNL     1      -8.946   2.734  69.554  1.00  0.00    -0.170 A  
HETATM    9  C   UNL     1      -8.808   3.681  68.535  1.00  0.00    -0.156 A  
BRANCH   7  10
HETATM   10  C   UNL     1      -7.843   5.855  67.648  1.00  0.00    -0.098 C  
BRANCH  10  11
HETATM   11  C   UNL     1      -8.942   6.893  67.601  1.00  0.00    -0.116 A  
HETATM   12  C   UNL     1      -9.126   7.776  66.528  1.00  0.00    -0.170 A  
HETATM   13 CL   UNL     1      -8.210   7.647  65.071  1.00  0.00    -0.134 Cl 
HETATM   14  C   UNL     1     -10.040   8.832  66.632  1.00  0.00    -0.358 A  
HETATM   15  C   UNL     1     -10.770   9.035  67.808  1.00  0.00    -0.217 A  
HETATM   16  C   UNL     1     -10.627   8.154  68.884  1.00  0.00    -0.161 A  
HETATM   17  C   UNL     1      -9.743   7.066  68.743  1.00  0.00    -0.143 A  
BRANCH  16  18
HETATM   18  C   UNL     1     -11.281   8.392  70.240  1.00  0.00    -0.173 C  
HETATM   19  O   UNL     1     -12.364   7.467  70.456  1.00  0.00    -0.056 OA 
HETATM   20  C   UNL     1     -12.969   7.612  71.753  1.00  0.00    -0.328 C  
HETATM   21  H   UNL     1     -10.999  11.692  70.272  1.00  0.00     0.000 HD 
HETATM   22  C   UNL     1     -13.560   9.013  71.926  1.00  0.00    -0.431 C  
HETATM   23  O   UNL     1     -10.695  10.794  70.207  1.00  0.00    -0.137 OA 
HETATM   24  O   UNL     1     -14.121   9.217  73.231  1.00  0.00    -1.165 OA 
HETATM   25  C   UNL     1     -12.476  10.068  71.698  1.00  0.00    -0.418 C  
HETATM   26  H   UNL     1     -12.376  12.033  71.630  1.00  0.00     0.000 HD 
HETATM   27  O   UNL     1     -13.049  11.378  71.772  1.00  0.00    -0.480 OA 
HETATM   28  H   UNL     1     -14.488  10.086  73.338  1.00  0.00     0.000 HD 
HETATM   29  C   UNL     1     -11.779   9.861  70.347  1.00  0.00    -0.258 C  
BRANCH  20  30
HETATM   30  C   UNL     1     -14.062   6.542  71.904  1.00  0.00     0.185 C  
HETATM   31  O   UNL     1     -13.626   5.535  72.815  1.00  0.00    -0.295 OA 
HETATM   32  H   UNL     1     -14.301   4.874  72.908  1.00  0.00     0.000 HD 
ENDBRANCH  20  30
ENDBRANCH  16  18
ENDBRANCH  10  11
ENDBRANCH   7  10
ENDBRANCH   3   4
ENDBRANCH   2   3
TORSDOF 6
ENDMDL
MODEL      233
REMARK 921   NORMALIZED FREE ENERGY PREDICTED BY IDOCK:   -3.70 KCAL/MOL
REMARK 922        TOTAL FREE ENERGY PREDICTED BY IDOCK:   -5.97 KCAL/MOL
REMARK 923 INTER-LIGAND FREE ENERGY PREDICTED BY IDOCK:   -5.76 KCAL/MOL
REMARK 924 INTRA-LIGAND FREE ENERGY PREDICTED BY IDOCK:   -0.21 KCAL/MOL
REMARK 927      BINDING AFFINITY PREDICTED BY RF-SCORE:    0.00 PKD
ROOT
HETATM    1  C   UNL     1      -9.210   5.089  64.981  1.00  0.00    -0.072 C  
HETATM    2  C   UNL     1      -8.737   6.138  65.970  1.00  0.00    -0.153 C  
ENDROOT
BRANCH   2   3
HETATM    3  O   UNL     1      -7.745   6.938  65.330  1.00  0.00    -0.093 OA 
BRANCH   3   4
HETATM    4  C   UNL     1      -7.553   8.197  65.826  1.00  0.00    -0.082 A  
HETATM    5  C   UNL     1      -6.612   8.563  66.786  1.00  0.00    -0.057 A  
HETATM    6  C   UNL     1      -6.512   9.895  67.202  1.00  0.00    -0.069 A  
HETATM    7  C   UNL     1      -7.350  10.882  66.667  1.00  0.00    -0.139 A  
HETATM    8  C   UNL     1      -8.400   9.174  65.300  1.00  0.00    -0.152 A  
HETATM    9  C   UNL     1      -8.304  10.506  65.715  1.00  0.00    -0.166 A  
BRANCH   7  10
HETATM   10  C   UNL     1      -7.264  12.299  67.181  1.00  0.00    -0.100 C  
BRANCH  10  11
HETATM   11  C   UNL     1      -8.570  12.974  67.539  1.00  0.00    -0.192 A  
HETATM   12  C   UNL     1      -8.775  14.357  67.450  1.00  0.00    -0.204 A  
HETATM   13 CL   UNL     1      -7.598  15.412  66.756  1.00  0.00    -0.104 Cl 
HETATM   14  C   UNL     1      -9.939  14.934  67.974  1.00  0.00    -0.220 A  
HETATM   15  C   UNL     1     -10.905  14.146  68.608  1.00  0.00    -0.268 A  
HETATM   16  C   UNL     1     -10.741  12.759  68.687  1.00  0.00    -0.273 A  
HETATM   17  C   UNL     1      -9.590  12.190  68.107  1.00  0.00    -0.208 A  
BRANCH  16  18
HETATM   18  C   UNL     1     -11.679  11.859  69.482  1.00  0.00    -0.345 C  
HETATM   19  O   UNL     1     -12.088  12.499  70.706  1.00  0.00    -0.332 OA 
HETATM   20  C   UNL     1     -13.027  11.711  71.458  1.00  0.00    -0.358 C  
HETATM   21  H   UNL     1     -10.230   8.976  68.736  1.00  0.00     0.000 HD 
HETATM   22  C   UNL     1     -12.415  10.368  71.860  1.00  0.00    -0.195 C  
HETATM   23  O   UNL     1     -10.648   9.810  68.558  1.00  0.00    -0.206 OA 
HETATM   24  O   UNL     1     -13.342   9.527  72.562  1.00  0.00    -0.572 OA 
HETATM   25  C   UNL     1     -11.934   9.620  70.615  1.00  0.00    -0.229 C  
HETATM   26  H   UNL     1     -10.983   7.941  70.225  1.00  0.00     0.000 HD 
HETATM   27  O   UNL     1     -11.282   8.405  70.998  1.00  0.00    -0.254 OA 
HETATM   28  H   UNL     1     -12.961   8.693  72.812  1.00  0.00     0.000 HD 
HETATM   29  C   UNL     1     -10.996  10.493  69.773  1.00  0.00    -0.294 C  
BRANCH  20  30
HETATM   30  C   UNL     1     -13.446  12.509  72.704  1.00  0.00     0.219 C  
HETATM   31  O   UNL     1     -14.399  13.505  72.339  1.00  0.00    -0.645 OA 
HETATM   32  H   UNL     1     -14.657  13.998  73.108  1.00  0.00     0.000 HD 
ENDBRANCH  20  30
ENDBRANCH  16  18
ENDBRANCH  10  11
ENDBRANCH   7  10
ENDBRANCH   3   4
ENDBRANCH   2   3
TORSDOF 6
ENDMDL
MODEL      234
REMARK 921   NORMALIZED FREE ENERGY PREDICTED BY IDOCK:   -3.70 KCAL/MOL
REMARK 922        TOTAL FREE ENERGY PREDICTED BY IDOCK:   -5.97 KCAL/MOL
REMARK 923 INTER-LIGAND FREE ENERGY PREDICTED BY IDOCK:   -4.72 KCAL/MOL
REMARK 924 INTRA-LIGAND FREE ENERGY PREDICTED BY IDOCK:   -1.25 KCAL/MOL
REMARK 927      BINDING AFFINITY PREDICTED BY RF-SCORE:    0.00 PKD
ROOT
HETATM    1  C   UNL     1     -12.843  14.086  65.210  1.00  0.00    -0.418 C  
HETATM    2  C   UNL     1     -11.409  14.529  64.986  1.00  0.00    -0.377 C  
ENDROOT
BRANCH   2   3
HETATM    3  O   UNL     1     -10.616  13.366  64.755  1.00  0.00    -0.358 OA 
BRANCH   3   4
HETATM    4  C   UNL     1     -10.198  12.674  65.857  1.00  0.00    -0.274 A  
HETATM    5  C   UNL     1      -9.364  13.163  66.862  1.00  0.00    -0.246 A  
HETATM    6  C   UNL     1      -9.018  12.351  67.946  1.00  0.00    -0.184 A  
HETATM    7  C   UNL     1      -9.496  11.037  68.045  1.00  0.00    -0.169 A  
HETATM    8  C   UNL     1     -10.665  11.362  65.944  1.00  0.00    -0.311 A  
HETATM    9  C   UNL     1     -10.319  10.547  67.025  1.00  0.00    -0.289 A  
BRANCH   7  10
HETATM   10  C   UNL     1      -9.054  10.162  69.193  1.00  0.00    -0.189 C  
BRANCH  10  11
HETATM   11  C   UNL     1      -7.826   9.308  68.965  1.00  0.00    -0.082 A  
HETATM   12  C   UNL     1      -6.527   9.722  69.287  1.00  0.00    -0.048 A  
HETATM   13 CL   UNL     1      -6.221  11.192  70.138  1.00  0.00    -0.141 Cl 
HETATM   14  C   UNL     1      -5.423   8.964  68.877  1.00  0.00    -0.037 A  
HETATM   15  C   UNL     1      -5.594   7.795  68.128  1.00  0.00    -0.032 A  
HETATM   16  C   UNL     1      -6.880   7.343  67.816  1.00  0.00    -0.074 A  
HETATM   17  C   UNL     1      -7.981   8.089  68.282  1.00  0.00    -0.128 A  
BRANCH  16  18
HETATM   18  C   UNL     1      -7.139   6.161  66.889  1.00  0.00    -0.073 C  
HETATM   19  O   UNL     1      -7.491   6.614  65.568  1.00  0.00    -0.073 OA 
HETATM   20  C   UNL     1      -7.680   5.531  64.641  1.00  0.00    -0.093 C  
HETATM   21  H   UNL     1      -8.567   4.177  69.124  1.00  0.00     0.000 HD 
HETATM   22  C   UNL     1      -8.818   4.615  65.097  1.00  0.00    -0.147 C  
HETATM   23  O   UNL     1      -7.885   4.733  68.765  1.00  0.00    -0.075 OA 
HETATM   24  O   UNL     1      -9.000   3.488  64.228  1.00  0.00    -0.112 OA 
HETATM   25  C   UNL     1      -8.536   4.096  66.508  1.00  0.00    -0.104 C  
HETATM   26  H   UNL     1      -9.467   2.989  67.845  1.00  0.00     0.000 HD 
HETATM   27  O   UNL     1      -9.642   3.312  66.968  1.00  0.00    -0.173 OA 
HETATM   28  H   UNL     1      -9.707   2.919  64.512  1.00  0.00     0.000 HD 
HETATM   29  C   UNL     1      -8.255   5.251  67.477  1.00  0.00    -0.100 C  
BRANCH  20  30
HETATM   30  C   UNL     1      -7.985   6.123  63.256  1.00  0.00    -0.102 C  
HETATM   31  O   UNL     1      -9.227   5.610  62.777  1.00  0.00    -0.313 OA 
HETATM   32  H   UNL     1      -9.415   5.975  61.921  1.00  0.00     0.000 HD 
ENDBRANCH  20  30
ENDBRANCH  16  18
ENDBRANCH  10  11
ENDBRANCH   7  10
ENDBRANCH   3   4
ENDBRANCH   2   3
TORSDOF 6
ENDMDL
MODEL      235
REMARK 921   NORMALIZED FREE ENERGY PREDICTED BY IDOCK:   -3.64 KCAL/MOL
REMARK 922        TOTAL FREE ENERGY PREDICTED BY IDOCK:   -5.88 KCAL/MOL
REMARK 923 INTER-LIGAND FREE ENERGY PREDICTED BY IDOCK:   -4.95 KCAL/MOL
REMARK 924 INTRA-LIGAND FREE ENERGY PREDICTED BY IDOCK:   -0.93 KCAL/MOL
REMARK 927      BINDING AFFINITY PREDICTED BY RF-SCORE:    0.00 PKD
ROOT
HETATM    1  C   UNL     1      -7.774   8.144  74.565  1.00  0.00    -0.285 C  
HETATM    2  C   UNL     1      -7.123   7.602  73.306  1.00  0.00    -0.081 C  
ENDROOT
BRANCH   2   3
HETATM    3  O   UNL     1      -8.142   7.021  72.493  1.00  0.00    -0.101 OA 
BRANCH   3   4
HETATM    4  C   UNL     1      -8.794   7.857  71.629  1.00  0.00    -0.131 A  
HETATM    5  C   UNL     1      -8.229   8.938  70.955  1.00  0.00    -0.217 A  
HETATM    6  C   UNL     1      -9.008   9.711  70.088  1.00  0.00    -0.273 A  
HETATM    7  C   UNL     1     -10.363   9.418  69.881  1.00  0.00    -0.252 A  
HETATM    8  C   UNL     1     -10.146   7.570  71.438  1.00  0.00    -0.201 A  
HETATM    9  C   UNL     1     -10.928   8.342  70.573  1.00  0.00    -0.253 A  
BRANCH   7  10
HETATM   10  C   UNL     1     -11.195  10.308  68.990  1.00  0.00    -0.260 C  
BRANCH  10  11
HETATM   11  C   UNL     1     -10.636  10.613  67.617  1.00  0.00    -0.288 A  
HETATM   12  C   UNL     1     -10.952  11.770  66.894  1.00  0.00    -0.285 A  
HETATM   13 CL   UNL     1     -11.887  13.049  67.579  1.00  0.00    -0.415 Cl 
HETATM   14  C   UNL     1     -10.552  11.900  65.558  1.00  0.00    -0.313 A  
HETATM   15  C   UNL     1      -9.847  10.874  64.919  1.00  0.00    -0.339 A  
HETATM   16  C   UNL     1      -9.493   9.719  65.624  1.00  0.00    -0.307 A  
HETATM   17  C   UNL     1      -9.858   9.629  66.982  1.00  0.00    -0.249 A  
BRANCH  16  18
HETATM   18  C   UNL     1      -8.852   8.507  64.959  1.00  0.00    -0.029 C  
HETATM   19  O   UNL     1      -9.266   7.289  65.607  1.00  0.00     0.033 OA 
HETATM   20  C   UNL     1      -8.737   6.113  64.971  1.00  0.00     0.065 C  
HETATM   21  H   UNL     1      -5.927   9.899  64.273  1.00  0.00     0.000 HD 
HETATM   22  C   UNL     1      -7.207   6.118  65.001  1.00  0.00    -0.070 C  
HETATM   23  O   UNL     1      -6.873   9.817  64.264  1.00  0.00    -0.108 OA 
HETATM   24  O   UNL     1      -6.638   4.988  64.323  1.00  0.00    -0.040 OA 
HETATM   25  C   UNL     1      -6.676   7.392  64.343  1.00  0.00    -0.047 C  
HETATM   26  H   UNL     1      -4.919   8.230  64.043  1.00  0.00     0.000 HD 
HETATM   27  O   UNL     1      -5.249   7.438  64.452  1.00  0.00    -0.028 OA 
HETATM   28  H   UNL     1      -5.688   4.991  64.342  1.00  0.00     0.000 HD 
HETATM   29  C   UNL     1      -7.304   8.642  64.972  1.00  0.00    -0.086 C  
BRANCH  20  30
HETATM   30  C   UNL     1      -9.288   4.875  65.696  1.00  0.00    -0.161 C  
HETATM   31  O   UNL     1     -10.363   5.259  66.552  1.00  0.00    -0.230 OA 
HETATM   32  H   UNL     1     -10.704   4.495  67.000  1.00  0.00     0.000 HD 
ENDBRANCH  20  30
ENDBRANCH  16  18
ENDBRANCH  10  11
ENDBRANCH   7  10
ENDBRANCH   3   4
ENDBRANCH   2   3
TORSDOF 6
ENDMDL
MODEL      236
REMARK 921   NORMALIZED FREE ENERGY PREDICTED BY IDOCK:   -3.63 KCAL/MOL
REMARK 922        TOTAL FREE ENERGY PREDICTED BY IDOCK:   -5.87 KCAL/MOL
REMARK 923 INTER-LIGAND FREE ENERGY PREDICTED BY IDOCK:   -4.68 KCAL/MOL
REMARK 924 INTRA-LIGAND FREE ENERGY PREDICTED BY IDOCK:   -1.19 KCAL/MOL
REMARK 927      BINDING AFFINITY PREDICTED BY RF-SCORE:    0.00 PKD
ROOT
HETATM    1  C   UNL     1     -12.611  13.457  65.257  1.00  0.00    -0.518 C  
HETATM    2  C   UNL     1     -11.789  13.349  66.528  1.00  0.00    -0.396 C  
ENDROOT
BRANCH   2   3
HETATM    3  O   UNL     1     -10.484  12.893  66.175  1.00  0.00    -0.262 OA 
BRANCH   3   4
HETATM    4  C   UNL     1      -9.939  11.913  66.957  1.00  0.00    -0.202 A  
HETATM    5  C   UNL     1      -8.672  11.355  66.804  1.00  0.00    -0.174 A  
HETATM    6  C   UNL     1      -8.230  10.360  67.683  1.00  0.00    -0.110 A  
HETATM    7  C   UNL     1      -9.046   9.907  68.728  1.00  0.00    -0.147 A  
HETATM    8  C   UNL     1     -10.762  11.455  67.988  1.00  0.00    -0.240 A  
HETATM    9  C   UNL     1     -10.324  10.460  68.867  1.00  0.00    -0.227 A  
BRANCH   7  10
HETATM   10  C   UNL     1      -8.569   8.788  69.622  1.00  0.00    -0.130 C  
BRANCH  10  11
HETATM   11  C   UNL     1      -9.150   7.415  69.363  1.00  0.00    -0.139 A  
HETATM   12  C   UNL     1      -9.963   6.735  70.279  1.00  0.00    -0.178 A  
HETATM   13 CL   UNL     1     -10.521   7.479  71.734  1.00  0.00    -0.215 Cl 
HETATM   14  C   UNL     1     -10.310   5.396  70.058  1.00  0.00    -0.366 A  
HETATM   15  C   UNL     1      -9.839   4.711  68.932  1.00  0.00    -0.211 A  
HETATM   16  C   UNL     1      -9.049   5.373  67.987  1.00  0.00    -0.114 A  
HETATM   17  C   UNL     1      -8.754   6.734  68.199  1.00  0.00    -0.122 A  
BRANCH  16  18
HETATM   18  C   UNL     1      -8.388   4.656  66.815  1.00  0.00    -0.106 C  
HETATM   19  O   UNL     1      -9.368   4.274  65.830  1.00  0.00    -0.141 OA 
HETATM   20  C   UNL     1      -8.781   3.653  64.674  1.00  0.00    -0.109 C  
HETATM   21  H   UNL     1      -6.085   3.034  68.555  1.00  0.00     0.000 HD 
HETATM   22  C   UNL     1      -8.038   2.372  65.060  1.00  0.00    -0.079 C  
HETATM   23  O   UNL     1      -6.568   3.792  68.248  1.00  0.00    -0.043 OA 
HETATM   24  O   UNL     1      -7.387   1.753  63.941  1.00  0.00    -0.052 OA 
HETATM   25  C   UNL     1      -6.981   2.682  66.121  1.00  0.00    -0.052 C  
HETATM   26  H   UNL     1      -5.693   1.662  67.207  1.00  0.00     0.000 HD 
HETATM   27  O   UNL     1      -6.349   1.470  66.547  1.00  0.00    -0.019 OA 
HETATM   28  H   UNL     1      -6.927   0.957  64.181  1.00  0.00     0.000 HD 
HETATM   29  C   UNL     1      -7.598   3.416  67.318  1.00  0.00    -0.078 C  
BRANCH  20  30
HETATM   30  C   UNL     1      -9.898   3.347  63.664  1.00  0.00    -0.153 C  
HETATM   31  O   UNL     1      -9.507   3.788  62.365  1.00  0.00    -0.096 OA 
HETATM   32  H   UNL     1     -10.197   3.598  61.741  1.00  0.00     0.000 HD 
ENDBRANCH  20  30
ENDBRANCH  16  18
ENDBRANCH  10  11
ENDBRANCH   7  10
ENDBRANCH   3   4
ENDBRANCH   2   3
TORSDOF 6
ENDMDL
MODEL      237
REMARK 921   NORMALIZED FREE ENERGY PREDICTED BY IDOCK:   -3.63 KCAL/MOL
REMARK 922        TOTAL FREE ENERGY PREDICTED BY IDOCK:   -5.87 KCAL/MOL
REMARK 923 INTER-LIGAND FREE ENERGY PREDICTED BY IDOCK:   -5.21 KCAL/MOL
REMARK 924 INTRA-LIGAND FREE ENERGY PREDICTED BY IDOCK:   -0.65 KCAL/MOL
REMARK 927      BINDING AFFINITY PREDICTED BY RF-SCORE:    0.00 PKD
ROOT
HETATM    1  C   UNL     1     -14.331   8.177  71.339  1.00  0.00    -0.472 C  
HETATM    2  C   UNL     1     -13.662   8.961  72.453  1.00  0.00    -0.454 C  
ENDROOT
BRANCH   2   3
HETATM    3  O   UNL     1     -13.419  10.285  71.981  1.00  0.00    -0.393 OA 
BRANCH   3   4
HETATM    4  C   UNL     1     -12.346  10.458  71.152  1.00  0.00    -0.400 A  
HETATM    5  C   UNL     1     -12.342  11.177  69.959  1.00  0.00    -0.351 A  
HETATM    6  C   UNL     1     -11.168  11.284  69.205  1.00  0.00    -0.336 A  
HETATM    7  C   UNL     1      -9.980  10.675  69.630  1.00  0.00    -0.090 A  
HETATM    8  C   UNL     1     -11.169   9.836  71.573  1.00  0.00    -0.291 A  
HETATM    9  C   UNL     1      -9.995   9.940  70.821  1.00  0.00    -0.009 A  
BRANCH   7  10
HETATM   10  C   UNL     1      -8.745  10.752  68.766  1.00  0.00    -0.163 C  
BRANCH  10  11
HETATM   11  C   UNL     1      -8.740   9.912  67.508  1.00  0.00    -0.121 A  
HETATM   12  C   UNL     1      -9.290  10.338  66.292  1.00  0.00    -0.167 A  
HETATM   13 CL   UNL     1      -9.880  11.944  66.069  1.00  0.00    -0.249 Cl 
HETATM   14  C   UNL     1      -9.420   9.442  65.223  1.00  0.00    -0.296 A  
HETATM   15  C   UNL     1      -9.023   8.107  65.355  1.00  0.00    -0.024 A  
HETATM   16  C   UNL     1      -8.445   7.661  66.548  1.00  0.00    -0.133 A  
HETATM   17  C   UNL     1      -8.272   8.589  67.594  1.00  0.00    -0.118 A  
BRANCH  16  18
HETATM   18  C   UNL     1      -8.118   6.195  66.811  1.00  0.00    -0.109 C  
HETATM   19  O   UNL     1      -8.824   5.340  65.891  1.00  0.00    -0.135 OA 
HETATM   20  C   UNL     1      -8.495   3.951  66.060  1.00  0.00    -0.110 C  
HETATM   21  H   UNL     1      -7.912   6.395  70.110  1.00  0.00     0.000 HD 
HETATM   22  C   UNL     1      -8.866   3.469  67.464  1.00  0.00    -0.126 C  
HETATM   23  O   UNL     1      -7.705   6.621  69.212  1.00  0.00    -0.098 OA 
HETATM   24  O   UNL     1      -8.498   2.100  67.693  1.00  0.00    -0.069 OA 
HETATM   25  C   UNL     1      -8.169   4.336  68.514  1.00  0.00    -0.084 C  
HETATM   26  H   UNL     1      -8.153   4.481  70.478  1.00  0.00     0.000 HD 
HETATM   27  O   UNL     1      -8.586   3.942  69.826  1.00  0.00    -0.062 OA 
HETATM   28  H   UNL     1      -8.729   1.801  68.565  1.00  0.00     0.000 HD 
HETATM   29  C   UNL     1      -8.457   5.824  68.282  1.00  0.00    -0.113 C  
BRANCH  20  30
HETATM   30  C   UNL     1      -9.247   3.138  64.994  1.00  0.00    -0.149 C  
HETATM   31  O   UNL     1      -8.635   1.859  64.845  1.00  0.00    -0.090 OA 
HETATM   32  H   UNL     1      -9.099   1.356  64.186  1.00  0.00     0.000 HD 
ENDBRANCH  20  30
ENDBRANCH  16  18
ENDBRANCH  10  11
ENDBRANCH   7  10
ENDBRANCH   3   4
ENDBRANCH   2   3
TORSDOF 6
ENDMDL
MODEL      238
REMARK 921   NORMALIZED FREE ENERGY PREDICTED BY IDOCK:   -3.63 KCAL/MOL
REMARK 922        TOTAL FREE ENERGY PREDICTED BY IDOCK:   -5.86 KCAL/MOL
REMARK 923 INTER-LIGAND FREE ENERGY PREDICTED BY IDOCK:   -4.84 KCAL/MOL
REMARK 924 INTRA-LIGAND FREE ENERGY PREDICTED BY IDOCK:   -1.03 KCAL/MOL
REMARK 927      BINDING AFFINITY PREDICTED BY RF-SCORE:    0.00 PKD
ROOT
HETATM    1  C   UNL     1      -8.685   6.822  66.130  1.00  0.00    -0.156 C  
HETATM    2  C   UNL     1      -9.092   7.441  67.454  1.00  0.00    -0.122 C  
ENDROOT
BRANCH   2   3
HETATM    3  O   UNL     1      -8.352   8.649  67.626  1.00  0.00    -0.119 OA 
BRANCH   3   4
HETATM    4  C   UNL     1      -9.065   9.770  67.945  1.00  0.00    -0.121 A  
HETATM    5  C   UNL     1      -9.436  10.166  69.229  1.00  0.00    -0.231 A  
HETATM    6  C   UNL     1     -10.162  11.346  69.420  1.00  0.00     0.083 A  
HETATM    7  C   UNL     1     -10.530  12.150  68.333  1.00  0.00    -0.242 A  
HETATM    8  C   UNL     1      -9.442  10.560  66.857  1.00  0.00    -0.191 A  
HETATM    9  C   UNL     1     -10.169  11.739  67.044  1.00  0.00    -0.240 A  
BRANCH   7  10
HETATM   10  C   UNL     1     -11.368  13.385  68.561  1.00  0.00    -0.324 C  
BRANCH  10  11
HETATM   11  C   UNL     1     -10.966  14.631  67.802  1.00  0.00    -0.291 A  
HETATM   12  C   UNL     1     -11.496  14.979  66.553  1.00  0.00    -0.239 A  
HETATM   13 CL   UNL     1     -12.794  14.098  65.833  1.00  0.00    -0.423 Cl 
HETATM   14  C   UNL     1     -10.946  16.040  65.823  1.00  0.00    -0.142 A  
HETATM   15  C   UNL     1      -9.850  16.756  66.317  1.00  0.00    -0.327 A  
HETATM   16  C   UNL     1      -9.318  16.449  67.573  1.00  0.00    -0.214 A  
HETATM   17  C   UNL     1      -9.918  15.414  68.316  1.00  0.00    -0.214 A  
BRANCH  16  18
HETATM   18  C   UNL     1      -8.044  17.091  68.111  1.00  0.00    -0.212 C  
HETATM   19  O   UNL     1      -7.385  16.214  69.045  1.00  0.00    -0.177 OA 
HETATM   20  C   UNL     1      -6.142  16.751  69.529  1.00  0.00    -0.218 C  
HETATM   21  H   UNL     1      -9.160  20.206  68.235  1.00  0.00     0.000 HD 
HETATM   22  C   UNL     1      -6.370  18.072  70.268  1.00  0.00     0.335 C  
HETATM   23  O   UNL     1      -8.961  19.370  67.831  1.00  0.00    -0.303 OA 
HETATM   24  O   UNL     1      -5.145  18.671  70.716  1.00  0.00    -0.221 OA 
HETATM   25  C   UNL     1      -7.084  19.066  69.351  1.00  0.00    -0.170 C  
HETATM   26  H   UNL     1      -7.821  20.886  69.500  1.00  0.00     0.000 HD 
HETATM   27  O   UNL     1      -7.376  20.269  70.070  1.00  0.00     0.108 OA 
HETATM   28  H   UNL     1      -5.286  19.491  71.175  1.00  0.00     0.000 HD 
HETATM   29  C   UNL     1      -8.369  18.460  68.772  1.00  0.00    -0.232 C  
BRANCH  20  30
HETATM   30  C   UNL     1      -5.493  15.716  70.461  1.00  0.00    -0.144 C  
HETATM   31  O   UNL     1      -5.254  14.507  69.744  1.00  0.00    -0.092 OA 
HETATM   32  H   UNL     1      -4.853  13.867  70.320  1.00  0.00     0.000 HD 
ENDBRANCH  20  30
ENDBRANCH  16  18
ENDBRANCH  10  11
ENDBRANCH   7  10
ENDBRANCH   3   4
ENDBRANCH   2   3
TORSDOF 6
ENDMDL
MODEL      239
REMARK 921   NORMALIZED FREE ENERGY PREDICTED BY IDOCK:   -3.62 KCAL/MOL
REMARK 922        TOTAL FREE ENERGY PREDICTED BY IDOCK:   -5.86 KCAL/MOL
REMARK 923 INTER-LIGAND FREE ENERGY PREDICTED BY IDOCK:   -4.92 KCAL/MOL
REMARK 924 INTRA-LIGAND FREE ENERGY PREDICTED BY IDOCK:   -0.94 KCAL/MOL
REMARK 927      BINDING AFFINITY PREDICTED BY RF-SCORE:    0.00 PKD
ROOT
HETATM    1  C   UNL     1     -11.098   5.492  70.259  1.00  0.00    -0.078 C  
HETATM    2  C   UNL     1     -10.366   4.662  71.296  1.00  0.00    -0.078 C  
ENDROOT
BRANCH   2   3
HETATM    3  O   UNL     1      -9.745   5.553  72.221  1.00  0.00    -0.154 OA 
BRANCH   3   4
HETATM    4  C   UNL     1      -9.103   6.640  71.697  1.00  0.00    -0.142 A  
HETATM    5  C   UNL     1      -9.457   7.973  71.895  1.00  0.00    -0.240 A  
HETATM    6  C   UNL     1      -8.707   8.996  71.305  1.00  0.00    -0.240 A  
HETATM    7  C   UNL     1      -7.593   8.704  70.507  1.00  0.00    -0.077 A  
HETATM    8  C   UNL     1      -8.003   6.343  70.890  1.00  0.00    -0.112 A  
HETATM    9  C   UNL     1      -7.253   7.363  70.297  1.00  0.00    -0.066 A  
BRANCH   7  10
HETATM   10  C   UNL     1      -6.840   9.824  69.830  1.00  0.00    -0.074 C  
BRANCH  10  11
HETATM   11  C   UNL     1      -7.303  10.216  68.444  1.00  0.00    -0.081 A  
HETATM   12  C   UNL     1      -6.835   9.608  67.271  1.00  0.00    -0.083 A  
HETATM   13 CL   UNL     1      -5.800   8.227  67.309  1.00  0.00    -0.042 Cl 
HETATM   14  C   UNL     1      -7.161  10.144  66.019  1.00  0.00    -0.118 A  
HETATM   15  C   UNL     1      -7.942  11.299  65.916  1.00  0.00     0.083 A  
HETATM   16  C   UNL     1      -8.447  11.911  67.067  1.00  0.00    -0.177 A  
HETATM   17  C   UNL     1      -8.153  11.328  68.316  1.00  0.00    -0.137 A  
BRANCH  16  18
HETATM   18  C   UNL     1      -9.184  13.245  67.040  1.00  0.00    -0.237 C  
HETATM   19  O   UNL     1     -10.173  13.262  65.993  1.00  0.00    -0.280 OA 
HETATM   20  C   UNL     1     -10.940  14.479  65.972  1.00  0.00    -0.324 C  
HETATM   21  H   UNL     1      -6.608  15.167  67.837  1.00  0.00     0.000 HD 
HETATM   22  C   UNL     1     -10.036  15.689  65.728  1.00  0.00    -0.359 C  
HETATM   23  O   UNL     1      -7.225  14.453  67.944  1.00  0.00    -0.125 OA 
HETATM   24  O   UNL     1     -10.756  16.930  65.759  1.00  0.00    -0.286 OA 
HETATM   25  C   UNL     1      -8.937  15.743  66.791  1.00  0.00    -0.260 C  
HETATM   26  H   UNL     1      -7.358  16.856  67.170  1.00  0.00     0.000 HD 
HETATM   27  O   UNL     1      -8.040  16.822  66.510  1.00  0.00    -0.234 OA 
HETATM   28  H   UNL     1     -10.194  17.681  65.607  1.00  0.00     0.000 HD 
HETATM   29  C   UNL     1      -8.174  14.414  66.866  1.00  0.00    -0.016 C  
BRANCH  20  30
HETATM   30  C   UNL     1     -12.003  14.367  64.868  1.00  0.00    -0.426 C  
HETATM   31  O   UNL     1     -11.577  15.092  63.716  1.00  0.00    -0.555 OA 
HETATM   32  H   UNL     1     -12.234  15.023  63.033  1.00  0.00     0.000 HD 
ENDBRANCH  20  30
ENDBRANCH  16  18
ENDBRANCH  10  11
ENDBRANCH   7  10
ENDBRANCH   3   4
ENDBRANCH   2   3
TORSDOF 6
ENDMDL
MODEL      240
REMARK 921   NORMALIZED FREE ENERGY PREDICTED BY IDOCK:   -3.62 KCAL/MOL
REMARK 922        TOTAL FREE ENERGY PREDICTED BY IDOCK:   -5.85 KCAL/MOL
REMARK 923 INTER-LIGAND FREE ENERGY PREDICTED BY IDOCK:   -5.42 KCAL/MOL
REMARK 924 INTRA-LIGAND FREE ENERGY PREDICTED BY IDOCK:   -0.43 KCAL/MOL
REMARK 927      BINDING AFFINITY PREDICTED BY RF-SCORE:    0.00 PKD
ROOT
HETATM    1  C   UNL     1      -9.090   2.873  69.573  1.00  0.00    -0.194 C  
HETATM    2  C   UNL     1      -9.809   4.120  69.094  1.00  0.00    -0.051 C  
ENDROOT
BRANCH   2   3
HETATM    3  O   UNL     1      -9.855   4.087  67.669  1.00  0.00    -0.151 OA 
BRANCH   3   4
HETATM    4  C   UNL     1      -9.571   5.253  67.014  1.00  0.00    -0.142 A  
HETATM    5  C   UNL     1     -10.225   6.471  67.191  1.00  0.00    -0.257 A  
HETATM    6  C   UNL     1      -9.828   7.596  66.460  1.00  0.00    -0.242 A  
HETATM    7  C   UNL     1      -8.773   7.523  65.542  1.00  0.00    -0.062 A  
HETATM    8  C   UNL     1      -8.528   5.172  66.089  1.00  0.00    -0.115 A  
HETATM    9  C   UNL     1      -8.131   6.294  65.356  1.00  0.00    -0.131 A  
BRANCH   7  10
HETATM   10  C   UNL     1      -8.408   8.736  64.720  1.00  0.00    -0.177 C  
BRANCH  10  11
HETATM   11  C   UNL     1      -7.837   9.920  65.470  1.00  0.00    -0.126 A  
HETATM   12  C   UNL     1      -6.480  10.049  65.793  1.00  0.00    -0.099 A  
HETATM   13 CL   UNL     1      -5.293   8.938  65.212  1.00  0.00    -0.038 Cl 
HETATM   14  C   UNL     1      -6.052  11.072  66.648  1.00  0.00    -0.124 A  
HETATM   15  C   UNL     1      -6.968  11.968  67.208  1.00  0.00    -0.146 A  
HETATM   16  C   UNL     1      -8.325  11.881  66.881  1.00  0.00    -0.169 A  
HETATM   17  C   UNL     1      -8.731  10.880  65.978  1.00  0.00    -0.192 A  
BRANCH  16  18
HETATM   18  C   UNL     1      -9.395  12.730  67.558  1.00  0.00    -0.189 C  
HETATM   19  O   UNL     1     -10.516  12.938  66.677  1.00  0.00    -0.258 OA 
HETATM   20  C   UNL     1     -11.581  13.680  67.298  1.00  0.00    -0.356 C  
HETATM   21  H   UNL     1      -7.353  14.728  69.233  1.00  0.00     0.000 HD 
HETATM   22  C   UNL     1     -11.103  15.071  67.719  1.00  0.00    -0.310 C  
HETATM   23  O   UNL     1      -7.720  13.898  68.953  1.00  0.00    -0.118 OA 
HETATM   24  O   UNL     1     -12.121  15.822  68.396  1.00  0.00    -0.457 OA 
HETATM   25  C   UNL     1      -9.895  14.948  68.650  1.00  0.00    -0.225 C  
HETATM   26  H   UNL     1      -8.643  16.174  69.549  1.00  0.00     0.000 HD 
HETATM   27  O   UNL     1      -9.394  16.250  68.971  1.00  0.00    -0.238 OA 
HETATM   28  H   UNL     1     -11.824  16.686  68.657  1.00  0.00     0.000 HD 
HETATM   29  C   UNL     1      -8.794  14.089  68.016  1.00  0.00    -0.181 C  
BRANCH  20  30
HETATM   30  C   UNL     1     -12.746  13.787  66.301  1.00  0.00    -0.207 C  
HETATM   31  O   UNL     1     -12.465  12.998  65.147  1.00  0.00    -0.460 OA 
HETATM   32  H   UNL     1     -13.185  13.064  64.531  1.00  0.00     0.000 HD 
ENDBRANCH  20  30
ENDBRANCH  16  18
ENDBRANCH  10  11
ENDBRANCH   7  10
ENDBRANCH   3   4
ENDBRANCH   2   3
TORSDOF 6
ENDMDL
MODEL      241
REMARK 921   NORMALIZED FREE ENERGY PREDICTED BY IDOCK:   -3.61 KCAL/MOL
REMARK 922        TOTAL FREE ENERGY PREDICTED BY IDOCK:   -5.85 KCAL/MOL
REMARK 923 INTER-LIGAND FREE ENERGY PREDICTED BY IDOCK:   -5.16 KCAL/MOL
REMARK 924 INTRA-LIGAND FREE ENERGY PREDICTED BY IDOCK:   -0.69 KCAL/MOL
REMARK 927      BINDING AFFINITY PREDICTED BY RF-SCORE:    0.00 PKD
ROOT
HETATM    1  C   UNL     1     -10.709  20.209  65.959  1.00  0.00    -0.262 C  
HETATM    2  C   UNL     1     -10.763  18.805  66.533  1.00  0.00    -0.268 C  
ENDROOT
BRANCH   2   3
HETATM    3  O   UNL     1      -9.534  18.554  67.212  1.00  0.00    -0.281 OA 
BRANCH   3   4
HETATM    4  C   UNL     1      -9.204  17.245  67.429  1.00  0.00    -0.231 A  
HETATM    5  C   UNL     1      -8.798  16.333  66.458  1.00  0.00    -0.318 A  
HETATM    6  C   UNL     1      -8.479  15.019  66.816  1.00  0.00    -0.239 A  
HETATM    7  C   UNL     1      -8.561  14.595  68.149  1.00  0.00    -0.166 A  
HETATM    8  C   UNL     1      -9.301  16.824  68.757  1.00  0.00    -0.254 A  
HETATM    9  C   UNL     1      -8.985  15.511  69.117  1.00  0.00    -0.256 A  
BRANCH   7  10
HETATM   10  C   UNL     1      -8.273  13.154  68.498  1.00  0.00    -0.076 C  
BRANCH  10  11
HETATM   11  C   UNL     1      -8.900  12.101  67.612  1.00  0.00    -0.172 A  
HETATM   12  C   UNL     1     -10.260  11.763  67.655  1.00  0.00    -0.199 A  
HETATM   13 CL   UNL     1     -11.390  12.647  68.616  1.00  0.00    -0.304 Cl 
HETATM   14  C   UNL     1     -10.735  10.653  66.946  1.00  0.00    -0.297 A  
HETATM   15  C   UNL     1      -9.864   9.854  66.199  1.00  0.00    -0.324 A  
HETATM   16  C   UNL     1      -8.507  10.182  66.114  1.00  0.00    -0.134 A  
HETATM   17  C   UNL     1      -8.056  11.333  66.791  1.00  0.00    -0.159 A  
BRANCH  16  18
HETATM   18  C   UNL     1      -7.479   9.283  65.437  1.00  0.00    -0.098 C  
HETATM   19  O   UNL     1      -6.922   9.927  64.276  1.00  0.00    -0.119 OA 
HETATM   20  C   UNL     1      -5.898   9.142  63.642  1.00  0.00    -0.079 C  
HETATM   21  H   UNL     1      -9.012   6.400  65.988  1.00  0.00     0.000 HD 
HETATM   22  C   UNL     1      -6.458   7.801  63.162  1.00  0.00    -0.067 C  
HETATM   23  O   UNL     1      -8.618   7.233  66.219  1.00  0.00    -0.129 OA 
HETATM   24  O   UNL     1      -5.452   6.961  62.576  1.00  0.00    -0.031 OA 
HETATM   25  C   UNL     1      -7.088   7.049  64.335  1.00  0.00    -0.058 C  
HETATM   26  H   UNL     1      -8.082   5.369  64.599  1.00  0.00     0.000 HD 
HETATM   27  O   UNL     1      -7.690   5.836  63.870  1.00  0.00    -0.080 OA 
HETATM   28  H   UNL     1      -5.799   6.129  62.278  1.00  0.00     0.000 HD 
HETATM   29  C   UNL     1      -8.123   7.920  65.058  1.00  0.00    -0.144 C  
BRANCH  20  30
HETATM   30  C   UNL     1      -5.329   9.943  62.461  1.00  0.00    -0.089 C  
HETATM   31  O   UNL     1      -6.022  11.184  62.343  1.00  0.00    -0.322 OA 
HETATM   32  H   UNL     1      -5.671  11.679  61.613  1.00  0.00     0.000 HD 
ENDBRANCH  20  30
ENDBRANCH  16  18
ENDBRANCH  10  11
ENDBRANCH   7  10
ENDBRANCH   3   4
ENDBRANCH   2   3
TORSDOF 6
ENDMDL
MODEL      242
REMARK 921   NORMALIZED FREE ENERGY PREDICTED BY IDOCK:   -3.61 KCAL/MOL
REMARK 922        TOTAL FREE ENERGY PREDICTED BY IDOCK:   -5.84 KCAL/MOL
REMARK 923 INTER-LIGAND FREE ENERGY PREDICTED BY IDOCK:   -4.85 KCAL/MOL
REMARK 924 INTRA-LIGAND FREE ENERGY PREDICTED BY IDOCK:   -0.99 KCAL/MOL
REMARK 927      BINDING AFFINITY PREDICTED BY RF-SCORE:    0.00 PKD
ROOT
HETATM    1  C   UNL     1      -6.187  14.562  72.224  1.00  0.00     0.682 C  
HETATM    2  C   UNL     1      -5.564  13.217  71.901  1.00  0.00     0.200 C  
ENDROOT
BRANCH   2   3
HETATM    3  O   UNL     1      -5.136  13.241  70.540  1.00  0.00    -0.095 OA 
BRANCH   3   4
HETATM    4  C   UNL     1      -6.013  12.763  69.608  1.00  0.00    -0.121 A  
HETATM    5  C   UNL     1      -6.243  13.308  68.346  1.00  0.00    -0.086 A  
HETATM    6  C   UNL     1      -7.167  12.714  67.480  1.00  0.00    -0.155 A  
HETATM    7  C   UNL     1      -7.877  11.567  67.859  1.00  0.00    -0.123 A  
HETATM    8  C   UNL     1      -6.729  11.629  69.996  1.00  0.00     0.147 A  
HETATM    9  C   UNL     1      -7.654  11.034  69.134  1.00  0.00    -0.113 A  
BRANCH   7  10
HETATM   10  C   UNL     1      -8.914  10.985  66.930  1.00  0.00    -0.162 C  
BRANCH  10  11
HETATM   11  C   UNL     1      -9.879  11.958  66.290  1.00  0.00    -0.246 A  
HETATM   12  C   UNL     1     -10.450  11.762  65.026  1.00  0.00    -0.285 A  
HETATM   13 CL   UNL     1     -10.234  10.293  64.144  1.00  0.00    -0.175 Cl 
HETATM   14  C   UNL     1     -11.183  12.787  64.415  1.00  0.00    -0.390 A  
HETATM   15  C   UNL     1     -11.342  14.026  65.044  1.00  0.00    -0.342 A  
HETATM   16  C   UNL     1     -10.808  14.241  66.317  1.00  0.00    -0.310 A  
HETATM   17  C   UNL     1     -10.119  13.182  66.940  1.00  0.00    -0.245 A  
BRANCH  16  18
HETATM   18  C   UNL     1     -10.822  15.604  67.001  1.00  0.00    -0.294 C  
HETATM   19  O   UNL     1      -9.606  16.326  66.727  1.00  0.00    -0.223 OA 
HETATM   20  C   UNL     1      -9.603  17.646  67.298  1.00  0.00    -0.271 C  
HETATM   21  H   UNL     1     -12.404  14.677  69.758  1.00  0.00     0.000 HD 
HETATM   22  C   UNL     1      -9.729  17.581  68.822  1.00  0.00    -0.298 C  
HETATM   23  O   UNL     1     -12.277  14.780  68.823  1.00  0.00    -0.218 OA 
HETATM   24  O   UNL     1      -9.789  18.881  69.426  1.00  0.00    -0.229 OA 
HETATM   25  C   UNL     1     -10.993  16.812  69.208  1.00  0.00    -0.197 C  
HETATM   26  H   UNL     1     -11.849  16.196  70.872  1.00  0.00     0.000 HD 
HETATM   27  O   UNL     1     -11.063  16.674  70.631  1.00  0.00    -0.228 OA 
HETATM   28  H   UNL     1      -9.867  18.841  70.372  1.00  0.00     0.000 HD 
HETATM   29  C   UNL     1     -11.031  15.435  68.532  1.00  0.00    -0.278 C  
BRANCH  20  30
HETATM   30  C   UNL     1      -8.298  18.350  66.894  1.00  0.00    -0.253 C  
HETATM   31  O   UNL     1      -7.779  17.754  65.706  1.00  0.00    -0.541 OA 
HETATM   32  H   UNL     1      -6.972  18.189  65.456  1.00  0.00     0.000 HD 
ENDBRANCH  20  30
ENDBRANCH  16  18
ENDBRANCH  10  11
ENDBRANCH   7  10
ENDBRANCH   3   4
ENDBRANCH   2   3
TORSDOF 6
ENDMDL
MODEL      243
REMARK 921   NORMALIZED FREE ENERGY PREDICTED BY IDOCK:   -3.59 KCAL/MOL
REMARK 922        TOTAL FREE ENERGY PREDICTED BY IDOCK:   -5.81 KCAL/MOL
REMARK 923 INTER-LIGAND FREE ENERGY PREDICTED BY IDOCK:   -4.67 KCAL/MOL
REMARK 924 INTRA-LIGAND FREE ENERGY PREDICTED BY IDOCK:   -1.14 KCAL/MOL
REMARK 927      BINDING AFFINITY PREDICTED BY RF-SCORE:    0.00 PKD
ROOT
HETATM    1  C   UNL     1      -8.660   4.304  74.492  1.00  0.00    -0.091 C  
HETATM    2  C   UNL     1      -7.458   3.505  74.025  1.00  0.00    -0.057 C  
ENDROOT
BRANCH   2   3
HETATM    3  O   UNL     1      -7.904   2.559  73.054  1.00  0.00    -0.046 OA 
BRANCH   3   4
HETATM    4  C   UNL     1      -8.172   3.039  71.802  1.00  0.00    -0.058 A  
HETATM    5  C   UNL     1      -7.275   3.708  70.973  1.00  0.00    -0.033 A  
HETATM    6  C   UNL     1      -7.676   4.142  69.705  1.00  0.00    -0.053 A  
HETATM    7  C   UNL     1      -8.980   3.914  69.245  1.00  0.00    -0.175 A  
HETATM    8  C   UNL     1      -9.477   2.822  71.355  1.00  0.00    -0.216 A  
HETATM    9  C   UNL     1      -9.882   3.256  70.089  1.00  0.00     0.062 A  
BRANCH   7  10
HETATM   10  C   UNL     1      -9.405   4.449  67.899  1.00  0.00    -0.190 C  
BRANCH  10  11
HETATM   11  C   UNL     1      -8.875   5.811  67.509  1.00  0.00    -0.106 A  
HETATM   12  C   UNL     1      -7.693   6.001  66.781  1.00  0.00    -0.100 A  
HETATM   13 CL   UNL     1      -6.812   4.677  66.109  1.00  0.00    -0.053 Cl 
HETATM   14  C   UNL     1      -7.162   7.286  66.617  1.00  0.00    -0.080 A  
HETATM   15  C   UNL     1      -7.789   8.398  67.190  1.00  0.00    -0.100 A  
HETATM   16  C   UNL     1      -8.985   8.243  67.898  1.00  0.00    -0.134 A  
HETATM   17  C   UNL     1      -9.533   6.949  68.007  1.00  0.00    -0.124 A  
BRANCH  16  18
HETATM   18  C   UNL     1      -9.647   9.382  68.664  1.00  0.00    -0.147 C  
HETATM   19  O   UNL     1     -10.374   8.880  69.801  1.00  0.00    -0.196 OA 
HETATM   20  C   UNL     1     -10.961   9.927  70.593  1.00  0.00    -0.337 C  
HETATM   21  H   UNL     1     -10.428  11.254  66.046  1.00  0.00     0.000 HD 
HETATM   22  C   UNL     1     -11.963  10.739  69.767  1.00  0.00    -0.325 C  
HETATM   23  O   UNL     1      -9.855  10.760  66.621  1.00  0.00    -0.188 OA 
HETATM   24  O   UNL     1     -12.527  11.832  70.505  1.00  0.00    -0.293 OA 
HETATM   25  C   UNL     1     -11.277  11.302  68.522  1.00  0.00    -0.252 C  
HETATM   26  H   UNL     1     -11.808  12.335  66.932  1.00  0.00     0.000 HD 
HETATM   27  O   UNL     1     -12.234  11.985  67.706  1.00  0.00    -0.474 OA 
HETATM   28  H   UNL     1     -13.149  12.336  69.993  1.00  0.00     0.000 HD 
HETATM   29  C   UNL     1     -10.583  10.191  67.723  1.00  0.00    -0.256 C  
BRANCH  20  30
HETATM   30  C   UNL     1     -11.654   9.291  71.808  1.00  0.00    -0.388 C  
HETATM   31  O   UNL     1     -11.075   8.015  72.077  1.00  0.00    -0.258 OA 
HETATM   32  H   UNL     1     -11.503   7.622  72.828  1.00  0.00     0.000 HD 
ENDBRANCH  20  30
ENDBRANCH  16  18
ENDBRANCH  10  11
ENDBRANCH   7  10
ENDBRANCH   3   4
ENDBRANCH   2   3
TORSDOF 6
ENDMDL
MODEL      244
REMARK 921   NORMALIZED FREE ENERGY PREDICTED BY IDOCK:   -3.58 KCAL/MOL
REMARK 922        TOTAL FREE ENERGY PREDICTED BY IDOCK:   -5.80 KCAL/MOL
REMARK 923 INTER-LIGAND FREE ENERGY PREDICTED BY IDOCK:   -5.11 KCAL/MOL
REMARK 924 INTRA-LIGAND FREE ENERGY PREDICTED BY IDOCK:   -0.69 KCAL/MOL
REMARK 927      BINDING AFFINITY PREDICTED BY RF-SCORE:    0.00 PKD
ROOT
HETATM    1  C   UNL     1     -12.409  12.979  63.455  1.00  0.00    -0.478 C  
HETATM    2  C   UNL     1     -11.089  12.231  63.477  1.00  0.00    -0.464 C  
ENDROOT
BRANCH   2   3
HETATM    3  O   UNL     1     -10.822  11.840  64.822  1.00  0.00    -0.283 OA 
BRANCH   3   4
HETATM    4  C   UNL     1     -10.096  10.695  65.000  1.00  0.00    -0.321 A  
HETATM    5  C   UNL     1     -10.018   9.950  66.175  1.00  0.00    -0.331 A  
HETATM    6  C   UNL     1      -9.242   8.788  66.222  1.00  0.00    -0.261 A  
HETATM    7  C   UNL     1      -8.530   8.351  65.097  1.00  0.00    -0.179 A  
HETATM    8  C   UNL     1      -9.376  10.272  63.881  1.00  0.00    -0.337 A  
HETATM    9  C   UNL     1      -8.598   9.112  63.925  1.00  0.00    -0.188 A  
BRANCH   7  10
HETATM   10  C   UNL     1      -7.648   7.129  65.194  1.00  0.00    -0.102 C  
BRANCH  10  11
HETATM   11  C   UNL     1      -8.253   5.903  65.843  1.00  0.00    -0.127 A  
HETATM   12  C   UNL     1      -8.892   4.884  65.125  1.00  0.00    -0.153 A  
HETATM   13 CL   UNL     1      -8.902   4.851  63.399  1.00  0.00    -0.117 Cl 
HETATM   14  C   UNL     1      -9.592   3.876  65.800  1.00  0.00    -0.182 A  
HETATM   15  C   UNL     1      -9.680   3.878  67.196  1.00  0.00    -0.182 A  
HETATM   16  C   UNL     1      -9.029   4.866  67.940  1.00  0.00    -0.120 A  
HETATM   17  C   UNL     1      -8.285   5.841  67.247  1.00  0.00    -0.102 A  
BRANCH  16  18
HETATM   18  C   UNL     1      -9.196   5.011  69.449  1.00  0.00    -0.108 C  
HETATM   19  O   UNL     1      -8.451   6.143  69.939  1.00  0.00    -0.125 OA 
HETATM   20  C   UNL     1      -8.632   6.358  71.350  1.00  0.00    -0.130 C  
HETATM   21  H   UNL     1      -9.270   1.782  70.178  1.00  0.00     0.000 HD 
HETATM   22  C   UNL     1      -8.152   5.147  72.153  1.00  0.00    -0.113 C  
HETATM   23  O   UNL     1      -9.540   2.580  69.739  1.00  0.00    -0.102 OA 
HETATM   24  O   UNL     1      -8.371   5.299  73.563  1.00  0.00    -0.113 OA 
HETATM   25  C   UNL     1      -8.883   3.888  71.685  1.00  0.00    -0.104 C  
HETATM   26  H   UNL     1      -8.824   1.960  72.082  1.00  0.00     0.000 HD 
HETATM   27  O   UNL     1      -8.370   2.742  72.373  1.00  0.00    -0.064 OA 
HETATM   28  H   UNL     1      -8.073   4.547  74.061  1.00  0.00     0.000 HD 
HETATM   29  C   UNL     1      -8.755   3.705  70.167  1.00  0.00    -0.069 C  
BRANCH  20  30
HETATM   30  C   UNL     1      -7.852   7.619  71.755  1.00  0.00    -0.087 C  
HETATM   31  O   UNL     1      -8.369   8.129  72.983  1.00  0.00    -0.171 OA 
HETATM   32  H   UNL     1      -7.887   8.908  73.233  1.00  0.00     0.000 HD 
ENDBRANCH  20  30
ENDBRANCH  16  18
ENDBRANCH  10  11
ENDBRANCH   7  10
ENDBRANCH   3   4
ENDBRANCH   2   3
TORSDOF 6
ENDMDL
MODEL      245
REMARK 921   NORMALIZED FREE ENERGY PREDICTED BY IDOCK:   -3.55 KCAL/MOL
REMARK 922        TOTAL FREE ENERGY PREDICTED BY IDOCK:   -5.76 KCAL/MOL
REMARK 923 INTER-LIGAND FREE ENERGY PREDICTED BY IDOCK:   -5.59 KCAL/MOL
REMARK 924 INTRA-LIGAND FREE ENERGY PREDICTED BY IDOCK:   -0.17 KCAL/MOL
REMARK 927      BINDING AFFINITY PREDICTED BY RF-SCORE:    0.00 PKD
ROOT
HETATM    1  C   UNL     1      -7.755   2.945  69.264  1.00  0.00    -0.048 C  
HETATM    2  C   UNL     1      -7.625   2.257  67.917  1.00  0.00    -0.055 C  
ENDROOT
BRANCH   2   3
HETATM    3  O   UNL     1      -7.439   3.260  66.921  1.00  0.00    -0.073 OA 
BRANCH   3   4
HETATM    4  C   UNL     1      -8.314   4.311  66.932  1.00  0.00    -0.101 A  
HETATM    5  C   UNL     1      -9.702   4.219  66.848  1.00  0.00    -0.239 A  
HETATM    6  C   UNL     1     -10.487   5.377  66.879  1.00  0.00    -0.337 A  
HETATM    7  C   UNL     1      -9.899   6.644  66.992  1.00  0.00    -0.207 A  
HETATM    8  C   UNL     1      -7.722   5.571  67.030  1.00  0.00    -0.100 A  
HETATM    9  C   UNL     1      -8.504   6.730  67.059  1.00  0.00    -0.114 A  
BRANCH   7  10
HETATM   10  C   UNL     1     -10.765   7.879  66.958  1.00  0.00    -0.289 C  
BRANCH  10  11
HETATM   11  C   UNL     1     -10.567   8.881  68.074  1.00  0.00    -0.226 A  
HETATM   12  C   UNL     1     -10.863   8.612  69.417  1.00  0.00    -0.095 A  
HETATM   13 CL   UNL     1     -11.329   7.038  69.951  1.00  0.00    -0.284 Cl 
HETATM   14  C   UNL     1     -10.835   9.641  70.367  1.00  0.00    -0.353 A  
HETATM   15  C   UNL     1     -10.529  10.953  69.992  1.00  0.00     0.168 A  
HETATM   16  C   UNL     1     -10.202  11.247  68.665  1.00  0.00    -0.214 A  
HETATM   17  C   UNL     1     -10.183  10.190  67.733  1.00  0.00    -0.232 A  
BRANCH  16  18
HETATM   18  C   UNL     1      -9.996  12.670  68.158  1.00  0.00    -0.225 C  
HETATM   19  O   UNL     1     -11.023  13.545  68.661  1.00  0.00    -0.247 OA 
HETATM   20  C   UNL     1     -10.832  14.914  68.262  1.00  0.00    -0.257 C  
HETATM   21  H   UNL     1      -8.877  11.887  65.141  1.00  0.00     0.000 HD 
HETATM   22  C   UNL     1     -10.862  15.047  66.738  1.00  0.00    -0.318 C  
HETATM   23  O   UNL     1      -8.896  11.876  66.091  1.00  0.00    -0.166 OA 
HETATM   24  O   UNL     1     -10.614  16.390  66.296  1.00  0.00    -0.303 OA 
HETATM   25  C   UNL     1      -9.805  14.133  66.113  1.00  0.00    -0.308 C  
HETATM   26  H   UNL     1      -9.238  13.623  64.298  1.00  0.00     0.000 HD 
HETATM   27  O   UNL     1      -9.894  14.191  64.686  1.00  0.00    -0.141 OA 
HETATM   28  H   UNL     1     -10.633  16.473  65.350  1.00  0.00     0.000 HD 
HETATM   29  C   UNL     1      -9.964  12.689  66.604  1.00  0.00    -0.242 C  
BRANCH  20  30
HETATM   30  C   UNL     1     -11.938  15.768  68.900  1.00  0.00    -0.252 C  
HETATM   31  O   UNL     1     -12.255  15.255  70.193  1.00  0.00    -0.329 OA 
HETATM   32  H   UNL     1     -12.939  15.782  70.588  1.00  0.00     0.000 HD 
ENDBRANCH  20  30
ENDBRANCH  16  18
ENDBRANCH  10  11
ENDBRANCH   7  10
ENDBRANCH   3   4
ENDBRANCH   2   3
TORSDOF 6
ENDMDL
MODEL      246
REMARK 921   NORMALIZED FREE ENERGY PREDICTED BY IDOCK:   -3.50 KCAL/MOL
REMARK 922        TOTAL FREE ENERGY PREDICTED BY IDOCK:   -5.69 KCAL/MOL
REMARK 923 INTER-LIGAND FREE ENERGY PREDICTED BY IDOCK:   -5.02 KCAL/MOL
REMARK 924 INTRA-LIGAND FREE ENERGY PREDICTED BY IDOCK:   -0.68 KCAL/MOL
REMARK 927      BINDING AFFINITY PREDICTED BY RF-SCORE:    0.00 PKD
ROOT
HETATM    1  C   UNL     1     -12.593  12.922  63.243  1.00  0.00    -0.185 C  
HETATM    2  C   UNL     1     -11.163  13.105  63.716  1.00  0.00    -0.273 C  
ENDROOT
BRANCH   2   3
HETATM    3  O   UNL     1     -11.048  12.526  65.015  1.00  0.00    -0.285 OA 
BRANCH   3   4
HETATM    4  C   UNL     1     -10.377  11.338  65.105  1.00  0.00    -0.295 A  
HETATM    5  C   UNL     1     -10.529  10.388  66.113  1.00  0.00    -0.224 A  
HETATM    6  C   UNL     1      -9.784   9.204  66.081  1.00  0.00    -0.357 A  
HETATM    7  C   UNL     1      -8.876   8.950  65.045  1.00  0.00    -0.183 A  
HETATM    8  C   UNL     1      -9.463  11.097  64.077  1.00  0.00    -0.241 A  
HETATM    9  C   UNL     1      -8.717   9.916  64.044  1.00  0.00    -0.229 A  
BRANCH   7  10
HETATM   10  C   UNL     1      -8.039   7.694  65.070  1.00  0.00    -0.133 C  
BRANCH  10  11
HETATM   11  C   UNL     1      -8.152   6.825  66.303  1.00  0.00    -0.112 A  
HETATM   12  C   UNL     1      -8.446   5.455  66.259  1.00  0.00    -0.117 A  
HETATM   13 CL   UNL     1      -8.541   4.589  64.769  1.00  0.00    -0.131 Cl 
HETATM   14  C   UNL     1      -8.722   4.754  67.439  1.00  0.00    -0.103 A  
HETATM   15  C   UNL     1      -8.727   5.407  68.676  1.00  0.00    -0.097 A  
HETATM   16  C   UNL     1      -8.410   6.766  68.754  1.00  0.00    -0.121 A  
HETATM   17  C   UNL     1      -8.083   7.444  67.563  1.00  0.00    -0.114 A  
BRANCH  16  18
HETATM   18  C   UNL     1      -8.531   7.572  70.042  1.00  0.00    -0.137 C  
HETATM   19  O   UNL     1      -7.449   7.264  70.942  1.00  0.00    -0.074 OA 
HETATM   20  C   UNL     1      -7.486   8.051  72.145  1.00  0.00    -0.095 C  
HETATM   21  H   UNL     1     -11.834   7.509  70.270  1.00  0.00     0.000 HD 
HETATM   22  C   UNL     1      -8.778   7.795  72.925  1.00  0.00    -0.166 C  
HETATM   23  O   UNL     1     -10.995   7.674  69.857  1.00  0.00    -0.250 OA 
HETATM   24  O   UNL     1      -8.880   8.606  74.104  1.00  0.00    -0.181 OA 
HETATM   25  C   UNL     1      -9.989   8.083  72.036  1.00  0.00    -0.213 C  
HETATM   26  H   UNL     1     -11.947   7.936  72.183  1.00  0.00     0.000 HD 
HETATM   27  O   UNL     1     -11.194   7.758  72.735  1.00  0.00    -0.354 OA 
HETATM   28  H   UNL     1      -9.682   8.447  74.588  1.00  0.00     0.000 HD 
HETATM   29  C   UNL     1      -9.905   7.303  70.718  1.00  0.00    -0.178 C  
BRANCH  20  30
HETATM   30  C   UNL     1      -6.259   7.693  73.000  1.00  0.00    -0.061 C  
HETATM   31  O   UNL     1      -5.751   8.869  73.626  1.00  0.00    -0.110 OA 
HETATM   32  H   UNL     1      -4.993   8.648  74.154  1.00  0.00     0.000 HD 
ENDBRANCH  20  30
ENDBRANCH  16  18
ENDBRANCH  10  11
ENDBRANCH   7  10
ENDBRANCH   3   4
ENDBRANCH   2   3
TORSDOF 6
ENDMDL
MODEL      247
REMARK 921   NORMALIZED FREE ENERGY PREDICTED BY IDOCK:   -3.45 KCAL/MOL
REMARK 922        TOTAL FREE ENERGY PREDICTED BY IDOCK:   -5.62 KCAL/MOL
REMARK 923 INTER-LIGAND FREE ENERGY PREDICTED BY IDOCK:   -4.88 KCAL/MOL
REMARK 924 INTRA-LIGAND FREE ENERGY PREDICTED BY IDOCK:   -0.74 KCAL/MOL
REMARK 927      BINDING AFFINITY PREDICTED BY RF-SCORE:    0.00 PKD
ROOT
HETATM    1  C   UNL     1      -5.319   9.020  63.619  1.00  0.00    -0.062 C  
HETATM    2  C   UNL     1      -5.537   9.708  64.954  1.00  0.00    -0.063 C  
ENDROOT
BRANCH   2   3
HETATM    3  O   UNL     1      -6.564   9.007  65.654  1.00  0.00    -0.066 OA 
BRANCH   3   4
HETATM    4  C   UNL     1      -7.580   9.758  66.175  1.00  0.00    -0.101 A  
HETATM    5  C   UNL     1      -7.995   9.762  67.505  1.00  0.00    -0.106 A  
HETATM    6  C   UNL     1      -9.048  10.588  67.912  1.00  0.00    -0.136 A  
HETATM    7  C   UNL     1      -9.704  11.422  66.997  1.00  0.00    -0.210 A  
HETATM    8  C   UNL     1      -8.240  10.576  65.256  1.00  0.00    -0.146 A  
HETATM    9  C   UNL     1      -9.294  11.401  65.659  1.00  0.00    -0.242 A  
BRANCH   7  10
HETATM   10  C   UNL     1     -10.879  12.255  67.450  1.00  0.00    -0.277 C  
BRANCH  10  11
HETATM   11  C   UNL     1     -10.564  13.494  68.258  1.00  0.00    -0.259 A  
HETATM   12  C   UNL     1     -11.440  14.042  69.206  1.00  0.00    -0.295 A  
HETATM   13 CL   UNL     1     -12.903  13.249  69.663  1.00  0.00     0.385 Cl 
HETATM   14  C   UNL     1     -11.169  15.291  69.779  1.00  0.00    -0.300 A  
HETATM   15  C   UNL     1     -10.034  16.019  69.406  1.00  0.00    -0.262 A  
HETATM   16  C   UNL     1      -9.128  15.485  68.485  1.00  0.00    -0.196 A  
HETATM   17  C   UNL     1      -9.389  14.204  67.958  1.00  0.00    -0.203 A  
BRANCH  16  18
HETATM   18  C   UNL     1      -7.950  16.276  67.929  1.00  0.00    -0.145 C  
HETATM   19  O   UNL     1      -7.353  17.094  68.954  1.00  0.00    -0.232 OA 
HETATM   20  C   UNL     1      -6.195  17.809  68.490  1.00  0.00    -0.184 C  
HETATM   21  H   UNL     1      -9.217  16.868  64.927  1.00  0.00     0.000 HD 
HETATM   22  C   UNL     1      -6.562  18.757  67.346  1.00  0.00    -0.194 C  
HETATM   23  O   UNL     1      -8.938  16.336  65.663  1.00  0.00    -0.403 OA 
HETATM   24  O   UNL     1      -5.421  19.447  66.815  1.00  0.00    -0.164 OA 
HETATM   25  C   UNL     1      -7.221  17.972  66.210  1.00  0.00    -0.275 C  
HETATM   26  H   UNL     1      -8.053  18.383  64.474  1.00  0.00     0.000 HD 
HETATM   27  O   UNL     1      -7.643  18.870  65.179  1.00  0.00    -0.101 OA 
HETATM   28  H   UNL     1      -5.648  20.035  66.104  1.00  0.00     0.000 HD 
HETATM   29  C   UNL     1      -8.407  17.147  66.724  1.00  0.00    -0.234 C  
BRANCH  20  30
HETATM   30  C   UNL     1      -5.601  18.594  69.671  1.00  0.00    -0.230 C  
HETATM   31  O   UNL     1      -5.127  19.860  69.217  1.00  0.00    -0.180 OA 
HETATM   32  H   UNL     1      -4.759  20.344  69.947  1.00  0.00     0.000 HD 
ENDBRANCH  20  30
ENDBRANCH  16  18
ENDBRANCH  10  11
ENDBRANCH   7  10
ENDBRANCH   3   4
ENDBRANCH   2   3
TORSDOF 6
ENDMDL
MODEL      248
REMARK 921   NORMALIZED FREE ENERGY PREDICTED BY IDOCK:   -3.41 KCAL/MOL
REMARK 922        TOTAL FREE ENERGY PREDICTED BY IDOCK:   -5.57 KCAL/MOL
REMARK 923 INTER-LIGAND FREE ENERGY PREDICTED BY IDOCK:   -4.73 KCAL/MOL
REMARK 924 INTRA-LIGAND FREE ENERGY PREDICTED BY IDOCK:   -0.84 KCAL/MOL
REMARK 927      BINDING AFFINITY PREDICTED BY RF-SCORE:    0.00 PKD
ROOT
HETATM    1  C   UNL     1     -11.599  12.898  64.612  1.00  0.00    -0.392 C  
HETATM    2  C   UNL     1     -11.300  13.063  66.090  1.00  0.00    -0.314 C  
ENDROOT
BRANCH   2   3
HETATM    3  O   UNL     1     -11.567  11.822  66.739  1.00  0.00    -0.489 OA 
BRANCH   3   4
HETATM    4  C   UNL     1     -10.487  11.113  67.187  1.00  0.00    -0.231 A  
HETATM    5  C   UNL     1      -9.624  11.498  68.211  1.00  0.00    -0.189 A  
HETATM    6  C   UNL     1      -8.556  10.673  68.579  1.00  0.00    -0.137 A  
HETATM    7  C   UNL     1      -8.333   9.451  67.930  1.00  0.00    -0.115 A  
HETATM    8  C   UNL     1     -10.260   9.904  66.527  1.00  0.00    -0.292 A  
HETATM    9  C   UNL     1      -9.193   9.078  66.891  1.00  0.00    -0.179 A  
BRANCH   7  10
HETATM   10  C   UNL     1      -7.135   8.611  68.304  1.00  0.00    -0.078 C  
BRANCH  10  11
HETATM   11  C   UNL     1      -7.291   7.111  68.182  1.00  0.00    -0.097 A  
HETATM   12  C   UNL     1      -6.882   6.380  67.059  1.00  0.00    -0.066 A  
HETATM   13 CL   UNL     1      -5.998   7.109  65.767  1.00  0.00    -0.036 Cl 
HETATM   14  C   UNL     1      -7.225   5.028  66.932  1.00  0.00    -0.077 A  
HETATM   15  C   UNL     1      -7.995   4.390  67.910  1.00  0.00    -0.087 A  
HETATM   16  C   UNL     1      -8.395   5.087  69.055  1.00  0.00    -0.086 A  
HETATM   17  C   UNL     1      -7.995   6.431  69.191  1.00  0.00    -0.111 A  
BRANCH  16  18
HETATM   18  C   UNL     1      -9.348   4.500  70.090  1.00  0.00    -0.147 C  
HETATM   19  O   UNL     1      -9.745   5.502  71.045  1.00  0.00    -0.165 OA 
HETATM   20  C   UNL     1     -10.697   5.010  72.004  1.00  0.00    -0.135 C  
HETATM   21  H   UNL     1      -7.949   1.507  70.304  1.00  0.00     0.000 HD 
HETATM   22  C   UNL     1     -10.108   3.854  72.814  1.00  0.00    -0.161 C  
HETATM   23  O   UNL     1      -8.352   2.248  69.868  1.00  0.00    -0.044 OA 
HETATM   24  O   UNL     1     -11.049   3.295  73.742  1.00  0.00    -0.221 OA 
HETATM   25  C   UNL     1      -9.641   2.742  71.873  1.00  0.00    -0.142 C  
HETATM   26  H   UNL     1      -8.719   1.010  72.041  1.00  0.00     0.000 HD 
HETATM   27  O   UNL     1      -9.009   1.701  72.625  1.00  0.00    -0.061 OA 
HETATM   28  H   UNL     1     -10.682   2.577  74.246  1.00  0.00     0.000 HD 
HETATM   29  C   UNL     1      -8.687   3.287  70.803  1.00  0.00    -0.075 C  
BRANCH  20  30
HETATM   30  C   UNL     1     -11.101   6.168  72.930  1.00  0.00    -0.247 C  
HETATM   31  O   UNL     1     -10.821   5.820  74.284  1.00  0.00    -0.361 OA 
HETATM   32  H   UNL     1     -11.071   6.536  74.857  1.00  0.00     0.000 HD 
ENDBRANCH  20  30
ENDBRANCH  16  18
ENDBRANCH  10  11
ENDBRANCH   7  10
ENDBRANCH   3   4
ENDBRANCH   2   3
TORSDOF 6
ENDMDL
MODEL      249
REMARK 921   NORMALIZED FREE ENERGY PREDICTED BY IDOCK:   -3.39 KCAL/MOL
REMARK 922        TOTAL FREE ENERGY PREDICTED BY IDOCK:   -5.55 KCAL/MOL
REMARK 923 INTER-LIGAND FREE ENERGY PREDICTED BY IDOCK:   -6.42 KCAL/MOL
REMARK 924 INTRA-LIGAND FREE ENERGY PREDICTED BY IDOCK:    0.87 KCAL/MOL
REMARK 927      BINDING AFFINITY PREDICTED BY RF-SCORE:    0.00 PKD
ROOT
HETATM    1  C   UNL     1     -13.997   8.666  72.568  1.00  0.00    -0.374 C  
HETATM    2  C   UNL     1     -13.217   9.723  71.809  1.00  0.00    -0.436 C  
ENDROOT
BRANCH   2   3
HETATM    3  O   UNL     1     -13.640  11.005  72.270  1.00  0.00    -0.247 OA 
BRANCH   3   4
HETATM    4  C   UNL     1     -13.069  12.095  71.674  1.00  0.00    -0.310 A  
HETATM    5  C   UNL     1     -13.016  13.382  72.205  1.00  0.00    -0.403 A  
HETATM    6  C   UNL     1     -12.392  14.412  71.492  1.00  0.00    -0.427 A  
HETATM    7  C   UNL     1     -11.812  14.173  70.240  1.00  0.00    -0.373 A  
HETATM    8  C   UNL     1     -12.506  11.855  70.419  1.00  0.00    -0.252 A  
HETATM    9  C   UNL     1     -11.884  12.882  69.704  1.00  0.00    -0.387 A  
BRANCH   7  10
HETATM   10  C   UNL     1     -11.202  15.316  69.464  1.00  0.00    -0.289 C  
BRANCH  10  11
HETATM   11  C   UNL     1      -9.876  15.048  68.787  1.00  0.00    -0.233 A  
HETATM   12  C   UNL     1      -9.130  16.037  68.132  1.00  0.00    -0.187 A  
HETATM   13 CL   UNL     1      -9.577  17.703  68.183  1.00  0.00    -0.285 Cl 
HETATM   14  C   UNL     1      -8.010  15.686  67.367  1.00  0.00    -0.204 A  
HETATM   15  C   UNL     1      -7.629  14.347  67.228  1.00  0.00    -0.135 A  
HETATM   16  C   UNL     1      -8.338  13.342  67.893  1.00  0.00    -0.166 A  
HETATM   17  C   UNL     1      -9.429  13.718  68.701  1.00  0.00    -0.099 A  
BRANCH  16  18
HETATM   18  C   UNL     1      -8.068  11.857  67.677  1.00  0.00    -0.148 C  
HETATM   19  O   UNL     1      -6.931  11.665  66.813  1.00  0.00    -0.134 OA 
HETATM   20  C   UNL     1      -6.598  10.277  66.634  1.00  0.00    -0.078 C  
HETATM   21  H   UNL     1     -11.224  10.856  67.628  1.00  0.00     0.000 HD 
HETATM   22  C   UNL     1      -7.759   9.516  65.992  1.00  0.00    -0.100 C  
HETATM   23  O   UNL     1     -10.453  11.282  67.983  1.00  0.00    -0.177 OA 
HETATM   24  O   UNL     1      -7.488   8.113  65.851  1.00  0.00    -0.077 OA 
HETATM   25  C   UNL     1      -9.022   9.679  66.840  1.00  0.00    -0.134 C  
HETATM   26  H   UNL     1     -10.913   9.142  66.719  1.00  0.00     0.000 HD 
HETATM   27  O   UNL     1     -10.129   9.041  66.193  1.00  0.00    -0.290 OA 
HETATM   28  H   UNL     1      -8.209   7.640  65.452  1.00  0.00     0.000 HD 
HETATM   29  C   UNL     1      -9.329  11.159  67.096  1.00  0.00    -0.165 C  
BRANCH  20  30
HETATM   30  C   UNL     1      -5.341  10.187  65.755  1.00  0.00    -0.056 C  
HETATM   31  O   UNL     1      -5.628  10.693  64.453  1.00  0.00    -0.253 OA 
HETATM   32  H   UNL     1      -4.851  10.637  63.909  1.00  0.00     0.000 HD 
ENDBRANCH  20  30
ENDBRANCH  16  18
ENDBRANCH  10  11
ENDBRANCH   7  10
ENDBRANCH   3   4
ENDBRANCH   2   3
TORSDOF 6
ENDMDL
MODEL      250
REMARK 921   NORMALIZED FREE ENERGY PREDICTED BY IDOCK:   -3.37 KCAL/MOL
REMARK 922        TOTAL FREE ENERGY PREDICTED BY IDOCK:   -5.52 KCAL/MOL
REMARK 923 INTER-LIGAND FREE ENERGY PREDICTED BY IDOCK:   -4.42 KCAL/MOL
REMARK 924 INTRA-LIGAND FREE ENERGY PREDICTED BY IDOCK:   -1.10 KCAL/MOL
REMARK 927      BINDING AFFINITY PREDICTED BY RF-SCORE:    0.00 PKD
ROOT
HETATM    1  C   UNL     1      -8.694   4.232  74.559  1.00  0.00    -0.098 C  
HETATM    2  C   UNL     1      -7.588   3.214  74.354  1.00  0.00    -0.056 C  
ENDROOT
BRANCH   2   3
HETATM    3  O   UNL     1      -8.130   2.108  73.633  1.00  0.00    -0.049 OA 
BRANCH   3   4
HETATM    4  C   UNL     1      -8.331   2.283  72.293  1.00  0.00    -0.054 A  
HETATM    5  C   UNL     1      -7.455   2.910  71.409  1.00  0.00    -0.040 A  
HETATM    6  C   UNL     1      -7.779   3.016  70.053  1.00  0.00    -0.044 A  
HETATM    7  C   UNL     1      -8.982   2.499  69.556  1.00  0.00    -0.167 A  
HETATM    8  C   UNL     1      -9.539   1.778  71.806  1.00  0.00    -0.192 A  
HETATM    9  C   UNL     1      -9.866   1.884  70.451  1.00  0.00     0.068 A  
BRANCH   7  10
HETATM   10  C   UNL     1      -9.336   2.684  68.100  1.00  0.00    -0.258 C  
BRANCH  10  11
HETATM   11  C   UNL     1      -9.087   4.053  67.508  1.00  0.00    -0.168 A  
HETATM   12  C   UNL     1      -8.041   4.332  66.618  1.00  0.00    -0.102 A  
HETATM   13 CL   UNL     1      -7.030   3.088  65.978  1.00  0.00    -0.056 Cl 
HETATM   14  C   UNL     1      -7.754   5.654  66.257  1.00  0.00    -0.099 A  
HETATM   15  C   UNL     1      -8.492   6.718  66.789  1.00  0.00    -0.117 A  
HETATM   16  C   UNL     1      -9.559   6.468  67.657  1.00  0.00    -0.131 A  
HETATM   17  C   UNL     1      -9.867   5.129  67.967  1.00  0.00    -0.199 A  
BRANCH  16  18
HETATM   18  C   UNL     1     -10.314   7.577  68.381  1.00  0.00    -0.195 C  
HETATM   19  O   UNL     1     -10.318   8.787  67.600  1.00  0.00    -0.226 OA 
HETATM   20  C   UNL     1     -11.076   9.843  68.215  1.00  0.00    -0.150 C  
HETATM   21  H   UNL     1      -9.364   6.796  71.456  1.00  0.00     0.000 HD 
HETATM   22  C   UNL     1     -10.488  10.214  69.578  1.00  0.00    -0.241 C  
HETATM   23  O   UNL     1      -9.746   6.644  70.599  1.00  0.00    -0.172 OA 
HETATM   24  O   UNL     1     -11.252  11.225  70.252  1.00  0.00    -0.485 OA 
HETATM   25  C   UNL     1     -10.430   8.977  70.475  1.00  0.00    -0.223 C  
HETATM   26  H   UNL     1      -9.762   8.536  72.275  1.00  0.00     0.000 HD 
HETATM   27  O   UNL     1      -9.798   9.305  71.717  1.00  0.00    -0.252 OA 
HETATM   28  H   UNL     1     -10.887  11.455  71.098  1.00  0.00     0.000 HD 
HETATM   29  C   UNL     1      -9.690   7.826  69.783  1.00  0.00    -0.176 C  
BRANCH  20  30
HETATM   30  C   UNL     1     -11.070  11.060  67.275  1.00  0.00    -0.294 C  
HETATM   31  O   UNL     1     -10.512  10.691  66.016  1.00  0.00    -0.239 OA 
HETATM   32  H   UNL     1     -10.509  11.442  65.435  1.00  0.00     0.000 HD 
ENDBRANCH  20  30
ENDBRANCH  16  18
ENDBRANCH  10  11
ENDBRANCH   7  10
ENDBRANCH   3   4
ENDBRANCH   2   3
TORSDOF 6
ENDMDL
MODEL      251
REMARK 921   NORMALIZED FREE ENERGY PREDICTED BY IDOCK:   -3.35 KCAL/MOL
REMARK 922        TOTAL FREE ENERGY PREDICTED BY IDOCK:   -5.49 KCAL/MOL
REMARK 923 INTER-LIGAND FREE ENERGY PREDICTED BY IDOCK:   -4.81 KCAL/MOL
REMARK 924 INTRA-LIGAND FREE ENERGY PREDICTED BY IDOCK:   -0.68 KCAL/MOL
REMARK 927      BINDING AFFINITY PREDICTED BY RF-SCORE:    0.00 PKD
ROOT
HETATM    1  C   UNL     1     -14.410  15.269  71.029  1.00  0.00    -0.232 C  
HETATM    2  C   UNL     1     -14.238  14.257  72.147  1.00  0.00    -0.542 C  
ENDROOT
BRANCH   2   3
HETATM    3  O   UNL     1     -12.845  14.148  72.437  1.00  0.00    -0.356 OA 
BRANCH   3   4
HETATM    4  C   UNL     1     -11.979  14.387  71.406  1.00  0.00    -0.267 A  
HETATM    5  C   UNL     1     -11.277  15.570  71.186  1.00  0.00    -0.423 A  
HETATM    6  C   UNL     1     -10.411  15.682  70.092  1.00  0.00    -0.316 A  
HETATM    7  C   UNL     1     -10.234  14.615  69.201  1.00  0.00    -0.199 A  
HETATM    8  C   UNL     1     -11.818  13.326  70.513  1.00  0.00    -0.215 A  
HETATM    9  C   UNL     1     -10.955  13.435  69.418  1.00  0.00    -0.079 A  
BRANCH   7  10
HETATM   10  C   UNL     1      -9.344  14.785  67.994  1.00  0.00    -0.196 C  
BRANCH  10  11
HETATM   11  C   UNL     1      -7.905  14.339  68.140  1.00  0.00    -0.139 A  
HETATM   12  C   UNL     1      -6.810  15.129  67.768  1.00  0.00    -0.170 A  
HETATM   13 CL   UNL     1      -6.997  16.768  67.259  1.00  0.00    -0.190 Cl 
HETATM   14  C   UNL     1      -5.519  14.586  67.754  1.00  0.00    -0.026 A  
HETATM   15  C   UNL     1      -5.303  13.246  68.092  1.00  0.00    -0.102 A  
HETATM   16  C   UNL     1      -6.373  12.441  68.495  1.00  0.00    -0.064 A  
HETATM   17  C   UNL     1      -7.656  13.019  68.555  1.00  0.00    -0.121 A  
BRANCH  16  18
HETATM   18  C   UNL     1      -6.235  10.943  68.741  1.00  0.00    -0.044 C  
HETATM   19  O   UNL     1      -7.122  10.200  67.884  1.00  0.00    -0.083 OA 
HETATM   20  C   UNL     1      -6.978   8.777  68.036  1.00  0.00    -0.078 C  
HETATM   21  H   UNL     1      -5.749  11.097  72.013  1.00  0.00     0.000 HD 
HETATM   22  C   UNL     1      -7.303   8.345  69.467  1.00  0.00    -0.073 C  
HETATM   23  O   UNL     1      -5.582  11.297  71.100  1.00  0.00    -0.311 OA 
HETATM   24  O   UNL     1      -7.113   6.938  69.676  1.00  0.00    -0.064 OA 
HETATM   25  C   UNL     1      -6.413   9.102  70.455  1.00  0.00    -0.056 C  
HETATM   26  H   UNL     1      -6.225   9.234  72.411  1.00  0.00     0.000 HD 
HETATM   27  O   UNL     1      -6.778   8.764  71.797  1.00  0.00    -0.083 OA 
HETATM   28  H   UNL     1      -7.315   6.670  70.565  1.00  0.00     0.000 HD 
HETATM   29  C   UNL     1      -6.508  10.617  70.236  1.00  0.00    -0.138 C  
BRANCH  20  30
HETATM   30  C   UNL     1      -7.916   8.082  67.036  1.00  0.00    -0.108 C  
HETATM   31  O   UNL     1      -9.272   8.298  67.420  1.00  0.00    -0.138 OA 
HETATM   32  H   UNL     1      -9.852   7.868  66.803  1.00  0.00     0.000 HD 
ENDBRANCH  20  30
ENDBRANCH  16  18
ENDBRANCH  10  11
ENDBRANCH   7  10
ENDBRANCH   3   4
ENDBRANCH   2   3
TORSDOF 6
ENDMDL
MODEL      252
REMARK 921   NORMALIZED FREE ENERGY PREDICTED BY IDOCK:   -3.35 KCAL/MOL
REMARK 922        TOTAL FREE ENERGY PREDICTED BY IDOCK:   -5.49 KCAL/MOL
REMARK 923 INTER-LIGAND FREE ENERGY PREDICTED BY IDOCK:   -4.68 KCAL/MOL
REMARK 924 INTRA-LIGAND FREE ENERGY PREDICTED BY IDOCK:   -0.81 KCAL/MOL
REMARK 927      BINDING AFFINITY PREDICTED BY RF-SCORE:    0.00 PKD
ROOT
HETATM    1  C   UNL     1      -5.599  13.336  68.860  1.00  0.00    -0.073 C  
HETATM    2  C   UNL     1      -5.770  12.920  67.411  1.00  0.00    -0.041 C  
ENDROOT
BRANCH   2   3
HETATM    3  O   UNL     1      -7.128  12.526  67.219  1.00  0.00    -0.148 OA 
BRANCH   3   4
HETATM    4  C   UNL     1      -7.346  11.241  66.806  1.00  0.00    -0.146 A  
HETATM    5  C   UNL     1      -6.374  10.253  66.662  1.00  0.00    -0.074 A  
HETATM    6  C   UNL     1      -6.733   8.969  66.237  1.00  0.00    -0.070 A  
HETATM    7  C   UNL     1      -8.067   8.652  65.948  1.00  0.00    -0.111 A  
HETATM    8  C   UNL     1      -8.674  10.935  66.505  1.00  0.00    -0.165 A  
HETATM    9  C   UNL     1      -9.036   9.654  66.078  1.00  0.00    -0.212 A  
BRANCH   7  10
HETATM   10  C   UNL     1      -8.418   7.279  65.430  1.00  0.00    -0.096 C  
BRANCH  10  11
HETATM   11  C   UNL     1      -8.772   6.231  66.462  1.00  0.00    -0.131 A  
HETATM   12  C   UNL     1      -9.261   4.959  66.136  1.00  0.00    -0.146 A  
HETATM   13 CL   UNL     1      -9.348   4.404  64.504  1.00  0.00    -0.155 Cl 
HETATM   14  C   UNL     1      -9.745   4.110  67.139  1.00  0.00    -0.224 A  
HETATM   15  C   UNL     1      -9.765   4.520  68.477  1.00  0.00    -0.198 A  
HETATM   16  C   UNL     1      -9.257   5.773  68.835  1.00  0.00    -0.127 A  
HETATM   17  C   UNL     1      -8.725   6.592  67.820  1.00  0.00    -0.116 A  
BRANCH  16  18
HETATM   18  C   UNL     1      -9.374   6.340  70.245  1.00  0.00    -0.161 C  
HETATM   19  O   UNL     1      -9.366   5.284  71.224  1.00  0.00    -0.143 OA 
HETATM   20  C   UNL     1      -9.408   5.777  72.574  1.00  0.00    -0.141 C  
HETATM   21  H   UNL     1     -11.436   8.831  69.528  1.00  0.00     0.000 HD 
HETATM   22  C   UNL     1     -10.686   6.582  72.822  1.00  0.00    -0.240 C  
HETATM   23  O   UNL     1     -10.649   8.304  69.450  1.00  0.00    -0.224 OA 
HETATM   24  O   UNL     1     -10.738   7.142  74.142  1.00  0.00    -0.555 OA 
HETATM   25  C   UNL     1     -10.787   7.724  71.810  1.00  0.00    -0.236 C  
HETATM   26  H   UNL     1     -12.089   9.130  71.356  1.00  0.00     0.000 HD 
HETATM   27  O   UNL     1     -12.026   8.420  71.984  1.00  0.00    -0.310 OA 
HETATM   28  H   UNL     1     -11.531   7.641  74.296  1.00  0.00     0.000 HD 
HETATM   29  C   UNL     1     -10.661   7.202  70.373  1.00  0.00    -0.235 C  
BRANCH  20  30
HETATM   30  C   UNL     1      -9.328   4.580  73.534  1.00  0.00    -0.117 C  
HETATM   31  O   UNL     1      -8.821   3.441  72.841  1.00  0.00    -0.084 OA 
HETATM   32  H   UNL     1      -8.772   2.701  73.434  1.00  0.00     0.000 HD 
ENDBRANCH  20  30
ENDBRANCH  16  18
ENDBRANCH  10  11
ENDBRANCH   7  10
ENDBRANCH   3   4
ENDBRANCH   2   3
TORSDOF 6
ENDMDL
MODEL      253
REMARK 921   NORMALIZED FREE ENERGY PREDICTED BY IDOCK:   -3.31 KCAL/MOL
REMARK 922        TOTAL FREE ENERGY PREDICTED BY IDOCK:   -5.44 KCAL/MOL
REMARK 923 INTER-LIGAND FREE ENERGY PREDICTED BY IDOCK:   -5.11 KCAL/MOL
REMARK 924 INTRA-LIGAND FREE ENERGY PREDICTED BY IDOCK:   -0.33 KCAL/MOL
REMARK 927      BINDING AFFINITY PREDICTED BY RF-SCORE:    0.00 PKD
ROOT
HETATM    1  C   UNL     1     -13.195  13.196  64.604  1.00  0.00     0.311 C  
HETATM    2  C   UNL     1     -11.904  12.909  63.860  1.00  0.00    -0.473 C  
ENDROOT
BRANCH   2   3
HETATM    3  O   UNL     1     -10.819  13.387  64.653  1.00  0.00    -0.348 OA 
BRANCH   3   4
HETATM    4  C   UNL     1     -10.582  12.738  65.833  1.00  0.00    -0.274 A  
HETATM    5  C   UNL     1     -10.570  13.320  67.099  1.00  0.00    -0.259 A  
HETATM    6  C   UNL     1     -10.322  12.538  68.231  1.00  0.00    -0.241 A  
HETATM    7  C   UNL     1     -10.082  11.162  68.119  1.00  0.00    -0.193 A  
HETATM    8  C   UNL     1     -10.329  11.370  65.714  1.00  0.00    -0.304 A  
HETATM    9  C   UNL     1     -10.079  10.586  66.843  1.00  0.00    -0.265 A  
BRANCH   7  10
HETATM   10  C   UNL     1      -9.754  10.354  69.351  1.00  0.00    -0.222 C  
BRANCH  10  11
HETATM   11  C   UNL     1     -10.485   9.040  69.518  1.00  0.00    -0.223 A  
HETATM   12  C   UNL     1     -11.516   8.842  70.447  1.00  0.00    -0.157 A  
HETATM   13 CL   UNL     1     -12.167  10.141  71.379  1.00  0.00    -0.475 Cl 
HETATM   14  C   UNL     1     -12.019   7.557  70.681  1.00  0.00    -0.161 A  
HETATM   15  C   UNL     1     -11.493   6.449  70.008  1.00  0.00    -0.496 A  
HETATM   16  C   UNL     1     -10.484   6.619  69.055  1.00  0.00    -0.243 A  
HETATM   17  C   UNL     1     -10.027   7.926  68.794  1.00  0.00    -0.194 A  
BRANCH  16  18
HETATM   18  C   UNL     1      -9.770   5.449  68.389  1.00  0.00    -0.136 C  
HETATM   19  O   UNL     1      -9.027   4.684  69.357  1.00  0.00    -0.089 OA 
HETATM   20  C   UNL     1      -8.389   3.530  68.783  1.00  0.00    -0.072 C  
HETATM   21  H   UNL     1      -9.007   6.980  65.553  1.00  0.00     0.000 HD 
HETATM   22  C   UNL     1      -7.388   3.942  67.702  1.00  0.00    -0.067 C  
HETATM   23  O   UNL     1      -9.577   6.666  66.245  1.00  0.00    -0.138 OA 
HETATM   24  O   UNL     1      -6.772   2.814  67.062  1.00  0.00    -0.039 OA 
HETATM   25  C   UNL     1      -8.091   4.778  66.631  1.00  0.00    -0.107 C  
HETATM   26  H   UNL     1      -7.573   5.757  65.002  1.00  0.00     0.000 HD 
HETATM   27  O   UNL     1      -7.137   5.237  65.668  1.00  0.00    -0.064 OA 
HETATM   28  H   UNL     1      -6.150   3.070  66.391  1.00  0.00     0.000 HD 
HETATM   29  C   UNL     1      -8.837   5.963  67.256  1.00  0.00    -0.106 C  
BRANCH  20  30
HETATM   30  C   UNL     1      -7.683   2.754  69.906  1.00  0.00    -0.043 C  
HETATM   31  O   UNL     1      -6.447   2.229  69.424  1.00  0.00    -0.028 OA 
HETATM   32  H   UNL     1      -6.011   1.749  70.117  1.00  0.00     0.000 HD 
ENDBRANCH  20  30
ENDBRANCH  16  18
ENDBRANCH  10  11
ENDBRANCH   7  10
ENDBRANCH   3   4
ENDBRANCH   2   3
TORSDOF 6
ENDMDL
MODEL      254
REMARK 921   NORMALIZED FREE ENERGY PREDICTED BY IDOCK:   -3.23 KCAL/MOL
REMARK 922        TOTAL FREE ENERGY PREDICTED BY IDOCK:   -5.33 KCAL/MOL
REMARK 923 INTER-LIGAND FREE ENERGY PREDICTED BY IDOCK:   -3.82 KCAL/MOL
REMARK 924 INTRA-LIGAND FREE ENERGY PREDICTED BY IDOCK:   -1.51 KCAL/MOL
REMARK 927      BINDING AFFINITY PREDICTED BY RF-SCORE:    0.00 PKD
ROOT
HETATM    1  C   UNL     1     -13.409  11.902  63.158  1.00  0.00     0.650 C  
HETATM    2  C   UNL     1     -12.801  12.286  64.494  1.00  0.00    -0.131 C  
ENDROOT
BRANCH   2   3
HETATM    3  O   UNL     1     -12.260  13.601  64.375  1.00  0.00    -0.443 OA 
BRANCH   3   4
HETATM    4  C   UNL     1     -11.493  14.050  65.414  1.00  0.00    -0.315 A  
HETATM    5  C   UNL     1     -10.258  14.686  65.304  1.00  0.00    -0.421 A  
HETATM    6  C   UNL     1      -9.578  15.106  66.451  1.00  0.00    -0.309 A  
HETATM    7  C   UNL     1     -10.119  14.898  67.727  1.00  0.00    -0.234 A  
HETATM    8  C   UNL     1     -12.030  13.827  66.683  1.00  0.00    -0.469 A  
HETATM    9  C   UNL     1     -11.352  14.244  67.832  1.00  0.00    -0.320 A  
BRANCH   7  10
HETATM   10  C   UNL     1      -9.334  15.303  68.951  1.00  0.00    -0.213 C  
BRANCH  10  11
HETATM   11  C   UNL     1      -7.859  14.967  68.957  1.00  0.00    -0.165 A  
HETATM   12  C   UNL     1      -6.845  15.934  68.929  1.00  0.00    -0.138 A  
HETATM   13 CL   UNL     1      -7.189  17.621  69.058  1.00  0.00    -0.245 Cl 
HETATM   14  C   UNL     1      -5.510  15.553  68.746  1.00  0.00    -0.096 A  
HETATM   15  C   UNL     1      -5.167  14.208  68.569  1.00  0.00    -0.099 A  
HETATM   16  C   UNL     1      -6.153  13.219  68.620  1.00  0.00    -0.085 A  
HETATM   17  C   UNL     1      -7.484  13.615  68.859  1.00  0.00    -0.033 A  
BRANCH  16  18
HETATM   18  C   UNL     1      -5.874  11.755  68.299  1.00  0.00    -0.049 C  
HETATM   19  O   UNL     1      -6.581  11.349  67.111  1.00  0.00    -0.095 OA 
HETATM   20  C   UNL     1      -6.295   9.991  66.732  1.00  0.00    -0.069 C  
HETATM   21  H   UNL     1      -5.746  10.654  71.420  1.00  0.00     0.000 HD 
HETATM   22  C   UNL     1      -6.714   9.017  67.835  1.00  0.00    -0.068 C  
HETATM   23  O   UNL     1      -5.509  11.204  70.682  1.00  0.00    -0.105 OA 
HETATM   24  O   UNL     1      -6.391   7.655  67.519  1.00  0.00    -0.050 OA 
HETATM   25  C   UNL     1      -6.020   9.385  69.147  1.00  0.00    -0.041 C  
HETATM   26  H   UNL     1      -6.049   8.757  71.013  1.00  0.00     0.000 HD 
HETATM   27  O   UNL     1      -6.480   8.529  70.198  1.00  0.00    -0.037 OA 
HETATM   28  H   UNL     1      -6.651   7.050  68.204  1.00  0.00     0.000 HD 
HETATM   29  C   UNL     1      -6.261  10.856  69.507  1.00  0.00    -0.073 C  
BRANCH  20  30
HETATM   30  C   UNL     1      -7.042   9.682  65.425  1.00  0.00    -0.100 C  
HETATM   31  O   UNL     1      -6.503   8.503  64.830  1.00  0.00    -0.063 OA 
HETATM   32  H   UNL     1      -6.965   8.312  64.023  1.00  0.00     0.000 HD 
ENDBRANCH  20  30
ENDBRANCH  16  18
ENDBRANCH  10  11
ENDBRANCH   7  10
ENDBRANCH   3   4
ENDBRANCH   2   3
TORSDOF 6
ENDMDL
MODEL      255
REMARK 921   NORMALIZED FREE ENERGY PREDICTED BY IDOCK:   -3.20 KCAL/MOL
REMARK 922        TOTAL FREE ENERGY PREDICTED BY IDOCK:   -5.29 KCAL/MOL
REMARK 923 INTER-LIGAND FREE ENERGY PREDICTED BY IDOCK:   -4.11 KCAL/MOL
REMARK 924 INTRA-LIGAND FREE ENERGY PREDICTED BY IDOCK:   -1.18 KCAL/MOL
REMARK 927      BINDING AFFINITY PREDICTED BY RF-SCORE:    0.00 PKD
ROOT
HETATM    1  C   UNL     1     -12.848  14.089  65.212  1.00  0.00    -0.418 C  
HETATM    2  C   UNL     1     -11.389  14.467  65.032  1.00  0.00    -0.377 C  
ENDROOT
BRANCH   2   3
HETATM    3  O   UNL     1     -10.637  13.268  64.856  1.00  0.00    -0.325 OA 
BRANCH   3   4
HETATM    4  C   UNL     1     -10.315  12.569  65.986  1.00  0.00    -0.256 A  
HETATM    5  C   UNL     1      -9.501  13.022  67.023  1.00  0.00    -0.237 A  
HETATM    6  C   UNL     1      -9.256  12.207  68.132  1.00  0.00    -0.197 A  
HETATM    7  C   UNL     1      -9.819  10.926  68.225  1.00  0.00    -0.179 A  
HETATM    8  C   UNL     1     -10.865  11.289  66.065  1.00  0.00    -0.273 A  
HETATM    9  C   UNL     1     -10.621  10.471  67.172  1.00  0.00    -0.319 A  
BRANCH   7  10
HETATM   10  C   UNL     1      -9.486  10.043  69.402  1.00  0.00    -0.237 C  
BRANCH  10  11
HETATM   11  C   UNL     1      -8.318   9.096  69.235  1.00  0.00    -0.123 A  
HETATM   12  C   UNL     1      -7.002   9.422  69.589  1.00  0.00    -0.058 A  
HETATM   13 CL   UNL     1      -6.614  10.888  70.412  1.00  0.00    -0.076 Cl 
HETATM   14  C   UNL     1      -5.945   8.574  69.234  1.00  0.00    -0.041 A  
HETATM   15  C   UNL     1      -6.180   7.402  68.509  1.00  0.00    -0.035 A  
HETATM   16  C   UNL     1      -7.485   7.036  68.167  1.00  0.00    -0.099 A  
HETATM   17  C   UNL     1      -8.541   7.873  68.578  1.00  0.00    -0.128 A  
BRANCH  16  18
HETATM   18  C   UNL     1      -7.803   5.852  67.262  1.00  0.00    -0.102 C  
HETATM   19  O   UNL     1      -7.246   4.636  67.796  1.00  0.00    -0.064 OA 
HETATM   20  C   UNL     1      -7.578   3.479  67.008  1.00  0.00    -0.079 C  
HETATM   21  H   UNL     1      -7.556   7.450  64.372  1.00  0.00     0.000 HD 
HETATM   22  C   UNL     1      -7.030   3.613  65.585  1.00  0.00    -0.058 C  
HETATM   23  O   UNL     1      -7.879   7.288  65.250  1.00  0.00    -0.106 OA 
HETATM   24  O   UNL     1      -7.391   2.505  64.749  1.00  0.00    -0.059 OA 
HETATM   25  C   UNL     1      -7.560   4.895  64.941  1.00  0.00    -0.077 C  
HETATM   26  H   UNL     1      -7.306   5.862  63.244  1.00  0.00     0.000 HD 
HETATM   27  O   UNL     1      -6.978   5.066  63.645  1.00  0.00    -0.045 OA 
HETATM   28  H   UNL     1      -7.051   2.588  63.865  1.00  0.00     0.000 HD 
HETATM   29  C   UNL     1      -7.275   6.117  65.824  1.00  0.00    -0.075 C  
BRANCH  20  30
HETATM   30  C   UNL     1      -6.994   2.235  67.697  1.00  0.00    -0.044 C  
HETATM   31  O   UNL     1      -6.127   1.550  66.796  1.00  0.00    -0.019 OA 
HETATM   32  H   UNL     1      -5.767   0.781  67.221  1.00  0.00     0.000 HD 
ENDBRANCH  20  30
ENDBRANCH  16  18
ENDBRANCH  10  11
ENDBRANCH   7  10
ENDBRANCH   3   4
ENDBRANCH   2   3
TORSDOF 6
ENDMDL
MODEL      256
REMARK 921   NORMALIZED FREE ENERGY PREDICTED BY IDOCK:   -3.20 KCAL/MOL
REMARK 922        TOTAL FREE ENERGY PREDICTED BY IDOCK:   -5.29 KCAL/MOL
REMARK 923 INTER-LIGAND FREE ENERGY PREDICTED BY IDOCK:   -4.98 KCAL/MOL
REMARK 924 INTRA-LIGAND FREE ENERGY PREDICTED BY IDOCK:   -0.31 KCAL/MOL
REMARK 927      BINDING AFFINITY PREDICTED BY RF-SCORE:    0.00 PKD
ROOT
HETATM    1  C   UNL     1     -12.403  15.506  64.255  1.00  0.00    -0.009 C  
HETATM    2  C   UNL     1     -12.128  14.035  64.006  1.00  0.00    -0.376 C  
ENDROOT
BRANCH   2   3
HETATM    3  O   UNL     1     -12.462  13.313  65.190  1.00  0.00    -0.438 OA 
BRANCH   3   4
HETATM    4  C   UNL     1     -11.634  12.283  65.540  1.00  0.00    -0.371 A  
HETATM    5  C   UNL     1     -10.721  11.648  64.702  1.00  0.00    -0.371 A  
HETATM    6  C   UNL     1      -9.923  10.607  65.190  1.00  0.00    -0.366 A  
HETATM    7  C   UNL     1     -10.025  10.184  66.522  1.00  0.00    -0.283 A  
HETATM    8  C   UNL     1     -11.750  11.856  66.864  1.00  0.00    -0.291 A  
HETATM    9  C   UNL     1     -10.956  10.815  67.354  1.00  0.00    -0.361 A  
BRANCH   7  10
HETATM   10  C   UNL     1      -9.199   9.017  67.005  1.00  0.00    -0.169 C  
BRANCH  10  11
HETATM   11  C   UNL     1      -8.700   9.079  68.432  1.00  0.00    -0.130 A  
HETATM   12  C   UNL     1      -7.871  10.099  68.917  1.00  0.00    -0.100 A  
HETATM   13 CL   UNL     1      -7.475  11.484  67.966  1.00  0.00    -0.093 Cl 
HETATM   14  C   UNL     1      -7.296   9.996  70.190  1.00  0.00    -0.171 A  
HETATM   15  C   UNL     1      -7.521   8.870  70.989  1.00  0.00    -0.124 A  
HETATM   16  C   UNL     1      -8.367   7.850  70.542  1.00  0.00    -0.124 A  
HETATM   17  C   UNL     1      -8.980   7.995  69.282  1.00  0.00    -0.148 A  
BRANCH  16  18
HETATM   18  C   UNL     1      -8.547   6.536  71.294  1.00  0.00    -0.127 C  
HETATM   19  O   UNL     1      -7.282   6.046  71.778  1.00  0.00    -0.083 OA 
HETATM   20  C   UNL     1      -7.413   4.840  72.552  1.00  0.00    -0.085 C  
HETATM   21  H   UNL     1     -10.953   5.287  69.392  1.00  0.00     0.000 HD 
HETATM   22  C   UNL     1      -8.017   3.714  71.710  1.00  0.00    -0.063 C  
HETATM   23  O   UNL     1     -10.533   5.931  69.950  1.00  0.00    -0.218 OA 
HETATM   24  O   UNL     1      -8.219   2.510  72.464  1.00  0.00    -0.054 OA 
HETATM   25  C   UNL     1      -9.365   4.156  71.138  1.00  0.00    -0.150 C  
HETATM   26  H   UNL     1     -10.724   3.411  69.923  1.00  0.00     0.000 HD 
HETATM   27  O   UNL     1      -9.887   3.137  70.279  1.00  0.00    -0.089 OA 
HETATM   28  H   UNL     1      -8.593   1.810  71.941  1.00  0.00     0.000 HD 
HETATM   29  C   UNL     1      -9.236   5.484  70.381  1.00  0.00    -0.151 C  
BRANCH  20  30
HETATM   30  C   UNL     1      -6.023   4.441  73.071  1.00  0.00    -0.012 C  
HETATM   31  O   UNL     1      -6.130   3.959  74.410  1.00  0.00    -0.022 OA 
HETATM   32  H   UNL     1      -5.271   3.712  74.731  1.00  0.00     0.000 HD 
ENDBRANCH  20  30
ENDBRANCH  16  18
ENDBRANCH  10  11
ENDBRANCH   7  10
ENDBRANCH   3   4
ENDBRANCH   2   3
TORSDOF 6
ENDMDL
MODEL      257
REMARK 921   NORMALIZED FREE ENERGY PREDICTED BY IDOCK:   -3.17 KCAL/MOL
REMARK 922        TOTAL FREE ENERGY PREDICTED BY IDOCK:   -5.24 KCAL/MOL
REMARK 923 INTER-LIGAND FREE ENERGY PREDICTED BY IDOCK:   -4.03 KCAL/MOL
REMARK 924 INTRA-LIGAND FREE ENERGY PREDICTED BY IDOCK:   -1.21 KCAL/MOL
REMARK 927      BINDING AFFINITY PREDICTED BY RF-SCORE:    0.00 PKD
ROOT
HETATM    1  C   UNL     1     -12.539  12.861  63.370  1.00  0.00    -0.268 C  
HETATM    2  C   UNL     1     -11.154  12.294  63.625  1.00  0.00    -0.469 C  
ENDROOT
BRANCH   2   3
HETATM    3  O   UNL     1     -10.955  12.224  65.035  1.00  0.00    -0.285 OA 
BRANCH   3   4
HETATM    4  C   UNL     1      -9.907  11.464  65.475  1.00  0.00    -0.231 A  
HETATM    5  C   UNL     1      -9.442  11.394  66.786  1.00  0.00    -0.197 A  
HETATM    6  C   UNL     1      -8.360  10.566  67.106  1.00  0.00    -0.127 A  
HETATM    7  C   UNL     1      -7.726   9.796  66.122  1.00  0.00    -0.104 A  
HETATM    8  C   UNL     1      -9.270  10.711  64.488  1.00  0.00    -0.264 A  
HETATM    9  C   UNL     1      -8.188   9.884  64.803  1.00  0.00    -0.151 A  
BRANCH   7  10
HETATM   10  C   UNL     1      -6.521   8.961  66.482  1.00  0.00    -0.063 C  
BRANCH  10  11
HETATM   11  C   UNL     1      -6.791   7.582  67.043  1.00  0.00    -0.071 A  
HETATM   12  C   UNL     1      -6.999   6.450  66.244  1.00  0.00    -0.066 A  
HETATM   13 CL   UNL     1      -6.798   6.493  64.530  1.00  0.00    -0.045 Cl 
HETATM   14  C   UNL     1      -7.429   5.248  66.820  1.00  0.00    -0.087 A  
HETATM   15  C   UNL     1      -7.675   5.161  68.194  1.00  0.00    -0.084 A  
HETATM   16  C   UNL     1      -7.449   6.266  69.020  1.00  0.00    -0.091 A  
HETATM   17  C   UNL     1      -6.966   7.451  68.431  1.00  0.00    -0.079 A  
BRANCH  16  18
HETATM   18  C   UNL     1      -7.826   6.286  70.497  1.00  0.00    -0.106 C  
HETATM   19  O   UNL     1      -8.556   7.484  70.822  1.00  0.00    -0.132 OA 
HETATM   20  C   UNL     1      -8.991   7.516  72.193  1.00  0.00    -0.129 C  
HETATM   21  H   UNL     1      -5.076   4.851  71.655  1.00  0.00     0.000 HD 
HETATM   22  C   UNL     1      -7.794   7.470  73.146  1.00  0.00    -0.102 C  
HETATM   23  O   UNL     1      -5.854   4.929  71.116  1.00  0.00    -0.015 OA 
HETATM   24  O   UNL     1      -8.189   7.439  74.525  1.00  0.00    -0.171 OA 
HETATM   25  C   UNL     1      -6.947   6.229  72.860  1.00  0.00    -0.079 C  
HETATM   26  H   UNL     1      -5.255   5.463  73.513  1.00  0.00     0.000 HD 
HETATM   27  O   UNL     1      -5.781   6.233  73.690  1.00  0.00    -0.050 OA 
HETATM   28  H   UNL     1      -7.446   7.411  75.117  1.00  0.00     0.000 HD 
HETATM   29  C   UNL     1      -6.553   6.157  71.379  1.00  0.00    -0.051 C  
BRANCH  20  30
HETATM   30  C   UNL     1      -9.811   8.796  72.416  1.00  0.00    -0.156 C  
HETATM   31  O   UNL     1     -11.202   8.485  72.400  1.00  0.00    -0.359 OA 
HETATM   32  H   UNL     1     -11.709   9.277  72.537  1.00  0.00     0.000 HD 
ENDBRANCH  20  30
ENDBRANCH  16  18
ENDBRANCH  10  11
ENDBRANCH   7  10
ENDBRANCH   3   4
ENDBRANCH   2   3
TORSDOF 6
ENDMDL
MODEL      258
REMARK 921   NORMALIZED FREE ENERGY PREDICTED BY IDOCK:   -3.15 KCAL/MOL
REMARK 922        TOTAL FREE ENERGY PREDICTED BY IDOCK:   -5.22 KCAL/MOL
REMARK 923 INTER-LIGAND FREE ENERGY PREDICTED BY IDOCK:   -5.64 KCAL/MOL
REMARK 924 INTRA-LIGAND FREE ENERGY PREDICTED BY IDOCK:    0.42 KCAL/MOL
REMARK 927      BINDING AFFINITY PREDICTED BY RF-SCORE:    0.00 PKD
ROOT
HETATM    1  C   UNL     1     -12.347  11.348  62.758  1.00  0.00     0.895 C  
HETATM    2  C   UNL     1     -12.401  12.543  63.690  1.00  0.00    -0.522 C  
ENDROOT
BRANCH   2   3
HETATM    3  O   UNL     1     -11.099  12.736  64.240  1.00  0.00    -0.327 OA 
BRANCH   3   4
HETATM    4  C   UNL     1     -10.819  13.976  64.745  1.00  0.00    -0.419 A  
HETATM    5  C   UNL     1      -9.758  14.293  65.591  1.00  0.00    -0.238 A  
HETATM    6  C   UNL     1      -9.578  15.609  66.031  1.00  0.00    -0.386 A  
HETATM    7  C   UNL     1     -10.454  16.628  65.634  1.00  0.00    -0.313 A  
HETATM    8  C   UNL     1     -11.703  14.984  64.358  1.00  0.00    -0.320 A  
HETATM    9  C   UNL     1     -11.527  16.300  64.798  1.00  0.00    -0.121 A  
BRANCH   7  10
HETATM   10  C   UNL     1     -10.274  18.026  66.175  1.00  0.00    -0.364 C  
BRANCH  10  11
HETATM   11  C   UNL     1      -9.171  18.227  67.190  1.00  0.00    -0.264 A  
HETATM   12  C   UNL     1      -8.762  19.486  67.648  1.00  0.00    -0.315 A  
HETATM   13 CL   UNL     1      -9.601  20.931  67.217  1.00  0.00    -0.515 Cl 
HETATM   14  C   UNL     1      -7.614  19.611  68.441  1.00  0.00    -0.362 A  
HETATM   15  C   UNL     1      -6.848  18.489  68.774  1.00  0.00    -0.287 A  
HETATM   16  C   UNL     1      -7.248  17.216  68.355  1.00  0.00    -0.209 A  
HETATM   17  C   UNL     1      -8.434  17.103  67.604  1.00  0.00    -0.204 A  
BRANCH  16  18
HETATM   18  C   UNL     1      -6.393  15.971  68.561  1.00  0.00    -0.115 C  
HETATM   19  O   UNL     1      -6.993  14.827  67.923  1.00  0.00    -0.126 OA 
HETATM   20  C   UNL     1      -6.186  13.641  68.035  1.00  0.00    -0.139 C  
HETATM   21  H   UNL     1      -5.384  16.655  71.640  1.00  0.00     0.000 HD 
HETATM   22  C   UNL     1      -5.982  13.257  69.502  1.00  0.00    -0.107 C  
HETATM   23  O   UNL     1      -5.514  16.815  70.713  1.00  0.00    -0.182 OA 
HETATM   24  O   UNL     1      -5.132  12.112  69.659  1.00  0.00    -0.068 OA 
HETATM   25  C   UNL     1      -5.359  14.427  70.266  1.00  0.00    -0.104 C  
HETATM   26  H   UNL     1      -4.863  14.826  72.129  1.00  0.00     0.000 HD 
HETATM   27  O   UNL     1      -5.250  14.099  71.655  1.00  0.00    -0.147 OA 
HETATM   28  H   UNL     1      -5.005  11.873  70.570  1.00  0.00     0.000 HD 
HETATM   29  C   UNL     1      -6.179  15.709  70.078  1.00  0.00    -0.135 C  
BRANCH  20  30
HETATM   30  C   UNL     1      -6.882  12.504  67.271  1.00  0.00    -0.114 C  
HETATM   31  O   UNL     1      -5.903  11.609  66.746  1.00  0.00    -0.134 OA 
HETATM   32  H   UNL     1      -6.333  10.906  66.274  1.00  0.00     0.000 HD 
ENDBRANCH  20  30
ENDBRANCH  16  18
ENDBRANCH  10  11
ENDBRANCH   7  10
ENDBRANCH   3   4
ENDBRANCH   2   3
TORSDOF 6
ENDMDL
MODEL      259
REMARK 921   NORMALIZED FREE ENERGY PREDICTED BY IDOCK:   -3.14 KCAL/MOL
REMARK 922        TOTAL FREE ENERGY PREDICTED BY IDOCK:   -5.21 KCAL/MOL
REMARK 923 INTER-LIGAND FREE ENERGY PREDICTED BY IDOCK:   -4.36 KCAL/MOL
REMARK 924 INTRA-LIGAND FREE ENERGY PREDICTED BY IDOCK:   -0.86 KCAL/MOL
REMARK 927      BINDING AFFINITY PREDICTED BY RF-SCORE:    0.00 PKD
ROOT
HETATM    1  C   UNL     1     -13.160  16.205  73.352  1.00  0.00    -0.595 C  
HETATM    2  C   UNL     1     -13.032  15.437  72.050  1.00  0.00    -0.401 C  
ENDROOT
BRANCH   2   3
HETATM    3  O   UNL     1     -12.560  14.125  72.352  1.00  0.00    -0.278 OA 
BRANCH   3   4
HETATM    4  C   UNL     1     -12.491  13.239  71.313  1.00  0.00    -0.258 A  
HETATM    5  C   UNL     1     -12.718  11.866  71.393  1.00  0.00    -0.395 A  
HETATM    6  C   UNL     1     -12.622  11.069  70.247  1.00  0.00    -0.321 A  
HETATM    7  C   UNL     1     -12.298  11.630  69.004  1.00  0.00     0.026 A  
HETATM    8  C   UNL     1     -12.153  13.800  70.080  1.00  0.00    -0.429 A  
HETATM    9  C   UNL     1     -12.055  13.006  68.934  1.00  0.00    -0.207 A  
BRANCH   7  10
HETATM   10  C   UNL     1     -12.139  10.738  67.797  1.00  0.00     0.910 C  
BRANCH  10  11
HETATM   11  C   UNL     1     -10.957  11.017  66.894  1.00  0.00    -0.311 A  
HETATM   12  C   UNL     1     -11.023  11.852  65.771  1.00  0.00    -0.311 A  
HETATM   13 CL   UNL     1     -12.431  12.782  65.405  1.00  0.00    -0.532 Cl 
HETATM   14  C   UNL     1      -9.948  11.918  64.875  1.00  0.00    -0.269 A  
HETATM   15  C   UNL     1      -8.802  11.142  65.075  1.00  0.00    -0.021 A  
HETATM   16  C   UNL     1      -8.696  10.321  66.202  1.00  0.00    -0.163 A  
HETATM   17  C   UNL     1      -9.765  10.308  67.120  1.00  0.00    -0.210 A  
BRANCH  16  18
HETATM   18  C   UNL     1      -7.542   9.347  66.411  1.00  0.00    -0.097 C  
HETATM   19  O   UNL     1      -7.574   8.298  65.425  1.00  0.00    -0.088 OA 
HETATM   20  C   UNL     1      -6.464   7.390  65.543  1.00  0.00    -0.044 C  
HETATM   21  H   UNL     1      -7.516   9.427  69.722  1.00  0.00     0.000 HD 
HETATM   22  C   UNL     1      -6.469   6.697  66.907  1.00  0.00    -0.043 C  
HETATM   23  O   UNL     1      -7.486   9.788  68.843  1.00  0.00    -0.072 OA 
HETATM   24  O   UNL     1      -5.342   5.827  67.087  1.00  0.00    -0.005 OA 
HETATM   25  C   UNL     1      -6.453   7.743  68.023  1.00  0.00    -0.055 C  
HETATM   26  H   UNL     1      -6.537   7.746  69.991  1.00  0.00     0.000 HD 
HETATM   27  O   UNL     1      -6.547   7.097  69.297  1.00  0.00    -0.042 OA 
HETATM   28  H   UNL     1      -5.345   5.396  67.934  1.00  0.00     0.000 HD 
HETATM   29  C   UNL     1      -7.590   8.756  67.848  1.00  0.00    -0.097 C  
BRANCH  20  30
HETATM   30  C   UNL     1      -6.557   6.355  64.410  1.00  0.00    -0.034 C  
HETATM   31  O   UNL     1      -5.250   5.899  64.068  1.00  0.00    -0.016 OA 
HETATM   32  H   UNL     1      -5.308   5.259  63.369  1.00  0.00     0.000 HD 
ENDBRANCH  20  30
ENDBRANCH  16  18
ENDBRANCH  10  11
ENDBRANCH   7  10
ENDBRANCH   3   4
ENDBRANCH   2   3
TORSDOF 6
ENDMDL
MODEL      260
REMARK 921   NORMALIZED FREE ENERGY PREDICTED BY IDOCK:   -3.09 KCAL/MOL
REMARK 922        TOTAL FREE ENERGY PREDICTED BY IDOCK:   -5.14 KCAL/MOL
REMARK 923 INTER-LIGAND FREE ENERGY PREDICTED BY IDOCK:   -4.48 KCAL/MOL
REMARK 924 INTRA-LIGAND FREE ENERGY PREDICTED BY IDOCK:   -0.67 KCAL/MOL
REMARK 927      BINDING AFFINITY PREDICTED BY RF-SCORE:    0.00 PKD
ROOT
HETATM    1  C   UNL     1     -14.410  15.269  71.029  1.00  0.00    -0.232 C  
HETATM    2  C   UNL     1     -14.238  14.257  72.147  1.00  0.00    -0.542 C  
ENDROOT
BRANCH   2   3
HETATM    3  O   UNL     1     -12.845  14.148  72.437  1.00  0.00    -0.356 OA 
BRANCH   3   4
HETATM    4  C   UNL     1     -11.979  14.387  71.406  1.00  0.00    -0.267 A  
HETATM    5  C   UNL     1     -11.277  15.570  71.186  1.00  0.00    -0.423 A  
HETATM    6  C   UNL     1     -10.411  15.682  70.092  1.00  0.00    -0.316 A  
HETATM    7  C   UNL     1     -10.234  14.615  69.201  1.00  0.00    -0.199 A  
HETATM    8  C   UNL     1     -11.818  13.326  70.513  1.00  0.00    -0.215 A  
HETATM    9  C   UNL     1     -10.955  13.435  69.418  1.00  0.00    -0.079 A  
BRANCH   7  10
HETATM   10  C   UNL     1      -9.344  14.785  67.994  1.00  0.00    -0.196 C  
BRANCH  10  11
HETATM   11  C   UNL     1      -7.905  14.339  68.140  1.00  0.00    -0.139 A  
HETATM   12  C   UNL     1      -6.884  15.170  68.620  1.00  0.00    -0.105 A  
HETATM   13 CL   UNL     1      -7.208  16.743  69.254  1.00  0.00    -0.219 Cl 
HETATM   14  C   UNL     1      -5.547  14.757  68.552  1.00  0.00    -0.100 A  
HETATM   15  C   UNL     1      -5.207  13.522  67.991  1.00  0.00    -0.110 A  
HETATM   16  C   UNL     1      -6.207  12.660  67.530  1.00  0.00    -0.159 A  
HETATM   17  C   UNL     1      -7.549  13.069  67.655  1.00  0.00    -0.160 A  
BRANCH  16  18
HETATM   18  C   UNL     1      -5.904  11.366  66.783  1.00  0.00    -0.135 C  
HETATM   19  O   UNL     1      -6.513  11.375  65.478  1.00  0.00     0.312 OA 
HETATM   20  C   UNL     1      -6.199  10.200  64.710  1.00  0.00    -0.130 C  
HETATM   21  H   UNL     1      -6.029   9.332  69.393  1.00  0.00     0.000 HD 
HETATM   22  C   UNL     1      -6.706   8.938  65.411  1.00  0.00    -0.072 C  
HETATM   23  O   UNL     1      -5.733  10.080  68.888  1.00  0.00    -0.036 OA 
HETATM   24  O   UNL     1      -6.360   7.738  64.705  1.00  0.00    -0.044 OA 
HETATM   25  C   UNL     1      -6.120   8.854  66.822  1.00  0.00    -0.057 C  
HETATM   26  H   UNL     1      -6.300   7.669  68.384  1.00  0.00     0.000 HD 
HETATM   27  O   UNL     1      -6.664   7.722  67.508  1.00  0.00    -0.064 OA 
HETATM   28  H   UNL     1      -6.676   6.954  65.141  1.00  0.00     0.000 HD 
HETATM   29  C   UNL     1      -6.388  10.142  67.610  1.00  0.00    -0.058 C  
BRANCH  20  30
HETATM   30  C   UNL     1      -6.839  10.340  63.320  1.00  0.00    -0.102 C  
HETATM   31  O   UNL     1      -5.937  11.010  62.441  1.00  0.00    -0.273 OA 
HETATM   32  H   UNL     1      -6.333  11.097  61.582  1.00  0.00     0.000 HD 
ENDBRANCH  20  30
ENDBRANCH  16  18
ENDBRANCH  10  11
ENDBRANCH   7  10
ENDBRANCH   3   4
ENDBRANCH   2   3
TORSDOF 6
ENDMDL
MODEL      261
REMARK 921   NORMALIZED FREE ENERGY PREDICTED BY IDOCK:   -3.00 KCAL/MOL
REMARK 922        TOTAL FREE ENERGY PREDICTED BY IDOCK:   -5.02 KCAL/MOL
REMARK 923 INTER-LIGAND FREE ENERGY PREDICTED BY IDOCK:   -4.75 KCAL/MOL
REMARK 924 INTRA-LIGAND FREE ENERGY PREDICTED BY IDOCK:   -0.27 KCAL/MOL
REMARK 927      BINDING AFFINITY PREDICTED BY RF-SCORE:    0.00 PKD
ROOT
HETATM    1  C   UNL     1     -11.983  14.714  66.190  1.00  0.00    -0.250 C  
HETATM    2  C   UNL     1     -11.386  13.374  66.578  1.00  0.00    -0.320 C  
ENDROOT
BRANCH   2   3
HETATM    3  O   UNL     1     -12.299  12.718  67.455  1.00  0.00    -0.280 OA 
BRANCH   3   4
HETATM    4  C   UNL     1     -11.766  11.841  68.359  1.00  0.00    -0.325 A  
HETATM    5  C   UNL     1     -10.460  11.355  68.353  1.00  0.00    -0.221 A  
HETATM    6  C   UNL     1     -10.036  10.464  69.345  1.00  0.00    -0.251 A  
HETATM    7  C   UNL     1     -10.909  10.045  70.358  1.00  0.00    -0.380 A  
HETATM    8  C   UNL     1     -12.644  11.414  69.357  1.00  0.00     0.147 A  
HETATM    9  C   UNL     1     -12.224  10.523  70.348  1.00  0.00    -0.415 A  
BRANCH   7  10
HETATM   10  C   UNL     1     -10.445   9.034  71.378  1.00  0.00    -0.395 C  
BRANCH  10  11
HETATM   11  C   UNL     1      -9.292   8.141  70.977  1.00  0.00    -0.180 A  
HETATM   12  C   UNL     1      -8.216   7.839  71.823  1.00  0.00    -0.111 A  
HETATM   13 CL   UNL     1      -8.192   8.329  73.478  1.00  0.00    -0.269 Cl 
HETATM   14  C   UNL     1      -7.094   7.164  71.326  1.00  0.00    -0.069 A  
HETATM   15  C   UNL     1      -7.019   6.795  69.979  1.00  0.00    -0.062 A  
HETATM   16  C   UNL     1      -8.088   7.057  69.118  1.00  0.00    -0.121 A  
HETATM   17  C   UNL     1      -9.231   7.690  69.646  1.00  0.00    -0.146 A  
BRANCH  16  18
HETATM   18  C   UNL     1      -8.020   6.811  67.615  1.00  0.00    -0.113 C  
HETATM   19  O   UNL     1      -9.043   5.886  67.201  1.00  0.00    -0.114 OA 
HETATM   20  C   UNL     1      -9.059   5.674  65.778  1.00  0.00    -0.128 C  
HETATM   21  H   UNL     1      -4.724   6.920  67.319  1.00  0.00     0.000 HD 
HETATM   22  C   UNL     1      -7.729   5.087  65.300  1.00  0.00    -0.087 C  
HETATM   23  O   UNL     1      -5.585   7.238  67.561  1.00  0.00    -0.023 OA 
HETATM   24  O   UNL     1      -7.683   4.916  63.876  1.00  0.00    -0.070 OA 
HETATM   25  C   UNL     1      -6.576   6.002  65.712  1.00  0.00    -0.047 C  
HETATM   26  H   UNL     1      -4.610   5.977  65.600  1.00  0.00     0.000 HD 
HETATM   27  O   UNL     1      -5.327   5.409  65.343  1.00  0.00    -0.012 OA 
HETATM   28  H   UNL     1      -6.858   4.551  63.578  1.00  0.00     0.000 HD 
HETATM   29  C   UNL     1      -6.610   6.291  67.218  1.00  0.00    -0.058 C  
BRANCH  20  30
HETATM   30  C   UNL     1     -10.221   4.728  65.439  1.00  0.00    -0.076 C  
HETATM   31  O   UNL     1     -10.382   4.653  64.023  1.00  0.00    -0.371 OA 
HETATM   32  H   UNL     1     -11.100   4.069  63.813  1.00  0.00     0.000 HD 
ENDBRANCH  20  30
ENDBRANCH  16  18
ENDBRANCH  10  11
ENDBRANCH   7  10
ENDBRANCH   3   4
ENDBRANCH   2   3
TORSDOF 6
ENDMDL
MODEL      262
REMARK 921   NORMALIZED FREE ENERGY PREDICTED BY IDOCK:   -2.97 KCAL/MOL
REMARK 922        TOTAL FREE ENERGY PREDICTED BY IDOCK:   -4.98 KCAL/MOL
REMARK 923 INTER-LIGAND FREE ENERGY PREDICTED BY IDOCK:   -3.68 KCAL/MOL
REMARK 924 INTRA-LIGAND FREE ENERGY PREDICTED BY IDOCK:   -1.30 KCAL/MOL
REMARK 927      BINDING AFFINITY PREDICTED BY RF-SCORE:    0.00 PKD
ROOT
HETATM    1  C   UNL     1     -11.163  11.472  64.960  1.00  0.00    -0.226 C  
HETATM    2  C   UNL     1     -10.750  12.199  66.226  1.00  0.00    -0.261 C  
ENDROOT
BRANCH   2   3
HETATM    3  O   UNL     1      -9.345  12.435  66.165  1.00  0.00    -0.225 OA 
BRANCH   3   4
HETATM    4  C   UNL     1      -8.546  11.598  66.893  1.00  0.00    -0.174 A  
HETATM    5  C   UNL     1      -7.448  10.890  66.408  1.00  0.00    -0.145 A  
HETATM    6  C   UNL     1      -6.705  10.070  67.264  1.00  0.00    -0.074 A  
HETATM    7  C   UNL     1      -7.047   9.943  68.617  1.00  0.00    -0.071 A  
HETATM    8  C   UNL     1      -8.899  11.464  68.237  1.00  0.00    -0.167 A  
HETATM    9  C   UNL     1      -8.160  10.644  69.094  1.00  0.00    -0.143 A  
BRANCH   7  10
HETATM   10  C   UNL     1      -6.268   9.002  69.503  1.00  0.00    -0.040 C  
BRANCH  10  11
HETATM   11  C   UNL     1      -7.055   7.913  70.198  1.00  0.00    -0.050 A  
HETATM   12  C   UNL     1      -7.052   7.722  71.586  1.00  0.00    -0.064 A  
HETATM   13 CL   UNL     1      -6.276   8.830  72.658  1.00  0.00    -0.076 Cl 
HETATM   14  C   UNL     1      -7.648   6.584  72.144  1.00  0.00    -0.097 A  
HETATM   15  C   UNL     1      -8.238   5.613  71.330  1.00  0.00    -0.125 A  
HETATM   16  C   UNL     1      -8.281   5.789  69.943  1.00  0.00    -0.115 A  
HETATM   17  C   UNL     1      -7.724   6.965  69.403  1.00  0.00    -0.105 A  
BRANCH  16  18
HETATM   18  C   UNL     1      -8.781   4.712  68.987  1.00  0.00    -0.085 C  
HETATM   19  O   UNL     1      -7.677   3.991  68.407  1.00  0.00    -0.065 OA 
HETATM   20  C   UNL     1      -8.103   2.920  67.547  1.00  0.00    -0.076 C  
HETATM   21  H   UNL     1     -11.358   6.395  67.766  1.00  0.00     0.000 HD 
HETATM   22  C   UNL     1      -8.928   3.457  66.376  1.00  0.00    -0.148 C  
HETATM   23  O   UNL     1     -10.815   6.008  68.442  1.00  0.00    -0.268 OA 
HETATM   24  O   UNL     1      -9.423   2.412  65.525  1.00  0.00    -0.335 OA 
HETATM   25  C   UNL     1     -10.122   4.256  66.901  1.00  0.00    -0.055 C  
HETATM   26  H   UNL     1     -11.583   5.328  66.132  1.00  0.00     0.000 HD 
HETATM   27  O   UNL     1     -10.842   4.832  65.806  1.00  0.00    -0.295 OA 
HETATM   28  H   UNL     1      -9.935   2.745  64.798  1.00  0.00     0.000 HD 
HETATM   29  C   UNL     1      -9.670   5.346  67.880  1.00  0.00    -0.136 C  
BRANCH  20  30
HETATM   30  C   UNL     1      -6.857   2.179  67.036  1.00  0.00    -0.040 C  
HETATM   31  O   UNL     1      -5.838   2.209  68.034  1.00  0.00    -0.022 OA 
HETATM   32  H   UNL     1      -5.068   1.751  67.718  1.00  0.00     0.000 HD 
ENDBRANCH  20  30
ENDBRANCH  16  18
ENDBRANCH  10  11
ENDBRANCH   7  10
ENDBRANCH   3   4
ENDBRANCH   2   3
TORSDOF 6
ENDMDL
MODEL      263
REMARK 921   NORMALIZED FREE ENERGY PREDICTED BY IDOCK:   -2.89 KCAL/MOL
REMARK 922        TOTAL FREE ENERGY PREDICTED BY IDOCK:   -4.87 KCAL/MOL
REMARK 923 INTER-LIGAND FREE ENERGY PREDICTED BY IDOCK:   -4.44 KCAL/MOL
REMARK 924 INTRA-LIGAND FREE ENERGY PREDICTED BY IDOCK:   -0.43 KCAL/MOL
REMARK 927      BINDING AFFINITY PREDICTED BY RF-SCORE:    0.00 PKD
ROOT
HETATM    1  C   UNL     1      -6.636   7.613  66.584  1.00  0.00    -0.057 C  
HETATM    2  C   UNL     1      -5.843   7.885  67.849  1.00  0.00    -0.041 C  
ENDROOT
BRANCH   2   3
HETATM    3  O   UNL     1      -5.199   9.150  67.706  1.00  0.00    -0.034 OA 
BRANCH   3   4
HETATM    4  C   UNL     1      -5.939  10.258  68.014  1.00  0.00    -0.044 A  
HETATM    5  C   UNL     1      -6.863  10.361  69.052  1.00  0.00    -0.064 A  
HETATM    6  C   UNL     1      -7.550  11.561  69.266  1.00  0.00     0.075 A  
HETATM    7  C   UNL     1      -7.326  12.676  68.447  1.00  0.00    -0.118 A  
HETATM    8  C   UNL     1      -5.723  11.361  67.186  1.00  0.00    -0.092 A  
HETATM    9  C   UNL     1      -6.409  12.561  67.396  1.00  0.00    -0.157 A  
BRANCH   7  10
HETATM   10  C   UNL     1      -8.128  13.937  68.660  1.00  0.00    -0.097 C  
BRANCH  10  11
HETATM   11  C   UNL     1      -9.633  13.790  68.691  1.00  0.00    -0.121 A  
HETATM   12  C   UNL     1     -10.515  14.877  68.734  1.00  0.00    -0.242 A  
HETATM   13 CL   UNL     1      -9.965  16.507  68.584  1.00  0.00    -0.237 Cl 
HETATM   14  C   UNL     1     -11.883  14.670  68.952  1.00  0.00    -0.344 A  
HETATM   15  C   UNL     1     -12.389  13.380  69.147  1.00  0.00    -0.050 A  
HETATM   16  C   UNL     1     -11.538  12.274  69.081  1.00  0.00    -0.373 A  
HETATM   17  C   UNL     1     -10.174  12.497  68.809  1.00  0.00    -0.101 A  
BRANCH  16  18
HETATM   18  C   UNL     1     -11.992  10.859  69.421  1.00  0.00    -0.322 C  
HETATM   19  O   UNL     1     -12.051  10.669  70.848  1.00  0.00    -0.330 OA 
HETATM   20  C   UNL     1     -12.539   9.367  71.216  1.00  0.00    -0.325 C  
HETATM   21  H   UNL     1     -10.450   9.311  66.932  1.00  0.00     0.000 HD 
HETATM   22  C   UNL     1     -11.622   8.268  70.675  1.00  0.00    -0.191 C  
HETATM   23  O   UNL     1     -11.030   9.948  67.333  1.00  0.00    -0.269 OA 
HETATM   24  O   UNL     1     -12.107   6.951  70.971  1.00  0.00    -0.354 OA 
HETATM   25  C   UNL     1     -11.486   8.402  69.158  1.00  0.00     0.730 C  
HETATM   26  H   UNL     1     -10.473   7.513  67.722  1.00  0.00     0.000 HD 
HETATM   27  O   UNL     1     -10.558   7.430  68.664  1.00  0.00    -0.198 OA 
HETATM   28  H   UNL     1     -11.537   6.268  70.635  1.00  0.00     0.000 HD 
HETATM   29  C   UNL     1     -11.043   9.817  68.765  1.00  0.00    -0.095 C  
BRANCH  20  30
HETATM   30  C   UNL     1     -12.626   9.294  72.749  1.00  0.00     0.145 C  
HETATM   31  O   UNL     1     -13.974   9.047  73.142  1.00  0.00    -1.130 OA 
HETATM   32  H   UNL     1     -14.028   9.002  74.090  1.00  0.00     0.000 HD 
ENDBRANCH  20  30
ENDBRANCH  16  18
ENDBRANCH  10  11
ENDBRANCH   7  10
ENDBRANCH   3   4
ENDBRANCH   2   3
TORSDOF 6
ENDMDL
MODEL      264
REMARK 921   NORMALIZED FREE ENERGY PREDICTED BY IDOCK:   -2.84 KCAL/MOL
REMARK 922        TOTAL FREE ENERGY PREDICTED BY IDOCK:   -4.81 KCAL/MOL
REMARK 923 INTER-LIGAND FREE ENERGY PREDICTED BY IDOCK:   -3.72 KCAL/MOL
REMARK 924 INTRA-LIGAND FREE ENERGY PREDICTED BY IDOCK:   -1.09 KCAL/MOL
REMARK 927      BINDING AFFINITY PREDICTED BY RF-SCORE:    0.00 PKD
ROOT
HETATM    1  C   UNL     1      -8.618   4.347  74.529  1.00  0.00    -0.095 C  
HETATM    2  C   UNL     1      -7.353   3.572  74.208  1.00  0.00    -0.053 C  
ENDROOT
BRANCH   2   3
HETATM    3  O   UNL     1      -7.718   2.419  73.452  1.00  0.00    -0.041 OA 
BRANCH   3   4
HETATM    4  C   UNL     1      -8.026   2.615  72.135  1.00  0.00    -0.054 A  
HETATM    5  C   UNL     1      -7.302   3.392  71.233  1.00  0.00    -0.033 A  
HETATM    6  C   UNL     1      -7.722   3.504  69.904  1.00  0.00    -0.047 A  
HETATM    7  C   UNL     1      -8.872   2.843  69.453  1.00  0.00    -0.152 A  
HETATM    8  C   UNL     1      -9.181   1.966  71.695  1.00  0.00    -0.159 A  
HETATM    9  C   UNL     1      -9.605   2.077  70.367  1.00  0.00    -0.108 A  
BRANCH   7  10
HETATM   10  C   UNL     1      -9.339   3.033  68.030  1.00  0.00    -0.255 C  
BRANCH  10  11
HETATM   11  C   UNL     1      -8.518   3.960  67.162  1.00  0.00    -0.100 A  
HETATM   12  C   UNL     1      -7.362   3.557  66.480  1.00  0.00    -0.075 A  
HETATM   13 CL   UNL     1      -6.857   1.907  66.432  1.00  0.00    -0.041 Cl 
HETATM   14  C   UNL     1      -6.547   4.506  65.849  1.00  0.00    -0.044 A  
HETATM   15  C   UNL     1      -6.861   5.868  65.904  1.00  0.00    -0.060 A  
HETATM   16  C   UNL     1      -8.023   6.296  66.553  1.00  0.00    -0.109 A  
HETATM   17  C   UNL     1      -8.858   5.323  67.135  1.00  0.00    -0.109 A  
BRANCH  16  18
HETATM   18  C   UNL     1      -8.354   7.768  66.772  1.00  0.00    -0.125 C  
HETATM   19  O   UNL     1      -9.349   7.921  67.802  1.00  0.00    -0.139 OA 
HETATM   20  C   UNL     1      -9.645   9.299  68.089  1.00  0.00    -0.143 C  
HETATM   21  H   UNL     1      -8.111   8.730  63.612  1.00  0.00     0.000 HD 
HETATM   22  C   UNL     1     -10.198  10.007  66.850  1.00  0.00    -0.238 C  
HETATM   23  O   UNL     1      -7.819   8.335  64.425  1.00  0.00    -0.121 OA 
HETATM   24  O   UNL     1     -10.450  11.401  67.080  1.00  0.00    -0.217 OA 
HETATM   25  C   UNL     1      -9.207   9.882  65.692  1.00  0.00    -0.194 C  
HETATM   26  H   UNL     1      -9.147  10.389  63.790  1.00  0.00     0.000 HD 
HETATM   27  O   UNL     1      -9.763  10.467  64.510  1.00  0.00    -0.281 OA 
HETATM   28  H   UNL     1     -10.794  11.841  66.311  1.00  0.00     0.000 HD 
HETATM   29  C   UNL     1      -8.832   8.416  65.442  1.00  0.00    -0.103 C  
BRANCH  20  30
HETATM   30  C   UNL     1     -10.663   9.350  69.240  1.00  0.00    -0.211 C  
HETATM   31  O   UNL     1     -10.494  10.559  69.977  1.00  0.00    -0.410 OA 
HETATM   32  H   UNL     1     -11.122  10.591  70.688  1.00  0.00     0.000 HD 
ENDBRANCH  20  30
ENDBRANCH  16  18
ENDBRANCH  10  11
ENDBRANCH   7  10
ENDBRANCH   3   4
ENDBRANCH   2   3
TORSDOF 6
ENDMDL
MODEL      265
REMARK 921   NORMALIZED FREE ENERGY PREDICTED BY IDOCK:   -2.80 KCAL/MOL
REMARK 922        TOTAL FREE ENERGY PREDICTED BY IDOCK:   -4.75 KCAL/MOL
REMARK 923 INTER-LIGAND FREE ENERGY PREDICTED BY IDOCK:   -3.54 KCAL/MOL
REMARK 924 INTRA-LIGAND FREE ENERGY PREDICTED BY IDOCK:   -1.21 KCAL/MOL
REMARK 927      BINDING AFFINITY PREDICTED BY RF-SCORE:    0.00 PKD
ROOT
HETATM    1  C   UNL     1      -7.485  16.045  69.082  1.00  0.00    -0.216 C  
HETATM    2  C   UNL     1      -7.521  14.539  69.265  1.00  0.00    -0.102 C  
ENDROOT
BRANCH   2   3
HETATM    3  O   UNL     1      -8.016  13.957  68.060  1.00  0.00    -0.128 OA 
BRANCH   3   4
HETATM    4  C   UNL     1      -7.277  12.944  67.514  1.00  0.00    -0.148 A  
HETATM    5  C   UNL     1      -5.886  12.875  67.478  1.00  0.00    -0.115 A  
HETATM    6  C   UNL     1      -5.251  11.774  66.894  1.00  0.00    -0.108 A  
HETATM    7  C   UNL     1      -5.994  10.725  66.336  1.00  0.00    -0.110 A  
HETATM    8  C   UNL     1      -8.022  11.909  66.947  1.00  0.00    -0.132 A  
HETATM    9  C   UNL     1      -7.391  10.808  66.361  1.00  0.00    -0.142 A  
BRANCH   7  10
HETATM   10  C   UNL     1      -5.283   9.580  65.656  1.00  0.00    -0.039 C  
BRANCH  10  11
HETATM   11  C   UNL     1      -6.069   8.815  64.614  1.00  0.00    -0.065 A  
HETATM   12  C   UNL     1      -6.333   9.307  63.329  1.00  0.00    -0.091 A  
HETATM   13 CL   UNL     1      -5.636  10.778  62.753  1.00  0.00    -0.167 Cl 
HETATM   14  C   UNL     1      -7.222   8.632  62.483  1.00  0.00    -0.097 A  
HETATM   15  C   UNL     1      -7.872   7.469  62.908  1.00  0.00    -0.130 A  
HETATM   16  C   UNL     1      -7.606   6.939  64.174  1.00  0.00    -0.112 A  
HETATM   17  C   UNL     1      -6.670   7.601  64.992  1.00  0.00    -0.047 A  
BRANCH  16  18
HETATM   18  C   UNL     1      -8.378   5.760  64.756  1.00  0.00    -0.116 C  
HETATM   19  O   UNL     1      -9.061   6.143  65.966  1.00  0.00    -0.156 OA 
HETATM   20  C   UNL     1      -9.857   5.078  66.515  1.00  0.00    -0.199 C  
HETATM   21  H   UNL     1      -6.200   3.396  63.963  1.00  0.00     0.000 HD 
HETATM   22  C   UNL     1      -8.984   3.875  66.877  1.00  0.00    -0.137 C  
HETATM   23  O   UNL     1      -6.786   4.126  63.804  1.00  0.00    -0.041 OA 
HETATM   24  O   UNL     1      -9.749   2.768  67.374  1.00  0.00    -0.383 OA 
HETATM   25  C   UNL     1      -8.204   3.407  65.647  1.00  0.00    -0.097 C  
HETATM   26  H   UNL     1      -6.836   2.049  65.244  1.00  0.00     0.000 HD 
HETATM   27  O   UNL     1      -7.321   2.340  66.007  1.00  0.00    -0.063 OA 
HETATM   28  H   UNL     1      -9.207   2.021  67.599  1.00  0.00     0.000 HD 
HETATM   29  C   UNL     1      -7.419   4.565  65.017  1.00  0.00    -0.073 C  
BRANCH  20  30
HETATM   30  C   UNL     1     -10.589   5.608  67.758  1.00  0.00    -0.200 C  
HETATM   31  O   UNL     1      -9.639   6.097  68.703  1.00  0.00    -0.126 OA 
HETATM   32  H   UNL     1     -10.092   6.424  69.471  1.00  0.00     0.000 HD 
ENDBRANCH  20  30
ENDBRANCH  16  18
ENDBRANCH  10  11
ENDBRANCH   7  10
ENDBRANCH   3   4
ENDBRANCH   2   3
TORSDOF 6
ENDMDL
MODEL      266
REMARK 921   NORMALIZED FREE ENERGY PREDICTED BY IDOCK:   -2.75 KCAL/MOL
REMARK 922        TOTAL FREE ENERGY PREDICTED BY IDOCK:   -4.68 KCAL/MOL
REMARK 923 INTER-LIGAND FREE ENERGY PREDICTED BY IDOCK:   -4.59 KCAL/MOL
REMARK 924 INTRA-LIGAND FREE ENERGY PREDICTED BY IDOCK:   -0.09 KCAL/MOL
REMARK 927      BINDING AFFINITY PREDICTED BY RF-SCORE:    0.00 PKD
ROOT
HETATM    1  C   UNL     1      -5.228  10.664  63.212  1.00  0.00    -0.177 C  
HETATM    2  C   UNL     1      -5.989   9.763  64.167  1.00  0.00    -0.111 C  
ENDROOT
BRANCH   2   3
HETATM    3  O   UNL     1      -5.931   8.430  63.662  1.00  0.00    -0.070 OA 
BRANCH   3   4
HETATM    4  C   UNL     1      -6.405   7.439  64.476  1.00  0.00    -0.040 A  
HETATM    5  C   UNL     1      -6.026   6.099  64.439  1.00  0.00    -0.025 A  
HETATM    6  C   UNL     1      -6.585   5.185  65.339  1.00  0.00    -0.040 A  
HETATM    7  C   UNL     1      -7.530   5.593  66.289  1.00  0.00    -0.083 A  
HETATM    8  C   UNL     1      -7.358   7.849  65.411  1.00  0.00    -0.076 A  
HETATM    9  C   UNL     1      -7.919   6.937  66.310  1.00  0.00    -0.108 A  
BRANCH   7  10
HETATM   10  C   UNL     1      -8.164   4.574  67.204  1.00  0.00    -0.101 C  
BRANCH  10  11
HETATM   11  C   UNL     1      -8.451   5.017  68.622  1.00  0.00    -0.087 A  
HETATM   12  C   UNL     1      -8.001   4.326  69.754  1.00  0.00    -0.056 A  
HETATM   13 CL   UNL     1      -6.923   2.983  69.636  1.00  0.00    -0.040 Cl 
HETATM   14  C   UNL     1      -8.460   4.682  71.029  1.00  0.00    -0.115 A  
HETATM   15  C   UNL     1      -9.385   5.719  71.192  1.00  0.00    -0.174 A  
HETATM   16  C   UNL     1      -9.830   6.445  70.084  1.00  0.00    -0.191 A  
HETATM   17  C   UNL     1      -9.318   6.107  68.816  1.00  0.00    -0.123 A  
BRANCH  16  18
HETATM   18  C   UNL     1     -10.937   7.489  70.169  1.00  0.00    -0.254 C  
HETATM   19  O   UNL     1     -10.464   8.774  69.724  1.00  0.00    -0.211 OA 
HETATM   20  C   UNL     1     -11.495   9.777  69.725  1.00  0.00    -0.098 C  
HETATM   21  H   UNL     1     -12.364   6.367  72.939  1.00  0.00     0.000 HD 
HETATM   22  C   UNL     1     -12.049   9.989  71.135  1.00  0.00    -0.380 C  
HETATM   23  O   UNL     1     -12.029   6.315  72.052  1.00  0.00    -0.330 OA 
HETATM   24  O   UNL     1     -13.122  10.941  71.169  1.00  0.00    -0.355 OA 
HETATM   25  C   UNL     1     -12.564   8.663  71.698  1.00  0.00    -0.338 C  
HETATM   26  H   UNL     1     -13.319   8.020  73.399  1.00  0.00     0.000 HD 
HETATM   27  O   UNL     1     -13.000   8.844  73.049  1.00  0.00    -0.297 OA 
HETATM   28  H   UNL     1     -13.466  11.072  72.045  1.00  0.00     0.000 HD 
HETATM   29  C   UNL     1     -11.486   7.574  71.621  1.00  0.00    -0.261 C  
BRANCH  20  30
HETATM   30  C   UNL     1     -10.903  11.085  69.175  1.00  0.00    -0.237 C  
HETATM   31  O   UNL     1     -10.894  11.046  67.749  1.00  0.00    -0.211 OA 
HETATM   32  H   UNL     1     -10.529  11.854  67.409  1.00  0.00     0.000 HD 
ENDBRANCH  20  30
ENDBRANCH  16  18
ENDBRANCH  10  11
ENDBRANCH   7  10
ENDBRANCH   3   4
ENDBRANCH   2   3
TORSDOF 6
ENDMDL
MODEL      267
REMARK 921   NORMALIZED FREE ENERGY PREDICTED BY IDOCK:   -2.64 KCAL/MOL
REMARK 922        TOTAL FREE ENERGY PREDICTED BY IDOCK:   -4.53 KCAL/MOL
REMARK 923 INTER-LIGAND FREE ENERGY PREDICTED BY IDOCK:   -3.97 KCAL/MOL
REMARK 924 INTRA-LIGAND FREE ENERGY PREDICTED BY IDOCK:   -0.56 KCAL/MOL
REMARK 927      BINDING AFFINITY PREDICTED BY RF-SCORE:    0.00 PKD
ROOT
HETATM    1  C   UNL     1     -14.362  15.116  70.982  1.00  0.00    -0.260 C  
HETATM    2  C   UNL     1     -13.818  14.245  72.099  1.00  0.00    -0.494 C  
ENDROOT
BRANCH   2   3
HETATM    3  O   UNL     1     -12.406  14.134  71.930  1.00  0.00    -0.299 OA 
BRANCH   3   4
HETATM    4  C   UNL     1     -11.967  13.558  70.770  1.00  0.00    -0.173 A  
HETATM    5  C   UNL     1     -11.330  14.217  69.720  1.00  0.00    -0.260 A  
HETATM    6  C   UNL     1     -10.921  13.505  68.588  1.00  0.00    -0.289 A  
HETATM    7  C   UNL     1     -11.141  12.125  68.485  1.00  0.00    -0.295 A  
HETATM    8  C   UNL     1     -12.202  12.186  70.667  1.00  0.00    -0.392 A  
HETATM    9  C   UNL     1     -11.795  11.472  69.536  1.00  0.00    -0.419 A  
BRANCH   7  10
HETATM   10  C   UNL     1     -10.747  11.393  67.225  1.00  0.00    -0.283 C  
BRANCH  10  11
HETATM   11  C   UNL     1      -9.390  10.724  67.222  1.00  0.00    -0.165 A  
HETATM   12  C   UNL     1      -8.347  11.095  66.363  1.00  0.00    -0.167 A  
HETATM   13 CL   UNL     1      -8.459  12.476  65.333  1.00  0.00     1.309 Cl 
HETATM   14  C   UNL     1      -7.187  10.314  66.281  1.00  0.00    -0.117 A  
HETATM   15  C   UNL     1      -7.056   9.145  67.039  1.00  0.00    -0.086 A  
HETATM   16  C   UNL     1      -8.068   8.766  67.926  1.00  0.00    -0.107 A  
HETATM   17  C   UNL     1      -9.204   9.591  68.034  1.00  0.00    -0.136 A  
BRANCH  16  18
HETATM   18  C   UNL     1      -8.056   7.438  68.676  1.00  0.00    -0.125 C  
HETATM   19  O   UNL     1      -7.776   6.347  67.779  1.00  0.00    -0.100 OA 
HETATM   20  C   UNL     1      -7.690   5.080  68.455  1.00  0.00    -0.079 C  
HETATM   21  H   UNL     1     -10.498   8.133  70.802  1.00  0.00     0.000 HD 
HETATM   22  C   UNL     1      -9.012   4.739  69.146  1.00  0.00    -0.096 C  
HETATM   23  O   UNL     1      -9.670   8.267  70.357  1.00  0.00    -0.167 OA 
HETATM   24  O   UNL     1      -8.948   3.509  69.883  1.00  0.00    -0.084 OA 
HETATM   25  C   UNL     1      -9.399   5.860  70.113  1.00  0.00    -0.156 C  
HETATM   26  H   UNL     1     -10.920   6.279  71.292  1.00  0.00     0.000 HD 
HETATM   27  O   UNL     1     -10.679   5.583  70.692  1.00  0.00    -0.269 OA 
HETATM   28  H   UNL     1      -9.769   3.298  70.312  1.00  0.00     0.000 HD 
HETATM   29  C   UNL     1      -9.412   7.221  69.405  1.00  0.00    -0.154 C  
BRANCH  20  30
HETATM   30  C   UNL     1      -7.325   4.000  67.424  1.00  0.00    -0.068 C  
HETATM   31  O   UNL     1      -6.634   2.933  68.071  1.00  0.00    -0.035 OA 
HETATM   32  H   UNL     1      -6.408   2.266  67.434  1.00  0.00     0.000 HD 
ENDBRANCH  20  30
ENDBRANCH  16  18
ENDBRANCH  10  11
ENDBRANCH   7  10
ENDBRANCH   3   4
ENDBRANCH   2   3
TORSDOF 6
ENDMDL
MODEL      268
REMARK 921   NORMALIZED FREE ENERGY PREDICTED BY IDOCK:   -2.39 KCAL/MOL
REMARK 922        TOTAL FREE ENERGY PREDICTED BY IDOCK:   -4.20 KCAL/MOL
REMARK 923 INTER-LIGAND FREE ENERGY PREDICTED BY IDOCK:   -3.40 KCAL/MOL
REMARK 924 INTRA-LIGAND FREE ENERGY PREDICTED BY IDOCK:   -0.79 KCAL/MOL
REMARK 927      BINDING AFFINITY PREDICTED BY RF-SCORE:    0.00 PKD
ROOT
HETATM    1  C   UNL     1      -5.892  13.896  71.129  1.00  0.00    -0.194 C  
HETATM    2  C   UNL     1      -5.808  13.481  69.672  1.00  0.00    -0.110 C  
ENDROOT
BRANCH   2   3
HETATM    3  O   UNL     1      -7.034  12.841  69.321  1.00  0.00    -0.064 OA 
BRANCH   3   4
HETATM    4  C   UNL     1      -6.941  11.679  68.606  1.00  0.00    -0.088 A  
HETATM    5  C   UNL     1      -5.801  10.888  68.476  1.00  0.00    -0.043 A  
HETATM    6  C   UNL     1      -5.842   9.713  67.718  1.00  0.00    -0.044 A  
HETATM    7  C   UNL     1      -7.021   9.309  67.078  1.00  0.00    -0.085 A  
HETATM    8  C   UNL     1      -8.114  11.289  67.958  1.00  0.00    -0.128 A  
HETATM    9  C   UNL     1      -8.158  10.116  67.199  1.00  0.00    -0.120 A  
BRANCH   7  10
HETATM   10  C   UNL     1      -7.020   8.071  66.215  1.00  0.00    -0.063 C  
BRANCH  10  11
HETATM   11  C   UNL     1      -7.745   6.860  66.760  1.00  0.00    -0.102 A  
HETATM   12  C   UNL     1      -8.375   5.906  65.950  1.00  0.00    -0.136 A  
HETATM   13 CL   UNL     1      -8.238   5.935  64.229  1.00  0.00    -0.119 Cl 
HETATM   14  C   UNL     1      -9.185   4.917  66.522  1.00  0.00    -0.135 A  
HETATM   15  C   UNL     1      -9.393   4.873  67.904  1.00  0.00    -0.155 A  
HETATM   16  C   UNL     1      -8.755   5.794  68.740  1.00  0.00    -0.108 A  
HETATM   17  C   UNL     1      -7.902   6.749  68.153  1.00  0.00    -0.113 A  
BRANCH  16  18
HETATM   18  C   UNL     1      -9.043   5.894  70.234  1.00  0.00    -0.147 C  
HETATM   19  O   UNL     1      -8.207   6.892  70.851  1.00  0.00    -0.115 OA 
HETATM   20  C   UNL     1      -8.491   7.067  72.250  1.00  0.00    -0.110 C  
HETATM   21  H   UNL     1      -9.607   2.676  70.772  1.00  0.00     0.000 HD 
HETATM   22  C   UNL     1      -8.251   5.769  73.022  1.00  0.00    -0.118 C  
HETATM   23  O   UNL     1      -9.728   3.521  70.356  1.00  0.00    -0.185 OA 
HETATM   24  O   UNL     1      -8.580   5.886  74.414  1.00  0.00    -0.114 OA 
HETATM   25  C   UNL     1      -9.093   4.641  72.422  1.00  0.00    -0.125 C  
HETATM   26  H   UNL     1      -9.323   2.708  72.715  1.00  0.00     0.000 HD 
HETATM   27  O   UNL     1      -8.801   3.408  73.088  1.00  0.00    -0.081 OA 
HETATM   28  H   UNL     1      -8.431   5.080  74.894  1.00  0.00     0.000 HD 
HETATM   29  C   UNL     1      -8.846   4.510  70.914  1.00  0.00    -0.113 C  
BRANCH  20  30
HETATM   30  C   UNL     1      -7.595   8.192  72.792  1.00  0.00    -0.128 C  
HETATM   31  O   UNL     1      -7.993   8.525  74.121  1.00  0.00    -0.362 OA 
HETATM   32  H   UNL     1      -7.439   9.220  74.456  1.00  0.00     0.000 HD 
ENDBRANCH  20  30
ENDBRANCH  16  18
ENDBRANCH  10  11
ENDBRANCH   7  10
ENDBRANCH   3   4
ENDBRANCH   2   3
TORSDOF 6
ENDMDL
MODEL      269
REMARK 921   NORMALIZED FREE ENERGY PREDICTED BY IDOCK:   -2.30 KCAL/MOL
REMARK 922        TOTAL FREE ENERGY PREDICTED BY IDOCK:   -4.08 KCAL/MOL
REMARK 923 INTER-LIGAND FREE ENERGY PREDICTED BY IDOCK:   -5.43 KCAL/MOL
REMARK 924 INTRA-LIGAND FREE ENERGY PREDICTED BY IDOCK:    1.36 KCAL/MOL
REMARK 927      BINDING AFFINITY PREDICTED BY RF-SCORE:    0.00 PKD
ROOT
HETATM    1  C   UNL     1     -13.084  12.425  64.698  1.00  0.00     0.108 C  
HETATM    2  C   UNL     1     -12.585  11.984  63.335  1.00  0.00    -0.469 C  
ENDROOT
BRANCH   2   3
HETATM    3  O   UNL     1     -11.193  12.284  63.252  1.00  0.00    -0.419 OA 
BRANCH   3   4
HETATM    4  C   UNL     1     -10.458  12.123  64.394  1.00  0.00    -0.317 A  
HETATM    5  C   UNL     1      -9.785  10.964  64.775  1.00  0.00    -0.323 A  
HETATM    6  C   UNL     1      -9.058  10.933  65.970  1.00  0.00    -0.208 A  
HETATM    7  C   UNL     1      -8.992  12.057  66.803  1.00  0.00    -0.198 A  
HETATM    8  C   UNL     1     -10.407  13.241  65.227  1.00  0.00    -0.324 A  
HETATM    9  C   UNL     1      -9.683  13.213  66.423  1.00  0.00    -0.269 A  
BRANCH   7  10
HETATM   10  C   UNL     1      -8.254  11.976  68.117  1.00  0.00    -0.163 C  
BRANCH  10  11
HETATM   11  C   UNL     1      -7.431  13.182  68.512  1.00  0.00    -0.117 A  
HETATM   12  C   UNL     1      -6.509  13.178  69.567  1.00  0.00    -0.074 A  
HETATM   13 CL   UNL     1      -6.101  11.732  70.417  1.00  0.00    -0.129 Cl 
HETATM   14  C   UNL     1      -5.923  14.374  69.999  1.00  0.00    -0.141 A  
HETATM   15  C   UNL     1      -6.258  15.593  69.399  1.00  0.00    -0.136 A  
HETATM   16  C   UNL     1      -7.152  15.625  68.325  1.00  0.00    -0.116 A  
HETATM   17  C   UNL     1      -7.692  14.405  67.869  1.00  0.00    -0.152 A  
BRANCH  16  18
HETATM   18  C   UNL     1      -7.668  16.923  67.716  1.00  0.00    -0.173 C  
HETATM   19  O   UNL     1      -8.077  17.844  68.745  1.00  0.00    -0.292 OA 
HETATM   20  C   UNL     1      -8.510  19.110  68.219  1.00  0.00    -0.332 C  
HETATM   21  H   UNL     1      -9.144  15.592  65.067  1.00  0.00     0.000 HD 
HETATM   22  C   UNL     1      -9.718  18.934  67.297  1.00  0.00    -0.311 C  
HETATM   23  O   UNL     1      -8.427  15.770  65.664  1.00  0.00     0.339 OA 
HETATM   24  O   UNL     1     -10.145  20.169  66.704  1.00  0.00    -0.434 OA 
HETATM   25  C   UNL     1      -9.379  17.952  66.174  1.00  0.00    -0.132 C  
HETATM   26  H   UNL     1     -10.326  17.108  64.668  1.00  0.00     0.000 HD 
HETATM   27  O   UNL     1     -10.536  17.718  65.365  1.00  0.00    -0.659 OA 
HETATM   28  H   UNL     1     -10.895  20.059  66.132  1.00  0.00     0.000 HD 
HETATM   29  C   UNL     1      -8.841  16.631  66.739  1.00  0.00    -0.231 C  
BRANCH  20  30
HETATM   30  C   UNL     1      -8.859  20.035  69.396  1.00  0.00     0.494 C  
HETATM   31  O   UNL     1     -10.241  20.380  69.342  1.00  0.00    -0.254 OA 
HETATM   32  H   UNL     1     -10.457  20.951  70.070  1.00  0.00     0.000 HD 
ENDBRANCH  20  30
ENDBRANCH  16  18
ENDBRANCH  10  11
ENDBRANCH   7  10
ENDBRANCH   3   4
ENDBRANCH   2   3
TORSDOF 6
ENDMDL
MODEL      270
REMARK 921   NORMALIZED FREE ENERGY PREDICTED BY IDOCK:   -2.09 KCAL/MOL
REMARK 922        TOTAL FREE ENERGY PREDICTED BY IDOCK:   -3.79 KCAL/MOL
REMARK 923 INTER-LIGAND FREE ENERGY PREDICTED BY IDOCK:   -4.14 KCAL/MOL
REMARK 924 INTRA-LIGAND FREE ENERGY PREDICTED BY IDOCK:    0.35 KCAL/MOL
REMARK 927      BINDING AFFINITY PREDICTED BY RF-SCORE:    0.00 PKD
ROOT
HETATM    1  C   UNL     1     -14.410  15.148  71.460  1.00  0.00    -0.660 C  
HETATM    2  C   UNL     1     -14.193  14.268  72.677  1.00  0.00    -0.037 C  
ENDROOT
BRANCH   2   3
HETATM    3  O   UNL     1     -12.788  14.154  72.898  1.00  0.00    -0.415 OA 
BRANCH   3   4
HETATM    4  C   UNL     1     -11.979  14.270  71.802  1.00  0.00    -0.023 A  
HETATM    5  C   UNL     1     -10.882  15.121  71.683  1.00  0.00     0.159 A  
HETATM    6  C   UNL     1     -10.128  15.137  70.504  1.00  0.00     0.274 A  
HETATM    7  C   UNL     1     -10.458  14.304  69.427  1.00  0.00    -0.049 A  
HETATM    8  C   UNL     1     -12.320  13.449  70.726  1.00  0.00    -0.433 A  
HETATM    9  C   UNL     1     -11.570  13.464  69.546  1.00  0.00    -0.352 A  
BRANCH   7  10
HETATM   10  C   UNL     1      -9.667  14.388  68.144  1.00  0.00    -0.223 C  
BRANCH  10  11
HETATM   11  C   UNL     1      -8.434  13.516  68.046  1.00  0.00    -0.176 A  
HETATM   12  C   UNL     1      -7.185  13.988  67.620  1.00  0.00    -0.176 A  
HETATM   13 CL   UNL     1      -6.894  15.664  67.326  1.00  0.00    -0.226 Cl 
HETATM   14  C   UNL     1      -6.138  13.092  67.372  1.00  0.00    -0.064 A  
HETATM   15  C   UNL     1      -6.323  11.714  67.527  1.00  0.00    -0.087 A  
HETATM   16  C   UNL     1      -7.549  11.216  67.978  1.00  0.00    -0.100 A  
HETATM   17  C   UNL     1      -8.575  12.136  68.273  1.00  0.00    -0.175 A  
BRANCH  16  18
HETATM   18  C   UNL     1      -7.867   9.726  68.035  1.00  0.00    -0.086 C  
HETATM   19  O   UNL     1      -8.853   9.452  69.048  1.00  0.00    -0.134 OA 
HETATM   20  C   UNL     1      -9.233   8.065  69.094  1.00  0.00    -0.151 C  
HETATM   21  H   UNL     1      -4.810   8.619  67.406  1.00  0.00     0.000 HD 
HETATM   22  C   UNL     1      -8.027   7.181  69.418  1.00  0.00    -0.125 C  
HETATM   23  O   UNL     1      -5.603   9.118  67.249  1.00  0.00    -0.041 OA 
HETATM   24  O   UNL     1      -8.353   5.783  69.415  1.00  0.00    -0.109 OA 
HETATM   25  C   UNL     1      -6.915   7.419  68.396  1.00  0.00    -0.079 C  
HETATM   26  H   UNL     1      -5.065   6.806  68.116  1.00  0.00     0.000 HD 
HETATM   27  O   UNL     1      -5.756   6.658  68.751  1.00  0.00    -0.016 OA 
HETATM   28  H   UNL     1      -7.604   5.233  69.616  1.00  0.00     0.000 HD 
HETATM   29  C   UNL     1      -6.569   8.909  68.292  1.00  0.00    -0.060 C  
BRANCH  20  30
HETATM   30  C   UNL     1     -10.330   7.894  70.156  1.00  0.00    -0.215 C  
HETATM   31  O   UNL     1     -11.592   8.273  69.609  1.00  0.00    -0.357 OA 
HETATM   32  H   UNL     1     -12.270   8.168  70.265  1.00  0.00     0.000 HD 
ENDBRANCH  20  30
ENDBRANCH  16  18
ENDBRANCH  10  11
ENDBRANCH   7  10
ENDBRANCH   3   4
ENDBRANCH   2   3
TORSDOF 6
ENDMDL
MODEL      271
REMARK 921   NORMALIZED FREE ENERGY PREDICTED BY IDOCK:   -1.98 KCAL/MOL
REMARK 922        TOTAL FREE ENERGY PREDICTED BY IDOCK:   -3.64 KCAL/MOL
REMARK 923 INTER-LIGAND FREE ENERGY PREDICTED BY IDOCK:   -3.04 KCAL/MOL
REMARK 924 INTRA-LIGAND FREE ENERGY PREDICTED BY IDOCK:   -0.59 KCAL/MOL
REMARK 927      BINDING AFFINITY PREDICTED BY RF-SCORE:    0.00 PKD
ROOT
HETATM    1  C   UNL     1     -11.013   4.714  74.451  1.00  0.00     0.137 C  
HETATM    2  C   UNL     1     -10.324   3.728  73.526  1.00  0.00    -0.160 C  
ENDROOT
BRANCH   2   3
HETATM    3  O   UNL     1      -9.067   4.282  73.142  1.00  0.00    -0.110 OA 
BRANCH   3   4
HETATM    4  C   UNL     1      -8.663   4.066  71.854  1.00  0.00    -0.104 A  
HETATM    5  C   UNL     1      -7.446   4.460  71.301  1.00  0.00    -0.060 A  
HETATM    6  C   UNL     1      -7.153   4.168  69.965  1.00  0.00    -0.042 A  
HETATM    7  C   UNL     1      -8.068   3.478  69.160  1.00  0.00    -0.067 A  
HETATM    8  C   UNL     1      -9.586   3.392  71.052  1.00  0.00    -0.239 A  
HETATM    9  C   UNL     1      -9.295   3.100  69.716  1.00  0.00    -0.223 A  
BRANCH   7  10
HETATM   10  C   UNL     1      -7.752   3.233  67.704  1.00  0.00    -0.072 C  
BRANCH  10  11
HETATM   11  C   UNL     1      -7.449   4.450  66.858  1.00  0.00    -0.081 A  
HETATM   12  C   UNL     1      -6.349   4.536  65.994  1.00  0.00    -0.036 A  
HETATM   13 CL   UNL     1      -5.323   3.182  65.684  1.00  0.00    -0.009 Cl 
HETATM   14  C   UNL     1      -6.022   5.754  65.386  1.00  0.00    -0.025 A  
HETATM   15  C   UNL     1      -6.772   6.907  65.643  1.00  0.00    -0.052 A  
HETATM   16  C   UNL     1      -7.891   6.845  66.479  1.00  0.00    -0.106 A  
HETATM   17  C   UNL     1      -8.237   5.600  67.040  1.00  0.00    -0.101 A  
BRANCH  16  18
HETATM   18  C   UNL     1      -8.668   8.082  66.914  1.00  0.00    -0.130 C  
HETATM   19  O   UNL     1      -7.772   9.124  67.345  1.00  0.00    -0.091 OA 
HETATM   20  C   UNL     1      -8.459  10.336  67.703  1.00  0.00    -0.118 C  
HETATM   21  H   UNL     1     -11.236   6.507  68.288  1.00  0.00     0.000 HD 
HETATM   22  C   UNL     1      -9.425  10.093  68.864  1.00  0.00    -0.182 C  
HETATM   23  O   UNL     1     -10.622   6.730  67.599  1.00  0.00    -0.198 OA 
HETATM   24  O   UNL     1     -10.175  11.266  69.212  1.00  0.00    -0.388 OA 
HETATM   25  C   UNL     1     -10.411   8.982  68.498  1.00  0.00    -0.196 C  
HETATM   26  H   UNL     1     -11.869   8.003  69.390  1.00  0.00     0.000 HD 
HETATM   27  O   UNL     1     -11.257   8.694  69.617  1.00  0.00    -0.095 OA 
HETATM   28  H   UNL     1     -10.775  11.115  69.934  1.00  0.00     0.000 HD 
HETATM   29  C   UNL     1      -9.675   7.717  68.041  1.00  0.00    -0.154 C  
BRANCH  20  30
HETATM   30  C   UNL     1      -7.413  11.396  68.083  1.00  0.00    -0.100 C  
HETATM   31  O   UNL     1      -6.320  10.773  68.755  1.00  0.00    -0.043 OA 
HETATM   32  H   UNL     1      -5.674  11.428  68.990  1.00  0.00     0.000 HD 
ENDBRANCH  20  30
ENDBRANCH  16  18
ENDBRANCH  10  11
ENDBRANCH   7  10
ENDBRANCH   3   4
ENDBRANCH   2   3
TORSDOF 6
ENDMDL
MODEL      272
REMARK 921   NORMALIZED FREE ENERGY PREDICTED BY IDOCK:   -1.87 KCAL/MOL
REMARK 922        TOTAL FREE ENERGY PREDICTED BY IDOCK:   -3.49 KCAL/MOL
REMARK 923 INTER-LIGAND FREE ENERGY PREDICTED BY IDOCK:   -2.58 KCAL/MOL
REMARK 924 INTRA-LIGAND FREE ENERGY PREDICTED BY IDOCK:   -0.91 KCAL/MOL
REMARK 927      BINDING AFFINITY PREDICTED BY RF-SCORE:    0.00 PKD
ROOT
HETATM    1  C   UNL     1     -10.702   9.329  66.464  1.00  0.00     0.010 C  
HETATM    2  C   UNL     1     -10.316  10.517  67.324  1.00  0.00    -0.228 C  
ENDROOT
BRANCH   2   3
HETATM    3  O   UNL     1      -8.939  10.807  67.089  1.00  0.00    -0.140 OA 
BRANCH   3   4
HETATM    4  C   UNL     1      -8.043  10.340  68.010  1.00  0.00    -0.106 A  
HETATM    5  C   UNL     1      -6.736   9.934  67.746  1.00  0.00    -0.072 A  
HETATM    6  C   UNL     1      -5.916   9.482  68.785  1.00  0.00    -0.043 A  
HETATM    7  C   UNL     1      -6.388   9.427  70.104  1.00  0.00    -0.058 A  
HETATM    8  C   UNL     1      -8.522  10.274  69.319  1.00  0.00    -0.172 A  
HETATM    9  C   UNL     1      -7.706   9.821  70.360  1.00  0.00    -0.159 A  
BRANCH   7  10
HETATM   10  C   UNL     1      -5.503   8.875  71.195  1.00  0.00    -0.037 C  
BRANCH  10  11
HETATM   11  C   UNL     1      -6.148   7.922  72.178  1.00  0.00    -0.041 A  
HETATM   12  C   UNL     1      -6.076   8.079  73.568  1.00  0.00    -0.080 A  
HETATM   13 CL   UNL     1      -5.379   9.482  74.294  1.00  0.00    -0.124 Cl 
HETATM   14  C   UNL     1      -6.531   7.064  74.419  1.00  0.00    -0.079 A  
HETATM   15  C   UNL     1      -7.047   5.872  73.899  1.00  0.00    -0.081 A  
HETATM   16  C   UNL     1      -7.158   5.699  72.516  1.00  0.00    -0.085 A  
HETATM   17  C   UNL     1      -6.745   6.752  71.676  1.00  0.00    -0.061 A  
BRANCH  16  18
HETATM   18  C   UNL     1      -7.578   4.379  71.878  1.00  0.00    -0.075 C  
HETATM   19  O   UNL     1      -7.677   4.511  70.447  1.00  0.00    -0.052 OA 
HETATM   20  C   UNL     1      -8.007   3.272  69.797  1.00  0.00    -0.048 C  
HETATM   21  H   UNL     1      -9.644   3.393  74.271  1.00  0.00     0.000 HD 
HETATM   22  C   UNL     1      -9.364   2.750  70.274  1.00  0.00    -0.140 C  
HETATM   23  O   UNL     1      -8.821   3.689  73.902  1.00  0.00    -0.088 OA 
HETATM   24  O   UNL     1      -9.703   1.483  69.691  1.00  0.00    -0.046 OA 
HETATM   25  C   UNL     1      -9.357   2.593  71.796  1.00  0.00    -0.115 C  
HETATM   26  H   UNL     1     -10.649   2.093  73.195  1.00  0.00     0.000 HD 
HETATM   27  O   UNL     1     -10.653   2.190  72.250  1.00  0.00    -0.112 OA 
HETATM   28  H   UNL     1     -10.546   1.159  69.988  1.00  0.00     0.000 HD 
HETATM   29  C   UNL     1      -8.926   3.895  72.483  1.00  0.00    -0.108 C  
BRANCH  20  30
HETATM   30  C   UNL     1      -8.023   3.507  68.278  1.00  0.00    -0.070 C  
HETATM   31  O   UNL     1      -9.371   3.566  67.815  1.00  0.00    -0.175 OA 
HETATM   32  H   UNL     1      -9.381   3.712  66.876  1.00  0.00     0.000 HD 
ENDBRANCH  20  30
ENDBRANCH  16  18
ENDBRANCH  10  11
ENDBRANCH   7  10
ENDBRANCH   3   4
ENDBRANCH   2   3
TORSDOF 6
ENDMDL
MODEL      273
REMARK 921   NORMALIZED FREE ENERGY PREDICTED BY IDOCK:   -1.71 KCAL/MOL
REMARK 922        TOTAL FREE ENERGY PREDICTED BY IDOCK:   -3.27 KCAL/MOL
REMARK 923 INTER-LIGAND FREE ENERGY PREDICTED BY IDOCK:   -3.00 KCAL/MOL
REMARK 924 INTRA-LIGAND FREE ENERGY PREDICTED BY IDOCK:   -0.28 KCAL/MOL
REMARK 927      BINDING AFFINITY PREDICTED BY RF-SCORE:    0.00 PKD
ROOT
HETATM    1  C   UNL     1      -8.435  16.600  67.455  1.00  0.00    -0.199 C  
HETATM    2  C   UNL     1      -8.857  15.194  67.839  1.00  0.00    -0.166 C  
ENDROOT
BRANCH   2   3
HETATM    3  O   UNL     1      -8.814  14.382  66.668  1.00  0.00    -0.232 OA 
BRANCH   3   4
HETATM    4  C   UNL     1      -8.254  13.141  66.796  1.00  0.00     0.145 A  
HETATM    5  C   UNL     1      -6.957  12.871  67.228  1.00  0.00    -0.067 A  
HETATM    6  C   UNL     1      -6.508  11.549  67.323  1.00  0.00    -0.110 A  
HETATM    7  C   UNL     1      -7.346  10.477  66.989  1.00  0.00    -0.099 A  
HETATM    8  C   UNL     1      -9.088  12.077  66.448  1.00  0.00    -0.193 A  
HETATM    9  C   UNL     1      -8.642  10.756  66.541  1.00  0.00    -0.150 A  
BRANCH   7  10
HETATM   10  C   UNL     1      -6.815   9.065  67.040  1.00  0.00    -0.077 C  
BRANCH  10  11
HETATM   11  C   UNL     1      -7.829   7.951  66.896  1.00  0.00    -0.104 A  
HETATM   12  C   UNL     1      -8.586   7.740  65.736  1.00  0.00    -0.143 A  
HETATM   13 CL   UNL     1      -8.309   8.639  64.289  1.00  0.00    -0.159 Cl 
HETATM   14  C   UNL     1      -9.636   6.814  65.737  1.00  0.00     0.329 A  
HETATM   15  C   UNL     1      -9.958   6.097  66.894  1.00  0.00    -0.211 A  
HETATM   16  C   UNL     1      -9.202   6.266  68.058  1.00  0.00    -0.116 A  
HETATM   17  C   UNL     1      -8.116   7.163  68.024  1.00  0.00    -0.120 A  
BRANCH  16  18
HETATM   18  C   UNL     1      -9.579   5.627  69.390  1.00  0.00    -0.143 C  
HETATM   19  O   UNL     1      -9.346   6.540  70.479  1.00  0.00    -0.161 OA 
HETATM   20  C   UNL     1      -9.751   6.003  71.751  1.00  0.00    -0.151 C  
HETATM   21  H   UNL     1      -8.580   2.550  68.680  1.00  0.00     0.000 HD 
HETATM   22  C   UNL     1      -8.965   4.732  72.081  1.00  0.00    -0.127 C  
HETATM   23  O   UNL     1      -9.065   3.357  68.554  1.00  0.00    -0.122 OA 
HETATM   24  O   UNL     1      -9.381   4.131  73.316  1.00  0.00    -0.111 OA 
HETATM   25  C   UNL     1      -9.141   3.704  70.962  1.00  0.00    -0.108 C  
HETATM   26  H   UNL     1      -8.445   1.913  70.533  1.00  0.00     0.000 HD 
HETATM   27  O   UNL     1      -8.335   2.551  71.228  1.00  0.00    -0.056 OA 
HETATM   28  H   UNL     1      -8.893   3.342  73.521  1.00  0.00     0.000 HD 
HETATM   29  C   UNL     1      -8.786   4.306  69.597  1.00  0.00    -0.074 C  
BRANCH  20  30
HETATM   30  C   UNL     1      -9.522   7.075  72.828  1.00  0.00    -0.146 C  
HETATM   31  O   UNL     1      -8.858   6.495  73.949  1.00  0.00    -0.126 OA 
HETATM   32  H   UNL     1      -8.717   7.157  74.615  1.00  0.00     0.000 HD 
ENDBRANCH  20  30
ENDBRANCH  16  18
ENDBRANCH  10  11
ENDBRANCH   7  10
ENDBRANCH   3   4
ENDBRANCH   2   3
TORSDOF 6
ENDMDL
MODEL      274
REMARK 921   NORMALIZED FREE ENERGY PREDICTED BY IDOCK:   -1.61 KCAL/MOL
REMARK 922        TOTAL FREE ENERGY PREDICTED BY IDOCK:   -3.14 KCAL/MOL
REMARK 923 INTER-LIGAND FREE ENERGY PREDICTED BY IDOCK:   -2.84 KCAL/MOL
REMARK 924 INTRA-LIGAND FREE ENERGY PREDICTED BY IDOCK:   -0.30 KCAL/MOL
REMARK 927      BINDING AFFINITY PREDICTED BY RF-SCORE:    0.00 PKD
ROOT
HETATM    1  C   UNL     1      -6.459  15.173  72.736  1.00  0.00     2.098 C  
HETATM    2  C   UNL     1      -6.154  13.765  73.215  1.00  0.00     0.933 C  
ENDROOT
BRANCH   2   3
HETATM    3  O   UNL     1      -5.126  13.227  72.385  1.00  0.00    -0.269 OA 
BRANCH   3   4
HETATM    4  C   UNL     1      -5.527  12.529  71.280  1.00  0.00    -0.037 A  
HETATM    5  C   UNL     1      -5.948  13.083  70.072  1.00  0.00    -0.140 A  
HETATM    6  C   UNL     1      -6.325  12.253  69.011  1.00  0.00    -0.088 A  
HETATM    7  C   UNL     1      -6.288  10.858  69.138  1.00  0.00    -0.058 A  
HETATM    8  C   UNL     1      -5.502  11.140  71.417  1.00  0.00     0.098 A  
HETATM    9  C   UNL     1      -5.880  10.309  70.359  1.00  0.00    -0.087 A  
BRANCH   7  10
HETATM   10  C   UNL     1      -6.762   9.988  68.000  1.00  0.00    -0.064 C  
BRANCH  10  11
HETATM   11  C   UNL     1      -8.258   9.882  67.800  1.00  0.00    -0.114 A  
HETATM   12  C   UNL     1      -8.957   8.668  67.823  1.00  0.00    -0.136 A  
HETATM   13 CL   UNL     1      -8.192   7.182  68.255  1.00  0.00    -0.123 Cl 
HETATM   14  C   UNL     1     -10.304   8.621  67.445  1.00  0.00    -0.353 A  
HETATM   15  C   UNL     1     -10.970   9.776  67.021  1.00  0.00    -0.059 A  
HETATM   16  C   UNL     1     -10.306  11.007  67.014  1.00  0.00    -0.269 A  
HETATM   17  C   UNL     1      -8.966  11.044  67.449  1.00  0.00    -0.141 A  
BRANCH  16  18
HETATM   18  C   UNL     1     -10.921  12.275  66.435  1.00  0.00    -0.287 C  
HETATM   19  O   UNL     1     -11.360  12.059  65.080  1.00  0.00    -0.322 OA 
HETATM   20  C   UNL     1     -12.008  13.212  64.515  1.00  0.00    -0.389 C  
HETATM   21  H   UNL     1      -8.890  14.439  67.904  1.00  0.00     0.000 HD 
HETATM   22  C   UNL     1     -11.053  14.407  64.471  1.00  0.00    -0.291 C  
HETATM   23  O   UNL     1      -9.512  13.722  67.861  1.00  0.00    -0.200 OA 
HETATM   24  O   UNL     1     -11.681  15.596  63.968  1.00  0.00    -0.899 OA 
HETATM   25  C   UNL     1     -10.521  14.702  65.875  1.00  0.00    -0.314 C  
HETATM   26  H   UNL     1      -9.231  15.945  66.691  1.00  0.00     0.000 HD 
HETATM   27  O   UNL     1      -9.561  15.762  65.819  1.00  0.00    -0.330 OA 
HETATM   28  H   UNL     1     -11.088  16.338  63.940  1.00  0.00     0.000 HD 
HETATM   29  C   UNL     1      -9.903  13.448  66.506  1.00  0.00    -0.286 C  
BRANCH  20  30
HETATM   30  C   UNL     1     -12.492  12.855  63.100  1.00  0.00    -0.066 C  
HETATM   31  O   UNL     1     -13.218  11.628  63.136  1.00  0.00    -0.645 OA 
HETATM   32  H   UNL     1     -13.517  11.407  62.262  1.00  0.00     0.000 HD 
ENDBRANCH  20  30
ENDBRANCH  16  18
ENDBRANCH  10  11
ENDBRANCH   7  10
ENDBRANCH   3   4
ENDBRANCH   2   3
TORSDOF 6
ENDMDL
MODEL      275
REMARK 921   NORMALIZED FREE ENERGY PREDICTED BY IDOCK:   -1.58 KCAL/MOL
REMARK 922        TOTAL FREE ENERGY PREDICTED BY IDOCK:   -3.09 KCAL/MOL
REMARK 923 INTER-LIGAND FREE ENERGY PREDICTED BY IDOCK:   -2.19 KCAL/MOL
REMARK 924 INTRA-LIGAND FREE ENERGY PREDICTED BY IDOCK:   -0.91 KCAL/MOL
REMARK 927      BINDING AFFINITY PREDICTED BY RF-SCORE:    0.00 PKD
ROOT
HETATM    1  C   UNL     1      -6.040  13.554  70.857  1.00  0.00     0.036 C  
HETATM    2  C   UNL     1      -6.574  12.276  70.237  1.00  0.00     0.494 C  
ENDROOT
BRANCH   2   3
HETATM    3  O   UNL     1      -7.154  12.603  68.975  1.00  0.00    -0.094 OA 
BRANCH   3   4
HETATM    4  C   UNL     1      -6.656  11.954  67.880  1.00  0.00    -0.075 A  
HETATM    5  C   UNL     1      -5.553  12.350  67.126  1.00  0.00    -0.048 A  
HETATM    6  C   UNL     1      -5.141  11.588  66.028  1.00  0.00     0.084 A  
HETATM    7  C   UNL     1      -5.823  10.419  65.665  1.00  0.00    -0.114 A  
HETATM    8  C   UNL     1      -7.349  10.798  67.513  1.00  0.00    -0.092 A  
HETATM    9  C   UNL     1      -6.940  10.035  66.416  1.00  0.00    -0.101 A  
BRANCH   7  10
HETATM   10  C   UNL     1      -5.396   9.651  64.437  1.00  0.00    -0.063 C  
BRANCH  10  11
HETATM   11  C   UNL     1      -6.465   8.846  63.731  1.00  0.00    -0.088 A  
HETATM   12  C   UNL     1      -7.400   9.407  62.852  1.00  0.00    -0.101 A  
HETATM   13 CL   UNL     1      -7.313  11.059  62.357  1.00  0.00    -0.074 Cl 
HETATM   14  C   UNL     1      -8.475   8.643  62.381  1.00  0.00    -0.194 A  
HETATM   15  C   UNL     1      -8.645   7.317  62.793  1.00  0.00     0.327 A  
HETATM   16  C   UNL     1      -7.712   6.721  63.647  1.00  0.00    -0.107 A  
HETATM   17  C   UNL     1      -6.608   7.489  64.068  1.00  0.00    -0.052 A  
BRANCH  16  18
HETATM   18  C   UNL     1      -7.906   5.332  64.245  1.00  0.00    -0.101 C  
HETATM   19  O   UNL     1      -8.887   4.587  63.500  1.00  0.00    -0.134 OA 
HETATM   20  C   UNL     1      -9.054   3.245  63.989  1.00  0.00    -0.103 C  
HETATM   21  H   UNL     1      -7.560   6.190  67.425  1.00  0.00     0.000 HD 
HETATM   22  C   UNL     1      -9.533   3.250  65.442  1.00  0.00    -0.119 C  
HETATM   23  O   UNL     1      -7.310   6.122  66.511  1.00  0.00    -0.078 OA 
HETATM   24  O   UNL     1      -9.656   1.928  65.987  1.00  0.00    -0.338 OA 
HETATM   25  C   UNL     1      -8.553   4.039  66.311  1.00  0.00    -0.110 C  
HETATM   26  H   UNL     1      -8.439   4.610  68.193  1.00  0.00     0.000 HD 
HETATM   27  O   UNL     1      -9.047   4.120  67.652  1.00  0.00    -0.121 OA 
HETATM   28  H   UNL     1      -9.954   1.931  66.889  1.00  0.00     0.000 HD 
HETATM   29  C   UNL     1      -8.315   5.443  65.741  1.00  0.00    -0.126 C  
BRANCH  20  30
HETATM   30  C   UNL     1     -10.068   2.520  63.089  1.00  0.00    -0.119 C  
HETATM   31  O   UNL     1     -11.281   2.305  63.807  1.00  0.00    -0.575 OA 
HETATM   32  H   UNL     1     -11.907   1.857  63.251  1.00  0.00     0.000 HD 
ENDBRANCH  20  30
ENDBRANCH  16  18
ENDBRANCH  10  11
ENDBRANCH   7  10
ENDBRANCH   3   4
ENDBRANCH   2   3
TORSDOF 6
ENDMDL
MODEL      276
REMARK 921   NORMALIZED FREE ENERGY PREDICTED BY IDOCK:   -0.69 KCAL/MOL
REMARK 922        TOTAL FREE ENERGY PREDICTED BY IDOCK:   -1.90 KCAL/MOL
REMARK 923 INTER-LIGAND FREE ENERGY PREDICTED BY IDOCK:   -1.44 KCAL/MOL
REMARK 924 INTRA-LIGAND FREE ENERGY PREDICTED BY IDOCK:   -0.46 KCAL/MOL
REMARK 927      BINDING AFFINITY PREDICTED BY RF-SCORE:    0.00 PKD
ROOT
HETATM    1  C   UNL     1     -11.580   5.866  72.652  1.00  0.00    -0.289 C  
HETATM    2  C   UNL     1     -10.917   7.130  72.138  1.00  0.00    -0.241 C  
ENDROOT
BRANCH   2   3
HETATM    3  O   UNL     1     -11.669   7.606  71.023  1.00  0.00    -0.284 OA 
BRANCH   3   4
HETATM    4  C   UNL     1     -11.019   7.670  69.822  1.00  0.00    -0.170 A  
HETATM    5  C   UNL     1     -11.300   8.559  68.787  1.00  0.00     0.656 A  
HETATM    6  C   UNL     1     -10.551   8.525  67.606  1.00  0.00    -0.268 A  
HETATM    7  C   UNL     1      -9.510   7.602  67.440  1.00  0.00    -0.175 A  
HETATM    8  C   UNL     1      -9.993   6.738  69.656  1.00  0.00    -0.184 A  
HETATM    9  C   UNL     1      -9.243   6.700  68.476  1.00  0.00    -0.127 A  
BRANCH   7  10
HETATM   10  C   UNL     1      -8.760   7.544  66.131  1.00  0.00    -0.174 C  
BRANCH  10  11
HETATM   11  C   UNL     1      -8.033   8.801  65.706  1.00  0.00    -0.105 A  
HETATM   12  C   UNL     1      -6.737   9.125  66.128  1.00  0.00    -0.074 A  
HETATM   13 CL   UNL     1      -5.774   8.026  67.047  1.00  0.00    -0.036 Cl 
HETATM   14  C   UNL     1      -6.198  10.388  65.851  1.00  0.00    -0.118 A  
HETATM   15  C   UNL     1      -6.947  11.351  65.167  1.00  0.00     1.186 A  
HETATM   16  C   UNL     1      -8.233  11.047  64.709  1.00  0.00     0.261 A  
HETATM   17  C   UNL     1      -8.738   9.754  64.950  1.00  0.00    -0.207 A  
BRANCH  16  18
HETATM   18  C   UNL     1      -9.156  12.086  64.083  1.00  0.00     0.586 C  
HETATM   19  O   UNL     1      -9.244  13.259  64.914  1.00  0.00     0.631 OA 
HETATM   20  C   UNL     1     -10.053  14.295  64.330  1.00  0.00     0.621 C  
HETATM   21  H   UNL     1     -11.361   9.974  62.800  1.00  0.00     0.000 HD 
HETATM   22  C   UNL     1     -11.489  13.810  64.118  1.00  0.00    -0.293 C  
HETATM   23  O   UNL     1     -10.500  10.347  62.950  1.00  0.00     0.298 OA 
HETATM   24  O   UNL     1     -12.315  14.796  63.482  1.00  0.00    -1.037 OA 
HETATM   25  C   UNL     1     -11.492  12.549  63.253  1.00  0.00    -0.341 C  
HETATM   26  H   UNL     1     -12.828  11.262  62.592  1.00  0.00     0.000 HD 
HETATM   27  O   UNL     1     -12.826  12.046  63.129  1.00  0.00    -0.661 OA 
HETATM   28  H   UNL     1     -13.207  14.496  63.350  1.00  0.00     0.000 HD 
HETATM   29  C   UNL     1     -10.564  11.476  63.837  1.00  0.00    -0.391 C  
BRANCH  20  30
HETATM   30  C   UNL     1     -10.027  15.517  65.261  1.00  0.00    -0.238 C  
HETATM   31  O   UNL     1     -10.320  15.111  66.596  1.00  0.00    -0.263 OA 
HETATM   32  H   UNL     1     -10.304  15.867  67.172  1.00  0.00     0.000 HD 
ENDBRANCH  20  30
ENDBRANCH  16  18
ENDBRANCH  10  11
ENDBRANCH   7  10
ENDBRANCH   3   4
ENDBRANCH   2   3
TORSDOF 6
ENDMDL
MODEL      277
REMARK 921   NORMALIZED FREE ENERGY PREDICTED BY IDOCK:   -0.49 KCAL/MOL
REMARK 922        TOTAL FREE ENERGY PREDICTED BY IDOCK:   -1.62 KCAL/MOL
REMARK 923 INTER-LIGAND FREE ENERGY PREDICTED BY IDOCK:   -3.85 KCAL/MOL
REMARK 924 INTRA-LIGAND FREE ENERGY PREDICTED BY IDOCK:    2.22 KCAL/MOL
REMARK 927      BINDING AFFINITY PREDICTED BY RF-SCORE:    0.00 PKD
ROOT
HETATM    1  C   UNL     1      -8.484   3.656  67.662  1.00  0.00    -0.105 C  
HETATM    2  C   UNL     1      -7.254   4.314  68.261  1.00  0.00    -0.060 C  
ENDROOT
BRANCH   2   3
HETATM    3  O   UNL     1      -6.422   4.756  67.190  1.00  0.00    -0.042 OA 
BRANCH   3   4
HETATM    4  C   UNL     1      -6.457   6.090  66.891  1.00  0.00    -0.050 A  
HETATM    5  C   UNL     1      -6.673   7.126  67.798  1.00  0.00    -0.064 A  
HETATM    6  C   UNL     1      -6.676   8.455  67.360  1.00  0.00    -0.063 A  
HETATM    7  C   UNL     1      -6.466   8.770  66.012  1.00  0.00    -0.057 A  
HETATM    8  C   UNL     1      -6.262   6.398  65.543  1.00  0.00    -0.037 A  
HETATM    9  C   UNL     1      -6.267   7.725  65.103  1.00  0.00    -0.038 A  
BRANCH   7  10
HETATM   10  C   UNL     1      -6.539  10.208  65.556  1.00  0.00    -0.118 C  
BRANCH  10  11
HETATM   11  C   UNL     1      -6.684  11.258  66.636  1.00  0.00    -0.132 A  
HETATM   12  C   UNL     1      -6.166  11.112  67.930  1.00  0.00    -0.053 A  
HETATM   13 CL   UNL     1      -5.159   9.781  68.366  1.00  0.00    -0.033 Cl 
HETATM   14  C   UNL     1      -6.498  12.034  68.931  1.00  0.00    -0.083 A  
HETATM   15  C   UNL     1      -7.362  13.101  68.664  1.00  0.00    -0.102 A  
HETATM   16  C   UNL     1      -7.871  13.287  67.376  1.00  0.00    -0.159 A  
HETATM   17  C   UNL     1      -7.485  12.382  66.368  1.00  0.00     0.732 A  
BRANCH  16  18
HETATM   18  C   UNL     1      -8.923  14.340  67.046  1.00  0.00    -0.236 C  
HETATM   19  O   UNL     1      -9.834  13.856  66.040  1.00  0.00    -0.299 OA 
HETATM   20  C   UNL     1     -10.885  14.793  65.745  1.00  0.00    -0.331 C  
HETATM   21  H   UNL     1      -6.964  16.996  67.324  1.00  0.00     0.000 HD 
HETATM   22  C   UNL     1     -10.310  16.105  65.207  1.00  0.00    -0.252 C  
HETATM   23  O   UNL     1      -7.382  16.191  67.607  1.00  0.00    -0.123 OA 
HETATM   24  O   UNL     1     -11.324  17.089  64.956  1.00  0.00    -0.297 OA 
HETATM   25  C   UNL     1      -9.313  16.688  66.210  1.00  0.00    -0.292 C  
HETATM   26  H   UNL     1      -8.090  18.229  66.290  1.00  0.00     0.000 HD 
HETATM   27  O   UNL     1      -8.710  17.867  65.668  1.00  0.00    -0.347 OA 
HETATM   28  H   UNL     1     -10.967  17.904  64.622  1.00  0.00     0.000 HD 
HETATM   29  C   UNL     1      -8.239  15.658  66.584  1.00  0.00    -0.249 C  
BRANCH  20  30
HETATM   30  C   UNL     1     -11.832  14.156  64.716  1.00  0.00    -0.417 C  
HETATM   31  O   UNL     1     -11.795  14.903  63.502  1.00  0.00    -0.538 OA 
HETATM   32  H   UNL     1     -12.380  14.510  62.866  1.00  0.00     0.000 HD 
ENDBRANCH  20  30
ENDBRANCH  16  18
ENDBRANCH  10  11
ENDBRANCH   7  10
ENDBRANCH   3   4
ENDBRANCH   2   3
TORSDOF 6
ENDMDL
MODEL      278
REMARK 921   NORMALIZED FREE ENERGY PREDICTED BY IDOCK:   -0.47 KCAL/MOL
REMARK 922        TOTAL FREE ENERGY PREDICTED BY IDOCK:   -1.60 KCAL/MOL
REMARK 923 INTER-LIGAND FREE ENERGY PREDICTED BY IDOCK:   -1.33 KCAL/MOL
REMARK 924 INTRA-LIGAND FREE ENERGY PREDICTED BY IDOCK:   -0.27 KCAL/MOL
REMARK 927      BINDING AFFINITY PREDICTED BY RF-SCORE:    0.00 PKD
ROOT
HETATM    1  C   UNL     1      -8.006  16.190  69.047  1.00  0.00    -0.236 C  
HETATM    2  C   UNL     1      -7.870  14.693  69.254  1.00  0.00    -0.071 C  
ENDROOT
BRANCH   2   3
HETATM    3  O   UNL     1      -8.313  14.039  68.066  1.00  0.00    -0.142 OA 
BRANCH   3   4
HETATM    4  C   UNL     1      -7.473  13.107  67.524  1.00  0.00    -0.160 A  
HETATM    5  C   UNL     1      -6.080  13.141  67.562  1.00  0.00    -0.112 A  
HETATM    6  C   UNL     1      -5.334  12.114  66.973  1.00  0.00    -0.056 A  
HETATM    7  C   UNL     1      -5.966  11.038  66.337  1.00  0.00    -0.143 A  
HETATM    8  C   UNL     1      -8.107  12.044  66.878  1.00  0.00    -0.127 A  
HETATM    9  C   UNL     1      -7.365  11.018  66.287  1.00  0.00    -0.097 A  
BRANCH   7  10
HETATM   10  C   UNL     1      -5.137   9.977  65.654  1.00  0.00    -0.044 C  
BRANCH  10  11
HETATM   11  C   UNL     1      -5.838   9.126  64.619  1.00  0.00    -0.064 A  
HETATM   12  C   UNL     1      -6.166   9.583  63.335  1.00  0.00    -0.100 A  
HETATM   13 CL   UNL     1      -5.644  11.122  62.753  1.00  0.00    -0.037 Cl 
HETATM   14  C   UNL     1      -6.979   8.810  62.497  1.00  0.00    -0.093 A  
HETATM   15  C   UNL     1      -7.491   7.583  62.928  1.00  0.00    -0.107 A  
HETATM   16  C   UNL     1      -7.158   7.088  64.193  1.00  0.00    -0.063 A  
HETATM   17  C   UNL     1      -6.296   7.853  65.003  1.00  0.00    -0.041 A  
BRANCH  16  18
HETATM   18  C   UNL     1      -7.788   5.831  64.782  1.00  0.00    -0.114 C  
HETATM   19  O   UNL     1      -6.782   4.976  65.358  1.00  0.00    -0.049 OA 
HETATM   20  C   UNL     1      -7.338   3.808  65.986  1.00  0.00    -0.072 C  
HETATM   21  H   UNL     1     -10.149   5.430  62.495  1.00  0.00     0.000 HD 
HETATM   22  C   UNL     1      -8.097   2.952  64.969  1.00  0.00    -0.086 C  
HETATM   23  O   UNL     1      -9.654   5.892  63.161  1.00  0.00     1.186 OA 
HETATM   24  O   UNL     1      -8.718   1.805  65.568  1.00  0.00    -0.108 OA 
HETATM   25  C   UNL     1      -9.184   3.788  64.291  1.00  0.00    -0.141 C  
HETATM   26  H   UNL     1     -10.508   3.533  62.857  1.00  0.00     0.000 HD 
HETATM   27  O   UNL     1      -9.834   3.014  63.278  1.00  0.00    -0.097 OA 
HETATM   28  H   UNL     1      -9.189   1.274  64.937  1.00  0.00     0.000 HD 
HETATM   29  C   UNL     1      -8.599   5.074  63.693  1.00  0.00    -0.105 C  
BRANCH  20  30
HETATM   30  C   UNL     1      -6.193   3.003  66.621  1.00  0.00    -0.025 C  
HETATM   31  O   UNL     1      -6.574   1.634  66.736  1.00  0.00    -0.029 OA 
HETATM   32  H   UNL     1      -5.867   1.136  67.129  1.00  0.00     0.000 HD 
ENDBRANCH  20  30
ENDBRANCH  16  18
ENDBRANCH  10  11
ENDBRANCH   7  10
ENDBRANCH   3   4
ENDBRANCH   2   3
TORSDOF 6
ENDMDL
MODEL      279
REMARK 921   NORMALIZED FREE ENERGY PREDICTED BY IDOCK:   -0.05 KCAL/MOL
REMARK 922        TOTAL FREE ENERGY PREDICTED BY IDOCK:   -1.03 KCAL/MOL
REMARK 923 INTER-LIGAND FREE ENERGY PREDICTED BY IDOCK:    0.02 KCAL/MOL
REMARK 924 INTRA-LIGAND FREE ENERGY PREDICTED BY IDOCK:   -1.05 KCAL/MOL
REMARK 927      BINDING AFFINITY PREDICTED BY RF-SCORE:    0.00 PKD
ROOT
HETATM    1  C   UNL     1      -6.752  14.710  72.781  1.00  0.00     2.234 C  
HETATM    2  C   UNL     1      -6.131  13.329  72.882  1.00  0.00     1.799 C  
ENDROOT
BRANCH   2   3
HETATM    3  O   UNL     1      -5.163  13.199  71.842  1.00  0.00    -0.268 OA 
BRANCH   3   4
HETATM    4  C   UNL     1      -5.539  12.496  70.732  1.00  0.00    -0.157 A  
HETATM    5  C   UNL     1      -6.283  12.992  69.663  1.00  0.00    -0.113 A  
HETATM    6  C   UNL     1      -6.595  12.165  68.579  1.00  0.00    -0.063 A  
HETATM    7  C   UNL     1      -6.169  10.831  68.544  1.00  0.00    -0.046 A  
HETATM    8  C   UNL     1      -5.125  11.163  70.709  1.00  0.00    -0.106 A  
HETATM    9  C   UNL     1      -5.436  10.334  69.627  1.00  0.00    -0.038 A  
BRANCH   7  10
HETATM   10  C   UNL     1      -6.574   9.943  67.392  1.00  0.00    -0.069 C  
BRANCH  10  11
HETATM   11  C   UNL     1      -7.985   9.397  67.415  1.00  0.00    -0.106 A  
HETATM   12  C   UNL     1      -8.348   8.169  66.848  1.00  0.00    -0.115 A  
HETATM   13 CL   UNL     1      -7.174   7.075  66.210  1.00  0.00    -0.073 Cl 
HETATM   14  C   UNL     1      -9.698   7.812  66.738  1.00  0.00    -0.296 A  
HETATM   15  C   UNL     1     -10.705   8.679  67.175  1.00  0.00    -0.199 A  
HETATM   16  C   UNL     1     -10.372   9.900  67.771  1.00  0.00    -0.268 A  
HETATM   17  C   UNL     1      -9.008  10.218  67.921  1.00  0.00    -0.131 A  
BRANCH  16  18
HETATM   18  C   UNL     1     -11.412  10.951  68.141  1.00  0.00    -0.295 C  
HETATM   19  O   UNL     1     -11.285  12.114  67.301  1.00  0.00    -0.268 OA 
HETATM   20  C   UNL     1     -12.290  13.107  67.571  1.00  0.00     0.072 C  
HETATM   21  H   UNL     1     -11.393  10.431  71.412  1.00  0.00     0.000 HD 
HETATM   22  C   UNL     1     -12.189  13.607  69.014  1.00  0.00    -0.208 C  
HETATM   23  O   UNL     1     -11.475  10.196  70.495  1.00  0.00    -0.287 OA 
HETATM   24  O   UNL     1     -13.214  14.557  69.341  1.00  0.00     0.138 OA 
HETATM   25  C   UNL     1     -12.298  12.428  69.983  1.00  0.00    -0.085 C  
HETATM   26  H   UNL     1     -12.182  12.153  71.929  1.00  0.00     0.000 HD 
HETATM   27  O   UNL     1     -12.115  12.885  71.327  1.00  0.00    -0.065 OA 
HETATM   28  H   UNL     1     -13.151  14.867  70.236  1.00  0.00     0.000 HD 
HETATM   29  C   UNL     1     -11.278  11.335  69.641  1.00  0.00    -0.251 C  
BRANCH  20  30
HETATM   30  C   UNL     1     -12.106  14.269  66.582  1.00  0.00    -0.420 C  
HETATM   31  O   UNL     1     -10.763  14.746  66.646  1.00  0.00    -0.297 OA 
HETATM   32  H   UNL     1     -10.649  15.464  66.036  1.00  0.00     0.000 HD 
ENDBRANCH  20  30
ENDBRANCH  16  18
ENDBRANCH  10  11
ENDBRANCH   7  10
ENDBRANCH   3   4
ENDBRANCH   2   3
TORSDOF 6
ENDMDL
MODEL      280
REMARK 921   NORMALIZED FREE ENERGY PREDICTED BY IDOCK:    0.34 KCAL/MOL
REMARK 922        TOTAL FREE ENERGY PREDICTED BY IDOCK:   -0.51 KCAL/MOL
REMARK 923 INTER-LIGAND FREE ENERGY PREDICTED BY IDOCK:   -0.36 KCAL/MOL
REMARK 924 INTRA-LIGAND FREE ENERGY PREDICTED BY IDOCK:   -0.15 KCAL/MOL
REMARK 927      BINDING AFFINITY PREDICTED BY RF-SCORE:    0.00 PKD
ROOT
HETATM    1  C   UNL     1     -11.224  17.641  73.928  1.00  0.00     1.527 C  
HETATM    2  C   UNL     1     -12.735  17.720  73.809  1.00  0.00     2.887 C  
ENDROOT
BRANCH   2   3
HETATM    3  O   UNL     1     -13.224  16.419  73.490  1.00  0.00    -0.554 OA 
BRANCH   3   4
HETATM    4  C   UNL     1     -12.863  15.903  72.276  1.00  0.00    -0.430 A  
HETATM    5  C   UNL     1     -13.299  14.694  71.739  1.00  0.00    -0.445 A  
HETATM    6  C   UNL     1     -12.858  14.284  70.476  1.00  0.00    -0.336 A  
HETATM    7  C   UNL     1     -11.974  15.075  69.730  1.00  0.00    -0.366 A  
HETATM    8  C   UNL     1     -11.971  16.688  71.543  1.00  0.00     0.309 A  
HETATM    9  C   UNL     1     -11.527  16.281  70.282  1.00  0.00    -0.244 A  
BRANCH   7  10
HETATM   10  C   UNL     1     -11.464  14.579  68.399  1.00  0.00    -0.328 C  
BRANCH  10  11
HETATM   11  C   UNL     1     -10.036  14.929  68.043  1.00  0.00    -0.220 A  
HETATM   12  C   UNL     1      -9.674  16.095  67.356  1.00  0.00    -0.233 A  
HETATM   13 CL   UNL     1     -10.819  17.335  66.994  1.00  0.00    -0.132 Cl 
HETATM   14  C   UNL     1      -8.362  16.265  66.894  1.00  0.00    -0.267 A  
HETATM   15  C   UNL     1      -7.398  15.271  67.095  1.00  0.00    -0.178 A  
HETATM   16  C   UNL     1      -7.723  14.110  67.803  1.00  0.00    -0.175 A  
HETATM   17  C   UNL     1      -9.033  13.980  68.306  1.00  0.00    -0.190 A  
BRANCH  16  18
HETATM   18  C   UNL     1      -6.768  12.929  67.939  1.00  0.00    -0.123 C  
HETATM   19  O   UNL     1      -7.304  11.761  67.289  1.00  0.00    -0.123 OA 
HETATM   20  C   UNL     1      -6.406  10.638  67.334  1.00  0.00    -0.058 C  
HETATM   21  H   UNL     1      -5.695  13.602  70.998  1.00  0.00     0.000 HD 
HETATM   22  C   UNL     1      -6.116  10.230  68.780  1.00  0.00    -0.047 C  
HETATM   23  O   UNL     1      -5.873  13.778  70.082  1.00  0.00    -0.121 OA 
HETATM   24  O   UNL     1      -5.176   9.150  68.870  1.00  0.00    -0.036 OA 
HETATM   25  C   UNL     1      -5.555  11.423  69.556  1.00  0.00    -0.058 C  
HETATM   26  H   UNL     1      -5.019  11.806  71.412  1.00  0.00     0.000 HD 
HETATM   27  O   UNL     1      -5.367  11.065  70.929  1.00  0.00    -0.106 OA 
HETATM   28  H   UNL     1      -4.996   8.896  69.768  1.00  0.00     0.000 HD 
HETATM   29  C   UNL     1      -6.476  12.643  69.438  1.00  0.00    -0.099 C  
BRANCH  20  30
HETATM   30  C   UNL     1      -7.043   9.473  66.561  1.00  0.00    -0.085 C  
HETATM   31  O   UNL     1      -8.421   9.359  66.911  1.00  0.00    -0.125 OA 
HETATM   32  H   UNL     1      -8.814   8.639  66.433  1.00  0.00     0.000 HD 
ENDBRANCH  20  30
ENDBRANCH  16  18
ENDBRANCH  10  11
ENDBRANCH   7  10
ENDBRANCH   3   4
ENDBRANCH   2   3
TORSDOF 6
ENDMDL
MODEL      281
REMARK 921   NORMALIZED FREE ENERGY PREDICTED BY IDOCK:    0.63 KCAL/MOL
REMARK 922        TOTAL FREE ENERGY PREDICTED BY IDOCK:   -0.12 KCAL/MOL
REMARK 923 INTER-LIGAND FREE ENERGY PREDICTED BY IDOCK:   -0.31 KCAL/MOL
REMARK 924 INTRA-LIGAND FREE ENERGY PREDICTED BY IDOCK:    0.19 KCAL/MOL
REMARK 927      BINDING AFFINITY PREDICTED BY RF-SCORE:    0.00 PKD
ROOT
HETATM    1  C   UNL     1      -7.771  19.050  65.314  1.00  0.00     0.777 C  
HETATM    2  C   UNL     1      -7.317  19.405  66.718  1.00  0.00    -0.220 C  
ENDROOT
BRANCH   2   3
HETATM    3  O   UNL     1      -6.760  18.235  67.314  1.00  0.00    -0.191 OA 
BRANCH   3   4
HETATM    4  C   UNL     1      -7.635  17.359  67.893  1.00  0.00    -0.194 A  
HETATM    5  C   UNL     1      -8.963  17.627  68.220  1.00  0.00    -0.276 A  
HETATM    6  C   UNL     1      -9.758  16.635  68.804  1.00  0.00    -0.254 A  
HETATM    7  C   UNL     1      -9.240  15.360  69.071  1.00  0.00    -0.235 A  
HETATM    8  C   UNL     1      -7.110  16.096  68.171  1.00  0.00    -0.137 A  
HETATM    9  C   UNL     1      -7.901  15.103  68.756  1.00  0.00    -0.147 A  
BRANCH   7  10
HETATM   10  C   UNL     1     -10.100  14.329  69.760  1.00  0.00     0.452 C  
BRANCH  10  11
HETATM   11  C   UNL     1     -10.529  13.137  68.933  1.00  0.00    -0.117 A  
HETATM   12  C   UNL     1     -11.441  12.173  69.382  1.00  0.00    -0.290 A  
HETATM   13 CL   UNL     1     -12.297  12.348  70.871  1.00  0.00    -0.438 Cl 
HETATM   14  C   UNL     1     -11.648  10.999  68.646  1.00  0.00    -0.385 A  
HETATM   15  C   UNL     1     -10.939  10.761  67.464  1.00  0.00    -0.372 A  
HETATM   16  C   UNL     1     -10.044  11.718  66.977  1.00  0.00    -0.232 A  
HETATM   17  C   UNL     1      -9.887  12.916  67.702  1.00  0.00    -0.211 A  
BRANCH  16  18
HETATM   18  C   UNL     1      -9.137  11.468  65.777  1.00  0.00    -0.154 C  
HETATM   19  O   UNL     1      -9.317  10.132  65.269  1.00  0.00    -0.187 OA 
HETATM   20  C   UNL     1      -8.529   9.873  64.094  1.00  0.00    -0.175 C  
HETATM   21  H   UNL     1      -6.537  13.222  66.839  1.00  0.00     0.000 HD 
HETATM   22  C   UNL     1      -7.036  10.020  64.395  1.00  0.00    -0.135 C  
HETATM   23  O   UNL     1      -7.444  13.070  66.603  1.00  0.00     0.378 OA 
HETATM   24  O   UNL     1      -6.218   9.827  63.233  1.00  0.00    -0.104 OA 
HETATM   25  C   UNL     1      -6.752  11.414  64.958  1.00  0.00     1.399 C  
HETATM   26  H   UNL     1      -5.196  12.386  65.673  1.00  0.00     0.000 HD 
HETATM   27  O   UNL     1      -5.372  11.520  65.323  1.00  0.00    -0.031 OA 
HETATM   28  H   UNL     1      -5.290   9.919  63.420  1.00  0.00     0.000 HD 
HETATM   29  C   UNL     1      -7.652  11.718  66.163  1.00  0.00     0.387 C  
BRANCH  20  30
HETATM   30  C   UNL     1      -8.843   8.452  63.600  1.00  0.00     0.469 C  
HETATM   31  O   UNL     1      -9.690   8.519  62.454  1.00  0.00     0.310 OA 
HETATM   32  H   UNL     1      -9.885   7.641  62.148  1.00  0.00     0.000 HD 
ENDBRANCH  20  30
ENDBRANCH  16  18
ENDBRANCH  10  11
ENDBRANCH   7  10
ENDBRANCH   3   4
ENDBRANCH   2   3
TORSDOF 6
ENDMDL
MODEL      282
REMARK 921   NORMALIZED FREE ENERGY PREDICTED BY IDOCK:    1.59 KCAL/MOL
REMARK 922        TOTAL FREE ENERGY PREDICTED BY IDOCK:    1.18 KCAL/MOL
REMARK 923 INTER-LIGAND FREE ENERGY PREDICTED BY IDOCK:    1.51 KCAL/MOL
REMARK 924 INTRA-LIGAND FREE ENERGY PREDICTED BY IDOCK:   -0.33 KCAL/MOL
REMARK 927      BINDING AFFINITY PREDICTED BY RF-SCORE:    0.00 PKD
ROOT
HETATM    1  C   UNL     1      -8.446  12.177  62.776  1.00  0.00     2.028 C  
HETATM    2  C   UNL     1      -9.349  13.183  63.466  1.00  0.00     3.213 C  
ENDROOT
BRANCH   2   3
HETATM    3  O   UNL     1     -10.626  12.575  63.658  1.00  0.00    -0.429 OA 
BRANCH   3   4
HETATM    4  C   UNL     1     -11.038  12.401  64.950  1.00  0.00    -0.303 A  
HETATM    5  C   UNL     1     -12.068  13.097  65.581  1.00  0.00    -0.501 A  
HETATM    6  C   UNL     1     -12.397  12.814  66.911  1.00  0.00     0.116 A  
HETATM    7  C   UNL     1     -11.704  11.833  67.632  1.00  0.00    -0.320 A  
HETATM    8  C   UNL     1     -10.334  11.433  65.669  1.00  0.00    -0.307 A  
HETATM    9  C   UNL     1     -10.660  11.149  66.999  1.00  0.00    -0.295 A  
BRANCH   7  10
HETATM   10  C   UNL     1     -12.037  11.594  69.085  1.00  0.00    -0.315 C  
BRANCH  10  11
HETATM   11  C   UNL     1     -12.012  12.800  69.997  1.00  0.00    -0.371 A  
HETATM   12  C   UNL     1     -12.495  12.785  71.313  1.00  0.00    -0.185 A  
HETATM   13 CL   UNL     1     -13.013  11.327  72.078  1.00  0.00    -0.495 Cl 
HETATM   14  C   UNL     1     -12.615  13.978  72.035  1.00  0.00    -0.314 A  
HETATM   15  C   UNL     1     -12.275  15.204  71.454  1.00  0.00    -0.401 A  
HETATM   16  C   UNL     1     -11.764  15.248  70.153  1.00  0.00    -0.342 A  
HETATM   17  C   UNL     1     -11.599  14.032  69.460  1.00  0.00    -0.350 A  
BRANCH  16  18
HETATM   18  C   UNL     1     -11.505  16.553  69.409  1.00  0.00    -0.013 C  
HETATM   19  O   UNL     1     -10.942  16.297  68.108  1.00  0.00    -0.330 OA 
HETATM   20  C   UNL     1     -10.742  17.498  67.343  1.00  0.00    -0.250 C  
HETATM   21  H   UNL     1     -10.584  18.357  72.029  1.00  0.00     0.000 HD 
HETATM   22  C   UNL     1      -9.769  18.442  68.054  1.00  0.00    -0.316 C  
HETATM   23  O   UNL     1     -11.155  17.796  71.518  1.00  0.00     1.332 OA 
HETATM   24  O   UNL     1      -9.589  19.680  67.350  1.00  0.00    -0.315 OA 
HETATM   25  C   UNL     1     -10.283  18.758  69.460  1.00  0.00     0.395 C  
HETATM   26  H   UNL     1      -9.648  19.765  71.029  1.00  0.00     0.000 HD 
HETATM   27  O   UNL     1      -9.330  19.568  70.155  1.00  0.00     0.521 OA 
HETATM   28  H   UNL     1      -8.985  20.266  67.792  1.00  0.00     0.000 HD 
HETATM   29  C   UNL     1     -10.571  17.473  70.245  1.00  0.00     1.009 C  
BRANCH  20  30
HETATM   30  C   UNL     1     -10.202  17.110  65.957  1.00  0.00    -0.321 C  
HETATM   31  O   UNL     1     -10.712  18.009  64.974  1.00  0.00    -0.636 OA 
HETATM   32  H   UNL     1     -10.379  17.769  64.118  1.00  0.00     0.000 HD 
ENDBRANCH  20  30
ENDBRANCH  16  18
ENDBRANCH  10  11
ENDBRANCH   7  10
ENDBRANCH   3   4
ENDBRANCH   2   3
TORSDOF 6
ENDMDL
MODEL      283
REMARK 921   NORMALIZED FREE ENERGY PREDICTED BY IDOCK:    2.36 KCAL/MOL
REMARK 922        TOTAL FREE ENERGY PREDICTED BY IDOCK:    2.22 KCAL/MOL
REMARK 923 INTER-LIGAND FREE ENERGY PREDICTED BY IDOCK:    2.48 KCAL/MOL
REMARK 924 INTRA-LIGAND FREE ENERGY PREDICTED BY IDOCK:   -0.27 KCAL/MOL
REMARK 927      BINDING AFFINITY PREDICTED BY RF-SCORE:    0.00 PKD
ROOT
HETATM    1  C   UNL     1     -11.880  12.585  69.951  1.00  0.00    -0.373 C  
HETATM    2  C   UNL     1     -12.366  12.262  68.550  1.00  0.00     0.419 C  
ENDROOT
BRANCH   2   3
HETATM    3  O   UNL     1     -12.878  10.930  68.554  1.00  0.00     0.588 OA 
BRANCH   3   4
HETATM    4  C   UNL     1     -12.168   9.997  69.256  1.00  0.00     0.577 A  
HETATM    5  C   UNL     1     -10.918  10.191  69.841  1.00  0.00    -0.344 A  
HETATM    6  C   UNL     1     -10.301   9.151  70.543  1.00  0.00    -0.288 A  
HETATM    7  C   UNL     1     -10.920   7.901  70.673  1.00  0.00    -0.248 A  
HETATM    8  C   UNL     1     -12.783   8.749  69.370  1.00  0.00     3.273 A  
HETATM    9  C   UNL     1     -12.168   7.707  70.070  1.00  0.00     0.647 A  
BRANCH   7  10
HETATM   10  C   UNL     1     -10.203   6.777  71.381  1.00  0.00    -0.216 C  
BRANCH  10  11
HETATM   11  C   UNL     1      -8.755   6.550  71.007  1.00  0.00    -0.138 A  
HETATM   12  C   UNL     1      -7.743   6.307  71.944  1.00  0.00    -0.097 A  
HETATM   13 CL   UNL     1      -8.087   6.075  73.620  1.00  0.00    -0.106 Cl 
HETATM   14  C   UNL     1      -6.400   6.293  71.547  1.00  0.00    -0.045 A  
HETATM   15  C   UNL     1      -6.045   6.539  70.217  1.00  0.00    -0.031 A  
HETATM   16  C   UNL     1      -7.035   6.756  69.253  1.00  0.00    -0.074 A  
HETATM   17  C   UNL     1      -8.383   6.713  69.661  1.00  0.00    -0.132 A  
BRANCH  16  18
HETATM   18  C   UNL     1      -6.718   7.166  67.820  1.00  0.00    -0.064 C  
HETATM   19  O   UNL     1      -7.237   8.480  67.538  1.00  0.00    -0.082 OA 
HETATM   20  C   UNL     1      -6.904   8.937  66.215  1.00  0.00    -0.074 C  
HETATM   21  H   UNL     1      -7.076   4.179  66.437  1.00  0.00     0.000 HD 
HETATM   22  C   UNL     1      -7.493   8.006  65.153  1.00  0.00    -0.085 C  
HETATM   23  O   UNL     1      -6.726   4.818  67.046  1.00  0.00    -0.049 OA 
HETATM   24  O   UNL     1      -7.133   8.394  63.819  1.00  0.00    -0.085 OA 
HETATM   25  C   UNL     1      -7.006   6.575  65.385  1.00  0.00    -0.052 C  
HETATM   26  H   UNL     1      -7.324   4.801  64.591  1.00  0.00     0.000 HD 
HETATM   27  O   UNL     1      -7.627   5.690  64.446  1.00  0.00    -0.072 OA 
HETATM   28  H   UNL     1      -7.499   7.817  63.159  1.00  0.00     0.000 HD 
HETATM   29  C   UNL     1      -7.290   6.120  66.822  1.00  0.00    -0.079 C  
BRANCH  20  30
HETATM   30  C   UNL     1      -7.444  10.365  66.041  1.00  0.00    -0.134 C  
HETATM   31  O   UNL     1      -8.647  10.334  65.275  1.00  0.00    -0.152 OA 
HETATM   32  H   UNL     1      -8.981  11.216  65.167  1.00  0.00     0.000 HD 
ENDBRANCH  20  30
ENDBRANCH  16  18
ENDBRANCH  10  11
ENDBRANCH   7  10
ENDBRANCH   3   4
ENDBRANCH   2   3
TORSDOF 6
ENDMDL
MODEL      284
REMARK 921   NORMALIZED FREE ENERGY PREDICTED BY IDOCK:    4.72 KCAL/MOL
REMARK 922        TOTAL FREE ENERGY PREDICTED BY IDOCK:    5.41 KCAL/MOL
REMARK 923 INTER-LIGAND FREE ENERGY PREDICTED BY IDOCK:    6.52 KCAL/MOL
REMARK 924 INTRA-LIGAND FREE ENERGY PREDICTED BY IDOCK:   -1.11 KCAL/MOL
REMARK 927      BINDING AFFINITY PREDICTED BY RF-SCORE:    0.00 PKD
ROOT
HETATM    1  C   UNL     1     -13.899   8.658  71.532  1.00  0.00    -0.384 C  
HETATM    2  C   UNL     1     -12.942   9.360  72.477  1.00  0.00    -0.271 C  
ENDROOT
BRANCH   2   3
HETATM    3  O   UNL     1     -12.622  10.634  71.921  1.00  0.00    -0.361 OA 
BRANCH   3   4
HETATM    4  C   UNL     1     -12.058  10.641  70.676  1.00  0.00    -0.365 A  
HETATM    5  C   UNL     1     -12.550  11.314  69.560  1.00  0.00     0.027 A  
HETATM    6  C   UNL     1     -11.868  11.246  68.340  1.00  0.00    -0.331 A  
HETATM    7  C   UNL     1     -10.687  10.504  68.215  1.00  0.00    -0.270 A  
HETATM    8  C   UNL     1     -10.889   9.888  70.554  1.00  0.00    -0.391 A  
HETATM    9  C   UNL     1     -10.207   9.816  69.335  1.00  0.00    -0.223 A  
BRANCH   7  10
HETATM   10  C   UNL     1     -10.007  10.394  66.872  1.00  0.00    -0.254 C  
BRANCH  10  11
HETATM   11  C   UNL     1      -8.617  10.981  66.762  1.00  0.00    -0.152 A  
HETATM   12  C   UNL     1      -7.456  10.204  66.659  1.00  0.00    -0.106 A  
HETATM   13 CL   UNL     1      -7.518   8.489  66.477  1.00  0.00    -0.087 Cl 
HETATM   14  C   UNL     1      -6.193  10.804  66.751  1.00  0.00    -0.083 A  
HETATM   15  C   UNL     1      -6.069  12.181  66.964  1.00  0.00    -0.097 A  
HETATM   16  C   UNL     1      -7.210  12.986  67.042  1.00  0.00     0.205 A  
HETATM   17  C   UNL     1      -8.470  12.373  66.894  1.00  0.00    -0.147 A  
BRANCH  16  18
HETATM   18  C   UNL     1      -7.156  14.464  67.410  1.00  0.00    -0.094 C  
HETATM   19  O   UNL     1      -8.307  14.839  68.192  1.00  0.00    -0.133 OA 
HETATM   20  C   UNL     1      -8.265  16.212  68.619  1.00  0.00    -0.202 C  
HETATM   21  H   UNL     1      -5.806  15.554  64.590  1.00  0.00     0.000 HD 
HETATM   22  C   UNL     1      -8.238  17.156  67.415  1.00  0.00    -0.182 C  
HETATM   23  O   UNL     1      -5.869  15.021  65.374  1.00  0.00     8.406 OA 
HETATM   24  O   UNL     1      -8.137  18.536  67.799  1.00  0.00    -0.245 OA 
HETATM   25  C   UNL     1      -7.049  16.819  66.514  1.00  0.00    -0.219 C  
HETATM   26  H   UNL     1      -6.337  17.434  64.784  1.00  0.00     0.000 HD 
HETATM   27  O   UNL     1      -7.075  17.644  65.344  1.00  0.00    -0.290 OA 
HETATM   28  H   UNL     1      -8.120  19.122  67.052  1.00  0.00     0.000 HD 
HETATM   29  C   UNL     1      -7.052  15.335  66.127  1.00  0.00     2.962 C  
BRANCH  20  30
HETATM   30  C   UNL     1      -9.498  16.488  69.494  1.00  0.00     0.047 C  
HETATM   31  O   UNL     1     -10.221  15.276  69.702  1.00  0.00    -0.239 OA 
HETATM   32  H   UNL     1     -10.983  15.446  70.242  1.00  0.00     0.000 HD 
ENDBRANCH  20  30
ENDBRANCH  16  18
ENDBRANCH  10  11
ENDBRANCH   7  10
ENDBRANCH   3   4
ENDBRANCH   2   3
TORSDOF 6
ENDMDL
MODEL      285
REMARK 921   NORMALIZED FREE ENERGY PREDICTED BY IDOCK:    4.93 KCAL/MOL
REMARK 922        TOTAL FREE ENERGY PREDICTED BY IDOCK:    5.69 KCAL/MOL
REMARK 923 INTER-LIGAND FREE ENERGY PREDICTED BY IDOCK:    5.55 KCAL/MOL
REMARK 924 INTRA-LIGAND FREE ENERGY PREDICTED BY IDOCK:    0.14 KCAL/MOL
REMARK 927      BINDING AFFINITY PREDICTED BY RF-SCORE:    0.00 PKD
ROOT
HETATM    1  C   UNL     1     -12.980  16.628  63.421  1.00  0.00     6.629 C  
HETATM    2  C   UNL     1     -12.662  15.177  63.113  1.00  0.00     2.471 C  
ENDROOT
BRANCH   2   3
HETATM    3  O   UNL     1     -12.663  14.451  64.341  1.00  0.00    -0.665 OA 
BRANCH   3   4
HETATM    4  C   UNL     1     -11.940  13.291  64.373  1.00  0.00    -0.406 A  
HETATM    5  C   UNL     1     -11.307  12.692  63.286  1.00  0.00    -0.306 A  
HETATM    6  C   UNL     1     -10.588  11.504  63.458  1.00  0.00    -0.487 A  
HETATM    7  C   UNL     1     -10.490  10.896  64.716  1.00  0.00    -0.373 A  
HETATM    8  C   UNL     1     -11.858  12.682  65.627  1.00  0.00    -0.488 A  
HETATM    9  C   UNL     1     -11.142  11.494  65.800  1.00  0.00    -0.272 A  
BRANCH   7  10
HETATM   10  C   UNL     1      -9.762   9.581  64.860  1.00  0.00    -0.065 C  
BRANCH  10  11
HETATM   11  C   UNL     1      -9.472   9.114  66.269  1.00  0.00    -0.299 A  
HETATM   12  C   UNL     1      -8.626   9.800  67.152  1.00  0.00    -0.128 A  
HETATM   13 CL   UNL     1      -7.964  11.346  66.766  1.00  0.00    -0.158 Cl 
HETATM   14  C   UNL     1      -8.253   9.217  68.369  1.00  0.00    -0.115 A  
HETATM   15  C   UNL     1      -8.700   7.938  68.717  1.00  0.00    -0.128 A  
HETATM   16  C   UNL     1      -9.567   7.242  67.870  1.00  0.00    -0.153 A  
HETATM   17  C   UNL     1      -9.975   7.866  66.674  1.00  0.00    -0.316 A  
BRANCH  16  18
HETATM   18  C   UNL     1      -9.982   5.796  68.116  1.00  0.00    -0.148 C  
HETATM   19  O   UNL     1      -9.142   5.186  69.115  1.00  0.00    -0.098 OA 
HETATM   20  C   UNL     1      -9.539   3.840  69.429  1.00  0.00    -0.149 C  
HETATM   21  H   UNL     1     -10.796   5.051  64.994  1.00  0.00     0.000 HD 
HETATM   22  C   UNL     1      -9.453   2.944  68.191  1.00  0.00    -0.161 C  
HETATM   23  O   UNL     1     -10.825   5.544  65.805  1.00  0.00     0.098 OA 
HETATM   24  O   UNL     1      -9.897   1.604  68.449  1.00  0.00    -0.244 OA 
HETATM   25  C   UNL     1     -10.307   3.527  67.065  1.00  0.00     1.377 C  
HETATM   26  H   UNL     1     -10.687   3.099  65.180  1.00  0.00     0.000 HD 
HETATM   27  O   UNL     1     -10.156   2.737  65.880  1.00  0.00     0.527 OA 
HETATM   28  H   UNL     1      -9.844   1.047  67.680  1.00  0.00     0.000 HD 
HETATM   29  C   UNL     1      -9.936   4.989  66.788  1.00  0.00    -0.217 C  
BRANCH  20  30
HETATM   30  C   UNL     1      -8.625   3.309  70.545  1.00  0.00    -0.066 C  
HETATM   31  O   UNL     1      -9.337   3.291  71.781  1.00  0.00    -0.112 OA 
HETATM   32  H   UNL     1      -8.772   2.963  72.470  1.00  0.00     0.000 HD 
ENDBRANCH  20  30
ENDBRANCH  16  18
ENDBRANCH  10  11
ENDBRANCH   7  10
ENDBRANCH   3   4
ENDBRANCH   2   3
TORSDOF 6
ENDMDL
MODEL      286
REMARK 921   NORMALIZED FREE ENERGY PREDICTED BY IDOCK:    6.01 KCAL/MOL
REMARK 922        TOTAL FREE ENERGY PREDICTED BY IDOCK:    7.15 KCAL/MOL
REMARK 923 INTER-LIGAND FREE ENERGY PREDICTED BY IDOCK:    6.38 KCAL/MOL
REMARK 924 INTRA-LIGAND FREE ENERGY PREDICTED BY IDOCK:    0.77 KCAL/MOL
REMARK 927      BINDING AFFINITY PREDICTED BY RF-SCORE:    0.00 PKD
ROOT
HETATM    1  C   UNL     1     -13.937   9.577  70.924  1.00  0.00     0.183 C  
HETATM    2  C   UNL     1     -13.244   9.631  72.273  1.00  0.00    -0.404 C  
ENDROOT
BRANCH   2   3
HETATM    3  O   UNL     1     -11.922   9.120  72.114  1.00  0.00    -0.354 OA 
BRANCH   3   4
HETATM    4  C   UNL     1     -11.396   9.146  70.852  1.00  0.00    -0.295 A  
HETATM    5  C   UNL     1     -11.284   8.057  69.990  1.00  0.00    -0.091 A  
HETATM    6  C   UNL     1     -10.732   8.223  68.716  1.00  0.00    -0.076 A  
HETATM    7  C   UNL     1     -10.283   9.477  68.282  1.00  0.00    -0.225 A  
HETATM    8  C   UNL     1     -10.937  10.395  70.431  1.00  0.00    -0.320 A  
HETATM    9  C   UNL     1     -10.383  10.563  69.158  1.00  0.00    -0.240 A  
BRANCH   7  10
HETATM   10  C   UNL     1      -9.633   9.614  66.926  1.00  0.00    -0.217 C  
BRANCH  10  11
HETATM   11  C   UNL     1      -9.280  11.015  66.478  1.00  0.00    -0.187 A  
HETATM   12  C   UNL     1      -9.395  11.455  65.153  1.00  0.00    -0.152 A  
HETATM   13 CL   UNL     1     -10.116  10.478  63.926  1.00  0.00    -0.357 Cl 
HETATM   14  C   UNL     1      -8.876  12.699  64.774  1.00  0.00     1.658 A  
HETATM   15  C   UNL     1      -8.221  13.515  65.703  1.00  0.00     2.830 A  
HETATM   16  C   UNL     1      -8.116  13.115  67.038  1.00  0.00    -0.032 A  
HETATM   17  C   UNL     1      -8.691  11.885  67.413  1.00  0.00    -0.166 A  
BRANCH  16  18
HETATM   18  C   UNL     1      -7.299  13.883  68.070  1.00  0.00    -0.141 C  
HETATM   19  O   UNL     1      -7.372  13.244  69.359  1.00  0.00     0.115 OA 
HETATM   20  C   UNL     1      -6.561  13.898  70.351  1.00  0.00     0.145 C  
HETATM   21  H   UNL     1      -7.949  16.928  66.944  1.00  0.00     0.000 HD 
HETATM   22  C   UNL     1      -7.017  15.344  70.562  1.00  0.00     0.497 C  
HETATM   23  O   UNL     1      -7.651  16.028  66.892  1.00  0.00    -0.212 OA 
HETATM   24  O   UNL     1      -6.194  16.050  71.502  1.00  0.00     1.118 OA 
HETATM   25  C   UNL     1      -6.986  16.100  69.232  1.00  0.00    -0.210 C  
HETATM   26  H   UNL     1      -7.479  17.894  68.588  1.00  0.00     0.000 HD 
HETATM   27  O   UNL     1      -7.497  17.424  69.413  1.00  0.00    -0.096 OA 
HETATM   28  H   UNL     1      -6.477  16.947  71.633  1.00  0.00     0.000 HD 
HETATM   29  C   UNL     1      -7.787  15.357  68.155  1.00  0.00    -0.124 C  
BRANCH  20  30
HETATM   30  C   UNL     1      -6.659  13.104  71.663  1.00  0.00     2.880 C  
HETATM   31  O   UNL     1      -6.872  14.000  72.752  1.00  0.00     0.854 OA 
HETATM   32  H   UNL     1      -6.933  13.509  73.563  1.00  0.00     0.000 HD 
ENDBRANCH  20  30
ENDBRANCH  16  18
ENDBRANCH  10  11
ENDBRANCH   7  10
ENDBRANCH   3   4
ENDBRANCH   2   3
TORSDOF 6
ENDMDL
MODEL      287
REMARK 921   NORMALIZED FREE ENERGY PREDICTED BY IDOCK:    8.01 KCAL/MOL
REMARK 922        TOTAL FREE ENERGY PREDICTED BY IDOCK:    9.85 KCAL/MOL
REMARK 923 INTER-LIGAND FREE ENERGY PREDICTED BY IDOCK:    9.35 KCAL/MOL
REMARK 924 INTRA-LIGAND FREE ENERGY PREDICTED BY IDOCK:    0.50 KCAL/MOL
REMARK 927      BINDING AFFINITY PREDICTED BY RF-SCORE:    0.00 PKD
ROOT
HETATM    1  C   UNL     1     -10.647   3.982  71.175  1.00  0.00     0.583 C  
HETATM    2  C   UNL     1     -11.257   5.087  70.332  1.00  0.00     1.224 C  
ENDROOT
BRANCH   2   3
HETATM    3  O   UNL     1     -10.884   6.340  70.904  1.00  0.00    -0.245 OA 
BRANCH   3   4
HETATM    4  C   UNL     1     -10.238   7.225  70.087  1.00  0.00    -0.203 A  
HETATM    5  C   UNL     1      -9.962   8.558  70.382  1.00  0.00    -0.203 A  
HETATM    6  C   UNL     1      -9.283   9.358  69.456  1.00  0.00    -0.182 A  
HETATM    7  C   UNL     1      -8.870   8.840  68.222  1.00  0.00    -0.141 A  
HETATM    8  C   UNL     1      -9.842   6.707  68.852  1.00  0.00    -0.143 A  
HETATM    9  C   UNL     1      -9.165   7.504  67.924  1.00  0.00    -0.137 A  
BRANCH   7  10
HETATM   10  C   UNL     1      -8.197   9.742  67.216  1.00  0.00    -0.117 C  
BRANCH  10  11
HETATM   11  C   UNL     1      -8.328  11.232  67.442  1.00  0.00    -0.137 A  
HETATM   12  C   UNL     1      -7.585  12.189  66.739  1.00  0.00     0.055 A  
HETATM   13 CL   UNL     1      -6.561  11.759  65.417  1.00  0.00     1.638 Cl 
HETATM   14  C   UNL     1      -7.617  13.534  67.127  1.00  0.00     0.041 A  
HETATM   15  C   UNL     1      -8.375  13.943  68.230  1.00  0.00    -0.163 A  
HETATM   16  C   UNL     1      -9.149  13.015  68.933  1.00  0.00     0.311 A  
HETATM   17  C   UNL     1      -9.146  11.676  68.496  1.00  0.00    -0.157 A  
BRANCH  16  18
HETATM   18  C   UNL     1      -9.885  13.360  70.223  1.00  0.00     3.255 C  
HETATM   19  O   UNL     1     -11.233  12.853  70.193  1.00  0.00     0.114 OA 
HETATM   20  C   UNL     1     -11.946  13.098  71.418  1.00  0.00     0.654 C  
HETATM   21  H   UNL     1      -8.533  16.345  70.696  1.00  0.00     0.000 HD 
HETATM   22  C   UNL     1     -12.058  14.599  71.693  1.00  0.00    -0.335 C  
HETATM   23  O   UNL     1      -8.537  15.406  70.556  1.00  0.00     0.790 OA 
HETATM   24  O   UNL     1     -12.712  14.884  72.938  1.00  0.00    -0.376 OA 
HETATM   25  C   UNL     1     -10.664  15.228  71.726  1.00  0.00     0.476 C  
HETATM   26  H   UNL     1      -9.908  17.037  71.915  1.00  0.00     0.000 HD 
HETATM   27  O   UNL     1     -10.774  16.646  71.894  1.00  0.00     1.321 OA 
HETATM   28  H   UNL     1     -12.781  15.816  73.109  1.00  0.00     0.000 HD 
HETATM   29  C   UNL     1      -9.878  14.897  70.452  1.00  0.00     0.628 C  
BRANCH  20  30
HETATM   30  C   UNL     1     -13.342  12.464  71.306  1.00  0.00     0.184 C  
HETATM   31  O   UNL     1     -14.324  13.487  71.158  1.00  0.00     0.617 OA 
HETATM   32  H   UNL     1     -15.186  13.096  71.088  1.00  0.00     0.000 HD 
ENDBRANCH  20  30
ENDBRANCH  16  18
ENDBRANCH  10  11
ENDBRANCH   7  10
ENDBRANCH   3   4
ENDBRANCH   2   3
TORSDOF 6
ENDMDL
MODEL      288
REMARK 921   NORMALIZED FREE ENERGY PREDICTED BY IDOCK:    8.82 KCAL/MOL
REMARK 922        TOTAL FREE ENERGY PREDICTED BY IDOCK:   10.94 KCAL/MOL
REMARK 923 INTER-LIGAND FREE ENERGY PREDICTED BY IDOCK:   10.61 KCAL/MOL
REMARK 924 INTRA-LIGAND FREE ENERGY PREDICTED BY IDOCK:    0.34 KCAL/MOL
REMARK 927      BINDING AFFINITY PREDICTED BY RF-SCORE:    0.00 PKD
ROOT
HETATM    1  C   UNL     1     -11.259  17.850  73.889  1.00  0.00     1.479 C  
HETATM    2  C   UNL     1     -12.674  18.395  73.830  1.00  0.00     5.387 C  
ENDROOT
BRANCH   2   3
HETATM    3  O   UNL     1     -13.546  17.329  73.458  1.00  0.00     1.318 OA 
BRANCH   3   4
HETATM    4  C   UNL     1     -13.246  16.660  72.304  1.00  0.00     1.806 A  
HETATM    5  C   UNL     1     -14.009  15.649  71.723  1.00  0.00    -0.451 A  
HETATM    6  C   UNL     1     -13.592  15.049  70.530  1.00  0.00     0.014 A  
HETATM    7  C   UNL     1     -12.407  15.448  69.899  1.00  0.00    -0.324 A  
HETATM    8  C   UNL     1     -12.056  17.051  71.687  1.00  0.00     1.717 A  
HETATM    9  C   UNL     1     -11.636  16.452  70.496  1.00  0.00    -0.091 A  
BRANCH   7  10
HETATM   10  C   UNL     1     -11.948  14.740  68.647  1.00  0.00    -0.292 C  
BRANCH  10  11
HETATM   11  C   UNL     1     -10.460  14.502  68.506  1.00  0.00    -0.250 A  
HETATM   12  C   UNL     1      -9.592  15.396  67.865  1.00  0.00    -0.206 A  
HETATM   13 CL   UNL     1     -10.118  16.947  67.319  1.00  0.00    -0.279 Cl 
HETATM   14  C   UNL     1      -8.266  15.029  67.603  1.00  0.00    -0.181 A  
HETATM   15  C   UNL     1      -7.791  13.763  67.960  1.00  0.00    -0.152 A  
HETATM   16  C   UNL     1      -8.626  12.860  68.626  1.00  0.00     0.053 A  
HETATM   17  C   UNL     1      -9.940  13.266  68.928  1.00  0.00     0.053 A  
BRANCH  16  18
HETATM   18  C   UNL     1      -8.221  11.420  68.919  1.00  0.00    -0.052 C  
HETATM   19  O   UNL     1      -7.301  11.362  70.025  1.00  0.00     0.186 OA 
HETATM   20  C   UNL     1      -6.943  10.015  70.380  1.00  0.00    -0.131 C  
HETATM   21  H   UNL     1      -8.160  10.353  65.784  1.00  0.00     0.000 HD 
HETATM   22  C   UNL     1      -6.253   9.308  69.211  1.00  0.00    -0.041 C  
HETATM   23  O   UNL     1      -8.538  10.752  66.559  1.00  0.00    -0.141 OA 
HETATM   24  O   UNL     1      -5.933   7.940  69.505  1.00  0.00    -0.032 OA 
HETATM   25  C   UNL     1      -7.158   9.335  67.978  1.00  0.00    -0.078 C  
HETATM   26  H   UNL     1      -7.039   8.771  66.095  1.00  0.00     0.000 HD 
HETATM   27  O   UNL     1      -6.478   8.754  66.861  1.00  0.00    -0.059 OA 
HETATM   28  H   UNL     1      -5.505   7.501  68.780  1.00  0.00     0.000 HD 
HETATM   29  C   UNL     1      -7.603  10.766  67.651  1.00  0.00    -0.096 C  
BRANCH  20  30
HETATM   30  C   UNL     1      -6.015  10.063  71.605  1.00  0.00     0.218 C  
HETATM   31  O   UNL     1      -6.223  11.281  72.317  1.00  0.00     1.234 OA 
HETATM   32  H   UNL     1      -5.650  11.311  73.074  1.00  0.00     0.000 HD 
ENDBRANCH  20  30
ENDBRANCH  16  18
ENDBRANCH  10  11
ENDBRANCH   7  10
ENDBRANCH   3   4
ENDBRANCH   2   3
TORSDOF 6
ENDMDL
MODEL      289
REMARK 921   NORMALIZED FREE ENERGY PREDICTED BY IDOCK:   16.09 KCAL/MOL
REMARK 922        TOTAL FREE ENERGY PREDICTED BY IDOCK:   20.77 KCAL/MOL
REMARK 923 INTER-LIGAND FREE ENERGY PREDICTED BY IDOCK:   20.06 KCAL/MOL
REMARK 924 INTRA-LIGAND FREE ENERGY PREDICTED BY IDOCK:    0.71 KCAL/MOL
REMARK 927      BINDING AFFINITY PREDICTED BY RF-SCORE:    0.00 PKD
ROOT
HETATM    1  C   UNL     1      -8.312  18.363  63.741  1.00  0.00    13.129 C  
HETATM    2  C   UNL     1      -7.060  18.130  64.566  1.00  0.00     3.389 C  
ENDROOT
BRANCH   2   3
HETATM    3  O   UNL     1      -7.032  16.757  64.953  1.00  0.00     2.852 OA 
BRANCH   3   4
HETATM    4  C   UNL     1      -7.917  16.370  65.919  1.00  0.00     0.412 A  
HETATM    5  C   UNL     1      -8.941  17.151  66.451  1.00  0.00    -0.291 A  
HETATM    6  C   UNL     1      -9.787  16.628  67.435  1.00  0.00    -0.254 A  
HETATM    7  C   UNL     1      -9.624  15.318  67.904  1.00  0.00    -0.199 A  
HETATM    8  C   UNL     1      -7.741  15.068  66.393  1.00  0.00     0.996 A  
HETATM    9  C   UNL     1      -8.584  14.544  67.378  1.00  0.00    -0.213 A  
BRANCH   7  10
HETATM   10  C   UNL     1     -10.510  14.801  69.011  1.00  0.00    -0.249 C  
BRANCH  10  11
HETATM   11  C   UNL     1     -11.061  13.402  68.846  1.00  0.00    -0.307 A  
HETATM   12  C   UNL     1     -12.376  13.045  69.171  1.00  0.00     0.100 A  
HETATM   13 CL   UNL     1     -13.552  14.220  69.638  1.00  0.00     1.804 Cl 
HETATM   14  C   UNL     1     -12.764  11.699  69.173  1.00  0.00     0.763 A  
HETATM   15  C   UNL     1     -11.846  10.689  68.868  1.00  0.00    -0.216 A  
HETATM   16  C   UNL     1     -10.534  11.017  68.511  1.00  0.00    -0.210 A  
HETATM   17  C   UNL     1     -10.176  12.378  68.463  1.00  0.00    -0.213 A  
BRANCH  16  18
HETATM   18  C   UNL     1      -9.447   9.968  68.304  1.00  0.00    -0.140 C  
HETATM   19  O   UNL     1      -9.951   8.647  68.577  1.00  0.00    -0.172 OA 
HETATM   20  C   UNL     1      -8.977   7.618  68.330  1.00  0.00    -0.128 C  
HETATM   21  H   UNL     1      -6.905  11.767  69.433  1.00  0.00     0.000 HD 
HETATM   22  C   UNL     1      -7.750   7.803  69.226  1.00  0.00    -0.100 C  
HETATM   23  O   UNL     1      -7.657  11.573  68.886  1.00  0.00    -0.128 OA 
HETATM   24  O   UNL     1      -6.728   6.829  68.968  1.00  0.00    -0.055 OA 
HETATM   25  C   UNL     1      -7.154   9.195  69.013  1.00  0.00    -0.067 C  
HETATM   26  H   UNL     1      -5.690  10.264  69.783  1.00  0.00     0.000 HD 
HETATM   27  O   UNL     1      -6.061   9.399  69.915  1.00  0.00    -0.037 OA 
HETATM   28  H   UNL     1      -5.966   6.943  69.524  1.00  0.00     0.000 HD 
HETATM   29  C   UNL     1      -8.216  10.286  69.198  1.00  0.00    -0.152 C  
BRANCH  20  30
HETATM   30  C   UNL     1      -9.634   6.253  68.588  1.00  0.00    -0.123 C  
HETATM   31  O   UNL     1      -9.972   5.640  67.345  1.00  0.00    -0.133 OA 
HETATM   32  H   UNL     1     -10.378   4.796  67.503  1.00  0.00     0.000 HD 
ENDBRANCH  20  30
ENDBRANCH  16  18
ENDBRANCH  10  11
ENDBRANCH   7  10
ENDBRANCH   3   4
ENDBRANCH   2   3
TORSDOF 6
ENDMDL
MODEL      290
REMARK 921   NORMALIZED FREE ENERGY PREDICTED BY IDOCK:   18.62 KCAL/MOL
REMARK 922        TOTAL FREE ENERGY PREDICTED BY IDOCK:   24.19 KCAL/MOL
REMARK 923 INTER-LIGAND FREE ENERGY PREDICTED BY IDOCK:   23.46 KCAL/MOL
REMARK 924 INTRA-LIGAND FREE ENERGY PREDICTED BY IDOCK:    0.73 KCAL/MOL
REMARK 927      BINDING AFFINITY PREDICTED BY RF-SCORE:    0.00 PKD
ROOT
HETATM    1  C   UNL     1     -11.810   9.171  63.275  1.00  0.00    14.419 C  
HETATM    2  C   UNL     1     -10.658   9.672  62.422  1.00  0.00     3.264 C  
ENDROOT
BRANCH   2   3
HETATM    3  O   UNL     1     -10.050  10.771  63.099  1.00  0.00    -0.319 OA 
BRANCH   3   4
HETATM    4  C   UNL     1     -10.441  10.995  64.389  1.00  0.00    -0.354 A  
HETATM    5  C   UNL     1      -9.660  10.798  65.526  1.00  0.00    -0.269 A  
HETATM    6  C   UNL     1     -10.181  11.075  66.795  1.00  0.00    -0.272 A  
HETATM    7  C   UNL     1     -11.489  11.553  66.949  1.00  0.00    -0.261 A  
HETATM    8  C   UNL     1     -11.751  11.457  64.538  1.00  0.00     0.034 A  
HETATM    9  C   UNL     1     -12.274  11.733  65.804  1.00  0.00     0.659 A  
BRANCH   7  10
HETATM   10  C   UNL     1     -12.047  11.783  68.332  1.00  0.00    -0.098 C  
BRANCH  10  11
HETATM   11  C   UNL     1     -11.911  13.179  68.898  1.00  0.00    -0.361 A  
HETATM   12  C   UNL     1     -12.662  13.650  69.983  1.00  0.00     0.014 A  
HETATM   13 CL   UNL     1     -13.703  12.614  70.891  1.00  0.00     0.981 Cl 
HETATM   14  C   UNL     1     -12.623  15.005  70.335  1.00  0.00    -0.399 A  
HETATM   15  C   UNL     1     -11.852  15.913  69.602  1.00  0.00    -0.298 A  
HETATM   16  C   UNL     1     -11.070  15.467  68.532  1.00  0.00    -0.295 A  
HETATM   17  C   UNL     1     -11.079  14.092  68.226  1.00  0.00    -0.275 A  
BRANCH  16  18
HETATM   18  C   UNL     1     -10.317  16.415  67.606  1.00  0.00    -0.284 C  
HETATM   19  O   UNL     1     -10.910  17.728  67.625  1.00  0.00    -0.363 OA 
HETATM   20  C   UNL     1     -10.192  18.674  66.815  1.00  0.00    -0.393 C  
HETATM   21  H   UNL     1      -9.612  14.216  65.232  1.00  0.00     0.000 HD 
HETATM   22  C   UNL     1     -10.172  18.234  65.350  1.00  0.00     0.532 C  
HETATM   23  O   UNL     1      -9.630  14.565  66.115  1.00  0.00    -0.298 OA 
HETATM   24  O   UNL     1      -9.413  19.123  64.517  1.00  0.00     3.445 OA 
HETATM   25  C   UNL     1      -9.568  16.833  65.234  1.00  0.00     0.809 C  
HETATM   26  H   UNL     1      -9.257  15.516  63.804  1.00  0.00     0.000 HD 
HETATM   27  O   UNL     1      -9.631  16.386  63.876  1.00  0.00     4.346 OA 
HETATM   28  H   UNL     1      -9.401  18.850  63.607  1.00  0.00     0.000 HD 
HETATM   29  C   UNL     1     -10.286  15.844  66.160  1.00  0.00    -0.324 C  
BRANCH  20  30
HETATM   30  C   UNL     1     -10.866  20.048  66.957  1.00  0.00    -0.116 C  
HETATM   31  O   UNL     1     -10.503  20.634  68.206  1.00  0.00    -0.068 OA 
HETATM   32  H   UNL     1     -10.920  21.483  68.294  1.00  0.00     0.000 HD 
ENDBRANCH  20  30
ENDBRANCH  16  18
ENDBRANCH  10  11
ENDBRANCH   7  10
ENDBRANCH   3   4
ENDBRANCH   2   3
TORSDOF 6
ENDMDL
MODEL      291
REMARK 921   NORMALIZED FREE ENERGY PREDICTED BY IDOCK:   22.34 KCAL/MOL
REMARK 922        TOTAL FREE ENERGY PREDICTED BY IDOCK:   29.21 KCAL/MOL
REMARK 923 INTER-LIGAND FREE ENERGY PREDICTED BY IDOCK:   29.82 KCAL/MOL
REMARK 924 INTRA-LIGAND FREE ENERGY PREDICTED BY IDOCK:   -0.62 KCAL/MOL
REMARK 927      BINDING AFFINITY PREDICTED BY RF-SCORE:    0.00 PKD
ROOT
HETATM    1  C   UNL     1     -10.518   5.440  65.274  1.00  0.00     0.684 C  
HETATM    2  C   UNL     1     -10.172   6.888  65.566  1.00  0.00     1.931 C  
ENDROOT
BRANCH   2   3
HETATM    3  O   UNL     1     -10.184   7.605  64.332  1.00  0.00     4.675 OA 
BRANCH   3   4
HETATM    4  C   UNL     1     -10.005   8.958  64.402  1.00  0.00     2.267 A  
HETATM    5  C   UNL     1      -8.784   9.616  64.539  1.00  0.00    -0.227 A  
HETATM    6  C   UNL     1      -8.738  11.013  64.591  1.00  0.00     0.045 A  
HETATM    7  C   UNL     1      -9.910  11.776  64.506  1.00  0.00    -0.228 A  
HETATM    8  C   UNL     1     -11.177   9.713  64.333  1.00  0.00     5.548 A  
HETATM    9  C   UNL     1     -11.135  11.110  64.386  1.00  0.00    -0.175 A  
BRANCH   7  10
HETATM   10  C   UNL     1      -9.838  13.279  64.629  1.00  0.00    -0.000 C  
BRANCH  10  11
HETATM   11  C   UNL     1     -10.866  13.940  65.521  1.00  0.00    -0.306 A  
HETATM   12  C   UNL     1     -11.622  15.054  65.135  1.00  0.00    -0.294 A  
HETATM   13 CL   UNL     1     -11.570  15.681  63.527  1.00  0.00     1.035 Cl 
HETATM   14  C   UNL     1     -12.415  15.729  66.072  1.00  0.00     1.774 A  
HETATM   15  C   UNL     1     -12.453  15.315  67.407  1.00  0.00     1.024 A  
HETATM   16  C   UNL     1     -11.732  14.189  67.815  1.00  0.00    -0.408 A  
HETATM   17  C   UNL     1     -10.982  13.491  66.848  1.00  0.00    -0.296 A  
BRANCH  16  18
HETATM   18  C   UNL     1     -11.616  13.765  69.275  1.00  0.00    -0.312 C  
HETATM   19  O   UNL     1     -10.824  12.568  69.398  1.00  0.00    -0.073 OA 
HETATM   20  C   UNL     1     -10.632  12.167  70.766  1.00  0.00     3.844 C  
HETATM   21  H   UNL     1     -14.669  14.640  70.213  1.00  0.00     0.000 HD 
HETATM   22  C   UNL     1     -11.972  11.865  71.439  1.00  0.00     0.730 C  
HETATM   23  O   UNL     1     -13.805  14.766  69.838  1.00  0.00     1.136 OA 
HETATM   24  O   UNL     1     -11.828  11.519  72.824  1.00  0.00     3.644 OA 
HETATM   25  C   UNL     1     -12.891  13.084  71.341  1.00  0.00    -0.292 C  
HETATM   26  H   UNL     1     -14.746  13.529  71.831  1.00  0.00     0.000 HD 
HETATM   27  O   UNL     1     -14.175  12.772  71.891  1.00  0.00     0.201 OA 
HETATM   28  H   UNL     1     -12.660  11.331  73.242  1.00  0.00     0.000 HD 
HETATM   29  C   UNL     1     -13.029  13.558  69.889  1.00  0.00     0.565 C  
BRANCH  20  30
HETATM   30  C   UNL     1      -9.724  10.927  70.788  1.00  0.00     3.021 C  
HETATM   31  O   UNL     1      -8.567  11.164  69.989  1.00  0.00     0.308 OA 
HETATM   32  H   UNL     1      -8.006  10.397  70.002  1.00  0.00     0.000 HD 
ENDBRANCH  20  30
ENDBRANCH  16  18
ENDBRANCH  10  11
ENDBRANCH   7  10
ENDBRANCH   3   4
ENDBRANCH   2   3
TORSDOF 6
ENDMDL
MODEL      292
REMARK 921   NORMALIZED FREE ENERGY PREDICTED BY IDOCK:   25.77 KCAL/MOL
REMARK 922        TOTAL FREE ENERGY PREDICTED BY IDOCK:   33.84 KCAL/MOL
REMARK 923 INTER-LIGAND FREE ENERGY PREDICTED BY IDOCK:   35.03 KCAL/MOL
REMARK 924 INTRA-LIGAND FREE ENERGY PREDICTED BY IDOCK:   -1.19 KCAL/MOL
REMARK 927      BINDING AFFINITY PREDICTED BY RF-SCORE:    0.00 PKD
ROOT
HETATM    1  C   UNL     1     -11.103   4.714  74.469  1.00  0.00     0.627 C  
HETATM    2  C   UNL     1     -10.727   3.741  73.367  1.00  0.00    -0.207 C  
ENDROOT
BRANCH   2   3
HETATM    3  O   UNL     1      -9.600   4.270  72.672  1.00  0.00    -0.124 OA 
BRANCH   3   4
HETATM    4  C   UNL     1      -9.616   4.178  71.308  1.00  0.00    -0.172 A  
HETATM    5  C   UNL     1      -8.596   4.584  70.449  1.00  0.00    -0.104 A  
HETATM    6  C   UNL     1      -8.736   4.425  69.066  1.00  0.00    -0.116 A  
HETATM    7  C   UNL     1      -9.896   3.860  68.519  1.00  0.00    -0.005 A  
HETATM    8  C   UNL     1     -10.779   3.627  70.767  1.00  0.00     1.701 A  
HETATM    9  C   UNL     1     -10.923   3.469  69.386  1.00  0.00     4.690 A  
BRANCH   7  10
HETATM   10  C   UNL     1     -10.047   3.760  67.020  1.00  0.00     0.347 C  
BRANCH  10  11
HETATM   11  C   UNL     1      -9.959   5.052  66.239  1.00  0.00    -0.247 A  
HETATM   12  C   UNL     1      -9.170   5.209  65.092  1.00  0.00    -0.050 A  
HETATM   13 CL   UNL     1      -8.348   3.880  64.359  1.00  0.00    -0.093 Cl 
HETATM   14  C   UNL     1      -8.987   6.479  64.529  1.00  0.00     0.714 A  
HETATM   15  C   UNL     1      -9.571   7.610  65.109  1.00  0.00     1.332 A  
HETATM   16  C   UNL     1     -10.386   7.480  66.237  1.00  0.00     0.310 A  
HETATM   17  C   UNL     1     -10.602   6.189  66.759  1.00  0.00    -0.351 A  
BRANCH  16  18
HETATM   18  C   UNL     1     -10.938   8.678  67.002  1.00  0.00     0.273 C  
HETATM   19  O   UNL     1      -9.967   9.177  67.941  1.00  0.00    -0.168 OA 
HETATM   20  C   UNL     1     -10.421  10.350  68.639  1.00  0.00    -0.196 C  
HETATM   21  H   UNL     1     -14.069   7.625  67.232  1.00  0.00     0.000 HD 
HETATM   22  C   UNL     1     -11.685  10.048  69.448  1.00  0.00     0.053 C  
HETATM   23  O   UNL     1     -13.262   7.861  66.790  1.00  0.00    12.294 OA 
HETATM   24  O   UNL     1     -12.204  11.209  70.113  1.00  0.00    -0.308 OA 
HETATM   25  C   UNL     1     -12.773   9.494  68.527  1.00  0.00     5.194 C  
HETATM   26  H   UNL     1     -14.599   8.784  68.725  1.00  0.00     0.000 HD 
HETATM   27  O   UNL     1     -13.923   9.129  69.297  1.00  0.00     4.131 OA 
HETATM   28  H   UNL     1     -12.988  11.022  70.615  1.00  0.00     0.000 HD 
HETATM   29  C   UNL     1     -12.259   8.292  67.724  1.00  0.00     5.534 C  
BRANCH  20  30
HETATM   30  C   UNL     1      -9.292  10.835  69.562  1.00  0.00     0.113 C  
HETATM   31  O   UNL     1      -8.322   9.802  69.720  1.00  0.00    -0.145 OA 
HETATM   32  H   UNL     1      -7.625  10.102  70.290  1.00  0.00     0.000 HD 
ENDBRANCH  20  30
ENDBRANCH  16  18
ENDBRANCH  10  11
ENDBRANCH   7  10
ENDBRANCH   3   4
ENDBRANCH   2   3
TORSDOF 6
ENDMDL
MODEL      293
REMARK 921   NORMALIZED FREE ENERGY PREDICTED BY IDOCK:   28.97 KCAL/MOL
REMARK 922        TOTAL FREE ENERGY PREDICTED BY IDOCK:   38.17 KCAL/MOL
REMARK 923 INTER-LIGAND FREE ENERGY PREDICTED BY IDOCK:   38.65 KCAL/MOL
REMARK 924 INTRA-LIGAND FREE ENERGY PREDICTED BY IDOCK:   -0.48 KCAL/MOL
REMARK 927      BINDING AFFINITY PREDICTED BY RF-SCORE:    0.00 PKD
ROOT
HETATM    1  C   UNL     1     -12.821  12.019  72.511  1.00  0.00     0.875 C  
HETATM    2  C   UNL     1     -11.441  12.127  73.131  1.00  0.00    10.672 C  
ENDROOT
BRANCH   2   3
HETATM    3  O   UNL     1     -11.347  13.387  73.792  1.00  0.00     4.294 OA 
BRANCH   3   4
HETATM    4  C   UNL     1     -11.183  14.489  73.000  1.00  0.00     1.436 A  
HETATM    5  C   UNL     1      -9.966  15.073  72.653  1.00  0.00     4.676 A  
HETATM    6  C   UNL     1      -9.936  16.199  71.824  1.00  0.00     3.857 A  
HETATM    7  C   UNL     1     -11.120  16.761  71.328  1.00  0.00     0.537 A  
HETATM    8  C   UNL     1     -12.366  15.054  72.520  1.00  0.00    -0.445 A  
HETATM    9  C   UNL     1     -12.340  16.181  71.693  1.00  0.00    -0.346 A  
BRANCH   7  10
HETATM   10  C   UNL     1     -11.062  18.014  70.488  1.00  0.00     2.654 C  
BRANCH  10  11
HETATM   11  C   UNL     1     -10.247  17.944  69.215  1.00  0.00    -0.078 A  
HETATM   12  C   UNL     1      -9.474  19.008  68.732  1.00  0.00    -0.382 A  
HETATM   13 CL   UNL     1      -9.244  20.457  69.643  1.00  0.00     0.756 Cl 
HETATM   14  C   UNL     1      -8.899  18.942  67.457  1.00  0.00    -0.300 A  
HETATM   15  C   UNL     1      -9.099  17.826  66.639  1.00  0.00    -0.280 A  
HETATM   16  C   UNL     1      -9.841  16.737  67.105  1.00  0.00    -0.259 A  
HETATM   17  C   UNL     1     -10.368  16.798  68.410  1.00  0.00    -0.319 A  
BRANCH  16  18
HETATM   18  C   UNL     1     -10.216  15.552  66.221  1.00  0.00    -0.294 C  
HETATM   19  O   UNL     1     -11.006  14.597  66.955  1.00  0.00    -0.309 OA 
HETATM   20  C   UNL     1     -11.438  13.492  66.142  1.00  0.00    -0.325 C  
HETATM   21  H   UNL     1      -7.392  15.400  64.498  1.00  0.00     0.000 HD 
HETATM   22  C   UNL     1     -10.239  12.721  65.586  1.00  0.00    -0.279 C  
HETATM   23  O   UNL     1      -8.174  15.808  64.850  1.00  0.00     3.490 OA 
HETATM   24  O   UNL     1     -10.628  11.645  64.720  1.00  0.00    -0.276 OA 
HETATM   25  C   UNL     1      -9.329  13.666  64.800  1.00  0.00     1.216 C  
HETATM   26  H   UNL     1      -7.598  13.552  63.869  1.00  0.00     0.000 HD 
HETATM   27  O   UNL     1      -8.163  12.964  64.357  1.00  0.00     3.895 OA 
HETATM   28  H   UNL     1      -9.884  11.166  64.376  1.00  0.00     0.000 HD 
HETATM   29  C   UNL     1      -8.936  14.884  65.645  1.00  0.00     0.661 C  
BRANCH  20  30
HETATM   30  C   UNL     1     -12.323  12.572  66.998  1.00  0.00     0.433 C  
HETATM   31  O   UNL     1     -13.367  12.025  66.195  1.00  0.00     3.090 OA 
HETATM   32  H   UNL     1     -13.913  11.457  66.725  1.00  0.00     0.000 HD 
ENDBRANCH  20  30
ENDBRANCH  16  18
ENDBRANCH  10  11
ENDBRANCH   7  10
ENDBRANCH   3   4
ENDBRANCH   2   3
TORSDOF 6
ENDMDL
MODEL      294
REMARK 921   NORMALIZED FREE ENERGY PREDICTED BY IDOCK:   38.83 KCAL/MOL
REMARK 922        TOTAL FREE ENERGY PREDICTED BY IDOCK:   51.49 KCAL/MOL
REMARK 923 INTER-LIGAND FREE ENERGY PREDICTED BY IDOCK:   51.27 KCAL/MOL
REMARK 924 INTRA-LIGAND FREE ENERGY PREDICTED BY IDOCK:    0.22 KCAL/MOL
REMARK 927      BINDING AFFINITY PREDICTED BY RF-SCORE:    0.00 PKD
ROOT
HETATM    1  C   UNL     1     -13.252  17.065  63.055  1.00  0.00    12.039 C  
HETATM    2  C   UNL     1     -13.033  15.616  62.660  1.00  0.00     6.394 C  
ENDROOT
BRANCH   2   3
HETATM    3  O   UNL     1     -13.368  14.795  63.778  1.00  0.00     0.558 OA 
BRANCH   3   4
HETATM    4  C   UNL     1     -12.660  13.635  63.927  1.00  0.00    -0.059 A  
HETATM    5  C   UNL     1     -11.728  13.125  63.025  1.00  0.00     0.244 A  
HETATM    6  C   UNL     1     -11.063  11.926  63.304  1.00  0.00    -0.390 A  
HETATM    7  C   UNL     1     -11.317  11.218  64.486  1.00  0.00    -0.091 A  
HETATM    8  C   UNL     1     -12.927  12.927  65.100  1.00  0.00    -0.099 A  
HETATM    9  C   UNL     1     -12.265  11.728  65.380  1.00  0.00     0.449 A  
BRANCH   7  10
HETATM   10  C   UNL     1     -10.632   9.896  64.732  1.00  0.00     1.133 C  
BRANCH  10  11
HETATM   11  C   UNL     1     -10.628   9.384  66.155  1.00  0.00     0.152 A  
HETATM   12  C   UNL     1     -11.781   8.953  66.825  1.00  0.00     3.928 A  
HETATM   13 CL   UNL     1     -13.302   8.804  66.022  1.00  0.00    19.927 Cl 
HETATM   14  C   UNL     1     -11.738   8.672  68.196  1.00  0.00     2.047 A  
HETATM   15  C   UNL     1     -10.554   8.833  68.923  1.00  0.00    -0.178 A  
HETATM   16  C   UNL     1      -9.382   9.235  68.277  1.00  0.00    -0.141 A  
HETATM   17  C   UNL     1      -9.430   9.462  66.887  1.00  0.00    -0.204 A  
BRANCH  16  18
HETATM   18  C   UNL     1      -8.095   9.565  69.025  1.00  0.00    -0.101 C  
HETATM   19  O   UNL     1      -8.366   9.835  70.414  1.00  0.00    -0.185 OA 
HETATM   20  C   UNL     1      -7.172  10.087  71.175  1.00  0.00     0.723 C  
HETATM   21  H   UNL     1      -6.599  11.227  66.582  1.00  0.00     0.000 HD 
HETATM   22  C   UNL     1      -6.431  11.312  70.636  1.00  0.00     0.450 C  
HETATM   23  O   UNL     1      -7.037  10.489  66.990  1.00  0.00    -0.087 OA 
HETATM   24  O   UNL     1      -5.201  11.563  71.332  1.00  0.00    -0.245 OA 
HETATM   25  C   UNL     1      -6.114  11.120  69.152  1.00  0.00    -0.047 C  
HETATM   26  H   UNL     1      -5.304  12.184  67.706  1.00  0.00     0.000 HD 
HETATM   27  O   UNL     1      -5.501  12.303  68.628  1.00  0.00    -0.053 OA 
HETATM   28  H   UNL     1      -4.741  12.324  70.998  1.00  0.00     0.000 HD 
HETATM   29  C   UNL     1      -7.379  10.772  68.357  1.00  0.00    -0.092 C  
BRANCH  20  30
HETATM   30  C   UNL     1      -7.565  10.296  72.646  1.00  0.00     5.383 C  
HETATM   31  O   UNL     1      -7.231   9.134  73.402  1.00  0.00    -0.184 OA 
HETATM   32  H   UNL     1      -7.474   9.263  74.311  1.00  0.00     0.000 HD 
ENDBRANCH  20  30
ENDBRANCH  16  18
ENDBRANCH  10  11
ENDBRANCH   7  10
ENDBRANCH   3   4
ENDBRANCH   2   3
TORSDOF 6
ENDMDL
MODEL      295
REMARK 921   NORMALIZED FREE ENERGY PREDICTED BY IDOCK:   70.79 KCAL/MOL
REMARK 922        TOTAL FREE ENERGY PREDICTED BY IDOCK:   94.66 KCAL/MOL
REMARK 923 INTER-LIGAND FREE ENERGY PREDICTED BY IDOCK:   94.04 KCAL/MOL
REMARK 924 INTRA-LIGAND FREE ENERGY PREDICTED BY IDOCK:    0.62 KCAL/MOL
REMARK 927      BINDING AFFINITY PREDICTED BY RF-SCORE:    0.00 PKD
ROOT
HETATM    1  C   UNL     1      -8.784  19.326  62.816  1.00  0.00    19.608 C  
HETATM    2  C   UNL     1      -7.450  18.753  63.256  1.00  0.00     9.918 C  
ENDROOT
BRANCH   2   3
HETATM    3  O   UNL     1      -7.536  17.330  63.195  1.00  0.00    14.672 OA 
BRANCH   3   4
HETATM    4  C   UNL     1      -8.423  16.728  64.043  1.00  0.00    12.103 A  
HETATM    5  C   UNL     1      -9.449  17.363  64.740  1.00  0.00     3.696 A  
HETATM    6  C   UNL     1     -10.296  16.626  65.574  1.00  0.00    -0.268 A  
HETATM    7  C   UNL     1     -10.132  15.243  65.726  1.00  0.00    -0.384 A  
HETATM    8  C   UNL     1      -8.246  15.352  64.203  1.00  0.00    13.063 A  
HETATM    9  C   UNL     1      -9.090  14.613  65.037  1.00  0.00     1.899 A  
BRANCH   7  10
HETATM   10  C   UNL     1     -11.020  14.482  66.681  1.00  0.00    -0.321 C  
BRANCH  10  11
HETATM   11  C   UNL     1     -11.433  13.088  66.264  1.00  0.00    -0.379 A  
HETATM   12  C   UNL     1     -12.742  12.603  66.377  1.00  0.00     1.026 A  
HETATM   13 CL   UNL     1     -14.055  13.619  66.851  1.00  0.00     7.945 Cl 
HETATM   14  C   UNL     1     -13.016  11.248  66.151  1.00  0.00     6.043 A  
HETATM   15  C   UNL     1     -11.990  10.355  65.827  1.00  0.00     3.527 A  
HETATM   16  C   UNL     1     -10.678  10.815  65.680  1.00  0.00    -0.142 A  
HETATM   17  C   UNL     1     -10.430  12.190  65.858  1.00  0.00    -0.288 A  
BRANCH  16  18
HETATM   18  C   UNL     1      -9.493   9.880  65.467  1.00  0.00    -0.252 C  
HETATM   19  O   UNL     1      -9.938   8.574  65.056  1.00  0.00     1.019 OA 
HETATM   20  C   UNL     1      -8.849   7.677  64.779  1.00  0.00     0.437 C  
HETATM   21  H   UNL     1      -7.605  11.024  67.936  1.00  0.00     0.000 HD 
HETATM   22  C   UNL     1      -7.987   7.464  66.026  1.00  0.00    -0.115 C  
HETATM   23  O   UNL     1      -8.126  11.079  67.144  1.00  0.00    -0.125 OA 
HETATM   24  O   UNL     1      -6.854   6.620  65.776  1.00  0.00    -0.047 OA 
HETATM   25  C   UNL     1      -7.480   8.810  66.545  1.00  0.00    -0.085 C  
HETATM   26  H   UNL     1      -6.434   9.455  68.084  1.00  0.00     0.000 HD 
HETATM   27  O   UNL     1      -6.749   8.619  67.761  1.00  0.00    -0.064 OA 
HETATM   28  H   UNL     1      -6.319   6.488  66.550  1.00  0.00     0.000 HD 
HETATM   29  C   UNL     1      -8.638   9.791  66.763  1.00  0.00    -0.128 C  
BRANCH  20  30
HETATM   30  C   UNL     1      -9.429   6.340  64.290  1.00  0.00     1.833 C  
HETATM   31  O   UNL     1      -8.393   5.549  63.712  1.00  0.00    -0.154 OA 
HETATM   32  H   UNL     1      -8.752   4.724  63.409  1.00  0.00     0.000 HD 
ENDBRANCH  20  30
ENDBRANCH  16  18
ENDBRANCH  10  11
ENDBRANCH   7  10
ENDBRANCH   3   4
ENDBRANCH   2   3
TORSDOF 6
ENDMDL
