MODEL        1
REMARK 921   NORMALIZED FREE ENERGY PREDICTED BY IDOCK:   -7.44 KCAL/MOL
REMARK 922        TOTAL FREE ENERGY PREDICTED BY IDOCK:   -9.44 KCAL/MOL
REMARK 923 INTER-LIGAND FREE ENERGY PREDICTED BY IDOCK:   -9.18 KCAL/MOL
REMARK 924 INTRA-LIGAND FREE ENERGY PREDICTED BY IDOCK:   -0.26 KCAL/MOL
REMARK 927      BINDING AFFINITY PREDICTED BY RF-SCORE:    0.00 PKD
ROOT
HETATM    1  C   UNL     1     -12.165  11.415  70.783  1.00  0.00    -0.475 C  
HETATM    2  C   UNL     1     -12.541  12.866  70.914  1.00  0.00    -0.355 A  
HETATM    3  C   UNL     1     -13.333  13.199  72.040  1.00  0.00    -0.587 A  
HETATM    4  C   UNL     1     -13.674  14.520  72.318  1.00  0.00    -0.559 A  
HETATM    5  C   UNL     1     -13.227  15.527  71.483  1.00  0.00    -0.589 A  
HETATM    6  C   UNL     1     -12.473  15.205  70.350  1.00  0.00    -0.416 A  
HETATM    7  C   UNL     1     -12.137  13.879  70.011  1.00  0.00    -0.345 A  
ENDROOT
BRANCH   7   8
HETATM    8  N   UNL     1     -11.509  13.654  68.794  1.00  0.00    -0.285 NA 
HETATM    9  C   UNL     1     -10.154  14.145  68.538  1.00  0.00    -0.243 C  
HETATM   10  C   UNL     1      -9.393  13.186  67.603  1.00  0.00    -0.205 C  
HETATM   11  N   UNL     1     -10.078  12.905  66.319  1.00  0.00    -0.271 NA 
HETATM   12  C   UNL     1     -12.279  13.218  67.609  1.00  0.00    -0.135 C  
HETATM   13  C   UNL     1     -11.410  12.345  66.662  1.00  0.00    -0.339 C  
BRANCH  11  14
HETATM   14  C   UNL     1     -10.223  14.103  65.457  1.00  0.00    -0.351 C  
BRANCH  14  15
HETATM   15  C   UNL     1      -9.300  15.243  65.895  1.00  0.00    -0.308 C  
BRANCH  15  16
HETATM   16  C   UNL     1      -9.888  16.594  65.733  1.00  0.00    -0.211 A  
HETATM   17  N   UNL     1     -10.763  17.024  64.848  1.00  0.00    -0.709 NA 
HETATM   18  N   UNL     1     -10.998  18.363  65.089  1.00  0.00    -0.453 NA 
HETATM   19  C   UNL     1     -10.262  18.722  66.116  1.00  0.00    -0.421 A  
HETATM   20  C   UNL     1     -10.152  20.053  66.767  1.00  0.00    -0.607 C  
HETATM   21  C   UNL     1      -8.934  20.124  67.697  1.00  0.00    -0.412 C  
HETATM   22  C   UNL     1      -8.830  18.870  68.567  1.00  0.00    -0.387 C  
HETATM   23  C   UNL     1      -8.666  17.627  67.692  1.00  0.00    -0.232 C  
HETATM   24  N   UNL     1      -9.579  17.631  66.570  1.00  0.00    -0.284 NA 
ENDBRANCH  15  16
ENDBRANCH  14  15
ENDBRANCH  11  14
ENDBRANCH   7   8
TORSDOF 4
ENDMDL
MODEL        2
REMARK 921   NORMALIZED FREE ENERGY PREDICTED BY IDOCK:   -7.38 KCAL/MOL
REMARK 922        TOTAL FREE ENERGY PREDICTED BY IDOCK:   -9.36 KCAL/MOL
REMARK 923 INTER-LIGAND FREE ENERGY PREDICTED BY IDOCK:   -9.25 KCAL/MOL
REMARK 924 INTRA-LIGAND FREE ENERGY PREDICTED BY IDOCK:   -0.11 KCAL/MOL
REMARK 927      BINDING AFFINITY PREDICTED BY RF-SCORE:    0.00 PKD
ROOT
HETATM    1  C   UNL     1      -9.373   9.613  70.197  1.00  0.00    -0.294 C  
HETATM    2  C   UNL     1     -10.787   9.698  70.707  1.00  0.00    -0.400 A  
HETATM    3  C   UNL     1     -11.153   8.730  71.673  1.00  0.00    -0.398 A  
HETATM    4  C   UNL     1     -12.405   8.758  72.283  1.00  0.00    -0.448 A  
HETATM    5  C   UNL     1     -13.305   9.750  71.944  1.00  0.00    -0.530 A  
HETATM    6  C   UNL     1     -12.965  10.690  70.967  1.00  0.00    -0.456 A  
HETATM    7  C   UNL     1     -11.724  10.678  70.298  1.00  0.00    -0.344 A  
ENDROOT
BRANCH   7   8
HETATM    8  N   UNL     1     -11.539  11.565  69.246  1.00  0.00    -0.292 NA 
HETATM    9  C   UNL     1     -11.169  11.092  67.911  1.00  0.00    -0.310 C  
HETATM   10  C   UNL     1     -11.782  11.993  66.822  1.00  0.00    -0.264 C  
HETATM   11  N   UNL     1     -11.452  13.432  66.957  1.00  0.00    -0.321 NA 
HETATM   12  C   UNL     1     -11.379  13.014  69.492  1.00  0.00    -0.155 C  
HETATM   13  C   UNL     1     -11.922  13.851  68.301  1.00  0.00    -0.357 C  
BRANCH  11  14
HETATM   14  C   UNL     1     -10.006  13.719  66.797  1.00  0.00    -0.270 C  
BRANCH  14  15
HETATM   15  C   UNL     1      -9.620  15.078  67.389  1.00  0.00    -0.205 C  
BRANCH  15  16
HETATM   16  C   UNL     1     -10.035  16.238  66.563  1.00  0.00    -0.277 A  
HETATM   17  N   UNL     1     -10.466  16.266  65.320  1.00  0.00    -0.604 NA 
HETATM   18  N   UNL     1     -10.717  17.580  64.980  1.00  0.00    -0.612 NA 
HETATM   19  C   UNL     1     -10.434  18.327  66.024  1.00  0.00    -0.361 A  
HETATM   20  C   UNL     1     -10.531  19.802  66.171  1.00  0.00    -0.613 C  
HETATM   21  C   UNL     1      -9.780  20.291  67.417  1.00  0.00    -0.584 C  
HETATM   22  C   UNL     1     -10.086  19.409  68.628  1.00  0.00    -0.515 C  
HETATM   23  C   UNL     1      -9.645  17.970  68.364  1.00  0.00    -0.334 C  
HETATM   24  N   UNL     1     -10.037  17.517  67.047  1.00  0.00    -0.312 NA 
ENDBRANCH  15  16
ENDBRANCH  14  15
ENDBRANCH  11  14
ENDBRANCH   7   8
TORSDOF 4
ENDMDL
MODEL        3
REMARK 921   NORMALIZED FREE ENERGY PREDICTED BY IDOCK:   -7.02 KCAL/MOL
REMARK 922        TOTAL FREE ENERGY PREDICTED BY IDOCK:   -8.91 KCAL/MOL
REMARK 923 INTER-LIGAND FREE ENERGY PREDICTED BY IDOCK:   -8.28 KCAL/MOL
REMARK 924 INTRA-LIGAND FREE ENERGY PREDICTED BY IDOCK:   -0.63 KCAL/MOL
REMARK 927      BINDING AFFINITY PREDICTED BY RF-SCORE:    0.00 PKD
ROOT
HETATM    1  C   UNL     1     -10.339  19.634  66.246  1.00  0.00    -0.619 C  
HETATM    2  C   UNL     1      -9.042  19.577  67.007  1.00  0.00    -0.378 A  
HETATM    3  C   UNL     1      -8.193  20.702  66.865  1.00  0.00    -0.213 A  
HETATM    4  C   UNL     1      -7.006  20.806  67.585  1.00  0.00    -0.375 A  
HETATM    5  C   UNL     1      -6.650  19.796  68.459  1.00  0.00    -0.315 A  
HETATM    6  C   UNL     1      -7.465  18.666  68.581  1.00  0.00    -0.332 A  
HETATM    7  C   UNL     1      -8.656  18.503  67.844  1.00  0.00    -0.287 A  
ENDROOT
BRANCH   7   8
HETATM    8  N   UNL     1      -9.317  17.285  67.932  1.00  0.00    -0.253 NA 
HETATM    9  C   UNL     1      -9.193  16.278  66.877  1.00  0.00    -0.218 C  
HETATM   10  C   UNL     1      -9.267  14.857  67.468  1.00  0.00    -0.193 C  
HETATM   11  N   UNL     1     -10.479  14.590  68.279  1.00  0.00    -0.237 NA 
HETATM   12  C   UNL     1     -10.416  17.084  68.900  1.00  0.00    -0.347 C  
HETATM   13  C   UNL     1     -10.493  15.603  69.365  1.00  0.00    -0.253 C  
BRANCH  11  14
HETATM   14  C   UNL     1     -11.735  14.650  67.494  1.00  0.00    -0.379 C  
BRANCH  14  15
HETATM   15  C   UNL     1     -12.240  13.257  67.108  1.00  0.00    -0.281 C  
BRANCH  15  16
HETATM   16  C   UNL     1     -12.096  12.939  65.666  1.00  0.00    -0.458 A  
HETATM   17  N   UNL     1     -12.827  13.336  64.647  1.00  0.00    -0.701 NA 
HETATM   18  N   UNL     1     -12.312  12.768  63.499  1.00  0.00    -0.694 NA 
HETATM   19  C   UNL     1     -11.276  12.036  63.842  1.00  0.00    -0.417 A  
HETATM   20  C   UNL     1     -10.381  11.221  62.981  1.00  0.00    -0.248 C  
HETATM   21  C   UNL     1      -9.524  10.259  63.815  1.00  0.00    -0.352 C  
HETATM   22  C   UNL     1      -8.930  10.964  65.034  1.00  0.00    -0.184 C  
HETATM   23  C   UNL     1     -10.042  11.489  65.941  1.00  0.00    -0.231 C  
HETATM   24  N   UNL     1     -11.088  12.147  65.189  1.00  0.00    -0.314 NA 
ENDBRANCH  15  16
ENDBRANCH  14  15
ENDBRANCH  11  14
ENDBRANCH   7   8
TORSDOF 4
ENDMDL
MODEL        4
REMARK 921   NORMALIZED FREE ENERGY PREDICTED BY IDOCK:   -6.98 KCAL/MOL
REMARK 922        TOTAL FREE ENERGY PREDICTED BY IDOCK:   -8.87 KCAL/MOL
REMARK 923 INTER-LIGAND FREE ENERGY PREDICTED BY IDOCK:   -8.40 KCAL/MOL
REMARK 924 INTRA-LIGAND FREE ENERGY PREDICTED BY IDOCK:   -0.46 KCAL/MOL
REMARK 927      BINDING AFFINITY PREDICTED BY RF-SCORE:    0.00 PKD
ROOT
HETATM    1  C   UNL     1     -10.016   8.735  69.578  1.00  0.00    -0.195 C  
HETATM    2  C   UNL     1     -11.078   9.622  70.169  1.00  0.00    -0.314 A  
HETATM    3  C   UNL     1     -11.810   9.072  71.250  1.00  0.00    -0.379 A  
HETATM    4  C   UNL     1     -12.759   9.825  71.936  1.00  0.00    -0.501 A  
HETATM    5  C   UNL     1     -12.988  11.136  71.561  1.00  0.00    -0.542 A  
HETATM    6  C   UNL     1     -12.294  11.677  70.474  1.00  0.00    -0.410 A  
HETATM    7  C   UNL     1     -11.352  10.939  69.728  1.00  0.00    -0.301 A  
ENDROOT
BRANCH   7   8
HETATM    8  N   UNL     1     -10.824  11.521  68.584  1.00  0.00    -0.200 NA 
HETATM    9  C   UNL     1      -9.822  12.584  68.666  1.00  0.00    -0.075 C  
HETATM   10  C   UNL     1      -8.844  12.507  67.478  1.00  0.00    -0.184 C  
HETATM   11  N   UNL     1      -9.492  12.528  66.146  1.00  0.00    -0.219 NA 
HETATM   12  C   UNL     1     -11.475  11.339  67.268  1.00  0.00    -0.186 C  
HETATM   13  C   UNL     1     -10.436  11.382  66.114  1.00  0.00    -0.255 C  
BRANCH  11  14
HETATM   14  C   UNL     1     -10.205  13.797  65.859  1.00  0.00    -0.313 C  
BRANCH  14  15
HETATM   15  C   UNL     1      -9.367  15.024  66.230  1.00  0.00    -0.341 C  
BRANCH  15  16
HETATM   16  C   UNL     1      -9.983  16.317  65.842  1.00  0.00    -0.339 A  
HETATM   17  N   UNL     1     -10.719  16.609  64.791  1.00  0.00    -0.730 NA 
HETATM   18  N   UNL     1     -11.052  17.947  64.856  1.00  0.00    -0.560 NA 
HETATM   19  C   UNL     1     -10.511  18.444  65.946  1.00  0.00    -0.321 A  
HETATM   20  C   UNL     1     -10.570  19.833  66.469  1.00  0.00    -0.580 C  
HETATM   21  C   UNL     1      -9.525  20.063  67.568  1.00  0.00    -0.498 C  
HETATM   22  C   UNL     1      -9.508  18.903  68.564  1.00  0.00    -0.416 C  
HETATM   23  C   UNL     1      -9.146  17.598  67.856  1.00  0.00    -0.260 C  
HETATM   24  N   UNL     1      -9.863  17.443  66.609  1.00  0.00    -0.284 NA 
ENDBRANCH  15  16
ENDBRANCH  14  15
ENDBRANCH  11  14
ENDBRANCH   7   8
TORSDOF 4
ENDMDL
MODEL        5
REMARK 921   NORMALIZED FREE ENERGY PREDICTED BY IDOCK:   -6.94 KCAL/MOL
REMARK 922        TOTAL FREE ENERGY PREDICTED BY IDOCK:   -8.82 KCAL/MOL
REMARK 923 INTER-LIGAND FREE ENERGY PREDICTED BY IDOCK:   -8.38 KCAL/MOL
REMARK 924 INTRA-LIGAND FREE ENERGY PREDICTED BY IDOCK:   -0.44 KCAL/MOL
REMARK 927      BINDING AFFINITY PREDICTED BY RF-SCORE:    0.00 PKD
ROOT
HETATM    1  C   UNL     1      -8.077  17.162  68.820  1.00  0.00    -0.252 C  
HETATM    2  C   UNL     1      -8.947  18.004  67.925  1.00  0.00    -0.265 A  
HETATM    3  C   UNL     1      -8.793  19.405  68.057  1.00  0.00    -0.369 A  
HETATM    4  C   UNL     1      -9.479  20.288  67.226  1.00  0.00    -0.557 A  
HETATM    5  C   UNL     1     -10.321  19.788  66.250  1.00  0.00    -0.626 A  
HETATM    6  C   UNL     1     -10.505  18.407  66.135  1.00  0.00    -0.422 A  
HETATM    7  C   UNL     1      -9.860  17.479  66.979  1.00  0.00    -0.295 A  
ENDROOT
BRANCH   7   8
HETATM    8  N   UNL     1     -10.218  16.142  66.876  1.00  0.00    -0.277 NA 
HETATM    9  C   UNL     1     -11.276  15.574  67.713  1.00  0.00    -0.302 C  
HETATM   10  C   UNL     1     -12.035  14.466  66.958  1.00  0.00    -0.395 C  
HETATM   11  N   UNL     1     -11.174  13.382  66.428  1.00  0.00    -0.299 NA 
HETATM   12  C   UNL     1      -9.347  15.172  66.178  1.00  0.00    -0.311 C  
HETATM   13  C   UNL     1     -10.179  14.028  65.536  1.00  0.00    -0.343 C  
BRANCH  11  14
HETATM   14  C   UNL     1     -10.493  12.602  67.490  1.00  0.00    -0.221 C  
BRANCH  14  15
HETATM   15  C   UNL     1     -11.457  11.671  68.230  1.00  0.00    -0.369 C  
BRANCH  15  16
HETATM   16  C   UNL     1     -10.799  10.773  69.210  1.00  0.00    -0.242 A  
HETATM   17  N   UNL     1      -9.553  10.351  69.251  1.00  0.00    -0.216 NA 
HETATM   18  N   UNL     1      -9.414   9.520  70.344  1.00  0.00    -0.258 NA 
HETATM   19  C   UNL     1     -10.579   9.452  70.948  1.00  0.00    -0.320 A  
HETATM   20  C   UNL     1     -10.957   8.691  72.166  1.00  0.00    -0.434 C  
HETATM   21  C   UNL     1     -12.481   8.610  72.327  1.00  0.00    -0.460 C  
HETATM   22  C   UNL     1     -13.135   9.969  72.077  1.00  0.00    -0.541 C  
HETATM   23  C   UNL     1     -12.850  10.444  70.653  1.00  0.00    -0.313 C  
HETATM   24  N   UNL     1     -11.464  10.253  70.286  1.00  0.00    -0.294 NA 
ENDBRANCH  15  16
ENDBRANCH  14  15
ENDBRANCH  11  14
ENDBRANCH   7   8
TORSDOF 4
ENDMDL
MODEL        6
REMARK 921   NORMALIZED FREE ENERGY PREDICTED BY IDOCK:   -6.92 KCAL/MOL
REMARK 922        TOTAL FREE ENERGY PREDICTED BY IDOCK:   -8.79 KCAL/MOL
REMARK 923 INTER-LIGAND FREE ENERGY PREDICTED BY IDOCK:   -8.50 KCAL/MOL
REMARK 924 INTRA-LIGAND FREE ENERGY PREDICTED BY IDOCK:   -0.29 KCAL/MOL
REMARK 927      BINDING AFFINITY PREDICTED BY RF-SCORE:    0.00 PKD
ROOT
HETATM    1  C   UNL     1     -12.701  11.564  71.119  1.00  0.00    -0.458 C  
HETATM    2  C   UNL     1     -11.826  10.416  70.693  1.00  0.00    -0.445 A  
HETATM    3  C   UNL     1     -11.724   9.343  71.612  1.00  0.00    -0.468 A  
HETATM    4  C   UNL     1     -11.015   8.187  71.296  1.00  0.00    -0.281 A  
HETATM    5  C   UNL     1     -10.402   8.081  70.061  1.00  0.00    -0.218 A  
HETATM    6  C   UNL     1     -10.469   9.148  69.160  1.00  0.00    -0.230 A  
HETATM    7  C   UNL     1     -11.145  10.350  69.453  1.00  0.00    -0.254 A  
ENDROOT
BRANCH   7   8
HETATM    8  N   UNL     1     -11.032  11.400  68.551  1.00  0.00    -0.204 NA 
HETATM    9  C   UNL     1     -11.209  11.187  67.114  1.00  0.00    -0.249 C  
HETATM   10  C   UNL     1     -11.834  12.429  66.450  1.00  0.00    -0.354 C  
HETATM   11  N   UNL     1     -11.093  13.691  66.685  1.00  0.00    -0.302 NA 
HETATM   12  C   UNL     1     -10.412  12.682  68.949  1.00  0.00    -0.080 C  
HETATM   13  C   UNL     1     -11.021  13.872  68.157  1.00  0.00    -0.249 C  
BRANCH  11  14
HETATM   14  C   UNL     1      -9.734  13.692  66.093  1.00  0.00    -0.255 C  
BRANCH  14  15
HETATM   15  C   UNL     1      -9.001  15.014  66.336  1.00  0.00    -0.286 C  
BRANCH  15  16
HETATM   16  C   UNL     1      -9.749  16.213  65.885  1.00  0.00    -0.340 A  
HETATM   17  N   UNL     1     -10.553  16.356  64.853  1.00  0.00    -0.683 NA 
HETATM   18  N   UNL     1     -11.005  17.660  64.835  1.00  0.00    -0.765 NA 
HETATM   19  C   UNL     1     -10.467  18.287  65.858  1.00  0.00    -0.307 A  
HETATM   20  C   UNL     1     -10.631  19.701  66.279  1.00  0.00    -0.585 C  
HETATM   21  C   UNL     1      -9.566  20.108  67.306  1.00  0.00    -0.555 C  
HETATM   22  C   UNL     1      -9.400  19.035  68.383  1.00  0.00    -0.405 C  
HETATM   23  C   UNL     1      -8.950  17.716  67.755  1.00  0.00    -0.247 C  
HETATM   24  N   UNL     1      -9.701  17.402  66.560  1.00  0.00    -0.281 NA 
ENDBRANCH  15  16
ENDBRANCH  14  15
ENDBRANCH  11  14
ENDBRANCH   7   8
TORSDOF 4
ENDMDL
MODEL        7
REMARK 921   NORMALIZED FREE ENERGY PREDICTED BY IDOCK:   -6.86 KCAL/MOL
REMARK 922        TOTAL FREE ENERGY PREDICTED BY IDOCK:   -8.72 KCAL/MOL
REMARK 923 INTER-LIGAND FREE ENERGY PREDICTED BY IDOCK:   -8.62 KCAL/MOL
REMARK 924 INTRA-LIGAND FREE ENERGY PREDICTED BY IDOCK:   -0.10 KCAL/MOL
REMARK 927      BINDING AFFINITY PREDICTED BY RF-SCORE:    0.00 PKD
ROOT
HETATM    1  C   UNL     1     -12.630  13.982  70.494  1.00  0.00    -0.399 C  
HETATM    2  C   UNL     1     -12.472  12.495  70.665  1.00  0.00    -0.323 A  
HETATM    3  C   UNL     1     -13.044  11.944  71.838  1.00  0.00    -0.474 A  
HETATM    4  C   UNL     1     -13.039  10.571  72.066  1.00  0.00    -0.511 A  
HETATM    5  C   UNL     1     -12.471   9.727  71.131  1.00  0.00    -0.443 A  
HETATM    6  C   UNL     1     -11.873  10.264  69.986  1.00  0.00    -0.305 A  
HETATM    7  C   UNL     1     -11.823  11.650  69.732  1.00  0.00    -0.357 A  
ENDROOT
BRANCH   7   8
HETATM    8  N   UNL     1     -11.085  12.089  68.642  1.00  0.00    -0.233 NA 
HETATM    9  C   UNL     1     -10.061  13.125  68.786  1.00  0.00    -0.061 C  
HETATM   10  C   UNL     1      -8.903  12.892  67.797  1.00  0.00    -0.188 C  
HETATM   11  N   UNL     1      -9.318  12.787  66.378  1.00  0.00    -0.227 NA 
HETATM   12  C   UNL     1     -11.514  11.785  67.259  1.00  0.00    -0.303 C  
HETATM   13  C   UNL     1     -10.296  11.672  66.302  1.00  0.00    -0.235 C  
BRANCH  11  14
HETATM   14  C   UNL     1      -9.912  14.037  65.846  1.00  0.00    -0.307 C  
BRANCH  14  15
HETATM   15  C   UNL     1      -9.193  15.284  66.369  1.00  0.00    -0.342 C  
BRANCH  15  16
HETATM   16  C   UNL     1      -9.843  16.562  65.989  1.00  0.00    -0.322 A  
HETATM   17  N   UNL     1     -10.691  16.809  65.012  1.00  0.00    -0.697 NA 
HETATM   18  N   UNL     1     -11.010  18.152  65.047  1.00  0.00    -0.540 NA 
HETATM   19  C   UNL     1     -10.350  18.696  66.045  1.00  0.00    -0.399 A  
HETATM   20  C   UNL     1     -10.345  20.109  66.502  1.00  0.00    -0.508 C  
HETATM   21  C   UNL     1      -9.184  20.383  67.467  1.00  0.00    -0.475 C  
HETATM   22  C   UNL     1      -9.060  19.273  68.511  1.00  0.00    -0.425 C  
HETATM   23  C   UNL     1      -8.784  17.932  67.831  1.00  0.00    -0.252 C  
HETATM   24  N   UNL     1      -9.635  17.723  66.680  1.00  0.00    -0.296 NA 
ENDBRANCH  15  16
ENDBRANCH  14  15
ENDBRANCH  11  14
ENDBRANCH   7   8
TORSDOF 4
ENDMDL
MODEL        8
REMARK 921   NORMALIZED FREE ENERGY PREDICTED BY IDOCK:   -6.83 KCAL/MOL
REMARK 922        TOTAL FREE ENERGY PREDICTED BY IDOCK:   -8.69 KCAL/MOL
REMARK 923 INTER-LIGAND FREE ENERGY PREDICTED BY IDOCK:   -8.23 KCAL/MOL
REMARK 924 INTRA-LIGAND FREE ENERGY PREDICTED BY IDOCK:   -0.46 KCAL/MOL
REMARK 927      BINDING AFFINITY PREDICTED BY RF-SCORE:    0.00 PKD
ROOT
HETATM    1  C   UNL     1     -13.294  15.453  71.095  1.00  0.00    -0.580 C  
HETATM    2  C   UNL     1     -12.910  14.001  71.003  1.00  0.00    -0.410 A  
HETATM    3  C   UNL     1     -13.475  13.150  71.983  1.00  0.00    -0.598 A  
HETATM    4  C   UNL     1     -13.263  11.774  71.952  1.00  0.00    -0.468 A  
HETATM    5  C   UNL     1     -12.493  11.226  70.943  1.00  0.00    -0.493 A  
HETATM    6  C   UNL     1     -11.903  12.063  69.990  1.00  0.00    -0.392 A  
HETATM    7  C   UNL     1     -12.060  13.464  70.006  1.00  0.00    -0.334 A  
ENDROOT
BRANCH   7   8
HETATM    8  N   UNL     1     -11.320  14.215  69.102  1.00  0.00    -0.265 NA 
HETATM    9  C   UNL     1     -11.442  14.002  67.659  1.00  0.00    -0.334 C  
HETATM   10  C   UNL     1     -11.244  15.324  66.893  1.00  0.00    -0.256 C  
HETATM   11  N   UNL     1      -9.972  16.024  67.193  1.00  0.00    -0.244 NA 
HETATM   12  C   UNL     1     -10.155  15.009  69.548  1.00  0.00    -0.166 C  
HETATM   13  C   UNL     1      -9.957  16.267  68.658  1.00  0.00    -0.233 C  
BRANCH  11  14
HETATM   14  C   UNL     1      -8.770  15.260  66.780  1.00  0.00    -0.270 C  
BRANCH  14  15
HETATM   15  C   UNL     1      -7.473  15.957  67.199  1.00  0.00    -0.262 C  
BRANCH  15  16
HETATM   16  C   UNL     1      -7.380  17.373  66.768  1.00  0.00    -0.215 A  
HETATM   17  N   UNL     1      -7.613  17.903  65.586  1.00  0.00    -0.527 NA 
HETATM   18  N   UNL     1      -7.381  19.261  65.669  1.00  0.00    -0.441 NA 
HETATM   19  C   UNL     1      -7.011  19.532  66.901  1.00  0.00    -0.198 A  
HETATM   20  C   UNL     1      -6.646  20.841  67.501  1.00  0.00    -0.390 C  
HETATM   21  C   UNL     1      -5.946  20.661  68.855  1.00  0.00    -0.390 C  
HETATM   22  C   UNL     1      -6.675  19.633  69.721  1.00  0.00    -0.299 C  
HETATM   23  C   UNL     1      -6.691  18.270  69.030  1.00  0.00    -0.261 C  
HETATM   24  N   UNL     1      -7.033  18.378  67.628  1.00  0.00    -0.206 NA 
ENDBRANCH  15  16
ENDBRANCH  14  15
ENDBRANCH  11  14
ENDBRANCH   7   8
TORSDOF 4
ENDMDL
MODEL        9
REMARK 921   NORMALIZED FREE ENERGY PREDICTED BY IDOCK:   -6.83 KCAL/MOL
REMARK 922        TOTAL FREE ENERGY PREDICTED BY IDOCK:   -8.68 KCAL/MOL
REMARK 923 INTER-LIGAND FREE ENERGY PREDICTED BY IDOCK:   -8.45 KCAL/MOL
REMARK 924 INTRA-LIGAND FREE ENERGY PREDICTED BY IDOCK:   -0.24 KCAL/MOL
REMARK 927      BINDING AFFINITY PREDICTED BY RF-SCORE:    0.00 PKD
ROOT
HETATM    1  C   UNL     1     -11.388  10.290  69.668  1.00  0.00    -0.315 C  
HETATM    2  C   UNL     1     -12.002  11.540  70.241  1.00  0.00    -0.455 A  
HETATM    3  C   UNL     1     -12.708  11.378  71.458  1.00  0.00    -0.462 A  
HETATM    4  C   UNL     1     -13.246  12.472  72.131  1.00  0.00    -0.508 A  
HETATM    5  C   UNL     1     -13.085  13.741  71.605  1.00  0.00    -0.456 A  
HETATM    6  C   UNL     1     -12.419  13.906  70.387  1.00  0.00    -0.404 A  
HETATM    7  C   UNL     1     -11.890  12.823  69.654  1.00  0.00    -0.317 A  
ENDROOT
BRANCH   7   8
HETATM    8  N   UNL     1     -11.374  13.078  68.391  1.00  0.00    -0.270 NA 
HETATM    9  C   UNL     1     -10.028  13.627  68.219  1.00  0.00    -0.236 C  
HETATM   10  C   UNL     1      -9.383  13.094  66.925  1.00  0.00    -0.246 C  
HETATM   11  N   UNL     1     -10.182  13.325  65.698  1.00  0.00    -0.288 NA 
HETATM   12  C   UNL     1     -12.255  13.128  67.204  1.00  0.00    -0.191 C  
HETATM   13  C   UNL     1     -11.500  12.679  65.923  1.00  0.00    -0.363 C  
BRANCH  11  14
HETATM   14  C   UNL     1     -10.354  14.761  65.372  1.00  0.00    -0.386 C  
BRANCH  14  15
HETATM   15  C   UNL     1      -9.247  15.627  65.979  1.00  0.00    -0.374 C  
BRANCH  15  16
HETATM   16  C   UNL     1      -9.561  17.076  66.012  1.00  0.00    -0.187 A  
HETATM   17  N   UNL     1     -10.576  17.723  65.479  1.00  0.00    -0.615 NA 
HETATM   18  N   UNL     1     -10.432  19.065  65.767  1.00  0.00    -0.569 NA 
HETATM   19  C   UNL     1      -9.331  19.210  66.471  1.00  0.00    -0.348 A  
HETATM   20  C   UNL     1      -8.731  20.451  67.023  1.00  0.00    -0.385 C  
HETATM   21  C   UNL     1      -7.281  20.222  67.472  1.00  0.00    -0.333 C  
HETATM   22  C   UNL     1      -7.150  18.924  68.269  1.00  0.00    -0.285 C  
HETATM   23  C   UNL     1      -7.557  17.727  67.410  1.00  0.00    -0.200 C  
HETATM   24  N   UNL     1      -8.777  17.979  66.674  1.00  0.00    -0.253 NA 
ENDBRANCH  15  16
ENDBRANCH  14  15
ENDBRANCH  11  14
ENDBRANCH   7   8
TORSDOF 4
ENDMDL
MODEL       10
REMARK 921   NORMALIZED FREE ENERGY PREDICTED BY IDOCK:   -6.82 KCAL/MOL
REMARK 922        TOTAL FREE ENERGY PREDICTED BY IDOCK:   -8.67 KCAL/MOL
REMARK 923 INTER-LIGAND FREE ENERGY PREDICTED BY IDOCK:   -8.04 KCAL/MOL
REMARK 924 INTRA-LIGAND FREE ENERGY PREDICTED BY IDOCK:   -0.63 KCAL/MOL
REMARK 927      BINDING AFFINITY PREDICTED BY RF-SCORE:    0.00 PKD
ROOT
HETATM    1  C   UNL     1      -9.969   4.679  71.434  1.00  0.00    -0.267 C  
HETATM    2  C   UNL     1     -10.054   4.965  69.959  1.00  0.00    -0.337 A  
HETATM    3  C   UNL     1      -9.423   4.023  69.111  1.00  0.00    -0.249 A  
HETATM    4  C   UNL     1      -9.506   4.130  67.725  1.00  0.00    -0.225 A  
HETATM    5  C   UNL     1     -10.221   5.171  67.165  1.00  0.00    -0.254 A  
HETATM    6  C   UNL     1     -10.819   6.126  67.994  1.00  0.00    -0.398 A  
HETATM    7  C   UNL     1     -10.730   6.076  69.400  1.00  0.00    -0.334 A  
ENDROOT
BRANCH   7   8
HETATM    8  N   UNL     1     -11.237   7.146  70.125  1.00  0.00    -0.274 NA 
HETATM    9  C   UNL     1     -12.626   7.160  70.586  1.00  0.00    -0.034 C  
HETATM   10  C   UNL     1     -12.749   7.902  71.930  1.00  0.00    -0.316 C  
HETATM   11  N   UNL     1     -12.206   9.281  71.923  1.00  0.00    -0.374 NA 
HETATM   12  C   UNL     1     -10.520   8.438  70.177  1.00  0.00    -0.228 C  
HETATM   13  C   UNL     1     -10.782   9.175  71.519  1.00  0.00    -0.367 C  
BRANCH  11  14
HETATM   14  C   UNL     1     -12.939  10.196  71.014  1.00  0.00    -0.385 C  
BRANCH  14  15
HETATM   15  C   UNL     1     -12.196  11.518  70.806  1.00  0.00    -0.463 C  
BRANCH  15  16
HETATM   16  C   UNL     1     -12.028  11.901  69.382  1.00  0.00    -0.289 A  
HETATM   17  N   UNL     1     -12.018  11.139  68.309  1.00  0.00    -0.619 NA 
HETATM   18  N   UNL     1     -11.818  11.948  67.208  1.00  0.00    -0.612 NA 
HETATM   19  C   UNL     1     -11.710  13.187  67.633  1.00  0.00    -0.369 A  
HETATM   20  C   UNL     1     -11.487  14.428  66.848  1.00  0.00    -0.379 C  
HETATM   21  C   UNL     1     -11.079  15.598  67.754  1.00  0.00    -0.311 C  
HETATM   22  C   UNL     1     -11.962  15.665  69.000  1.00  0.00    -0.323 C  
HETATM   23  C   UNL     1     -11.825  14.383  69.820  1.00  0.00    -0.320 C  
HETATM   24  N   UNL     1     -11.873  13.201  68.988  1.00  0.00    -0.311 NA 
ENDBRANCH  15  16
ENDBRANCH  14  15
ENDBRANCH  11  14
ENDBRANCH   7   8
TORSDOF 4
ENDMDL
MODEL       11
REMARK 921   NORMALIZED FREE ENERGY PREDICTED BY IDOCK:   -6.79 KCAL/MOL
REMARK 922        TOTAL FREE ENERGY PREDICTED BY IDOCK:   -8.64 KCAL/MOL
REMARK 923 INTER-LIGAND FREE ENERGY PREDICTED BY IDOCK:   -7.98 KCAL/MOL
REMARK 924 INTRA-LIGAND FREE ENERGY PREDICTED BY IDOCK:   -0.66 KCAL/MOL
REMARK 927      BINDING AFFINITY PREDICTED BY RF-SCORE:    0.00 PKD
ROOT
HETATM    1  C   UNL     1     -11.935  11.724  70.429  1.00  0.00    -0.422 C  
HETATM    2  C   UNL     1     -12.443  13.079  70.845  1.00  0.00    -0.396 A  
HETATM    3  C   UNL     1     -13.300  13.097  71.972  1.00  0.00    -0.587 A  
HETATM    4  C   UNL     1     -13.766  14.296  72.505  1.00  0.00    -0.608 A  
HETATM    5  C   UNL     1     -13.381  15.492  71.929  1.00  0.00    -0.569 A  
HETATM    6  C   UNL     1     -12.562  15.483  70.795  1.00  0.00    -0.505 A  
HETATM    7  C   UNL     1     -12.098  14.291  70.201  1.00  0.00    -0.339 A  
ENDROOT
BRANCH   7   8
HETATM    8  N   UNL     1     -11.410  14.385  68.999  1.00  0.00    -0.254 NA 
HETATM    9  C   UNL     1     -10.062  14.952  68.938  1.00  0.00    -0.236 C  
HETATM   10  C   UNL     1      -9.230  14.268  67.838  1.00  0.00    -0.194 C  
HETATM   11  N   UNL     1      -9.848  14.295  66.491  1.00  0.00    -0.278 NA 
HETATM   12  C   UNL     1     -12.113  14.235  67.706  1.00  0.00    -0.281 C  
HETATM   13  C   UNL     1     -11.174  13.639  66.620  1.00  0.00    -0.313 C  
BRANCH  11  14
HETATM   14  C   UNL     1      -9.995  15.664  65.941  1.00  0.00    -0.351 C  
BRANCH  14  15
HETATM   15  C   UNL     1      -8.667  16.425  65.927  1.00  0.00    -0.134 C  
BRANCH  15  16
HETATM   16  C   UNL     1      -8.716  17.741  66.608  1.00  0.00    -0.261 A  
HETATM   17  N   UNL     1      -9.634  18.231  67.414  1.00  0.00    -0.279 NA 
HETATM   18  N   UNL     1      -9.247  19.501  67.789  1.00  0.00    -0.315 NA 
HETATM   19  C   UNL     1      -8.099  19.761  67.204  1.00  0.00    -0.292 A  
HETATM   20  C   UNL     1      -7.267  20.989  67.281  1.00  0.00    -0.363 C  
HETATM   21  C   UNL     1      -6.196  21.011  66.183  1.00  0.00    -0.302 C  
HETATM   22  C   UNL     1      -5.496  19.656  66.068  1.00  0.00    -0.166 C  
HETATM   23  C   UNL     1      -6.503  18.566  65.703  1.00  0.00    -0.284 C  
HETATM   24  N   UNL     1      -7.717  18.667  66.484  1.00  0.00    -0.249 NA 
ENDBRANCH  15  16
ENDBRANCH  14  15
ENDBRANCH  11  14
ENDBRANCH   7   8
TORSDOF 4
ENDMDL
MODEL       12
REMARK 921   NORMALIZED FREE ENERGY PREDICTED BY IDOCK:   -6.79 KCAL/MOL
REMARK 922        TOTAL FREE ENERGY PREDICTED BY IDOCK:   -8.63 KCAL/MOL
REMARK 923 INTER-LIGAND FREE ENERGY PREDICTED BY IDOCK:   -8.27 KCAL/MOL
REMARK 924 INTRA-LIGAND FREE ENERGY PREDICTED BY IDOCK:   -0.37 KCAL/MOL
REMARK 927      BINDING AFFINITY PREDICTED BY RF-SCORE:    0.00 PKD
ROOT
HETATM    1  C   UNL     1      -9.257   9.915  69.643  1.00  0.00    -0.246 C  
HETATM    2  C   UNL     1     -10.610  10.061  70.287  1.00  0.00    -0.354 A  
HETATM    3  C   UNL     1     -10.916   9.121  71.301  1.00  0.00    -0.400 A  
HETATM    4  C   UNL     1     -12.099   9.205  72.029  1.00  0.00    -0.431 A  
HETATM    5  C   UNL     1     -12.991  10.226  71.763  1.00  0.00    -0.574 A  
HETATM    6  C   UNL     1     -12.714  11.139  70.740  1.00  0.00    -0.388 A  
HETATM    7  C   UNL     1     -11.546  11.070  69.954  1.00  0.00    -0.337 A  
ENDROOT
BRANCH   7   8
HETATM    8  N   UNL     1     -11.433  11.934  68.874  1.00  0.00    -0.274 NA 
HETATM    9  C   UNL     1     -11.357  11.429  67.502  1.00  0.00    -0.292 C  
HETATM   10  C   UNL     1     -12.028  12.409  66.521  1.00  0.00    -0.252 C  
HETATM   11  N   UNL     1     -11.503  13.793  66.577  1.00  0.00    -0.334 NA 
HETATM   12  C   UNL     1     -11.053  13.350  69.069  1.00  0.00    -0.249 C  
HETATM   13  C   UNL     1     -11.681  14.258  67.976  1.00  0.00    -0.351 C  
BRANCH  11  14
HETATM   14  C   UNL     1     -10.080  13.898  66.172  1.00  0.00    -0.308 C  
BRANCH  14  15
HETATM   15  C   UNL     1      -9.714  15.313  65.714  1.00  0.00    -0.385 C  
BRANCH  15  16
HETATM   16  C   UNL     1      -9.108  16.154  66.775  1.00  0.00    -0.230 A  
HETATM   17  N   UNL     1      -8.195  15.840  67.670  1.00  0.00    -0.146 NA 
HETATM   18  N   UNL     1      -7.958  16.952  68.453  1.00  0.00    -0.221 NA 
HETATM   19  C   UNL     1      -8.732  17.922  68.019  1.00  0.00    -0.256 A  
HETATM   20  C   UNL     1      -8.858  19.314  68.523  1.00  0.00    -0.411 C  
HETATM   21  C   UNL     1     -10.112  20.000  67.967  1.00  0.00    -0.557 C  
HETATM   22  C   UNL     1     -10.261  19.745  66.467  1.00  0.00    -0.606 C  
HETATM   23  C   UNL     1     -10.400  18.248  66.192  1.00  0.00    -0.398 C  
HETATM   24  N   UNL     1      -9.442  17.469  66.945  1.00  0.00    -0.265 NA 
ENDBRANCH  15  16
ENDBRANCH  14  15
ENDBRANCH  11  14
ENDBRANCH   7   8
TORSDOF 4
ENDMDL
MODEL       13
REMARK 921   NORMALIZED FREE ENERGY PREDICTED BY IDOCK:   -6.76 KCAL/MOL
REMARK 922        TOTAL FREE ENERGY PREDICTED BY IDOCK:   -8.60 KCAL/MOL
REMARK 923 INTER-LIGAND FREE ENERGY PREDICTED BY IDOCK:   -7.96 KCAL/MOL
REMARK 924 INTRA-LIGAND FREE ENERGY PREDICTED BY IDOCK:   -0.64 KCAL/MOL
REMARK 927      BINDING AFFINITY PREDICTED BY RF-SCORE:    0.00 PKD
ROOT
HETATM    1  C   UNL     1     -12.281   6.781  71.054  1.00  0.00    -0.405 C  
HETATM    2  C   UNL     1     -11.085   7.298  71.809  1.00  0.00    -0.265 A  
HETATM    3  C   UNL     1     -10.668   6.516  72.913  1.00  0.00    -0.280 A  
HETATM    4  C   UNL     1      -9.524   6.843  73.637  1.00  0.00    -0.218 A  
HETATM    5  C   UNL     1      -8.779   7.948  73.270  1.00  0.00    -0.295 A  
HETATM    6  C   UNL     1      -9.202   8.745  72.202  1.00  0.00    -0.248 A  
HETATM    7  C   UNL     1     -10.373   8.472  71.465  1.00  0.00    -0.250 A  
ENDROOT
BRANCH   7   8
HETATM    8  N   UNL     1     -10.782   9.402  70.519  1.00  0.00    -0.252 NA 
HETATM    9  C   UNL     1     -10.004   9.637  69.301  1.00  0.00    -0.191 C  
HETATM   10  C   UNL     1     -10.928  10.002  68.124  1.00  0.00    -0.235 C  
HETATM   11  N   UNL     1     -11.824  11.154  68.380  1.00  0.00    -0.560 NA 
HETATM   12  C   UNL     1     -11.810  10.415  70.841  1.00  0.00    -0.377 C  
HETATM   13  C   UNL     1     -12.627  10.810  69.580  1.00  0.00     0.026 C  
BRANCH  11  14
HETATM   14  C   UNL     1     -11.095  12.429  68.589  1.00  0.00    -0.257 C  
BRANCH  14  15
HETATM   15  C   UNL     1     -12.012  13.647  68.447  1.00  0.00    -0.391 C  
BRANCH  15  16
HETATM   16  C   UNL     1     -11.709  14.747  69.394  1.00  0.00    -0.323 A  
HETATM   17  N   UNL     1     -10.946  15.807  69.226  1.00  0.00    -0.259 NA 
HETATM   18  N   UNL     1     -10.962  16.540  70.396  1.00  0.00    -0.242 NA 
HETATM   19  C   UNL     1     -11.735  15.911  71.254  1.00  0.00    -0.448 A  
HETATM   20  C   UNL     1     -12.079  16.285  72.650  1.00  0.00    -0.628 C  
HETATM   21  C   UNL     1     -12.720  15.112  73.403  1.00  0.00    -0.661 C  
HETATM   22  C   UNL     1     -13.780  14.419  72.545  1.00  0.00    -0.589 C  
HETATM   23  C   UNL     1     -13.149  13.855  71.272  1.00  0.00    -0.315 C  
HETATM   24  N   UNL     1     -12.250  14.802  70.649  1.00  0.00    -0.296 NA 
ENDBRANCH  15  16
ENDBRANCH  14  15
ENDBRANCH  11  14
ENDBRANCH   7   8
TORSDOF 4
ENDMDL
MODEL       14
REMARK 921   NORMALIZED FREE ENERGY PREDICTED BY IDOCK:   -6.75 KCAL/MOL
REMARK 922        TOTAL FREE ENERGY PREDICTED BY IDOCK:   -8.59 KCAL/MOL
REMARK 923 INTER-LIGAND FREE ENERGY PREDICTED BY IDOCK:   -8.10 KCAL/MOL
REMARK 924 INTRA-LIGAND FREE ENERGY PREDICTED BY IDOCK:   -0.50 KCAL/MOL
REMARK 927      BINDING AFFINITY PREDICTED BY RF-SCORE:    0.00 PKD
ROOT
HETATM    1  C   UNL     1      -7.977  17.644  68.703  1.00  0.00    -0.275 C  
HETATM    2  C   UNL     1      -8.950  18.276  67.744  1.00  0.00    -0.273 A  
HETATM    3  C   UNL     1      -8.875  19.685  67.627  1.00  0.00    -0.378 A  
HETATM    4  C   UNL     1      -9.663  20.376  66.710  1.00  0.00    -0.528 A  
HETATM    5  C   UNL     1     -10.531  19.675  65.895  1.00  0.00    -0.591 A  
HETATM    6  C   UNL     1     -10.638  18.287  66.027  1.00  0.00    -0.318 A  
HETATM    7  C   UNL     1      -9.886  17.552  66.967  1.00  0.00    -0.295 A  
ENDROOT
BRANCH   7   8
HETATM    8  N   UNL     1     -10.168  16.201  67.116  1.00  0.00    -0.275 NA 
HETATM    9  C   UNL     1     -11.091  15.728  68.149  1.00  0.00    -0.341 C  
HETATM   10  C   UNL     1     -11.855  14.479  67.669  1.00  0.00    -0.364 C  
HETATM   11  N   UNL     1     -10.989  13.364  67.218  1.00  0.00    -0.269 NA 
HETATM   12  C   UNL     1      -9.317  15.171  66.481  1.00  0.00    -0.280 C  
HETATM   13  C   UNL     1     -10.139  13.901  66.126  1.00  0.00    -0.308 C  
BRANCH  11  14
HETATM   14  C   UNL     1     -10.150  12.798  68.301  1.00  0.00    -0.237 C  
BRANCH  14  15
HETATM   15  C   UNL     1     -10.532  11.352  68.631  1.00  0.00    -0.224 C  
BRANCH  15  16
HETATM   16  C   UNL     1     -11.463  11.219  69.778  1.00  0.00    -0.310 A  
HETATM   17  N   UNL     1     -12.238  12.126  70.334  1.00  0.00    -0.330 NA 
HETATM   18  N   UNL     1     -12.913  11.533  71.382  1.00  0.00    -0.404 NA 
HETATM   19  C   UNL     1     -12.536  10.275  71.443  1.00  0.00    -0.424 A  
HETATM   20  C   UNL     1     -12.966   9.215  72.391  1.00  0.00    -0.468 C  
HETATM   21  C   UNL     1     -12.032   7.999  72.334  1.00  0.00    -0.405 C  
HETATM   22  C   UNL     1     -11.721   7.610  70.889  1.00  0.00    -0.291 C  
HETATM   23  C   UNL     1     -11.019   8.760  70.167  1.00  0.00    -0.223 C  
HETATM   24  N   UNL     1     -11.654  10.032  70.431  1.00  0.00    -0.284 NA 
ENDBRANCH  15  16
ENDBRANCH  14  15
ENDBRANCH  11  14
ENDBRANCH   7   8
TORSDOF 4
ENDMDL
MODEL       15
REMARK 921   NORMALIZED FREE ENERGY PREDICTED BY IDOCK:   -6.73 KCAL/MOL
REMARK 922        TOTAL FREE ENERGY PREDICTED BY IDOCK:   -8.56 KCAL/MOL
REMARK 923 INTER-LIGAND FREE ENERGY PREDICTED BY IDOCK:   -8.01 KCAL/MOL
REMARK 924 INTRA-LIGAND FREE ENERGY PREDICTED BY IDOCK:   -0.55 KCAL/MOL
REMARK 927      BINDING AFFINITY PREDICTED BY RF-SCORE:    0.00 PKD
ROOT
HETATM    1  C   UNL     1      -8.354  16.864  68.915  1.00  0.00    -0.208 C  
HETATM    2  C   UNL     1      -9.182  17.801  68.078  1.00  0.00    -0.273 A  
HETATM    3  C   UNL     1      -9.071  19.176  68.398  1.00  0.00    -0.405 A  
HETATM    4  C   UNL     1      -9.720  20.148  67.641  1.00  0.00    -0.551 A  
HETATM    5  C   UNL     1     -10.483  19.766  66.553  1.00  0.00    -0.615 A  
HETATM    6  C   UNL     1     -10.626  18.409  66.250  1.00  0.00    -0.343 A  
HETATM    7  C   UNL     1     -10.017  17.390  67.011  1.00  0.00    -0.295 A  
ENDROOT
BRANCH   7   8
HETATM    8  N   UNL     1     -10.336  16.072  66.713  1.00  0.00    -0.295 NA 
HETATM    9  C   UNL     1     -11.234  15.297  67.571  1.00  0.00    -0.317 C  
HETATM   10  C   UNL     1     -12.055  14.294  66.738  1.00  0.00    -0.417 C  
HETATM   11  N   UNL     1     -11.243  13.379  65.901  1.00  0.00    -0.298 NA 
HETATM   12  C   UNL     1      -9.543  15.300  65.732  1.00  0.00    -0.324 C  
HETATM   13  C   UNL     1     -10.418  14.237  65.013  1.00  0.00    -0.435 C  
BRANCH  11  14
HETATM   14  C   UNL     1     -10.382  12.469  66.693  1.00  0.00    -0.227 C  
BRANCH  14  15
HETATM   15  C   UNL     1     -11.110  11.179  67.081  1.00  0.00    -0.352 C  
BRANCH  15  16
HETATM   16  C   UNL     1     -11.428  11.075  68.526  1.00  0.00    -0.309 A  
HETATM   17  N   UNL     1     -12.067  11.924  69.304  1.00  0.00    -0.255 NA 
HETATM   18  N   UNL     1     -12.107  11.396  70.578  1.00  0.00    -0.379 NA 
HETATM   19  C   UNL     1     -11.492  10.235  70.552  1.00  0.00    -0.343 A  
HETATM   20  C   UNL     1     -11.261   9.274  71.661  1.00  0.00    -0.449 C  
HETATM   21  C   UNL     1     -10.210   8.222  71.282  1.00  0.00    -0.253 C  
HETATM   22  C   UNL     1     -10.459   7.675  69.876  1.00  0.00    -0.231 C  
HETATM   23  C   UNL     1     -10.373   8.800  68.844  1.00  0.00    -0.212 C  
HETATM   24  N   UNL     1     -11.084   9.984  69.274  1.00  0.00    -0.225 NA 
ENDBRANCH  15  16
ENDBRANCH  14  15
ENDBRANCH  11  14
ENDBRANCH   7   8
TORSDOF 4
ENDMDL
MODEL       16
REMARK 921   NORMALIZED FREE ENERGY PREDICTED BY IDOCK:   -6.71 KCAL/MOL
REMARK 922        TOTAL FREE ENERGY PREDICTED BY IDOCK:   -8.54 KCAL/MOL
REMARK 923 INTER-LIGAND FREE ENERGY PREDICTED BY IDOCK:   -7.77 KCAL/MOL
REMARK 924 INTRA-LIGAND FREE ENERGY PREDICTED BY IDOCK:   -0.77 KCAL/MOL
REMARK 927      BINDING AFFINITY PREDICTED BY RF-SCORE:    0.00 PKD
ROOT
HETATM    1  C   UNL     1     -12.003  11.494  70.570  1.00  0.00    -0.439 C  
HETATM    2  C   UNL     1     -12.551  12.845  70.946  1.00  0.00    -0.355 A  
HETATM    3  C   UNL     1     -13.489  12.857  72.007  1.00  0.00    -0.568 A  
HETATM    4  C   UNL     1     -14.001  14.052  72.503  1.00  0.00    -0.553 A  
HETATM    5  C   UNL     1     -13.585  15.251  71.955  1.00  0.00    -0.571 A  
HETATM    6  C   UNL     1     -12.685  15.248  70.885  1.00  0.00    -0.496 A  
HETATM    7  C   UNL     1     -12.169  14.059  70.327  1.00  0.00    -0.361 A  
ENDROOT
BRANCH   7   8
HETATM    8  N   UNL     1     -11.396  14.158  69.179  1.00  0.00    -0.265 NA 
HETATM    9  C   UNL     1     -10.093  14.826  69.197  1.00  0.00    -0.197 C  
HETATM   10  C   UNL     1      -9.126  14.164  68.197  1.00  0.00    -0.193 C  
HETATM   11  N   UNL     1      -9.635  14.089  66.806  1.00  0.00    -0.276 NA 
HETATM   12  C   UNL     1     -11.979  13.903  67.844  1.00  0.00    -0.358 C  
HETATM   13  C   UNL     1     -10.915  13.339  66.863  1.00  0.00    -0.283 C  
BRANCH  11  14
HETATM   14  C   UNL     1      -9.838  15.419  66.184  1.00  0.00    -0.311 C  
BRANCH  14  15
HETATM   15  C   UNL     1      -8.543  16.235  66.130  1.00  0.00    -0.342 C  
BRANCH  15  16
HETATM   16  C   UNL     1      -8.597  17.507  66.891  1.00  0.00    -0.247 A  
HETATM   17  N   UNL     1      -9.409  18.532  66.747  1.00  0.00    -0.288 NA 
HETATM   18  N   UNL     1      -9.065  19.490  67.678  1.00  0.00    -0.308 NA 
HETATM   19  C   UNL     1      -8.048  19.030  68.372  1.00  0.00    -0.346 A  
HETATM   20  C   UNL     1      -7.309  19.675  69.487  1.00  0.00    -0.159 C  
HETATM   21  C   UNL     1      -5.987  18.950  69.777  1.00  0.00    -0.276 C  
HETATM   22  C   UNL     1      -6.185  17.434  69.806  1.00  0.00    -0.195 C  
HETATM   23  C   UNL     1      -6.691  16.937  68.453  1.00  0.00    -0.164 C  
HETATM   24  N   UNL     1      -7.750  17.773  67.931  1.00  0.00    -0.220 NA 
ENDBRANCH  15  16
ENDBRANCH  14  15
ENDBRANCH  11  14
ENDBRANCH   7   8
TORSDOF 4
ENDMDL
MODEL       17
REMARK 921   NORMALIZED FREE ENERGY PREDICTED BY IDOCK:   -6.70 KCAL/MOL
REMARK 922        TOTAL FREE ENERGY PREDICTED BY IDOCK:   -8.53 KCAL/MOL
REMARK 923 INTER-LIGAND FREE ENERGY PREDICTED BY IDOCK:   -8.25 KCAL/MOL
REMARK 924 INTRA-LIGAND FREE ENERGY PREDICTED BY IDOCK:   -0.28 KCAL/MOL
REMARK 927      BINDING AFFINITY PREDICTED BY RF-SCORE:    0.00 PKD
ROOT
HETATM    1  C   UNL     1     -13.605  15.345  71.589  1.00  0.00    -0.603 C  
HETATM    2  C   UNL     1     -13.123  13.942  71.337  1.00  0.00    -0.413 A  
HETATM    3  C   UNL     1     -13.612  12.953  72.225  1.00  0.00    -0.611 A  
HETATM    4  C   UNL     1     -13.307  11.606  72.044  1.00  0.00    -0.405 A  
HETATM    5  C   UNL     1     -12.517  11.225  70.975  1.00  0.00    -0.503 A  
HETATM    6  C   UNL     1     -12.002  12.198  70.113  1.00  0.00    -0.394 A  
HETATM    7  C   UNL     1     -12.255  13.575  70.280  1.00  0.00    -0.347 A  
ENDROOT
BRANCH   7   8
HETATM    8  N   UNL     1     -11.583  14.468  69.457  1.00  0.00    -0.289 NA 
HETATM    9  C   UNL     1     -10.801  15.573  70.015  1.00  0.00    -0.318 C  
HETATM   10  C   UNL     1      -9.584  15.886  69.123  1.00  0.00    -0.253 C  
HETATM   11  N   UNL     1      -9.915  16.168  67.706  1.00  0.00    -0.234 NA 
HETATM   12  C   UNL     1     -11.889  14.550  68.012  1.00  0.00    -0.315 C  
HETATM   13  C   UNL     1     -10.639  14.976  67.195  1.00  0.00    -0.295 C  
BRANCH  11  14
HETATM   14  C   UNL     1     -10.734  17.391  67.527  1.00  0.00    -0.278 C  
BRANCH  14  15
HETATM   15  C   UNL     1     -10.084  18.618  68.171  1.00  0.00    -0.418 C  
BRANCH  15  16
HETATM   16  C   UNL     1      -9.073  19.287  67.316  1.00  0.00    -0.297 A  
HETATM   17  N   UNL     1      -9.146  19.624  66.045  1.00  0.00    -0.401 NA 
HETATM   18  N   UNL     1      -7.950  20.212  65.686  1.00  0.00    -0.168 NA 
HETATM   19  C   UNL     1      -7.172  20.222  66.745  1.00  0.00    -0.267 A  
HETATM   20  C   UNL     1      -5.787  20.741  66.883  1.00  0.00    -0.260 C  
HETATM   21  C   UNL     1      -5.128  20.245  68.177  1.00  0.00    -0.208 C  
HETATM   22  C   UNL     1      -6.082  20.371  69.365  1.00  0.00    -0.361 C  
HETATM   23  C   UNL     1      -7.333  19.525  69.136  1.00  0.00    -0.329 C  
HETATM   24  N   UNL     1      -7.856  19.682  67.796  1.00  0.00    -0.283 NA 
ENDBRANCH  15  16
ENDBRANCH  14  15
ENDBRANCH  11  14
ENDBRANCH   7   8
TORSDOF 4
ENDMDL
MODEL       18
REMARK 921   NORMALIZED FREE ENERGY PREDICTED BY IDOCK:   -6.69 KCAL/MOL
REMARK 922        TOTAL FREE ENERGY PREDICTED BY IDOCK:   -8.51 KCAL/MOL
REMARK 923 INTER-LIGAND FREE ENERGY PREDICTED BY IDOCK:   -8.57 KCAL/MOL
REMARK 924 INTRA-LIGAND FREE ENERGY PREDICTED BY IDOCK:    0.06 KCAL/MOL
REMARK 927      BINDING AFFINITY PREDICTED BY RF-SCORE:    0.00 PKD
ROOT
HETATM    1  C   UNL     1     -11.235  16.428  70.306  1.00  0.00    -0.259 C  
HETATM    2  C   UNL     1     -12.007  15.316  70.963  1.00  0.00    -0.395 A  
HETATM    3  C   UNL     1     -12.361  15.527  72.317  1.00  0.00    -0.482 A  
HETATM    4  C   UNL     1     -13.149  14.611  73.009  1.00  0.00    -0.616 A  
HETATM    5  C   UNL     1     -13.600  13.476  72.361  1.00  0.00    -0.709 A  
HETATM    6  C   UNL     1     -13.227  13.242  71.033  1.00  0.00    -0.055 A  
HETATM    7  C   UNL     1     -12.401  14.124  70.307  1.00  0.00    -0.356 A  
ENDROOT
BRANCH   7   8
HETATM    8  N   UNL     1     -11.975  13.732  69.046  1.00  0.00    -0.352 NA 
HETATM    9  C   UNL     1     -10.945  12.705  68.879  1.00  0.00    -0.229 C  
HETATM   10  C   UNL     1     -11.193  11.885  67.599  1.00  0.00    -0.276 C  
HETATM   11  N   UNL     1     -11.303  12.694  66.362  1.00  0.00    -0.313 NA 
HETATM   12  C   UNL     1     -12.283  14.546  67.850  1.00  0.00    -0.109 C  
HETATM   13  C   UNL     1     -12.411  13.658  66.582  1.00  0.00    -0.331 C  
BRANCH  11  14
HETATM   14  C   UNL     1     -10.051  13.410  66.016  1.00  0.00    -0.304 C  
BRANCH  14  15
HETATM   15  C   UNL     1     -10.205  14.262  64.753  1.00  0.00    -0.284 C  
BRANCH  15  16
HETATM   16  C   UNL     1     -10.420  15.705  65.020  1.00  0.00    -0.333 A  
HETATM   17  N   UNL     1     -11.336  16.516  64.534  1.00  0.00    -0.862 NA 
HETATM   18  N   UNL     1     -11.127  17.772  65.066  1.00  0.00    -0.601 NA 
HETATM   19  C   UNL     1     -10.087  17.702  65.867  1.00  0.00    -0.181 A  
HETATM   20  C   UNL     1      -9.456  18.775  66.677  1.00  0.00    -0.346 C  
HETATM   21  C   UNL     1      -8.073  18.353  67.189  1.00  0.00    -0.244 C  
HETATM   22  C   UNL     1      -8.103  16.931  67.750  1.00  0.00    -0.188 C  
HETATM   23  C   UNL     1      -8.512  15.937  66.662  1.00  0.00    -0.287 C  
HETATM   24  N   UNL     1      -9.639  16.413  65.891  1.00  0.00    -0.455 NA 
ENDBRANCH  15  16
ENDBRANCH  14  15
ENDBRANCH  11  14
ENDBRANCH   7   8
TORSDOF 4
ENDMDL
MODEL       19
REMARK 921   NORMALIZED FREE ENERGY PREDICTED BY IDOCK:   -6.69 KCAL/MOL
REMARK 922        TOTAL FREE ENERGY PREDICTED BY IDOCK:   -8.51 KCAL/MOL
REMARK 923 INTER-LIGAND FREE ENERGY PREDICTED BY IDOCK:   -8.39 KCAL/MOL
REMARK 924 INTRA-LIGAND FREE ENERGY PREDICTED BY IDOCK:   -0.12 KCAL/MOL
REMARK 927      BINDING AFFINITY PREDICTED BY RF-SCORE:    0.00 PKD
ROOT
HETATM    1  C   UNL     1      -7.042  17.144  66.234  1.00  0.00    -0.280 C  
HETATM    2  C   UNL     1      -8.286  17.949  66.497  1.00  0.00    -0.290 A  
HETATM    3  C   UNL     1      -8.093  19.338  66.690  1.00  0.00    -0.300 A  
HETATM    4  C   UNL     1      -9.173  20.201  66.856  1.00  0.00    -0.499 A  
HETATM    5  C   UNL     1     -10.459  19.694  66.828  1.00  0.00    -0.605 A  
HETATM    6  C   UNL     1     -10.658  18.318  66.673  1.00  0.00    -0.324 A  
HETATM    7  C   UNL     1      -9.593  17.405  66.538  1.00  0.00    -0.280 A  
ENDROOT
BRANCH   7   8
HETATM    8  N   UNL     1      -9.890  16.049  66.533  1.00  0.00    -0.252 NA 
HETATM    9  C   UNL     1     -11.074  15.535  65.841  1.00  0.00    -0.205 C  
HETATM   10  C   UNL     1     -10.807  14.129  65.273  1.00  0.00    -0.349 C  
HETATM   11  N   UNL     1     -10.339  13.140  66.273  1.00  0.00    -0.282 NA 
HETATM   12  C   UNL     1      -9.235  15.122  67.481  1.00  0.00    -0.186 C  
HETATM   13  C   UNL     1      -9.101  13.698  66.874  1.00  0.00    -0.240 C  
BRANCH  11  14
HETATM   14  C   UNL     1     -11.343  12.847  67.324  1.00  0.00    -0.310 C  
BRANCH  14  15
HETATM   15  C   UNL     1     -10.689  12.457  68.652  1.00  0.00    -0.260 C  
BRANCH  15  16
HETATM   16  C   UNL     1     -11.646  12.300  69.775  1.00  0.00    -0.243 A  
HETATM   17  N   UNL     1     -12.083  11.200  70.352  1.00  0.00    -0.356 NA 
HETATM   18  N   UNL     1     -12.973  11.558  71.344  1.00  0.00    -0.404 NA 
HETATM   19  C   UNL     1     -13.061  12.869  71.353  1.00  0.00    -0.242 A  
HETATM   20  C   UNL     1     -13.882  13.746  72.227  1.00  0.00    -0.679 C  
HETATM   21  C   UNL     1     -13.955  15.177  71.677  1.00  0.00    -0.618 C  
HETATM   22  C   UNL     1     -12.577  15.667  71.231  1.00  0.00    -0.523 C  
HETATM   23  C   UNL     1     -12.030  14.776  70.116  1.00  0.00    -0.312 C  
HETATM   24  N   UNL     1     -12.216  13.371  70.406  1.00  0.00    -0.356 NA 
ENDBRANCH  15  16
ENDBRANCH  14  15
ENDBRANCH  11  14
ENDBRANCH   7   8
TORSDOF 4
ENDMDL
MODEL       20
REMARK 921   NORMALIZED FREE ENERGY PREDICTED BY IDOCK:   -6.68 KCAL/MOL
REMARK 922        TOTAL FREE ENERGY PREDICTED BY IDOCK:   -8.50 KCAL/MOL
REMARK 923 INTER-LIGAND FREE ENERGY PREDICTED BY IDOCK:   -7.73 KCAL/MOL
REMARK 924 INTRA-LIGAND FREE ENERGY PREDICTED BY IDOCK:   -0.77 KCAL/MOL
REMARK 927      BINDING AFFINITY PREDICTED BY RF-SCORE:    0.00 PKD
ROOT
HETATM    1  C   UNL     1     -10.269  10.388  67.284  1.00  0.00    -0.258 C  
HETATM    2  C   UNL     1     -10.239  11.083  65.949  1.00  0.00    -0.309 A  
HETATM    3  C   UNL     1      -9.917  10.268  64.837  1.00  0.00    -0.393 A  
HETATM    4  C   UNL     1      -9.941  10.775  63.540  1.00  0.00    -0.403 A  
HETATM    5  C   UNL     1     -10.290  12.096  63.332  1.00  0.00    -0.438 A  
HETATM    6  C   UNL     1     -10.577  12.917  64.427  1.00  0.00    -0.418 A  
HETATM    7  C   UNL     1     -10.529  12.456  65.759  1.00  0.00    -0.259 A  
ENDROOT
BRANCH   7   8
HETATM    8  N   UNL     1     -10.691  13.383  66.778  1.00  0.00    -0.276 NA 
HETATM    9  C   UNL     1     -12.019  13.723  67.291  1.00  0.00    -0.401 C  
HETATM   10  C   UNL     1     -11.957  14.056  68.794  1.00  0.00    -0.347 C  
HETATM   11  N   UNL     1     -10.992  15.123  69.148  1.00  0.00    -0.246 NA 
HETATM   12  C   UNL     1      -9.593  14.299  67.156  1.00  0.00    -0.245 C  
HETATM   13  C   UNL     1      -9.663  14.673  68.662  1.00  0.00    -0.220 C  
BRANCH  11  14
HETATM   14  C   UNL     1     -11.338  16.443  68.568  1.00  0.00    -0.289 C  
BRANCH  14  15
HETATM   15  C   UNL     1     -10.396  17.550  69.051  1.00  0.00    -0.303 C  
BRANCH  15  16
HETATM   16  C   UNL     1     -10.004  18.514  67.994  1.00  0.00    -0.355 A  
HETATM   17  N   UNL     1     -10.722  19.450  67.410  1.00  0.00    -0.483 NA 
HETATM   18  N   UNL     1      -9.926  20.087  66.479  1.00  0.00    -0.450 NA 
HETATM   19  C   UNL     1      -8.738  19.526  66.515  1.00  0.00    -0.356 A  
HETATM   20  C   UNL     1      -7.530  19.844  65.712  1.00  0.00    -0.330 C  
HETATM   21  C   UNL     1      -6.476  18.734  65.820  1.00  0.00    -0.287 C  
HETATM   22  C   UNL     1      -6.297  18.283  67.270  1.00  0.00    -0.190 C  
HETATM   23  C   UNL     1      -7.609  17.724  67.820  1.00  0.00    -0.212 C  
HETATM   24  N   UNL     1      -8.739  18.560  67.479  1.00  0.00    -0.261 NA 
ENDBRANCH  15  16
ENDBRANCH  14  15
ENDBRANCH  11  14
ENDBRANCH   7   8
TORSDOF 4
ENDMDL
MODEL       21
REMARK 921   NORMALIZED FREE ENERGY PREDICTED BY IDOCK:   -6.66 KCAL/MOL
REMARK 922        TOTAL FREE ENERGY PREDICTED BY IDOCK:   -8.48 KCAL/MOL
REMARK 923 INTER-LIGAND FREE ENERGY PREDICTED BY IDOCK:   -8.35 KCAL/MOL
REMARK 924 INTRA-LIGAND FREE ENERGY PREDICTED BY IDOCK:   -0.13 KCAL/MOL
REMARK 927      BINDING AFFINITY PREDICTED BY RF-SCORE:    0.00 PKD
ROOT
HETATM    1  C   UNL     1     -13.405   9.870  70.841  1.00  0.00    -0.256 C  
HETATM    2  C   UNL     1     -12.007   9.471  71.233  1.00  0.00    -0.445 A  
HETATM    3  C   UNL     1     -11.905   8.568  72.318  1.00  0.00    -0.453 A  
HETATM    4  C   UNL     1     -10.672   8.058  72.719  1.00  0.00    -0.431 A  
HETATM    5  C   UNL     1      -9.527   8.436  72.043  1.00  0.00    -0.339 A  
HETATM    6  C   UNL     1      -9.615   9.354  70.992  1.00  0.00    -0.272 A  
HETATM    7  C   UNL     1     -10.836   9.922  70.577  1.00  0.00    -0.326 A  
ENDROOT
BRANCH   7   8
HETATM    8  N   UNL     1     -10.798  10.928  69.621  1.00  0.00    -0.239 NA 
HETATM    9  C   UNL     1      -9.768  10.947  68.581  1.00  0.00    -0.185 C  
HETATM   10  C   UNL     1     -10.321  11.546  67.274  1.00  0.00    -0.206 C  
HETATM   11  N   UNL     1     -10.915  12.897  67.420  1.00  0.00    -0.254 NA 
HETATM   12  C   UNL     1     -11.566  12.179  69.800  1.00  0.00    -0.262 C  
HETATM   13  C   UNL     1     -11.994  12.779  68.432  1.00  0.00    -0.231 C  
BRANCH  11  14
HETATM   14  C   UNL     1      -9.931  13.930  67.825  1.00  0.00    -0.241 C  
BRANCH  14  15
HETATM   15  C   UNL     1     -10.604  15.257  68.182  1.00  0.00    -0.254 C  
BRANCH  15  16
HETATM   16  C   UNL     1     -10.633  16.240  67.072  1.00  0.00    -0.284 A  
HETATM   17  N   UNL     1     -10.849  16.044  65.788  1.00  0.00    -0.275 NA 
HETATM   18  N   UNL     1     -10.764  17.262  65.144  1.00  0.00    -0.651 NA 
HETATM   19  C   UNL     1     -10.497  18.177  66.049  1.00  0.00    -0.335 A  
HETATM   20  C   UNL     1     -10.306  19.639  65.871  1.00  0.00    -0.584 C  
HETATM   21  C   UNL     1      -9.673  20.277  67.115  1.00  0.00    -0.592 C  
HETATM   22  C   UNL     1     -10.343  19.774  68.394  1.00  0.00    -0.513 C  
HETATM   23  C   UNL     1     -10.176  18.260  68.522  1.00  0.00    -0.379 C  
HETATM   24  N   UNL     1     -10.443  17.579  67.275  1.00  0.00    -0.342 NA 
ENDBRANCH  15  16
ENDBRANCH  14  15
ENDBRANCH  11  14
ENDBRANCH   7   8
TORSDOF 4
ENDMDL
MODEL       22
REMARK 921   NORMALIZED FREE ENERGY PREDICTED BY IDOCK:   -6.63 KCAL/MOL
REMARK 922        TOTAL FREE ENERGY PREDICTED BY IDOCK:   -8.44 KCAL/MOL
REMARK 923 INTER-LIGAND FREE ENERGY PREDICTED BY IDOCK:   -7.95 KCAL/MOL
REMARK 924 INTRA-LIGAND FREE ENERGY PREDICTED BY IDOCK:   -0.48 KCAL/MOL
REMARK 927      BINDING AFFINITY PREDICTED BY RF-SCORE:    0.00 PKD
ROOT
HETATM    1  C   UNL     1     -10.782  19.508  66.795  1.00  0.00    -0.569 C  
HETATM    2  C   UNL     1      -9.405  19.240  67.341  1.00  0.00    -0.368 A  
HETATM    3  C   UNL     1      -8.469  20.293  67.199  1.00  0.00    -0.407 A  
HETATM    4  C   UNL     1      -7.190  20.198  67.740  1.00  0.00    -0.329 A  
HETATM    5  C   UNL     1      -6.826  19.059  68.432  1.00  0.00    -0.283 A  
HETATM    6  C   UNL     1      -7.732  18.000  68.548  1.00  0.00    -0.308 A  
HETATM    7  C   UNL     1      -9.024  18.038  67.985  1.00  0.00    -0.272 A  
ENDROOT
BRANCH   7   8
HETATM    8  N   UNL     1      -9.793  16.883  68.033  1.00  0.00    -0.257 NA 
HETATM    9  C   UNL     1     -10.503  16.495  69.253  1.00  0.00    -0.326 C  
HETATM   10  C   UNL     1     -11.820  15.772  68.913  1.00  0.00    -0.341 C  
HETATM   11  N   UNL     1     -11.664  14.596  68.025  1.00  0.00    -0.344 NA 
HETATM   12  C   UNL     1      -9.665  15.839  66.994  1.00  0.00    -0.228 C  
HETATM   13  C   UNL     1     -11.006  15.083  66.786  1.00  0.00    -0.323 C  
BRANCH  11  14
HETATM   14  C   UNL     1     -10.875  13.499  68.637  1.00  0.00    -0.259 C  
BRANCH  14  15
HETATM   15  C   UNL     1     -11.583  12.147  68.522  1.00  0.00    -0.366 C  
BRANCH  15  16
HETATM   16  C   UNL     1     -10.934  11.056  69.290  1.00  0.00    -0.252 A  
HETATM   17  N   UNL     1      -9.710  10.583  69.197  1.00  0.00    -0.212 NA 
HETATM   18  N   UNL     1      -9.571   9.560  70.113  1.00  0.00    -0.233 NA 
HETATM   19  C   UNL     1     -10.715   9.430  70.746  1.00  0.00    -0.305 A  
HETATM   20  C   UNL     1     -11.085   8.473  71.821  1.00  0.00    -0.378 C  
HETATM   21  C   UNL     1     -12.604   8.427  72.033  1.00  0.00    -0.400 C  
HETATM   22  C   UNL     1     -13.199   9.835  72.066  1.00  0.00    -0.557 C  
HETATM   23  C   UNL     1     -12.944  10.552  70.740  1.00  0.00    -0.330 C  
HETATM   24  N   UNL     1     -11.583  10.375  70.282  1.00  0.00    -0.303 NA 
ENDBRANCH  15  16
ENDBRANCH  14  15
ENDBRANCH  11  14
ENDBRANCH   7   8
TORSDOF 4
ENDMDL
MODEL       23
REMARK 921   NORMALIZED FREE ENERGY PREDICTED BY IDOCK:   -6.61 KCAL/MOL
REMARK 922        TOTAL FREE ENERGY PREDICTED BY IDOCK:   -8.42 KCAL/MOL
REMARK 923 INTER-LIGAND FREE ENERGY PREDICTED BY IDOCK:   -7.95 KCAL/MOL
REMARK 924 INTRA-LIGAND FREE ENERGY PREDICTED BY IDOCK:   -0.47 KCAL/MOL
REMARK 927      BINDING AFFINITY PREDICTED BY RF-SCORE:    0.00 PKD
ROOT
HETATM    1  C   UNL     1     -13.430  14.834  71.661  1.00  0.00    -0.468 C  
HETATM    2  C   UNL     1     -12.883  13.505  71.213  1.00  0.00    -0.420 A  
HETATM    3  C   UNL     1     -13.298  12.381  71.969  1.00  0.00    -0.511 A  
HETATM    4  C   UNL     1     -12.930  11.089  71.602  1.00  0.00    -0.561 A  
HETATM    5  C   UNL     1     -12.149  10.898  70.478  1.00  0.00    -0.464 A  
HETATM    6  C   UNL     1     -11.706  12.004  69.745  1.00  0.00    -0.390 A  
HETATM    7  C   UNL     1     -12.025  13.330  70.101  1.00  0.00    -0.318 A  
ENDROOT
BRANCH   7   8
HETATM    8  N   UNL     1     -11.420  14.360  69.394  1.00  0.00    -0.273 NA 
HETATM    9  C   UNL     1     -10.416  15.223  70.019  1.00  0.00    -0.247 C  
HETATM   10  C   UNL     1      -9.365  15.675  68.988  1.00  0.00    -0.243 C  
HETATM   11  N   UNL     1      -9.926  16.342  67.789  1.00  0.00    -0.244 NA 
HETATM   12  C   UNL     1     -11.987  14.841  68.115  1.00  0.00    -0.230 C  
HETATM   13  C   UNL     1     -10.875  15.380  67.173  1.00  0.00    -0.321 C  
BRANCH  11  14
HETATM   14  C   UNL     1     -10.608  17.622  68.096  1.00  0.00    -0.356 C  
BRANCH  14  15
HETATM   15  C   UNL     1      -9.971  18.805  67.362  1.00  0.00    -0.378 C  
BRANCH  15  16
HETATM   16  C   UNL     1      -8.686  19.260  67.947  1.00  0.00    -0.313 A  
HETATM   17  N   UNL     1      -8.292  19.254  69.203  1.00  0.00    -0.223 NA 
HETATM   18  N   UNL     1      -7.021  19.788  69.260  1.00  0.00    -0.337 NA 
HETATM   19  C   UNL     1      -6.665  20.109  68.036  1.00  0.00    -0.286 A  
HETATM   20  C   UNL     1      -5.395  20.717  67.561  1.00  0.00    -0.247 C  
HETATM   21  C   UNL     1      -5.528  21.242  66.125  1.00  0.00    -0.276 C  
HETATM   22  C   UNL     1      -6.236  20.225  65.229  1.00  0.00    -0.290 C  
HETATM   23  C   UNL     1      -7.647  19.950  65.748  1.00  0.00    -0.297 C  
HETATM   24  N   UNL     1      -7.669  19.759  67.181  1.00  0.00    -0.255 NA 
ENDBRANCH  15  16
ENDBRANCH  14  15
ENDBRANCH  11  14
ENDBRANCH   7   8
TORSDOF 4
ENDMDL
MODEL       24
REMARK 921   NORMALIZED FREE ENERGY PREDICTED BY IDOCK:   -6.60 KCAL/MOL
REMARK 922        TOTAL FREE ENERGY PREDICTED BY IDOCK:   -8.40 KCAL/MOL
REMARK 923 INTER-LIGAND FREE ENERGY PREDICTED BY IDOCK:   -7.84 KCAL/MOL
REMARK 924 INTRA-LIGAND FREE ENERGY PREDICTED BY IDOCK:   -0.56 KCAL/MOL
REMARK 927      BINDING AFFINITY PREDICTED BY RF-SCORE:    0.00 PKD
ROOT
HETATM    1  C   UNL     1     -10.854  19.457  67.109  1.00  0.00    -0.561 C  
HETATM    2  C   UNL     1      -9.457  19.118  67.556  1.00  0.00    -0.365 A  
HETATM    3  C   UNL     1      -8.479  20.119  67.338  1.00  0.00    -0.398 A  
HETATM    4  C   UNL     1      -7.170  19.958  67.785  1.00  0.00    -0.313 A  
HETATM    5  C   UNL     1      -6.818  18.804  68.458  1.00  0.00    -0.285 A  
HETATM    6  C   UNL     1      -7.768  17.795  68.648  1.00  0.00    -0.283 A  
HETATM    7  C   UNL     1      -9.094  17.900  68.180  1.00  0.00    -0.278 A  
ENDROOT
BRANCH   7   8
HETATM    8  N   UNL     1      -9.917  16.788  68.293  1.00  0.00    -0.261 NA 
HETATM    9  C   UNL     1     -10.367  16.307  69.601  1.00  0.00    -0.261 C  
HETATM   10  C   UNL     1     -11.777  15.695  69.503  1.00  0.00    -0.370 C  
HETATM   11  N   UNL     1     -11.910  14.615  68.496  1.00  0.00    -0.326 NA 
HETATM   12  C   UNL     1     -10.101  15.858  67.158  1.00  0.00    -0.264 C  
HETATM   13  C   UNL     1     -11.508  15.200  67.192  1.00  0.00    -0.250 C  
BRANCH  11  14
HETATM   14  C   UNL     1     -11.090  13.419  68.806  1.00  0.00    -0.262 C  
BRANCH  14  15
HETATM   15  C   UNL     1     -11.756  12.125  68.333  1.00  0.00    -0.388 C  
BRANCH  15  16
HETATM   16  C   UNL     1     -10.934  11.331  67.388  1.00  0.00    -0.282 A  
HETATM   17  N   UNL     1     -10.040  10.398  67.639  1.00  0.00    -0.180 NA 
HETATM   18  N   UNL     1      -9.528   9.955  66.436  1.00  0.00    -0.173 NA 
HETATM   19  C   UNL     1     -10.121  10.628  65.475  1.00  0.00    -0.280 A  
HETATM   20  C   UNL     1      -9.923  10.529  64.006  1.00  0.00    -0.363 C  
HETATM   21  C   UNL     1     -10.550  11.723  63.274  1.00  0.00    -0.427 C  
HETATM   22  C   UNL     1     -11.951  12.025  63.809  1.00  0.00    -0.588 C  
HETATM   23  C   UNL     1     -11.889  12.380  65.294  1.00  0.00    -0.399 C  
HETATM   24  N   UNL     1     -11.035  11.475  66.032  1.00  0.00    -0.284 NA 
ENDBRANCH  15  16
ENDBRANCH  14  15
ENDBRANCH  11  14
ENDBRANCH   7   8
TORSDOF 4
ENDMDL
MODEL       25
REMARK 921   NORMALIZED FREE ENERGY PREDICTED BY IDOCK:   -6.58 KCAL/MOL
REMARK 922        TOTAL FREE ENERGY PREDICTED BY IDOCK:   -8.38 KCAL/MOL
REMARK 923 INTER-LIGAND FREE ENERGY PREDICTED BY IDOCK:   -7.87 KCAL/MOL
REMARK 924 INTRA-LIGAND FREE ENERGY PREDICTED BY IDOCK:   -0.52 KCAL/MOL
REMARK 927      BINDING AFFINITY PREDICTED BY RF-SCORE:    0.00 PKD
ROOT
HETATM    1  C   UNL     1     -10.675   3.825  73.456  1.00  0.00    -0.304 C  
HETATM    2  C   UNL     1     -10.159   3.733  72.045  1.00  0.00    -0.209 A  
HETATM    3  C   UNL     1      -9.608   2.484  71.670  1.00  0.00    -0.217 A  
HETATM    4  C   UNL     1      -9.176   2.248  70.367  1.00  0.00    -0.189 A  
HETATM    5  C   UNL     1      -9.293   3.248  69.420  1.00  0.00    -0.232 A  
HETATM    6  C   UNL     1      -9.806   4.496  69.789  1.00  0.00    -0.295 A  
HETATM    7  C   UNL     1     -10.219   4.790  71.105  1.00  0.00    -0.158 A  
ENDROOT
BRANCH   7   8
HETATM    8  N   UNL     1     -10.579   6.098  71.400  1.00  0.00    -0.235 NA 
HETATM    9  C   UNL     1     -11.893   6.625  71.029  1.00  0.00    -0.372 C  
HETATM   10  C   UNL     1     -12.379   7.658  72.064  1.00  0.00    -0.280 C  
HETATM   11  N   UNL     1     -11.437   8.777  72.305  1.00  0.00    -0.351 NA 
HETATM   12  C   UNL     1      -9.561   7.098  71.788  1.00  0.00    -0.151 C  
HETATM   13  C   UNL     1     -10.157   8.166  72.745  1.00  0.00    -0.297 C  
BRANCH  11  14
HETATM   14  C   UNL     1     -11.223   9.632  71.113  1.00  0.00    -0.384 C  
BRANCH  14  15
HETATM   15  C   UNL     1     -12.460  10.468  70.774  1.00  0.00    -0.472 C  
BRANCH  15  16
HETATM   16  C   UNL     1     -12.153  11.840  70.301  1.00  0.00    -0.342 A  
HETATM   17  N   UNL     1     -11.425  12.225  69.274  1.00  0.00    -0.281 NA 
HETATM   18  N   UNL     1     -11.419  13.605  69.243  1.00  0.00    -0.276 NA 
HETATM   19  C   UNL     1     -12.144  14.033  70.253  1.00  0.00    -0.355 A  
HETATM   20  C   UNL     1     -12.448  15.429  70.659  1.00  0.00    -0.478 C  
HETATM   21  C   UNL     1     -13.030  15.486  72.078  1.00  0.00    -0.517 C  
HETATM   22  C   UNL     1     -14.100  14.413  72.278  1.00  0.00    -0.609 C  
HETATM   23  C   UNL     1     -13.501  13.020  72.086  1.00  0.00    -0.542 C  
HETATM   24  N   UNL     1     -12.649  12.954  70.918  1.00  0.00    -0.320 NA 
ENDBRANCH  15  16
ENDBRANCH  14  15
ENDBRANCH  11  14
ENDBRANCH   7   8
TORSDOF 4
ENDMDL
MODEL       26
REMARK 921   NORMALIZED FREE ENERGY PREDICTED BY IDOCK:   -6.57 KCAL/MOL
REMARK 922        TOTAL FREE ENERGY PREDICTED BY IDOCK:   -8.37 KCAL/MOL
REMARK 923 INTER-LIGAND FREE ENERGY PREDICTED BY IDOCK:   -8.76 KCAL/MOL
REMARK 924 INTRA-LIGAND FREE ENERGY PREDICTED BY IDOCK:    0.39 KCAL/MOL
REMARK 927      BINDING AFFINITY PREDICTED BY RF-SCORE:    0.00 PKD
ROOT
HETATM    1  C   UNL     1     -12.052  14.952  64.207  1.00  0.00    -0.373 C  
HETATM    2  C   UNL     1     -11.467  13.592  64.477  1.00  0.00    -0.407 A  
HETATM    3  C   UNL     1     -11.672  12.620  63.468  1.00  0.00    -0.604 A  
HETATM    4  C   UNL     1     -11.106  11.351  63.562  1.00  0.00    -0.373 A  
HETATM    5  C   UNL     1     -10.325  11.034  64.657  1.00  0.00    -0.410 A  
HETATM    6  C   UNL     1     -10.144  11.976  65.675  1.00  0.00    -0.272 A  
HETATM    7  C   UNL     1     -10.729  13.259  65.639  1.00  0.00    -0.282 A  
ENDROOT
BRANCH   7   8
HETATM    8  N   UNL     1     -10.606  14.065  66.762  1.00  0.00    -0.276 NA 
HETATM    9  C   UNL     1      -9.453  13.950  67.656  1.00  0.00    -0.212 C  
HETATM   10  C   UNL     1      -9.093  15.319  68.264  1.00  0.00    -0.181 C  
HETATM   11  N   UNL     1     -10.211  15.993  68.967  1.00  0.00    -0.222 NA 
HETATM   12  C   UNL     1     -11.763  14.824  67.284  1.00  0.00    -0.347 C  
HETATM   13  C   UNL     1     -11.308  16.138  67.978  1.00  0.00    -0.234 C  
BRANCH  11  14
HETATM   14  C   UNL     1     -10.682  15.254  70.163  1.00  0.00    -0.271 C  
BRANCH  14  15
HETATM   15  C   UNL     1     -12.192  15.397  70.370  1.00  0.00    -0.430 C  
BRANCH  15  16
HETATM   16  C   UNL     1     -12.798  14.311  71.178  1.00  0.00    -0.359 A  
HETATM   17  N   UNL     1     -13.590  14.392  72.227  1.00  0.00    -0.411 NA 
HETATM   18  N   UNL     1     -13.885  13.110  72.645  1.00  0.00    -0.668 NA 
HETATM   19  C   UNL     1     -13.267  12.273  71.843  1.00  0.00    -0.376 A  
HETATM   20  C   UNL     1     -13.260  10.788  71.868  1.00  0.00    -0.524 C  
HETATM   21  C   UNL     1     -12.144  10.217  70.982  1.00  0.00    -0.487 C  
HETATM   22  C   UNL     1     -12.095  10.930  69.630  1.00  0.00    -0.400 C  
HETATM   23  C   UNL     1     -11.809  12.419  69.823  1.00  0.00    -0.317 C  
HETATM   24  N   UNL     1     -12.604  12.989  70.889  1.00  0.00    -0.323 NA 
ENDBRANCH  15  16
ENDBRANCH  14  15
ENDBRANCH  11  14
ENDBRANCH   7   8
TORSDOF 4
ENDMDL
MODEL       27
REMARK 921   NORMALIZED FREE ENERGY PREDICTED BY IDOCK:   -6.56 KCAL/MOL
REMARK 922        TOTAL FREE ENERGY PREDICTED BY IDOCK:   -8.36 KCAL/MOL
REMARK 923 INTER-LIGAND FREE ENERGY PREDICTED BY IDOCK:   -7.89 KCAL/MOL
REMARK 924 INTRA-LIGAND FREE ENERGY PREDICTED BY IDOCK:   -0.47 KCAL/MOL
REMARK 927      BINDING AFFINITY PREDICTED BY RF-SCORE:    0.00 PKD
ROOT
HETATM    1  C   UNL     1     -10.978   4.345  73.696  1.00  0.00    -0.374 C  
HETATM    2  C   UNL     1     -10.394   4.043  72.342  1.00  0.00    -0.207 A  
HETATM    3  C   UNL     1      -9.919   2.722  72.157  1.00  0.00    -0.238 A  
HETATM    4  C   UNL     1      -9.435   2.295  70.922  1.00  0.00    -0.212 A  
HETATM    5  C   UNL     1      -9.423   3.175  69.856  1.00  0.00    -0.203 A  
HETATM    6  C   UNL     1      -9.859   4.491  70.038  1.00  0.00    -0.296 A  
HETATM    7  C   UNL     1     -10.321   4.975  71.279  1.00  0.00    -0.185 A  
ENDROOT
BRANCH   7   8
HETATM    8  N   UNL     1     -10.596   6.331  71.390  1.00  0.00    -0.229 NA 
HETATM    9  C   UNL     1     -11.922   6.865  71.074  1.00  0.00    -0.374 C  
HETATM   10  C   UNL     1     -12.251   8.075  71.969  1.00  0.00    -0.331 C  
HETATM   11  N   UNL     1     -11.247   9.164  71.926  1.00  0.00    -0.370 NA 
HETATM   12  C   UNL     1      -9.504   7.322  71.503  1.00  0.00    -0.152 C  
HETATM   13  C   UNL     1      -9.950   8.561  72.328  1.00  0.00    -0.315 C  
BRANCH  11  14
HETATM   14  C   UNL     1     -11.132   9.805  70.594  1.00  0.00    -0.332 C  
BRANCH  14  15
HETATM   15  C   UNL     1     -11.958  11.090  70.501  1.00  0.00    -0.474 C  
BRANCH  15  16
HETATM   16  C   UNL     1     -11.925  11.735  69.165  1.00  0.00    -0.293 A  
HETATM   17  N   UNL     1     -11.999  11.187  67.971  1.00  0.00    -0.632 NA 
HETATM   18  N   UNL     1     -11.912  12.191  67.028  1.00  0.00    -0.598 NA 
HETATM   19  C   UNL     1     -11.788  13.333  67.668  1.00  0.00    -0.357 A  
HETATM   20  C   UNL     1     -11.657  14.705  67.113  1.00  0.00    -0.394 C  
HETATM   21  C   UNL     1     -11.189  15.700  68.184  1.00  0.00    -0.345 C  
HETATM   22  C   UNL     1     -11.958  15.506  69.491  1.00  0.00    -0.372 C  
HETATM   23  C   UNL     1     -11.726  14.099  70.042  1.00  0.00    -0.291 C  
HETATM   24  N   UNL     1     -11.828  13.090  69.010  1.00  0.00    -0.317 NA 
ENDBRANCH  15  16
ENDBRANCH  14  15
ENDBRANCH  11  14
ENDBRANCH   7   8
TORSDOF 4
ENDMDL
MODEL       28
REMARK 921   NORMALIZED FREE ENERGY PREDICTED BY IDOCK:   -6.52 KCAL/MOL
REMARK 922        TOTAL FREE ENERGY PREDICTED BY IDOCK:   -8.31 KCAL/MOL
REMARK 923 INTER-LIGAND FREE ENERGY PREDICTED BY IDOCK:   -7.79 KCAL/MOL
REMARK 924 INTRA-LIGAND FREE ENERGY PREDICTED BY IDOCK:   -0.52 KCAL/MOL
REMARK 927      BINDING AFFINITY PREDICTED BY RF-SCORE:    0.00 PKD
ROOT
HETATM    1  C   UNL     1      -9.760   9.832  66.638  1.00  0.00    -0.257 C  
HETATM    2  C   UNL     1      -9.576  10.141  65.176  1.00  0.00    -0.354 A  
HETATM    3  C   UNL     1      -8.903   9.153  64.417  1.00  0.00    -0.156 A  
HETATM    4  C   UNL     1      -8.747   9.283  63.040  1.00  0.00    -0.203 A  
HETATM    5  C   UNL     1      -9.264  10.394  62.399  1.00  0.00    -0.304 A  
HETATM    6  C   UNL     1      -9.901  11.390  63.145  1.00  0.00    -0.413 A  
HETATM    7  C   UNL     1     -10.047  11.317  64.545  1.00  0.00    -0.295 A  
ENDROOT
BRANCH   7   8
HETATM    8  N   UNL     1     -10.566  12.421  65.207  1.00  0.00    -0.281 NA 
HETATM    9  C   UNL     1      -9.689  13.411  65.834  1.00  0.00    -0.182 C  
HETATM   10  C   UNL     1     -10.314  14.818  65.763  1.00  0.00    -0.340 C  
HETATM   11  N   UNL     1     -11.676  14.915  66.339  1.00  0.00    -0.256 NA 
HETATM   12  C   UNL     1     -11.992  12.476  65.595  1.00  0.00    -0.433 C  
HETATM   13  C   UNL     1     -12.518  13.938  65.605  1.00  0.00    -0.505 C  
BRANCH  11  14
HETATM   14  C   UNL     1     -11.717  14.647  67.797  1.00  0.00    -0.359 C  
BRANCH  14  15
HETATM   15  C   UNL     1     -11.584  15.929  68.623  1.00  0.00    -0.383 C  
BRANCH  15  16
HETATM   16  C   UNL     1     -10.226  16.526  68.599  1.00  0.00    -0.264 A  
HETATM   17  N   UNL     1      -9.093  16.044  69.066  1.00  0.00    -0.230 NA 
HETATM   18  N   UNL     1      -8.098  16.968  68.821  1.00  0.00    -0.260 NA 
HETATM   19  C   UNL     1      -8.643  17.995  68.210  1.00  0.00    -0.287 A  
HETATM   20  C   UNL     1      -8.003  19.249  67.736  1.00  0.00    -0.312 C  
HETATM   21  C   UNL     1      -9.048  20.319  67.397  1.00  0.00    -0.483 C  
HETATM   22  C   UNL     1     -10.199  19.728  66.582  1.00  0.00    -0.595 C  
HETATM   23  C   UNL     1     -10.908  18.633  67.379  1.00  0.00    -0.324 C  
HETATM   24  N   UNL     1      -9.970  17.739  68.022  1.00  0.00    -0.315 NA 
ENDBRANCH  15  16
ENDBRANCH  14  15
ENDBRANCH  11  14
ENDBRANCH   7   8
TORSDOF 4
ENDMDL
MODEL       29
REMARK 921   NORMALIZED FREE ENERGY PREDICTED BY IDOCK:   -6.49 KCAL/MOL
REMARK 922        TOTAL FREE ENERGY PREDICTED BY IDOCK:   -8.26 KCAL/MOL
REMARK 923 INTER-LIGAND FREE ENERGY PREDICTED BY IDOCK:   -7.73 KCAL/MOL
REMARK 924 INTRA-LIGAND FREE ENERGY PREDICTED BY IDOCK:   -0.53 KCAL/MOL
REMARK 927      BINDING AFFINITY PREDICTED BY RF-SCORE:    0.00 PKD
ROOT
HETATM    1  C   UNL     1     -12.856  11.011  70.720  1.00  0.00    -0.354 C  
HETATM    2  C   UNL     1     -11.498  10.382  70.562  1.00  0.00    -0.431 A  
HETATM    3  C   UNL     1     -11.139   9.433  71.550  1.00  0.00    -0.446 A  
HETATM    4  C   UNL     1      -9.946   8.720  71.466  1.00  0.00    -0.370 A  
HETATM    5  C   UNL     1      -9.097   8.937  70.397  1.00  0.00    -0.217 A  
HETATM    6  C   UNL     1      -9.427   9.897  69.435  1.00  0.00    -0.226 A  
HETATM    7  C   UNL     1     -10.606  10.667  69.500  1.00  0.00    -0.230 A  
ENDROOT
BRANCH   7   8
HETATM    8  N   UNL     1     -10.771  11.689  68.576  1.00  0.00    -0.208 NA 
HETATM    9  C   UNL     1     -10.981  11.401  67.156  1.00  0.00    -0.285 C  
HETATM   10  C   UNL     1     -11.893  12.463  66.512  1.00  0.00    -0.339 C  
HETATM   11  N   UNL     1     -11.425  13.859  66.679  1.00  0.00    -0.340 NA 
HETATM   12  C   UNL     1     -10.416  13.085  68.913  1.00  0.00    -0.084 C  
HETATM   13  C   UNL     1     -11.308  14.096  68.140  1.00  0.00    -0.290 C  
BRANCH  11  14
HETATM   14  C   UNL     1     -10.134  14.131  66.003  1.00  0.00    -0.316 C  
BRANCH  14  15
HETATM   15  C   UNL     1     -10.087  15.533  65.390  1.00  0.00    -0.387 C  
BRANCH  15  16
HETATM   16  C   UNL     1      -9.141  16.456  66.063  1.00  0.00    -0.282 A  
HETATM   17  N   UNL     1      -7.933  16.220  66.529  1.00  0.00    -0.288 NA 
HETATM   18  N   UNL     1      -7.447  17.388  67.081  1.00  0.00    -0.184 NA 
HETATM   19  C   UNL     1      -8.369  18.314  66.940  1.00  0.00    -0.245 A  
HETATM   20  C   UNL     1      -8.339  19.737  67.365  1.00  0.00    -0.348 C  
HETATM   21  C   UNL     1      -9.738  20.365  67.323  1.00  0.00    -0.602 C  
HETATM   22  C   UNL     1     -10.467  20.001  66.029  1.00  0.00    -0.523 C  
HETATM   23  C   UNL     1     -10.643  18.486  65.925  1.00  0.00    -0.300 C  
HETATM   24  N   UNL     1      -9.432  17.776  66.273  1.00  0.00    -0.437 NA 
ENDBRANCH  15  16
ENDBRANCH  14  15
ENDBRANCH  11  14
ENDBRANCH   7   8
TORSDOF 4
ENDMDL
MODEL       30
REMARK 921   NORMALIZED FREE ENERGY PREDICTED BY IDOCK:   -6.48 KCAL/MOL
REMARK 922        TOTAL FREE ENERGY PREDICTED BY IDOCK:   -8.26 KCAL/MOL
REMARK 923 INTER-LIGAND FREE ENERGY PREDICTED BY IDOCK:   -7.80 KCAL/MOL
REMARK 924 INTRA-LIGAND FREE ENERGY PREDICTED BY IDOCK:   -0.46 KCAL/MOL
REMARK 927      BINDING AFFINITY PREDICTED BY RF-SCORE:    0.00 PKD
ROOT
HETATM    1  C   UNL     1     -11.053  12.402  63.378  1.00  0.00    -0.465 C  
HETATM    2  C   UNL     1     -10.062  11.315  63.700  1.00  0.00    -0.432 A  
HETATM    3  C   UNL     1      -9.710  10.463  62.626  1.00  0.00    -0.191 A  
HETATM    4  C   UNL     1      -8.740   9.475  62.776  1.00  0.00    -0.232 A  
HETATM    5  C   UNL     1      -8.105   9.325  63.994  1.00  0.00    -0.150 A  
HETATM    6  C   UNL     1      -8.470  10.140  65.071  1.00  0.00    -0.169 A  
HETATM    7  C   UNL     1      -9.471  11.128  64.973  1.00  0.00    -0.227 A  
ENDROOT
BRANCH   7   8
HETATM    8  N   UNL     1      -9.857  11.784  66.133  1.00  0.00    -0.222 NA 
HETATM    9  C   UNL     1     -11.196  11.604  66.697  1.00  0.00    -0.299 C  
HETATM   10  C   UNL     1     -11.159  11.698  68.234  1.00  0.00    -0.234 C  
HETATM   11  N   UNL     1     -10.554  12.944  68.761  1.00  0.00    -0.225 NA 
HETATM   12  C   UNL     1      -9.078  12.927  66.657  1.00  0.00    -0.177 C  
HETATM   13  C   UNL     1      -9.179  13.016  68.205  1.00  0.00    -0.212 C  
BRANCH  11  14
HETATM   14  C   UNL     1     -11.322  14.163  68.410  1.00  0.00    -0.287 C  
BRANCH  14  15
HETATM   15  C   UNL     1     -10.496  15.438  68.596  1.00  0.00    -0.237 C  
BRANCH  15  16
HETATM   16  C   UNL     1     -10.508  16.344  67.422  1.00  0.00    -0.309 A  
HETATM   17  N   UNL     1     -10.693  16.060  66.150  1.00  0.00    -0.283 NA 
HETATM   18  N   UNL     1     -10.604  17.234  65.428  1.00  0.00    -0.631 NA 
HETATM   19  C   UNL     1     -10.366  18.210  66.276  1.00  0.00    -0.397 A  
HETATM   20  C   UNL     1     -10.184  19.659  66.004  1.00  0.00    -0.587 C  
HETATM   21  C   UNL     1      -9.585  20.385  67.216  1.00  0.00    -0.592 C  
HETATM   22  C   UNL     1     -10.279  19.962  68.511  1.00  0.00    -0.529 C  
HETATM   23  C   UNL     1     -10.102  18.462  68.744  1.00  0.00    -0.363 C  
HETATM   24  N   UNL     1     -10.335  17.696  67.539  1.00  0.00    -0.351 NA 
ENDBRANCH  15  16
ENDBRANCH  14  15
ENDBRANCH  11  14
ENDBRANCH   7   8
TORSDOF 4
ENDMDL
MODEL       31
REMARK 921   NORMALIZED FREE ENERGY PREDICTED BY IDOCK:   -6.46 KCAL/MOL
REMARK 922        TOTAL FREE ENERGY PREDICTED BY IDOCK:   -8.23 KCAL/MOL
REMARK 923 INTER-LIGAND FREE ENERGY PREDICTED BY IDOCK:   -7.75 KCAL/MOL
REMARK 924 INTRA-LIGAND FREE ENERGY PREDICTED BY IDOCK:   -0.48 KCAL/MOL
REMARK 927      BINDING AFFINITY PREDICTED BY RF-SCORE:    0.00 PKD
ROOT
HETATM    1  C   UNL     1      -8.415  19.428  68.734  1.00  0.00    -0.377 C  
HETATM    2  C   UNL     1      -7.694  19.479  67.414  1.00  0.00    -0.284 A  
HETATM    3  C   UNL     1      -7.237  20.757  67.010  1.00  0.00    -0.369 A  
HETATM    4  C   UNL     1      -6.482  20.920  65.851  1.00  0.00    -0.229 A  
HETATM    5  C   UNL     1      -6.167  19.814  65.083  1.00  0.00    -0.295 A  
HETATM    6  C   UNL     1      -6.642  18.553  65.457  1.00  0.00    -0.299 A  
HETATM    7  C   UNL     1      -7.440  18.348  66.601  1.00  0.00    -0.229 A  
ENDROOT
BRANCH   7   8
HETATM    8  N   UNL     1      -7.977  17.085  66.805  1.00  0.00    -0.214 NA 
HETATM    9  C   UNL     1      -9.354  16.774  66.417  1.00  0.00    -0.278 C  
HETATM   10  C   UNL     1      -9.478  15.306  65.969  1.00  0.00    -0.337 C  
HETATM   11  N   UNL     1      -9.000  14.317  66.965  1.00  0.00    -0.227 NA 
HETATM   12  C   UNL     1      -7.320  16.114  67.707  1.00  0.00    -0.135 C  
HETATM   13  C   UNL     1      -7.582  14.653  67.250  1.00  0.00    -0.143 C  
BRANCH  11  14
HETATM   14  C   UNL     1      -9.796  14.311  68.216  1.00  0.00    -0.235 C  
BRANCH  14  15
HETATM   15  C   UNL     1     -11.185  13.701  68.013  1.00  0.00    -0.295 C  
BRANCH  15  16
HETATM   16  C   UNL     1     -11.754  13.071  69.229  1.00  0.00    -0.320 A  
HETATM   17  N   UNL     1     -11.738  11.809  69.600  1.00  0.00    -0.321 NA 
HETATM   18  N   UNL     1     -12.407  11.704  70.803  1.00  0.00    -0.385 NA 
HETATM   19  C   UNL     1     -12.817  12.906  71.141  1.00  0.00    -0.238 A  
HETATM   20  C   UNL     1     -13.582  13.330  72.342  1.00  0.00    -0.694 C  
HETATM   21  C   UNL     1     -14.150  14.745  72.175  1.00  0.00    -0.604 C  
HETATM   22  C   UNL     1     -13.100  15.696  71.600  1.00  0.00    -0.554 C  
HETATM   23  C   UNL     1     -12.648  15.219  70.220  1.00  0.00    -0.347 C  
HETATM   24  N   UNL     1     -12.395  13.795  70.196  1.00  0.00    -0.338 NA 
ENDBRANCH  15  16
ENDBRANCH  14  15
ENDBRANCH  11  14
ENDBRANCH   7   8
TORSDOF 4
ENDMDL
MODEL       32
REMARK 921   NORMALIZED FREE ENERGY PREDICTED BY IDOCK:   -6.42 KCAL/MOL
REMARK 922        TOTAL FREE ENERGY PREDICTED BY IDOCK:   -8.18 KCAL/MOL
REMARK 923 INTER-LIGAND FREE ENERGY PREDICTED BY IDOCK:   -8.03 KCAL/MOL
REMARK 924 INTRA-LIGAND FREE ENERGY PREDICTED BY IDOCK:   -0.15 KCAL/MOL
REMARK 927      BINDING AFFINITY PREDICTED BY RF-SCORE:    0.00 PKD
ROOT
HETATM    1  C   UNL     1      -9.443  20.254  67.742  1.00  0.00    -0.453 C  
HETATM    2  C   UNL     1      -8.365  19.613  66.910  1.00  0.00    -0.333 A  
HETATM    3  C   UNL     1      -7.711  20.463  65.986  1.00  0.00    -0.117 A  
HETATM    4  C   UNL     1      -6.640  20.009  65.221  1.00  0.00    -0.330 A  
HETATM    5  C   UNL     1      -6.203  18.706  65.368  1.00  0.00    -0.314 A  
HETATM    6  C   UNL     1      -6.865  17.849  66.253  1.00  0.00    -0.299 A  
HETATM    7  C   UNL     1      -7.976  18.256  67.020  1.00  0.00    -0.225 A  
ENDROOT
BRANCH   7   8
HETATM    8  N   UNL     1      -8.648  17.293  67.759  1.00  0.00    -0.222 NA 
HETATM    9  C   UNL     1     -10.055  16.983  67.500  1.00  0.00    -0.294 C  
HETATM   10  C   UNL     1     -10.346  15.495  67.773  1.00  0.00    -0.263 C  
HETATM   11  N   UNL     1      -9.970  15.033  69.131  1.00  0.00    -0.235 NA 
HETATM   12  C   UNL     1      -8.092  16.785  69.033  1.00  0.00    -0.179 C  
HETATM   13  C   UNL     1      -8.521  15.314  69.288  1.00  0.00    -0.238 C  
BRANCH  11  14
HETATM   14  C   UNL     1     -10.748  15.688  70.210  1.00  0.00    -0.338 C  
BRANCH  14  15
HETATM   15  C   UNL     1     -12.253  15.458  70.056  1.00  0.00    -0.392 C  
BRANCH  15  16
HETATM   16  C   UNL     1     -12.808  14.442  70.983  1.00  0.00    -0.353 A  
HETATM   17  N   UNL     1     -13.563  14.607  72.049  1.00  0.00    -0.363 NA 
HETATM   18  N   UNL     1     -13.818  13.365  72.594  1.00  0.00    -0.745 NA 
HETATM   19  C   UNL     1     -13.213  12.467  71.849  1.00  0.00    -0.382 A  
HETATM   20  C   UNL     1     -13.176  10.991  72.010  1.00  0.00    -0.447 C  
HETATM   21  C   UNL     1     -12.084  10.358  71.138  1.00  0.00    -0.487 C  
HETATM   22  C   UNL     1     -12.098  10.944  69.725  1.00  0.00    -0.409 C  
HETATM   23  C   UNL     1     -11.834  12.449  69.770  1.00  0.00    -0.317 C  
HETATM   24  N   UNL     1     -12.600  13.102  70.809  1.00  0.00    -0.300 NA 
ENDBRANCH  15  16
ENDBRANCH  14  15
ENDBRANCH  11  14
ENDBRANCH   7   8
TORSDOF 4
ENDMDL
MODEL       33
REMARK 921   NORMALIZED FREE ENERGY PREDICTED BY IDOCK:   -6.41 KCAL/MOL
REMARK 922        TOTAL FREE ENERGY PREDICTED BY IDOCK:   -8.17 KCAL/MOL
REMARK 923 INTER-LIGAND FREE ENERGY PREDICTED BY IDOCK:   -7.57 KCAL/MOL
REMARK 924 INTRA-LIGAND FREE ENERGY PREDICTED BY IDOCK:   -0.60 KCAL/MOL
REMARK 927      BINDING AFFINITY PREDICTED BY RF-SCORE:    0.00 PKD
ROOT
HETATM    1  C   UNL     1     -11.731  10.946  69.059  1.00  0.00    -0.391 C  
HETATM    2  C   UNL     1     -10.907  10.570  67.857  1.00  0.00    -0.333 A  
HETATM    3  C   UNL     1     -10.634   9.189  67.703  1.00  0.00    -0.307 A  
HETATM    4  C   UNL     1      -9.956   8.707  66.586  1.00  0.00    -0.357 A  
HETATM    5  C   UNL     1      -9.545   9.591  65.606  1.00  0.00    -0.346 A  
HETATM    6  C   UNL     1      -9.780  10.961  65.765  1.00  0.00    -0.270 A  
HETATM    7  C   UNL     1     -10.430  11.495  66.897  1.00  0.00    -0.235 A  
ENDROOT
BRANCH   7   8
HETATM    8  N   UNL     1     -10.487  12.876  67.026  1.00  0.00    -0.238 NA 
HETATM    9  C   UNL     1      -9.548  13.597  67.888  1.00  0.00    -0.223 C  
HETATM   10  C   UNL     1      -9.235  14.990  67.309  1.00  0.00    -0.201 C  
HETATM   11  N   UNL     1     -10.428  15.831  67.049  1.00  0.00    -0.304 NA 
HETATM   12  C   UNL     1     -11.677  13.634  66.581  1.00  0.00    -0.388 C  
HETATM   13  C   UNL     1     -11.291  15.065  66.115  1.00  0.00    -0.270 C  
BRANCH  11  14
HETATM   14  C   UNL     1     -11.176  16.184  68.279  1.00  0.00    -0.343 C  
BRANCH  14  15
HETATM   15  C   UNL     1     -10.498  17.311  69.063  1.00  0.00    -0.309 C  
BRANCH  15  16
HETATM   16  C   UNL     1     -10.107  18.476  68.231  1.00  0.00    -0.390 A  
HETATM   17  N   UNL     1     -10.846  19.220  67.436  1.00  0.00    -0.487 NA 
HETATM   18  N   UNL     1     -10.035  20.179  66.865  1.00  0.00    -0.438 NA 
HETATM   19  C   UNL     1      -8.816  20.001  67.324  1.00  0.00    -0.344 A  
HETATM   20  C   UNL     1      -7.580  20.766  67.018  1.00  0.00    -0.298 C  
HETATM   21  C   UNL     1      -6.326  20.018  67.489  1.00  0.00    -0.236 C  
HETATM   22  C   UNL     1      -6.514  19.460  68.901  1.00  0.00    -0.312 C  
HETATM   23  C   UNL     1      -7.677  18.468  68.931  1.00  0.00    -0.227 C  
HETATM   24  N   UNL     1      -8.830  18.964  68.211  1.00  0.00    -0.321 NA 
ENDBRANCH  15  16
ENDBRANCH  14  15
ENDBRANCH  11  14
ENDBRANCH   7   8
TORSDOF 4
ENDMDL
MODEL       34
REMARK 921   NORMALIZED FREE ENERGY PREDICTED BY IDOCK:   -6.39 KCAL/MOL
REMARK 922        TOTAL FREE ENERGY PREDICTED BY IDOCK:   -8.15 KCAL/MOL
REMARK 923 INTER-LIGAND FREE ENERGY PREDICTED BY IDOCK:   -7.62 KCAL/MOL
REMARK 924 INTRA-LIGAND FREE ENERGY PREDICTED BY IDOCK:   -0.53 KCAL/MOL
REMARK 927      BINDING AFFINITY PREDICTED BY RF-SCORE:    0.00 PKD
ROOT
HETATM    1  C   UNL     1     -11.174   6.287  69.564  1.00  0.00    -0.500 C  
HETATM    2  C   UNL     1     -10.958   6.123  71.044  1.00  0.00    -0.354 A  
HETATM    3  C   UNL     1     -10.533   4.841  71.468  1.00  0.00    -0.142 A  
HETATM    4  C   UNL     1     -10.217   4.589  72.801  1.00  0.00    -0.233 A  
HETATM    5  C   UNL     1     -10.314   5.610  73.727  1.00  0.00    -0.270 A  
HETATM    6  C   UNL     1     -10.765   6.871  73.325  1.00  0.00    -0.349 A  
HETATM    7  C   UNL     1     -11.131   7.159  71.994  1.00  0.00    -0.245 A  
ENDROOT
BRANCH   7   8
HETATM    8  N   UNL     1     -11.699   8.397  71.726  1.00  0.00    -0.289 NA 
HETATM    9  C   UNL     1     -10.879   9.532  71.298  1.00  0.00    -0.343 C  
HETATM   10  C   UNL     1     -11.665  10.442  70.335  1.00  0.00    -0.331 C  
HETATM   11  N   UNL     1     -12.960  10.928  70.867  1.00  0.00    -0.308 NA 
HETATM   12  C   UNL     1     -13.073   8.716  72.172  1.00  0.00    -0.383 C  
HETATM   13  C   UNL     1     -13.758   9.723  71.207  1.00  0.00    -0.135 C  
BRANCH  11  14
HETATM   14  C   UNL     1     -12.815  11.808  72.051  1.00  0.00    -0.142 C  
BRANCH  14  15
HETATM   15  C   UNL     1     -13.616  13.105  71.907  1.00  0.00    -0.453 C  
BRANCH  15  16
HETATM   16  C   UNL     1     -12.780  14.324  71.797  1.00  0.00    -0.347 A  
HETATM   17  N   UNL     1     -12.463  15.206  72.722  1.00  0.00    -0.360 NA 
HETATM   18  N   UNL     1     -11.672  16.176  72.140  1.00  0.00    -0.495 NA 
HETATM   19  C   UNL     1     -11.522  15.866  70.872  1.00  0.00    -0.409 A  
HETATM   20  C   UNL     1     -10.765  16.587  69.816  1.00  0.00    -0.298 C  
HETATM   21  C   UNL     1     -11.134  16.080  68.416  1.00  0.00    -0.351 C  
HETATM   22  C   UNL     1     -11.178  14.553  68.375  1.00  0.00    -0.290 C  
HETATM   23  C   UNL     1     -12.234  14.024  69.346  1.00  0.00    -0.292 C  
HETATM   24  N   UNL     1     -12.173  14.692  70.628  1.00  0.00    -0.302 NA 
ENDBRANCH  15  16
ENDBRANCH  14  15
ENDBRANCH  11  14
ENDBRANCH   7   8
TORSDOF 4
ENDMDL
MODEL       35
REMARK 921   NORMALIZED FREE ENERGY PREDICTED BY IDOCK:   -6.37 KCAL/MOL
REMARK 922        TOTAL FREE ENERGY PREDICTED BY IDOCK:   -8.12 KCAL/MOL
REMARK 923 INTER-LIGAND FREE ENERGY PREDICTED BY IDOCK:   -7.70 KCAL/MOL
REMARK 924 INTRA-LIGAND FREE ENERGY PREDICTED BY IDOCK:   -0.42 KCAL/MOL
REMARK 927      BINDING AFFINITY PREDICTED BY RF-SCORE:    0.00 PKD
ROOT
HETATM    1  C   UNL     1     -11.892  13.635  67.299  1.00  0.00    -0.429 C  
HETATM    2  C   UNL     1     -11.730  12.950  65.969  1.00  0.00    -0.456 A  
HETATM    3  C   UNL     1     -12.422  13.539  64.883  1.00  0.00    -0.429 A  
HETATM    4  C   UNL     1     -12.282  13.049  63.587  1.00  0.00    -0.568 A  
HETATM    5  C   UNL     1     -11.449  11.971  63.353  1.00  0.00    -0.489 A  
HETATM    6  C   UNL     1     -10.788  11.362  64.424  1.00  0.00    -0.397 A  
HETATM    7  C   UNL     1     -10.929  11.802  65.756  1.00  0.00    -0.301 A  
ENDROOT
BRANCH   7   8
HETATM    8  N   UNL     1     -10.344  11.043  66.761  1.00  0.00    -0.229 NA 
HETATM    9  C   UNL     1     -11.142  10.139  67.591  1.00  0.00    -0.206 C  
HETATM   10  C   UNL     1     -10.319   8.904  68.001  1.00  0.00    -0.219 C  
HETATM   11  N   UNL     1      -9.040   9.215  68.682  1.00  0.00    -0.136 NA 
HETATM   12  C   UNL     1      -8.985  11.353  67.255  1.00  0.00    -0.159 C  
HETATM   13  C   UNL     1      -8.261  10.070  67.751  1.00  0.00    -0.113 C  
BRANCH  11  14
HETATM   14  C   UNL     1      -9.220   9.896  69.987  1.00  0.00    -0.183 C  
BRANCH  14  15
HETATM   15  C   UNL     1      -9.193   8.911  71.159  1.00  0.00    -0.324 C  
BRANCH  15  16
HETATM   16  C   UNL     1     -10.290   7.913  71.136  1.00  0.00    -0.200 A  
HETATM   17  N   UNL     1     -10.240   6.621  70.887  1.00  0.00    -0.195 NA 
HETATM   18  N   UNL     1     -11.521   6.115  70.971  1.00  0.00    -0.292 NA 
HETATM   19  C   UNL     1     -12.328   7.109  71.269  1.00  0.00    -0.379 A  
HETATM   20  C   UNL     1     -13.799   7.090  71.469  1.00  0.00    -0.359 C  
HETATM   21  C   UNL     1     -14.385   8.508  71.457  1.00  0.00    -0.451 C  
HETATM   22  C   UNL     1     -13.541   9.461  72.304  1.00  0.00    -0.532 C  
HETATM   23  C   UNL     1     -12.119   9.548  71.750  1.00  0.00    -0.384 C  
HETATM   24  N   UNL     1     -11.587   8.245  71.416  1.00  0.00    -0.271 NA 
ENDBRANCH  15  16
ENDBRANCH  14  15
ENDBRANCH  11  14
ENDBRANCH   7   8
TORSDOF 4
ENDMDL
MODEL       36
REMARK 921   NORMALIZED FREE ENERGY PREDICTED BY IDOCK:   -6.35 KCAL/MOL
REMARK 922        TOTAL FREE ENERGY PREDICTED BY IDOCK:   -8.10 KCAL/MOL
REMARK 923 INTER-LIGAND FREE ENERGY PREDICTED BY IDOCK:   -7.58 KCAL/MOL
REMARK 924 INTRA-LIGAND FREE ENERGY PREDICTED BY IDOCK:   -0.52 KCAL/MOL
REMARK 927      BINDING AFFINITY PREDICTED BY RF-SCORE:    0.00 PKD
ROOT
HETATM    1  C   UNL     1     -10.038   7.410  67.322  1.00  0.00    -0.296 C  
HETATM    2  C   UNL     1     -10.639   7.644  68.682  1.00  0.00    -0.161 A  
HETATM    3  C   UNL     1     -11.074   6.486  69.371  1.00  0.00    -0.407 A  
HETATM    4  C   UNL     1     -11.568   6.563  70.671  1.00  0.00    -0.442 A  
HETATM    5  C   UNL     1     -11.630   7.791  71.303  1.00  0.00    -0.301 A  
HETATM    6  C   UNL     1     -11.234   8.944  70.618  1.00  0.00    -0.308 A  
HETATM    7  C   UNL     1     -10.763   8.916  69.290  1.00  0.00    -0.162 A  
ENDROOT
BRANCH   7   8
HETATM    8  N   UNL     1     -10.531  10.128  68.653  1.00  0.00    -0.192 NA 
HETATM    9  C   UNL     1      -9.304  10.889  68.896  1.00  0.00    -0.160 C  
HETATM   10  C   UNL     1      -8.875  11.652  67.629  1.00  0.00    -0.159 C  
HETATM   11  N   UNL     1      -9.917  12.542  67.063  1.00  0.00    -0.212 NA 
HETATM   12  C   UNL     1     -11.627  10.855  67.978  1.00  0.00    -0.215 C  
HETATM   13  C   UNL     1     -11.096  11.687  66.777  1.00  0.00    -0.309 C  
BRANCH  11  14
HETATM   14  C   UNL     1     -10.289  13.657  67.967  1.00  0.00    -0.250 C  
BRANCH  14  15
HETATM   15  C   UNL     1      -9.360  14.863  67.807  1.00  0.00    -0.194 C  
BRANCH  15  16
HETATM   16  C   UNL     1      -9.831  15.864  66.818  1.00  0.00    -0.244 A  
HETATM   17  N   UNL     1     -10.229  15.686  65.576  1.00  0.00    -0.370 NA 
HETATM   18  N   UNL     1     -10.561  16.918  65.049  1.00  0.00    -0.698 NA 
HETATM   19  C   UNL     1     -10.358  17.822  65.981  1.00  0.00    -0.304 A  
HETATM   20  C   UNL     1     -10.561  19.293  65.917  1.00  0.00    -0.521 C  
HETATM   21  C   UNL     1      -9.880  20.004  67.094  1.00  0.00    -0.563 C  
HETATM   22  C   UNL     1     -10.158  19.281  68.412  1.00  0.00    -0.518 C  
HETATM   23  C   UNL     1      -9.611  17.854  68.362  1.00  0.00    -0.320 C  
HETATM   24  N   UNL     1      -9.934  17.194  67.116  1.00  0.00    -0.275 NA 
ENDBRANCH  15  16
ENDBRANCH  14  15
ENDBRANCH  11  14
ENDBRANCH   7   8
TORSDOF 4
ENDMDL
MODEL       37
REMARK 921   NORMALIZED FREE ENERGY PREDICTED BY IDOCK:   -6.35 KCAL/MOL
REMARK 922        TOTAL FREE ENERGY PREDICTED BY IDOCK:   -8.10 KCAL/MOL
REMARK 923 INTER-LIGAND FREE ENERGY PREDICTED BY IDOCK:   -7.55 KCAL/MOL
REMARK 924 INTRA-LIGAND FREE ENERGY PREDICTED BY IDOCK:   -0.55 KCAL/MOL
REMARK 927      BINDING AFFINITY PREDICTED BY RF-SCORE:    0.00 PKD
ROOT
HETATM    1  C   UNL     1     -11.190   6.457  67.139  1.00  0.00    -0.298 C  
HETATM    2  C   UNL     1     -10.250   5.597  67.941  1.00  0.00    -0.234 A  
HETATM    3  C   UNL     1      -9.650   4.522  67.241  1.00  0.00    -0.213 A  
HETATM    4  C   UNL     1      -8.697   3.708  67.849  1.00  0.00    -0.127 A  
HETATM    5  C   UNL     1      -8.326   3.956  69.158  1.00  0.00    -0.089 A  
HETATM    6  C   UNL     1      -8.939   4.994  69.867  1.00  0.00    -0.142 A  
HETATM    7  C   UNL     1      -9.933   5.819  69.302  1.00  0.00    -0.182 A  
ENDROOT
BRANCH   7   8
HETATM    8  N   UNL     1     -10.578   6.726  70.132  1.00  0.00    -0.208 NA 
HETATM    9  C   UNL     1     -11.844   6.389  70.786  1.00  0.00    -0.253 C  
HETATM   10  C   UNL     1     -11.948   7.076  72.161  1.00  0.00    -0.261 C  
HETATM   11  N   UNL     1     -11.774   8.548  72.128  1.00  0.00    -0.357 NA 
HETATM   12  C   UNL     1     -10.207   8.158  70.129  1.00  0.00    -0.199 C  
HETATM   13  C   UNL     1     -10.443   8.804  71.521  1.00  0.00    -0.303 C  
BRANCH  11  14
HETATM   14  C   UNL     1     -12.837   9.248  71.367  1.00  0.00    -0.328 C  
BRANCH  14  15
HETATM   15  C   UNL     1     -13.118  10.646  71.924  1.00  0.00    -0.563 C  
BRANCH  15  16
HETATM   16  C   UNL     1     -12.654  11.751  71.049  1.00  0.00    -0.310 A  
HETATM   17  N   UNL     1     -12.018  11.693  69.898  1.00  0.00    -0.332 NA 
HETATM   18  N   UNL     1     -11.788  12.984  69.467  1.00  0.00    -0.321 NA 
HETATM   19  C   UNL     1     -12.289  13.803  70.364  1.00  0.00    -0.353 A  
HETATM   20  C   UNL     1     -12.300  15.288  70.371  1.00  0.00    -0.422 C  
HETATM   21  C   UNL     1     -12.669  15.840  71.755  1.00  0.00    -0.519 C  
HETATM   22  C   UNL     1     -13.865  15.094  72.346  1.00  0.00    -0.617 C  
HETATM   23  C   UNL     1     -13.536  13.611  72.517  1.00  0.00    -0.570 C  
HETATM   24  N   UNL     1     -12.872  13.066  71.353  1.00  0.00    -0.344 NA 
ENDBRANCH  15  16
ENDBRANCH  14  15
ENDBRANCH  11  14
ENDBRANCH   7   8
TORSDOF 4
ENDMDL
MODEL       38
REMARK 921   NORMALIZED FREE ENERGY PREDICTED BY IDOCK:   -6.35 KCAL/MOL
REMARK 922        TOTAL FREE ENERGY PREDICTED BY IDOCK:   -8.09 KCAL/MOL
REMARK 923 INTER-LIGAND FREE ENERGY PREDICTED BY IDOCK:   -7.71 KCAL/MOL
REMARK 924 INTRA-LIGAND FREE ENERGY PREDICTED BY IDOCK:   -0.38 KCAL/MOL
REMARK 927      BINDING AFFINITY PREDICTED BY RF-SCORE:    0.00 PKD
ROOT
HETATM    1  C   UNL     1     -11.986  13.778  64.059  1.00  0.00    -0.451 C  
HETATM    2  C   UNL     1     -11.070  12.642  64.429  1.00  0.00    -0.385 A  
HETATM    3  C   UNL     1     -10.911  11.633  63.449  1.00  0.00    -0.453 A  
HETATM    4  C   UNL     1     -10.025  10.575  63.639  1.00  0.00    -0.299 A  
HETATM    5  C   UNL     1      -9.283  10.511  64.803  1.00  0.00    -0.266 A  
HETATM    6  C   UNL     1      -9.458  11.484  65.792  1.00  0.00    -0.255 A  
HETATM    7  C   UNL     1     -10.371  12.551  65.657  1.00  0.00    -0.271 A  
ENDROOT
BRANCH   7   8
HETATM    8  N   UNL     1     -10.573  13.380  66.751  1.00  0.00    -0.276 NA 
HETATM    9  C   UNL     1     -11.906  13.563  67.328  1.00  0.00    -0.385 C  
HETATM   10  C   UNL     1     -11.817  13.784  68.850  1.00  0.00    -0.360 C  
HETATM   11  N   UNL     1     -10.933  14.901  69.259  1.00  0.00    -0.259 NA 
HETATM   12  C   UNL     1      -9.543  14.356  67.167  1.00  0.00    -0.250 C  
HETATM   13  C   UNL     1      -9.590  14.606  68.700  1.00  0.00    -0.219 C  
BRANCH  11  14
HETATM   14  C   UNL     1     -11.410  16.227  68.796  1.00  0.00    -0.329 C  
BRANCH  14  15
HETATM   15  C   UNL     1     -10.375  17.328  69.038  1.00  0.00    -0.330 C  
BRANCH  15  16
HETATM   16  C   UNL     1     -10.013  18.096  67.821  1.00  0.00    -0.327 A  
HETATM   17  N   UNL     1     -10.694  18.266  66.708  1.00  0.00    -0.296 NA 
HETATM   18  N   UNL     1      -9.942  19.050  65.857  1.00  0.00    -0.494 NA 
HETATM   19  C   UNL     1      -8.816  19.343  66.469  1.00  0.00    -0.352 A  
HETATM   20  C   UNL     1      -7.672  20.156  65.983  1.00  0.00    -0.269 C  
HETATM   21  C   UNL     1      -6.430  19.958  66.863  1.00  0.00    -0.214 C  
HETATM   22  C   UNL     1      -6.792  20.011  68.348  1.00  0.00    -0.337 C  
HETATM   23  C   UNL     1      -7.780  18.899  68.695  1.00  0.00    -0.340 C  
HETATM   24  N   UNL     1      -8.841  18.792  67.717  1.00  0.00    -0.287 NA 
ENDBRANCH  15  16
ENDBRANCH  14  15
ENDBRANCH  11  14
ENDBRANCH   7   8
TORSDOF 4
ENDMDL
MODEL       39
REMARK 921   NORMALIZED FREE ENERGY PREDICTED BY IDOCK:   -6.34 KCAL/MOL
REMARK 922        TOTAL FREE ENERGY PREDICTED BY IDOCK:   -8.08 KCAL/MOL
REMARK 923 INTER-LIGAND FREE ENERGY PREDICTED BY IDOCK:   -8.05 KCAL/MOL
REMARK 924 INTRA-LIGAND FREE ENERGY PREDICTED BY IDOCK:   -0.03 KCAL/MOL
REMARK 927      BINDING AFFINITY PREDICTED BY RF-SCORE:    0.00 PKD
ROOT
HETATM    1  C   UNL     1     -10.566   9.189  67.291  1.00  0.00    -0.303 C  
HETATM    2  C   UNL     1      -9.721   9.163  66.045  1.00  0.00    -0.358 A  
HETATM    3  C   UNL     1      -8.840   8.061  65.921  1.00  0.00    -0.189 A  
HETATM    4  C   UNL     1      -8.070   7.879  64.775  1.00  0.00    -0.141 A  
HETATM    5  C   UNL     1      -8.169   8.787  63.737  1.00  0.00    -0.163 A  
HETATM    6  C   UNL     1      -9.011   9.896  63.865  1.00  0.00    -0.280 A  
HETATM    7  C   UNL     1      -9.781  10.138  65.021  1.00  0.00    -0.318 A  
ENDROOT
BRANCH   7   8
HETATM    8  N   UNL     1     -10.473  11.339  65.106  1.00  0.00    -0.286 NA 
HETATM    9  C   UNL     1     -11.257  11.843  63.977  1.00  0.00    -0.396 C  
HETATM   10  C   UNL     1     -12.490  12.623  64.473  1.00  0.00    -0.448 C  
HETATM   11  N   UNL     1     -12.182  13.731  65.408  1.00  0.00    -0.412 NA 
HETATM   12  C   UNL     1     -10.188  12.307  66.187  1.00  0.00    -0.239 C  
HETATM   13  C   UNL     1     -11.454  13.130  66.554  1.00  0.00    -0.338 C  
BRANCH  11  14
HETATM   14  C   UNL     1     -11.377  14.813  64.790  1.00  0.00    -0.397 C  
BRANCH  14  15
HETATM   15  C   UNL     1     -10.406  15.450  65.788  1.00  0.00    -0.381 C  
BRANCH  15  16
HETATM   16  C   UNL     1     -10.445  16.932  65.810  1.00  0.00    -0.268 A  
HETATM   17  N   UNL     1     -11.158  17.759  65.074  1.00  0.00    -0.601 NA 
HETATM   18  N   UNL     1     -10.845  19.050  65.450  1.00  0.00    -0.484 NA 
HETATM   19  C   UNL     1      -9.948  18.984  66.408  1.00  0.00    -0.395 A  
HETATM   20  C   UNL     1      -9.287  20.089  67.147  1.00  0.00    -0.502 C  
HETATM   21  C   UNL     1      -8.064  19.590  67.928  1.00  0.00    -0.340 C  
HETATM   22  C   UNL     1      -8.377  18.292  68.672  1.00  0.00    -0.305 C  
HETATM   23  C   UNL     1      -8.770  17.193  67.685  1.00  0.00    -0.213 C  
HETATM   24  N   UNL     1      -9.699  17.671  66.685  1.00  0.00    -0.288 NA 
ENDBRANCH  15  16
ENDBRANCH  14  15
ENDBRANCH  11  14
ENDBRANCH   7   8
TORSDOF 4
ENDMDL
MODEL       40
REMARK 921   NORMALIZED FREE ENERGY PREDICTED BY IDOCK:   -6.29 KCAL/MOL
REMARK 922        TOTAL FREE ENERGY PREDICTED BY IDOCK:   -8.02 KCAL/MOL
REMARK 923 INTER-LIGAND FREE ENERGY PREDICTED BY IDOCK:   -7.79 KCAL/MOL
REMARK 924 INTRA-LIGAND FREE ENERGY PREDICTED BY IDOCK:   -0.23 KCAL/MOL
REMARK 927      BINDING AFFINITY PREDICTED BY RF-SCORE:    0.00 PKD
ROOT
HETATM    1  C   UNL     1      -9.699   9.555  66.623  1.00  0.00    -0.270 C  
HETATM    2  C   UNL     1      -9.164   9.729  65.227  1.00  0.00    -0.294 A  
HETATM    3  C   UNL     1      -8.298   8.708  64.767  1.00  0.00    -0.167 A  
HETATM    4  C   UNL     1      -7.807   8.711  63.463  1.00  0.00    -0.148 A  
HETATM    5  C   UNL     1      -8.175   9.726  62.601  1.00  0.00    -0.145 A  
HETATM    6  C   UNL     1      -9.002  10.757  63.056  1.00  0.00    -0.257 A  
HETATM    7  C   UNL     1      -9.492  10.813  64.377  1.00  0.00    -0.256 A  
ENDROOT
BRANCH   7   8
HETATM    8  N   UNL     1     -10.187  11.949  64.769  1.00  0.00    -0.268 NA 
HETATM    9  C   UNL     1      -9.690  12.809  65.845  1.00  0.00    -0.198 C  
HETATM   10  C   UNL     1     -10.066  14.280  65.585  1.00  0.00    -0.341 C  
HETATM   11  N   UNL     1     -11.515  14.518  65.379  1.00  0.00    -0.340 NA 
HETATM   12  C   UNL     1     -11.595  12.157  64.366  1.00  0.00    -0.350 C  
HETATM   13  C   UNL     1     -11.925  13.669  64.232  1.00  0.00    -0.445 C  
BRANCH  11  14
HETATM   14  C   UNL     1     -12.336  14.210  66.574  1.00  0.00    -0.372 C  
BRANCH  14  15
HETATM   15  C   UNL     1     -11.581  14.483  67.878  1.00  0.00    -0.371 C  
BRANCH  15  16
HETATM   16  C   UNL     1     -11.964  13.588  68.998  1.00  0.00    -0.335 A  
HETATM   17  N   UNL     1     -11.908  12.275  69.074  1.00  0.00    -0.315 NA 
HETATM   18  N   UNL     1     -12.384  11.895  70.313  1.00  0.00    -0.247 NA 
HETATM   19  C   UNL     1     -12.721  12.984  70.966  1.00  0.00    -0.262 A  
HETATM   20  C   UNL     1     -13.286  13.116  72.334  1.00  0.00    -0.591 C  
HETATM   21  C   UNL     1     -13.854  14.521  72.573  1.00  0.00    -0.555 C  
HETATM   22  C   UNL     1     -12.893  15.598  72.068  1.00  0.00    -0.518 C  
HETATM   23  C   UNL     1     -12.666  15.446  70.564  1.00  0.00    -0.405 C  
HETATM   24  N   UNL     1     -12.438  14.068  70.187  1.00  0.00    -0.341 NA 
ENDBRANCH  15  16
ENDBRANCH  14  15
ENDBRANCH  11  14
ENDBRANCH   7   8
TORSDOF 4
ENDMDL
MODEL       41
REMARK 921   NORMALIZED FREE ENERGY PREDICTED BY IDOCK:   -6.22 KCAL/MOL
REMARK 922        TOTAL FREE ENERGY PREDICTED BY IDOCK:   -7.94 KCAL/MOL
REMARK 923 INTER-LIGAND FREE ENERGY PREDICTED BY IDOCK:   -7.48 KCAL/MOL
REMARK 924 INTRA-LIGAND FREE ENERGY PREDICTED BY IDOCK:   -0.46 KCAL/MOL
REMARK 927      BINDING AFFINITY PREDICTED BY RF-SCORE:    0.00 PKD
ROOT
HETATM    1  C   UNL     1      -8.852   5.570  68.757  1.00  0.00    -0.109 C  
HETATM    2  C   UNL     1      -9.236   4.481  69.723  1.00  0.00    -0.191 A  
HETATM    3  C   UNL     1      -8.912   3.162  69.325  1.00  0.00    -0.178 A  
HETATM    4  C   UNL     1      -9.139   2.077  70.169  1.00  0.00    -0.165 A  
HETATM    5  C   UNL     1      -9.686   2.292  71.420  1.00  0.00    -0.216 A  
HETATM    6  C   UNL     1     -10.041   3.588  71.808  1.00  0.00    -0.147 A  
HETATM    7  C   UNL     1      -9.862   4.709  70.972  1.00  0.00    -0.198 A  
ENDROOT
BRANCH   7   8
HETATM    8  N   UNL     1     -10.377   5.927  71.394  1.00  0.00    -0.211 NA 
HETATM    9  C   UNL     1     -11.648   6.435  70.875  1.00  0.00    -0.331 C  
HETATM   10  C   UNL     1     -12.390   7.252  71.949  1.00  0.00    -0.312 C  
HETATM   11  N   UNL     1     -11.601   8.366  72.528  1.00  0.00    -0.381 NA 
HETATM   12  C   UNL     1      -9.529   6.904  72.111  1.00  0.00    -0.138 C  
HETATM   13  C   UNL     1     -10.369   7.763  73.096  1.00  0.00    -0.340 C  
BRANCH  11  14
HETATM   14  C   UNL     1     -11.259   9.418  71.541  1.00  0.00    -0.386 C  
BRANCH  14  15
HETATM   15  C   UNL     1     -12.491  10.212  71.095  1.00  0.00    -0.490 C  
BRANCH  15  16
HETATM   16  C   UNL     1     -12.174  11.512  70.455  1.00  0.00    -0.377 A  
HETATM   17  N   UNL     1     -11.466  11.760  69.374  1.00  0.00    -0.288 NA 
HETATM   18  N   UNL     1     -11.440  13.126  69.179  1.00  0.00    -0.289 NA 
HETATM   19  C   UNL     1     -12.133  13.684  70.147  1.00  0.00    -0.361 A  
HETATM   20  C   UNL     1     -12.405  15.123  70.392  1.00  0.00    -0.411 C  
HETATM   21  C   UNL     1     -12.950  15.358  71.807  1.00  0.00    -0.509 C  
HETATM   22  C   UNL     1     -14.032  14.336  72.158  1.00  0.00    -0.618 C  
HETATM   23  C   UNL     1     -13.459  12.920  72.118  1.00  0.00    -0.522 C  
HETATM   24  N   UNL     1     -12.638  12.701  70.947  1.00  0.00    -0.309 NA 
ENDBRANCH  15  16
ENDBRANCH  14  15
ENDBRANCH  11  14
ENDBRANCH   7   8
TORSDOF 4
ENDMDL
MODEL       42
REMARK 921   NORMALIZED FREE ENERGY PREDICTED BY IDOCK:   -6.21 KCAL/MOL
REMARK 922        TOTAL FREE ENERGY PREDICTED BY IDOCK:   -7.93 KCAL/MOL
REMARK 923 INTER-LIGAND FREE ENERGY PREDICTED BY IDOCK:   -7.46 KCAL/MOL
REMARK 924 INTRA-LIGAND FREE ENERGY PREDICTED BY IDOCK:   -0.47 KCAL/MOL
REMARK 927      BINDING AFFINITY PREDICTED BY RF-SCORE:    0.00 PKD
ROOT
HETATM    1  C   UNL     1     -11.917  11.671  70.445  1.00  0.00    -0.448 C  
HETATM    2  C   UNL     1     -12.435  13.050  70.752  1.00  0.00    -0.384 A  
HETATM    3  C   UNL     1     -13.200  13.172  71.938  1.00  0.00    -0.526 A  
HETATM    4  C   UNL     1     -13.661  14.411  72.374  1.00  0.00    -0.590 A  
HETATM    5  C   UNL     1     -13.365  15.545  71.641  1.00  0.00    -0.585 A  
HETATM    6  C   UNL     1     -12.639  15.430  70.451  1.00  0.00    -0.433 A  
HETATM    7  C   UNL     1     -12.184  14.191  69.953  1.00  0.00    -0.359 A  
ENDROOT
BRANCH   7   8
HETATM    8  N   UNL     1     -11.598  14.168  68.695  1.00  0.00    -0.296 NA 
HETATM    9  C   UNL     1     -12.138  13.332  67.622  1.00  0.00    -0.249 C  
HETATM   10  C   UNL     1     -11.932  14.002  66.250  1.00  0.00    -0.432 C  
HETATM   11  N   UNL     1     -10.528  14.366  65.948  1.00  0.00    -0.296 NA 
HETATM   12  C   UNL     1     -10.239  14.710  68.478  1.00  0.00    -0.240 C  
HETATM   13  C   UNL     1     -10.078  15.269  67.037  1.00  0.00    -0.248 C  
BRANCH  11  14
HETATM   14  C   UNL     1      -9.628  13.192  65.840  1.00  0.00    -0.108 C  
BRANCH  14  15
HETATM   15  C   UNL     1     -10.188  12.121  64.900  1.00  0.00    -0.309 C  
BRANCH  15  16
HETATM   16  C   UNL     1      -9.504  10.809  65.001  1.00  0.00    -0.241 A  
HETATM   17  N   UNL     1      -8.576  10.289  64.225  1.00  0.00    -0.183 NA 
HETATM   18  N   UNL     1      -8.257   9.038  64.712  1.00  0.00    -0.151 NA 
HETATM   19  C   UNL     1      -8.997   8.820  65.777  1.00  0.00    -0.206 A  
HETATM   20  C   UNL     1      -9.035   7.627  66.661  1.00  0.00    -0.181 C  
HETATM   21  C   UNL     1     -10.272   7.640  67.568  1.00  0.00    -0.294 C  
HETATM   22  C   UNL     1     -10.486   9.021  68.189  1.00  0.00    -0.257 C  
HETATM   23  C   UNL     1     -10.709  10.067  67.096  1.00  0.00    -0.212 C  
HETATM   24  N   UNL     1      -9.765   9.923  66.009  1.00  0.00    -0.228 NA 
ENDBRANCH  15  16
ENDBRANCH  14  15
ENDBRANCH  11  14
ENDBRANCH   7   8
TORSDOF 4
ENDMDL
MODEL       43
REMARK 921   NORMALIZED FREE ENERGY PREDICTED BY IDOCK:   -6.21 KCAL/MOL
REMARK 922        TOTAL FREE ENERGY PREDICTED BY IDOCK:   -7.92 KCAL/MOL
REMARK 923 INTER-LIGAND FREE ENERGY PREDICTED BY IDOCK:   -7.45 KCAL/MOL
REMARK 924 INTRA-LIGAND FREE ENERGY PREDICTED BY IDOCK:   -0.47 KCAL/MOL
REMARK 927      BINDING AFFINITY PREDICTED BY RF-SCORE:    0.00 PKD
ROOT
HETATM    1  C   UNL     1     -10.527  16.005  69.515  1.00  0.00    -0.286 C  
HETATM    2  C   UNL     1     -10.530  16.761  68.214  1.00  0.00    -0.341 A  
HETATM    3  C   UNL     1     -10.495  18.173  68.320  1.00  0.00    -0.333 A  
HETATM    4  C   UNL     1     -10.407  18.980  67.188  1.00  0.00    -0.496 A  
HETATM    5  C   UNL     1     -10.347  18.393  65.938  1.00  0.00    -0.322 A  
HETATM    6  C   UNL     1     -10.415  17.001  65.821  1.00  0.00    -0.261 A  
HETATM    7  C   UNL     1     -10.541  16.149  66.937  1.00  0.00    -0.283 A  
ENDROOT
BRANCH   7   8
HETATM    8  N   UNL     1     -10.743  14.795  66.706  1.00  0.00    -0.302 NA 
HETATM    9  C   UNL     1     -12.080  14.204  66.778  1.00  0.00    -0.442 C  
HETATM   10  C   UNL     1     -12.220  13.044  65.774  1.00  0.00    -0.453 C  
HETATM   11  N   UNL     1     -11.193  11.984  65.912  1.00  0.00    -0.329 NA 
HETATM   12  C   UNL     1      -9.609  13.845  66.710  1.00  0.00    -0.283 C  
HETATM   13  C   UNL     1      -9.874  12.648  65.755  1.00  0.00    -0.228 C  
BRANCH  11  14
HETATM   14  C   UNL     1     -11.263  11.264  67.206  1.00  0.00    -0.296 C  
BRANCH  14  15
HETATM   15  C   UNL     1     -10.043  10.366  67.433  1.00  0.00    -0.237 C  
BRANCH  15  16
HETATM   16  C   UNL     1     -10.374   8.933  67.624  1.00  0.00    -0.251 A  
HETATM   17  N   UNL     1     -10.484   7.975  66.728  1.00  0.00    -0.313 NA 
HETATM   18  N   UNL     1     -10.821   6.808  67.384  1.00  0.00    -0.325 NA 
HETATM   19  C   UNL     1     -10.909   7.078  68.667  1.00  0.00    -0.147 A  
HETATM   20  C   UNL     1     -11.245   6.169  69.793  1.00  0.00    -0.494 C  
HETATM   21  C   UNL     1     -11.578   6.955  71.068  1.00  0.00    -0.374 C  
HETATM   22  C   UNL     1     -10.566   8.076  71.306  1.00  0.00    -0.245 C  
HETATM   23  C   UNL     1     -10.584   9.066  70.141  1.00  0.00    -0.224 C  
HETATM   24  N   UNL     1     -10.601   8.394  68.860  1.00  0.00    -0.185 NA 
ENDBRANCH  15  16
ENDBRANCH  14  15
ENDBRANCH  11  14
ENDBRANCH   7   8
TORSDOF 4
ENDMDL
MODEL       44
REMARK 921   NORMALIZED FREE ENERGY PREDICTED BY IDOCK:   -6.20 KCAL/MOL
REMARK 922        TOTAL FREE ENERGY PREDICTED BY IDOCK:   -7.91 KCAL/MOL
REMARK 923 INTER-LIGAND FREE ENERGY PREDICTED BY IDOCK:   -7.91 KCAL/MOL
REMARK 924 INTRA-LIGAND FREE ENERGY PREDICTED BY IDOCK:    0.00 KCAL/MOL
REMARK 927      BINDING AFFINITY PREDICTED BY RF-SCORE:    0.00 PKD
ROOT
HETATM    1  C   UNL     1     -13.506  12.223  71.957  1.00  0.00    -0.418 C  
HETATM    2  C   UNL     1     -12.575  11.277  71.249  1.00  0.00    -0.487 A  
HETATM    3  C   UNL     1     -12.446   9.990  71.826  1.00  0.00    -0.475 A  
HETATM    4  C   UNL     1     -11.682   8.999  71.216  1.00  0.00    -0.382 A  
HETATM    5  C   UNL     1     -11.040   9.272  70.023  1.00  0.00    -0.228 A  
HETATM    6  C   UNL     1     -11.133  10.550  69.463  1.00  0.00    -0.320 A  
HETATM    7  C   UNL     1     -11.866  11.594  70.065  1.00  0.00    -0.355 A  
ENDROOT
BRANCH   7   8
HETATM    8  N   UNL     1     -11.779  12.861  69.505  1.00  0.00    -0.319 NA 
HETATM    9  C   UNL     1     -11.393  13.047  68.105  1.00  0.00    -0.294 C  
HETATM   10  C   UNL     1     -12.102  14.274  67.501  1.00  0.00    -0.312 C  
HETATM   11  N   UNL     1     -11.898  15.535  68.252  1.00  0.00    -0.269 NA 
HETATM   12  C   UNL     1     -11.742  14.069  70.357  1.00  0.00    -0.222 C  
HETATM   13  C   UNL     1     -12.378  15.289  69.635  1.00  0.00    -0.210 C  
BRANCH  11  14
HETATM   14  C   UNL     1     -10.486  15.988  68.264  1.00  0.00    -0.269 C  
BRANCH  14  15
HETATM   15  C   UNL     1     -10.294  17.255  69.102  1.00  0.00    -0.290 C  
BRANCH  15  16
HETATM   16  C   UNL     1      -9.924  18.454  68.310  1.00  0.00    -0.369 A  
HETATM   17  N   UNL     1     -10.685  19.235  67.573  1.00  0.00    -0.476 NA 
HETATM   18  N   UNL     1      -9.888  20.216  67.018  1.00  0.00    -0.428 NA 
HETATM   19  C   UNL     1      -8.656  20.012  67.429  1.00  0.00    -0.341 A  
HETATM   20  C   UNL     1      -7.427  20.786  67.116  1.00  0.00    -0.366 C  
HETATM   21  C   UNL     1      -6.162  20.013  67.512  1.00  0.00    -0.227 C  
HETATM   22  C   UNL     1      -6.307  19.394  68.903  1.00  0.00    -0.296 C  
HETATM   23  C   UNL     1      -7.473  18.406  68.927  1.00  0.00    -0.243 C  
HETATM   24  N   UNL     1      -8.646  18.937  68.269  1.00  0.00    -0.318 NA 
ENDBRANCH  15  16
ENDBRANCH  14  15
ENDBRANCH  11  14
ENDBRANCH   7   8
TORSDOF 4
ENDMDL
MODEL       45
REMARK 921   NORMALIZED FREE ENERGY PREDICTED BY IDOCK:   -6.18 KCAL/MOL
REMARK 922        TOTAL FREE ENERGY PREDICTED BY IDOCK:   -7.89 KCAL/MOL
REMARK 923 INTER-LIGAND FREE ENERGY PREDICTED BY IDOCK:   -7.65 KCAL/MOL
REMARK 924 INTRA-LIGAND FREE ENERGY PREDICTED BY IDOCK:   -0.24 KCAL/MOL
REMARK 927      BINDING AFFINITY PREDICTED BY RF-SCORE:    0.00 PKD
ROOT
HETATM    1  C   UNL     1     -10.601   9.231  67.442  1.00  0.00    -0.324 C  
HETATM    2  C   UNL     1      -9.759   9.303  66.196  1.00  0.00    -0.349 A  
HETATM    3  C   UNL     1      -8.894   8.204  65.972  1.00  0.00    -0.206 A  
HETATM    4  C   UNL     1      -8.129   8.113  64.812  1.00  0.00    -0.152 A  
HETATM    5  C   UNL     1      -8.218   9.110  63.859  1.00  0.00    -0.172 A  
HETATM    6  C   UNL     1      -9.043  10.215  64.087  1.00  0.00    -0.287 A  
HETATM    7  C   UNL     1      -9.807  10.366  65.262  1.00  0.00    -0.297 A  
ENDROOT
BRANCH   7   8
HETATM    8  N   UNL     1     -10.482  11.564  65.454  1.00  0.00    -0.272 NA 
HETATM    9  C   UNL     1     -11.162  12.237  64.347  1.00  0.00    -0.334 C  
HETATM   10  C   UNL     1     -12.416  12.979  64.846  1.00  0.00    -0.455 C  
HETATM   11  N   UNL     1     -12.165  13.943  65.944  1.00  0.00    -0.439 NA 
HETATM   12  C   UNL     1     -10.268  12.371  66.675  1.00  0.00    -0.224 C  
HETATM   13  C   UNL     1     -11.544  13.173  67.051  1.00  0.00    -0.359 C  
BRANCH  11  14
HETATM   14  C   UNL     1     -11.293  15.074  65.544  1.00  0.00    -0.312 C  
BRANCH  14  15
HETATM   15  C   UNL     1     -10.772  15.855  66.752  1.00  0.00    -0.281 C  
BRANCH  15  16
HETATM   16  C   UNL     1      -9.592  16.705  66.461  1.00  0.00    -0.273 A  
HETATM   17  N   UNL     1      -8.446  16.379  65.899  1.00  0.00    -0.350 NA 
HETATM   18  N   UNL     1      -7.653  17.507  65.852  1.00  0.00    -0.511 NA 
HETATM   19  C   UNL     1      -8.330  18.499  66.386  1.00  0.00    -0.259 A  
HETATM   20  C   UNL     1      -7.922  19.915  66.575  1.00  0.00    -0.346 C  
HETATM   21  C   UNL     1      -8.863  20.645  67.543  1.00  0.00    -0.290 C  
HETATM   22  C   UNL     1     -10.327  20.338  67.226  1.00  0.00    -0.420 C  
HETATM   23  C   UNL     1     -10.600  18.840  67.366  1.00  0.00    -0.443 C  
HETATM   24  N   UNL     1      -9.564  18.042  66.747  1.00  0.00    -0.291 NA 
ENDBRANCH  15  16
ENDBRANCH  14  15
ENDBRANCH  11  14
ENDBRANCH   7   8
TORSDOF 4
ENDMDL
MODEL       46
REMARK 921   NORMALIZED FREE ENERGY PREDICTED BY IDOCK:   -6.15 KCAL/MOL
REMARK 922        TOTAL FREE ENERGY PREDICTED BY IDOCK:   -7.84 KCAL/MOL
REMARK 923 INTER-LIGAND FREE ENERGY PREDICTED BY IDOCK:   -7.40 KCAL/MOL
REMARK 924 INTRA-LIGAND FREE ENERGY PREDICTED BY IDOCK:   -0.44 KCAL/MOL
REMARK 927      BINDING AFFINITY PREDICTED BY RF-SCORE:    0.00 PKD
ROOT
HETATM    1  C   UNL     1     -11.310   6.368  69.774  1.00  0.00    -0.494 C  
HETATM    2  C   UNL     1     -10.944   6.671  71.202  1.00  0.00    -0.302 A  
HETATM    3  C   UNL     1     -10.671   5.549  72.021  1.00  0.00    -0.293 A  
HETATM    4  C   UNL     1     -10.238   5.702  73.335  1.00  0.00    -0.223 A  
HETATM    5  C   UNL     1     -10.067   6.973  73.851  1.00  0.00    -0.386 A  
HETATM    6  C   UNL     1     -10.367   8.088  73.061  1.00  0.00    -0.351 A  
HETATM    7  C   UNL     1     -10.842   7.978  71.738  1.00  0.00    -0.242 A  
ENDROOT
BRANCH   7   8
HETATM    8  N   UNL     1     -11.244   9.137  71.090  1.00  0.00    -0.296 NA 
HETATM    9  C   UNL     1     -10.369   9.812  70.130  1.00  0.00    -0.282 C  
HETATM   10  C   UNL     1     -11.193  10.481  69.014  1.00  0.00    -0.259 C  
HETATM   11  N   UNL     1     -12.233  11.421  69.496  1.00  0.00    -0.274 NA 
HETATM   12  C   UNL     1     -12.406   9.915  71.572  1.00  0.00    -0.412 C  
HETATM   13  C   UNL     1     -13.119  10.647  70.401  1.00  0.00    -0.038 C  
BRANCH  11  14
HETATM   14  C   UNL     1     -11.675  12.602  70.199  1.00  0.00    -0.168 C  
BRANCH  14  15
HETATM   15  C   UNL     1     -12.514  13.861  69.963  1.00  0.00    -0.325 C  
BRANCH  15  16
HETATM   16  C   UNL     1     -11.752  14.998  69.391  1.00  0.00    -0.326 A  
HETATM   17  N   UNL     1     -11.314  16.091  69.980  1.00  0.00    -0.342 NA 
HETATM   18  N   UNL     1     -10.668  16.862  69.035  1.00  0.00    -0.328 NA 
HETATM   19  C   UNL     1     -10.725  16.223  67.888  1.00  0.00    -0.329 A  
HETATM   20  C   UNL     1     -10.184  16.627  66.565  1.00  0.00    -0.314 C  
HETATM   21  C   UNL     1     -10.768  15.770  65.434  1.00  0.00    -0.420 C  
HETATM   22  C   UNL     1     -10.764  14.287  65.807  1.00  0.00    -0.308 C  
HETATM   23  C   UNL     1     -11.620  14.049  67.051  1.00  0.00    -0.371 C  
HETATM   24  N   UNL     1     -11.366  15.034  68.080  1.00  0.00    -0.316 NA 
ENDBRANCH  15  16
ENDBRANCH  14  15
ENDBRANCH  11  14
ENDBRANCH   7   8
TORSDOF 4
ENDMDL
MODEL       47
REMARK 921   NORMALIZED FREE ENERGY PREDICTED BY IDOCK:   -6.13 KCAL/MOL
REMARK 922        TOTAL FREE ENERGY PREDICTED BY IDOCK:   -7.82 KCAL/MOL
REMARK 923 INTER-LIGAND FREE ENERGY PREDICTED BY IDOCK:   -7.25 KCAL/MOL
REMARK 924 INTRA-LIGAND FREE ENERGY PREDICTED BY IDOCK:   -0.58 KCAL/MOL
REMARK 927      BINDING AFFINITY PREDICTED BY RF-SCORE:    0.00 PKD
ROOT
HETATM    1  C   UNL     1     -11.333   6.054  69.943  1.00  0.00    -0.355 C  
HETATM    2  C   UNL     1     -10.832   6.559  71.269  1.00  0.00    -0.294 A  
HETATM    3  C   UNL     1     -10.532   5.566  72.234  1.00  0.00    -0.266 A  
HETATM    4  C   UNL     1      -9.981   5.901  73.468  1.00  0.00    -0.187 A  
HETATM    5  C   UNL     1      -9.716   7.227  73.756  1.00  0.00    -0.344 A  
HETATM    6  C   UNL     1     -10.040   8.217  72.824  1.00  0.00    -0.333 A  
HETATM    7  C   UNL     1     -10.633   7.926  71.578  1.00  0.00    -0.222 A  
ENDROOT
BRANCH   7   8
HETATM    8  N   UNL     1     -11.045   8.988  70.785  1.00  0.00    -0.257 NA 
HETATM    9  C   UNL     1     -10.249   9.434  69.640  1.00  0.00    -0.212 C  
HETATM   10  C   UNL     1     -11.158   9.966  68.517  1.00  0.00    -0.129 C  
HETATM   11  N   UNL     1     -12.086  11.044  68.935  1.00  0.00    -0.511 NA 
HETATM   12  C   UNL     1     -12.103   9.915  71.244  1.00  0.00    -0.394 C  
HETATM   13  C   UNL     1     -12.904  10.492  70.045  1.00  0.00     0.023 C  
BRANCH  11  14
HETATM   14  C   UNL     1     -11.393  12.282  69.364  1.00  0.00    -0.228 C  
BRANCH  14  15
HETATM   15  C   UNL     1     -10.482  12.842  68.268  1.00  0.00    -0.250 C  
BRANCH  15  16
HETATM   16  C   UNL     1     -11.208  13.343  67.076  1.00  0.00    -0.305 A  
HETATM   17  N   UNL     1     -12.001  14.386  66.958  1.00  0.00    -0.418 NA 
HETATM   18  N   UNL     1     -12.453  14.441  65.655  1.00  0.00    -0.375 NA 
HETATM   19  C   UNL     1     -11.925  13.429  65.004  1.00  0.00    -0.374 A  
HETATM   20  C   UNL     1     -12.097  13.042  63.580  1.00  0.00    -0.617 C  
HETATM   21  C   UNL     1     -11.592  11.616  63.321  1.00  0.00    -0.246 C  
HETATM   22  C   UNL     1     -10.235  11.382  63.988  1.00  0.00    -0.398 C  
HETATM   23  C   UNL     1     -10.348  11.560  65.502  1.00  0.00    -0.273 C  
HETATM   24  N   UNL     1     -11.110  12.738  65.853  1.00  0.00    -0.280 NA 
ENDBRANCH  15  16
ENDBRANCH  14  15
ENDBRANCH  11  14
ENDBRANCH   7   8
TORSDOF 4
ENDMDL
MODEL       48
REMARK 921   NORMALIZED FREE ENERGY PREDICTED BY IDOCK:   -6.12 KCAL/MOL
REMARK 922        TOTAL FREE ENERGY PREDICTED BY IDOCK:   -7.81 KCAL/MOL
REMARK 923 INTER-LIGAND FREE ENERGY PREDICTED BY IDOCK:   -7.34 KCAL/MOL
REMARK 924 INTRA-LIGAND FREE ENERGY PREDICTED BY IDOCK:   -0.47 KCAL/MOL
REMARK 927      BINDING AFFINITY PREDICTED BY RF-SCORE:    0.00 PKD
ROOT
HETATM    1  C   UNL     1     -12.604   6.980  71.357  1.00  0.00    -0.428 C  
HETATM    2  C   UNL     1     -11.356   7.420  72.074  1.00  0.00    -0.301 A  
HETATM    3  C   UNL     1     -10.949   6.607  73.160  1.00  0.00    -0.263 A  
HETATM    4  C   UNL     1      -9.764   6.861  73.847  1.00  0.00    -0.305 A  
HETATM    5  C   UNL     1      -8.967   7.922  73.460  1.00  0.00    -0.343 A  
HETATM    6  C   UNL     1      -9.377   8.750  72.411  1.00  0.00    -0.159 A  
HETATM    7  C   UNL     1     -10.586   8.552  71.712  1.00  0.00    -0.301 A  
ENDROOT
BRANCH   7   8
HETATM    8  N   UNL     1     -10.969   9.511  70.784  1.00  0.00    -0.292 NA 
HETATM    9  C   UNL     1     -10.169   9.770  69.587  1.00  0.00    -0.233 C  
HETATM   10  C   UNL     1     -11.069  10.176  68.404  1.00  0.00    -0.218 C  
HETATM   11  N   UNL     1     -11.958  11.331  68.676  1.00  0.00    -0.537 NA 
HETATM   12  C   UNL     1     -11.993  10.525  71.117  1.00  0.00    -0.336 C  
HETATM   13  C   UNL     1     -12.785  10.962  69.853  1.00  0.00    -0.045 C  
BRANCH  11  14
HETATM   14  C   UNL     1     -11.221  12.592  68.932  1.00  0.00    -0.281 C  
BRANCH  14  15
HETATM   15  C   UNL     1     -12.013  13.823  68.483  1.00  0.00    -0.402 C  
BRANCH  15  16
HETATM   16  C   UNL     1     -11.388  14.569  67.364  1.00  0.00    -0.356 A  
HETATM   17  N   UNL     1     -11.294  14.242  66.092  1.00  0.00    -0.335 NA 
HETATM   18  N   UNL     1     -10.615  15.250  65.436  1.00  0.00    -0.363 NA 
HETATM   19  C   UNL     1     -10.309  16.171  66.322  1.00  0.00    -0.328 A  
HETATM   20  C   UNL     1      -9.580  17.450  66.127  1.00  0.00    -0.213 C  
HETATM   21  C   UNL     1      -9.136  18.054  67.466  1.00  0.00    -0.253 C  
HETATM   22  C   UNL     1     -10.266  18.002  68.495  1.00  0.00    -0.392 C  
HETATM   23  C   UNL     1     -10.679  16.554  68.760  1.00  0.00    -0.339 C  
HETATM   24  N   UNL     1     -10.809  15.796  67.535  1.00  0.00    -0.318 NA 
ENDBRANCH  15  16
ENDBRANCH  14  15
ENDBRANCH  11  14
ENDBRANCH   7   8
TORSDOF 4
ENDMDL
MODEL       49
REMARK 921   NORMALIZED FREE ENERGY PREDICTED BY IDOCK:   -6.06 KCAL/MOL
REMARK 922        TOTAL FREE ENERGY PREDICTED BY IDOCK:   -7.74 KCAL/MOL
REMARK 923 INTER-LIGAND FREE ENERGY PREDICTED BY IDOCK:   -7.12 KCAL/MOL
REMARK 924 INTRA-LIGAND FREE ENERGY PREDICTED BY IDOCK:   -0.62 KCAL/MOL
REMARK 927      BINDING AFFINITY PREDICTED BY RF-SCORE:    0.00 PKD
ROOT
HETATM    1  C   UNL     1     -12.232  12.243  70.122  1.00  0.00    -0.302 C  
HETATM    2  C   UNL     1     -12.442  13.533  70.869  1.00  0.00    -0.448 A  
HETATM    3  C   UNL     1     -13.308  13.464  71.987  1.00  0.00    -0.569 A  
HETATM    4  C   UNL     1     -13.515  14.569  72.809  1.00  0.00    -0.575 A  
HETATM    5  C   UNL     1     -12.860  15.754  72.533  1.00  0.00    -0.545 A  
HETATM    6  C   UNL     1     -12.029  15.842  71.412  1.00  0.00    -0.499 A  
HETATM    7  C   UNL     1     -11.820  14.759  70.533  1.00  0.00    -0.302 A  
ENDROOT
BRANCH   7   8
HETATM    8  N   UNL     1     -11.092  14.990  69.373  1.00  0.00    -0.264 NA 
HETATM    9  C   UNL     1      -9.653  14.730  69.317  1.00  0.00    -0.076 C  
HETATM   10  C   UNL     1      -9.236  14.268  67.907  1.00  0.00    -0.194 C  
HETATM   11  N   UNL     1      -9.624  15.195  66.817  1.00  0.00    -0.234 NA 
HETATM   12  C   UNL     1     -11.651  15.807  68.274  1.00  0.00    -0.298 C  
HETATM   13  C   UNL     1     -11.098  15.350  66.896  1.00  0.00    -0.256 C  
BRANCH  11  14
HETATM   14  C   UNL     1      -8.956  16.516  66.905  1.00  0.00    -0.219 C  
BRANCH  14  15
HETATM   15  C   UNL     1      -7.432  16.398  66.814  1.00  0.00    -0.278 C  
BRANCH  15  16
HETATM   16  C   UNL     1      -6.726  16.678  68.088  1.00  0.00    -0.144 A  
HETATM   17  N   UNL     1      -6.215  15.835  68.961  1.00  0.00    -0.115 NA 
HETATM   18  N   UNL     1      -5.669  16.566  69.997  1.00  0.00    -0.202 NA 
HETATM   19  C   UNL     1      -5.859  17.840  69.735  1.00  0.00    -0.245 A  
HETATM   20  C   UNL     1      -5.462  19.028  70.533  1.00  0.00    -0.237 C  
HETATM   21  C   UNL     1      -6.176  20.296  70.045  1.00  0.00    -0.351 C  
HETATM   22  C   UNL     1      -6.146  20.393  68.519  1.00  0.00    -0.342 C  
HETATM   23  C   UNL     1      -6.863  19.195  67.896  1.00  0.00    -0.224 C  
HETATM   24  N   UNL     1      -6.487  17.950  68.528  1.00  0.00    -0.204 NA 
ENDBRANCH  15  16
ENDBRANCH  14  15
ENDBRANCH  11  14
ENDBRANCH   7   8
TORSDOF 4
ENDMDL
MODEL       50
REMARK 921   NORMALIZED FREE ENERGY PREDICTED BY IDOCK:   -6.06 KCAL/MOL
REMARK 922        TOTAL FREE ENERGY PREDICTED BY IDOCK:   -7.74 KCAL/MOL
REMARK 923 INTER-LIGAND FREE ENERGY PREDICTED BY IDOCK:   -7.16 KCAL/MOL
REMARK 924 INTRA-LIGAND FREE ENERGY PREDICTED BY IDOCK:   -0.58 KCAL/MOL
REMARK 927      BINDING AFFINITY PREDICTED BY RF-SCORE:    0.00 PKD
ROOT
HETATM    1  C   UNL     1     -10.688  19.359  66.960  1.00  0.00    -0.582 C  
HETATM    2  C   UNL     1      -9.410  18.848  67.571  1.00  0.00    -0.327 A  
HETATM    3  C   UNL     1      -8.491  19.838  67.994  1.00  0.00    -0.338 A  
HETATM    4  C   UNL     1      -7.312  19.494  68.652  1.00  0.00    -0.381 A  
HETATM    5  C   UNL     1      -7.036  18.163  68.901  1.00  0.00    -0.282 A  
HETATM    6  C   UNL     1      -7.922  17.176  68.457  1.00  0.00    -0.259 A  
HETATM    7  C   UNL     1      -9.108  17.478  67.755  1.00  0.00    -0.249 A  
ENDROOT
BRANCH   7   8
HETATM    8  N   UNL     1      -9.845  16.423  67.234  1.00  0.00    -0.240 NA 
HETATM    9  C   UNL     1     -10.435  15.406  68.107  1.00  0.00    -0.247 C  
HETATM   10  C   UNL     1     -11.762  14.887  67.521  1.00  0.00    -0.308 C  
HETATM   11  N   UNL     1     -11.661  14.366  66.137  1.00  0.00    -0.375 NA 
HETATM   12  C   UNL     1      -9.788  16.093  65.794  1.00  0.00    -0.320 C  
HETATM   13  C   UNL     1     -11.126  15.474  65.305  1.00  0.00    -0.338 C  
BRANCH  11  14
HETATM   14  C   UNL     1     -10.798  13.166  66.023  1.00  0.00    -0.272 C  
BRANCH  14  15
HETATM   15  C   UNL     1     -11.608  11.868  66.072  1.00  0.00    -0.296 C  
BRANCH  15  16
HETATM   16  C   UNL     1     -11.449  11.102  67.333  1.00  0.00    -0.180 A  
HETATM   17  N   UNL     1     -11.954  11.341  68.524  1.00  0.00    -0.575 NA 
HETATM   18  N   UNL     1     -11.514  10.356  69.386  1.00  0.00    -0.242 NA 
HETATM   19  C   UNL     1     -10.748   9.536  68.701  1.00  0.00    -0.184 A  
HETATM   20  C   UNL     1     -10.031   8.321  69.165  1.00  0.00    -0.196 C  
HETATM   21  C   UNL     1      -8.983   7.863  68.141  1.00  0.00    -0.131 C  
HETATM   22  C   UNL     1      -9.551   7.885  66.722  1.00  0.00    -0.278 C  
HETATM   23  C   UNL     1      -9.976   9.303  66.340  1.00  0.00    -0.286 C  
HETATM   24  N   UNL     1     -10.712   9.952  67.402  1.00  0.00    -0.272 NA 
ENDBRANCH  15  16
ENDBRANCH  14  15
ENDBRANCH  11  14
ENDBRANCH   7   8
TORSDOF 4
ENDMDL
MODEL       51
REMARK 921   NORMALIZED FREE ENERGY PREDICTED BY IDOCK:   -6.05 KCAL/MOL
REMARK 922        TOTAL FREE ENERGY PREDICTED BY IDOCK:   -7.72 KCAL/MOL
REMARK 923 INTER-LIGAND FREE ENERGY PREDICTED BY IDOCK:   -7.36 KCAL/MOL
REMARK 924 INTRA-LIGAND FREE ENERGY PREDICTED BY IDOCK:   -0.36 KCAL/MOL
REMARK 927      BINDING AFFINITY PREDICTED BY RF-SCORE:    0.00 PKD
ROOT
HETATM    1  C   UNL     1      -9.999   6.085  67.751  1.00  0.00    -0.149 C  
HETATM    2  C   UNL     1      -9.843   5.051  68.833  1.00  0.00    -0.245 A  
HETATM    3  C   UNL     1      -9.530   3.741  68.394  1.00  0.00    -0.211 A  
HETATM    4  C   UNL     1      -9.277   2.717  69.302  1.00  0.00    -0.203 A  
HETATM    5  C   UNL     1      -9.327   2.982  70.658  1.00  0.00    -0.221 A  
HETATM    6  C   UNL     1      -9.669   4.264  71.101  1.00  0.00    -0.259 A  
HETATM    7  C   UNL     1      -9.968   5.320  70.217  1.00  0.00    -0.240 A  
ENDROOT
BRANCH   7   8
HETATM    8  N   UNL     1     -10.434   6.512  70.756  1.00  0.00    -0.214 NA 
HETATM    9  C   UNL     1     -11.851   6.872  70.690  1.00  0.00    -0.368 C  
HETATM   10  C   UNL     1     -12.267   7.685  71.931  1.00  0.00    -0.304 C  
HETATM   11  N   UNL     1     -11.450   8.897  72.175  1.00  0.00    -0.356 NA 
HETATM   12  C   UNL     1      -9.500   7.602  71.113  1.00  0.00    -0.154 C  
HETATM   13  C   UNL     1     -10.042   8.442  72.303  1.00  0.00    -0.312 C  
BRANCH  11  14
HETATM   14  C   UNL     1     -11.573   9.913  71.102  1.00  0.00    -0.389 C  
BRANCH  14  15
HETATM   15  C   UNL     1     -12.967  10.545  71.064  1.00  0.00    -0.475 C  
BRANCH  15  16
HETATM   16  C   UNL     1     -13.013  11.940  71.564  1.00  0.00    -0.323 A  
HETATM   17  N   UNL     1     -13.495  12.406  72.697  1.00  0.00    -0.166 NA 
HETATM   18  N   UNL     1     -13.324  13.775  72.708  1.00  0.00    -0.608 NA 
HETATM   19  C   UNL     1     -12.741  14.118  71.581  1.00  0.00    -0.349 A  
HETATM   20  C   UNL     1     -12.343  15.468  71.107  1.00  0.00    -0.468 C  
HETATM   21  C   UNL     1     -12.018  15.462  69.607  1.00  0.00    -0.366 C  
HETATM   22  C   UNL     1     -11.141  14.266  69.237  1.00  0.00    -0.297 C  
HETATM   23  C   UNL     1     -11.865  12.957  69.553  1.00  0.00    -0.320 C  
HETATM   24  N   UNL     1     -12.499  12.989  70.853  1.00  0.00    -0.357 NA 
ENDBRANCH  15  16
ENDBRANCH  14  15
ENDBRANCH  11  14
ENDBRANCH   7   8
TORSDOF 4
ENDMDL
MODEL       52
REMARK 921   NORMALIZED FREE ENERGY PREDICTED BY IDOCK:   -6.04 KCAL/MOL
REMARK 922        TOTAL FREE ENERGY PREDICTED BY IDOCK:   -7.71 KCAL/MOL
REMARK 923 INTER-LIGAND FREE ENERGY PREDICTED BY IDOCK:   -7.51 KCAL/MOL
REMARK 924 INTRA-LIGAND FREE ENERGY PREDICTED BY IDOCK:   -0.20 KCAL/MOL
REMARK 927      BINDING AFFINITY PREDICTED BY RF-SCORE:    0.00 PKD
ROOT
HETATM    1  C   UNL     1     -10.932  16.306  69.585  1.00  0.00    -0.346 C  
HETATM    2  C   UNL     1     -10.760  16.934  68.227  1.00  0.00    -0.377 A  
HETATM    3  C   UNL     1     -10.778  18.350  68.196  1.00  0.00    -0.208 A  
HETATM    4  C   UNL     1     -10.544  19.048  67.014  1.00  0.00    -0.543 A  
HETATM    5  C   UNL     1     -10.284  18.349  65.851  1.00  0.00    -0.250 A  
HETATM    6  C   UNL     1     -10.298  16.951  65.865  1.00  0.00    -0.327 A  
HETATM    7  C   UNL     1     -10.567  16.204  67.030  1.00  0.00    -0.292 A  
ENDROOT
BRANCH   7   8
HETATM    8  N   UNL     1     -10.697  14.827  66.909  1.00  0.00    -0.302 NA 
HETATM    9  C   UNL     1     -11.911  14.226  66.353  1.00  0.00    -0.419 C  
HETATM   10  C   UNL     1     -11.579  12.933  65.586  1.00  0.00    -0.361 C  
HETATM   11  N   UNL     1     -10.833  11.924  66.374  1.00  0.00    -0.267 NA 
HETATM   12  C   UNL     1      -9.784  13.909  67.625  1.00  0.00    -0.226 C  
HETATM   13  C   UNL     1      -9.587  12.584  66.838  1.00  0.00    -0.229 C  
BRANCH  11  14
HETATM   14  C   UNL     1     -11.601  11.394  67.526  1.00  0.00    -0.219 C  
BRANCH  14  15
HETATM   15  C   UNL     1     -10.690  10.790  68.598  1.00  0.00    -0.242 C  
BRANCH  15  16
HETATM   16  C   UNL     1     -11.385  10.455  69.865  1.00  0.00    -0.302 A  
HETATM   17  N   UNL     1     -12.201  11.190  70.589  1.00  0.00    -0.370 NA 
HETATM   18  N   UNL     1     -12.586  10.451  71.690  1.00  0.00    -0.419 NA 
HETATM   19  C   UNL     1     -11.996   9.279  71.614  1.00  0.00    -0.378 A  
HETATM   20  C   UNL     1     -12.080   8.128  72.549  1.00  0.00    -0.377 C  
HETATM   21  C   UNL     1     -10.974   7.099  72.273  1.00  0.00    -0.277 C  
HETATM   22  C   UNL     1     -10.841   6.821  70.775  1.00  0.00    -0.291 C  
HETATM   23  C   UNL     1     -10.472   8.102  70.027  1.00  0.00    -0.231 C  
HETATM   24  N   UNL     1     -11.262   9.232  70.464  1.00  0.00    -0.255 NA 
ENDBRANCH  15  16
ENDBRANCH  14  15
ENDBRANCH  11  14
ENDBRANCH   7   8
TORSDOF 4
ENDMDL
MODEL       53
REMARK 921   NORMALIZED FREE ENERGY PREDICTED BY IDOCK:   -5.99 KCAL/MOL
REMARK 922        TOTAL FREE ENERGY PREDICTED BY IDOCK:   -7.65 KCAL/MOL
REMARK 923 INTER-LIGAND FREE ENERGY PREDICTED BY IDOCK:   -7.24 KCAL/MOL
REMARK 924 INTRA-LIGAND FREE ENERGY PREDICTED BY IDOCK:   -0.41 KCAL/MOL
REMARK 927      BINDING AFFINITY PREDICTED BY RF-SCORE:    0.00 PKD
ROOT
HETATM    1  C   UNL     1     -10.967   7.398  73.437  1.00  0.00    -0.292 C  
HETATM    2  C   UNL     1     -10.571   5.960  73.232  1.00  0.00    -0.277 A  
HETATM    3  C   UNL     1     -10.486   5.170  74.404  1.00  0.00    -0.294 A  
HETATM    4  C   UNL     1     -10.214   3.806  74.338  1.00  0.00    -0.237 A  
HETATM    5  C   UNL     1     -10.028   3.209  73.105  1.00  0.00    -0.194 A  
HETATM    6  C   UNL     1     -10.077   3.987  71.944  1.00  0.00    -0.214 A  
HETATM    7  C   UNL     1     -10.313   5.377  71.968  1.00  0.00    -0.213 A  
ENDROOT
BRANCH   7   8
HETATM    8  N   UNL     1     -10.201   6.080  70.776  1.00  0.00    -0.196 NA 
HETATM    9  C   UNL     1      -8.994   6.846  70.458  1.00  0.00    -0.155 C  
HETATM   10  C   UNL     1      -8.725   6.836  68.941  1.00  0.00    -0.129 C  
HETATM   11  N   UNL     1      -9.857   7.312  68.112  1.00  0.00    -0.145 NA 
HETATM   12  C   UNL     1     -11.390   6.361  69.943  1.00  0.00    -0.434 C  
HETATM   13  C   UNL     1     -11.016   6.443  68.437  1.00  0.00    -0.309 C  
BRANCH  11  14
HETATM   14  C   UNL     1     -10.195   8.737  68.342  1.00  0.00    -0.196 C  
BRANCH  14  15
HETATM   15  C   UNL     1      -9.945   9.596  67.099  1.00  0.00    -0.249 C  
BRANCH  15  16
HETATM   16  C   UNL     1     -10.836  10.777  66.990  1.00  0.00    -0.252 A  
HETATM   17  N   UNL     1     -11.589  11.342  67.910  1.00  0.00    -0.496 NA 
HETATM   18  N   UNL     1     -12.250  12.408  67.332  1.00  0.00    -0.384 NA 
HETATM   19  C   UNL     1     -11.885  12.471  66.071  1.00  0.00    -0.418 A  
HETATM   20  C   UNL     1     -12.311  13.432  65.022  1.00  0.00    -0.481 C  
HETATM   21  C   UNL     1     -11.921  12.943  63.620  1.00  0.00    -0.613 C  
HETATM   22  C   UNL     1     -10.485  12.419  63.598  1.00  0.00    -0.460 C  
HETATM   23  C   UNL     1     -10.335  11.236  64.555  1.00  0.00    -0.322 C  
HETATM   24  N   UNL     1     -10.972  11.486  65.829  1.00  0.00    -0.277 NA 
ENDBRANCH  15  16
ENDBRANCH  14  15
ENDBRANCH  11  14
ENDBRANCH   7   8
TORSDOF 4
ENDMDL
MODEL       54
REMARK 921   NORMALIZED FREE ENERGY PREDICTED BY IDOCK:   -5.97 KCAL/MOL
REMARK 922        TOTAL FREE ENERGY PREDICTED BY IDOCK:   -7.62 KCAL/MOL
REMARK 923 INTER-LIGAND FREE ENERGY PREDICTED BY IDOCK:   -7.52 KCAL/MOL
REMARK 924 INTRA-LIGAND FREE ENERGY PREDICTED BY IDOCK:   -0.10 KCAL/MOL
REMARK 927      BINDING AFFINITY PREDICTED BY RF-SCORE:    0.00 PKD
ROOT
HETATM    1  C   UNL     1      -9.316  11.956  66.354  1.00  0.00    -0.233 C  
HETATM    2  C   UNL     1     -10.354  12.444  65.379  1.00  0.00    -0.303 A  
HETATM    3  C   UNL     1     -10.686  11.549  64.333  1.00  0.00    -0.404 A  
HETATM    4  C   UNL     1     -11.692  11.850  63.419  1.00  0.00    -0.500 A  
HETATM    5  C   UNL     1     -12.385  13.040  63.536  1.00  0.00    -0.500 A  
HETATM    6  C   UNL     1     -12.041  13.945  64.546  1.00  0.00    -0.473 A  
HETATM    7  C   UNL     1     -11.005  13.698  65.469  1.00  0.00    -0.293 A  
ENDROOT
BRANCH   7   8
HETATM    8  N   UNL     1     -10.649  14.718  66.341  1.00  0.00    -0.293 NA 
HETATM    9  C   UNL     1      -9.619  15.695  65.984  1.00  0.00    -0.351 C  
HETATM   10  C   UNL     1      -9.933  17.071  66.603  1.00  0.00    -0.302 C  
HETATM   11  N   UNL     1     -10.125  17.055  68.073  1.00  0.00    -0.290 NA 
HETATM   12  C   UNL     1     -11.037  14.671  67.767  1.00  0.00    -0.298 C  
HETATM   13  C   UNL     1     -11.229  16.100  68.346  1.00  0.00    -0.358 C  
BRANCH  11  14
HETATM   14  C   UNL     1      -8.904  16.667  68.820  1.00  0.00    -0.264 C  
BRANCH  14  15
HETATM   15  C   UNL     1      -7.628  16.932  68.016  1.00  0.00    -0.182 C  
BRANCH  15  16
HETATM   16  C   UNL     1      -7.162  18.339  68.067  1.00  0.00    -0.236 A  
HETATM   17  N   UNL     1      -7.062  19.148  69.101  1.00  0.00    -0.330 NA 
HETATM   18  N   UNL     1      -6.590  20.365  68.652  1.00  0.00    -0.285 NA 
HETATM   19  C   UNL     1      -6.411  20.274  67.353  1.00  0.00    -0.219 A  
HETATM   20  C   UNL     1      -5.922  21.304  66.402  1.00  0.00    -0.346 C  
HETATM   21  C   UNL     1      -6.195  20.899  64.947  1.00  0.00    -0.287 C  
HETATM   22  C   UNL     1      -5.821  19.436  64.703  1.00  0.00    -0.304 C  
HETATM   23  C   UNL     1      -6.653  18.518  65.597  1.00  0.00    -0.275 C  
HETATM   24  N   UNL     1      -6.726  19.006  66.956  1.00  0.00    -0.197 NA 
ENDBRANCH  15  16
ENDBRANCH  14  15
ENDBRANCH  11  14
ENDBRANCH   7   8
TORSDOF 4
ENDMDL
MODEL       55
REMARK 921   NORMALIZED FREE ENERGY PREDICTED BY IDOCK:   -5.95 KCAL/MOL
REMARK 922        TOTAL FREE ENERGY PREDICTED BY IDOCK:   -7.60 KCAL/MOL
REMARK 923 INTER-LIGAND FREE ENERGY PREDICTED BY IDOCK:   -7.14 KCAL/MOL
REMARK 924 INTRA-LIGAND FREE ENERGY PREDICTED BY IDOCK:   -0.45 KCAL/MOL
REMARK 927      BINDING AFFINITY PREDICTED BY RF-SCORE:    0.00 PKD
ROOT
HETATM    1  C   UNL     1     -10.733  16.455  64.791  1.00  0.00    -0.100 C  
HETATM    2  C   UNL     1     -10.526  17.114  66.128  1.00  0.00    -0.277 A  
HETATM    3  C   UNL     1     -10.205  18.493  66.092  1.00  0.00    -0.424 A  
HETATM    4  C   UNL     1     -10.075  19.234  67.264  1.00  0.00    -0.481 A  
HETATM    5  C   UNL     1     -10.267  18.616  68.485  1.00  0.00    -0.398 A  
HETATM    6  C   UNL     1     -10.551  17.247  68.531  1.00  0.00    -0.350 A  
HETATM    7  C   UNL     1     -10.656  16.451  67.372  1.00  0.00    -0.306 A  
ENDROOT
BRANCH   7   8
HETATM    8  N   UNL     1     -10.799  15.080  67.531  1.00  0.00    -0.289 NA 
HETATM    9  C   UNL     1     -12.106  14.433  67.402  1.00  0.00    -0.313 C  
HETATM   10  C   UNL     1     -11.959  13.015  66.818  1.00  0.00    -0.369 C  
HETATM   11  N   UNL     1     -11.033  12.134  67.568  1.00  0.00    -0.244 NA 
HETATM   12  C   UNL     1      -9.730  14.270  68.155  1.00  0.00    -0.226 C  
HETATM   13  C   UNL     1      -9.718  12.822  67.592  1.00  0.00    -0.205 C  
BRANCH  11  14
HETATM   14  C   UNL     1     -11.491  11.839  68.947  1.00  0.00    -0.297 C  
BRANCH  14  15
HETATM   15  C   UNL     1     -10.502  10.949  69.705  1.00  0.00    -0.056 C  
BRANCH  15  16
HETATM   16  C   UNL     1     -11.130  10.087  70.736  1.00  0.00    -0.334 A  
HETATM   17  N   UNL     1     -12.387  10.030  71.123  1.00  0.00    -0.347 NA 
HETATM   18  N   UNL     1     -12.488   9.081  72.121  1.00  0.00    -0.379 NA 
HETATM   19  C   UNL     1     -11.290   8.580  72.322  1.00  0.00    -0.371 A  
HETATM   20  C   UNL     1     -10.865   7.533  73.287  1.00  0.00    -0.409 C  
HETATM   21  C   UNL     1      -9.338   7.496  73.436  1.00  0.00    -0.291 C  
HETATM   22  C   UNL     1      -8.648   7.563  72.074  1.00  0.00    -0.126 C  
HETATM   23  C   UNL     1      -9.006   8.866  71.359  1.00  0.00    -0.229 C  
HETATM   24  N   UNL     1     -10.419   9.161  71.447  1.00  0.00    -0.323 NA 
ENDBRANCH  15  16
ENDBRANCH  14  15
ENDBRANCH  11  14
ENDBRANCH   7   8
TORSDOF 4
ENDMDL
MODEL       56
REMARK 921   NORMALIZED FREE ENERGY PREDICTED BY IDOCK:   -5.94 KCAL/MOL
REMARK 922        TOTAL FREE ENERGY PREDICTED BY IDOCK:   -7.59 KCAL/MOL
REMARK 923 INTER-LIGAND FREE ENERGY PREDICTED BY IDOCK:   -7.27 KCAL/MOL
REMARK 924 INTRA-LIGAND FREE ENERGY PREDICTED BY IDOCK:   -0.32 KCAL/MOL
REMARK 927      BINDING AFFINITY PREDICTED BY RF-SCORE:    0.00 PKD
ROOT
HETATM    1  C   UNL     1     -10.550   5.705  69.803  1.00  0.00    -0.400 C  
HETATM    2  C   UNL     1     -10.570   6.216  71.218  1.00  0.00    -0.295 A  
HETATM    3  C   UNL     1     -10.647   5.228  72.230  1.00  0.00    -0.280 A  
HETATM    4  C   UNL     1     -10.586   5.570  73.578  1.00  0.00    -0.305 A  
HETATM    5  C   UNL     1     -10.443   6.897  73.938  1.00  0.00    -0.352 A  
HETATM    6  C   UNL     1     -10.401   7.882  72.947  1.00  0.00    -0.413 A  
HETATM    7  C   UNL     1     -10.495   7.585  71.572  1.00  0.00    -0.204 A  
ENDROOT
BRANCH   7   8
HETATM    8  N   UNL     1     -10.586   8.643  70.679  1.00  0.00    -0.204 NA 
HETATM    9  C   UNL     1     -11.839   9.378  70.498  1.00  0.00    -0.151 C  
HETATM   10  C   UNL     1     -11.563  10.859  70.175  1.00  0.00    -0.338 C  
HETATM   11  N   UNL     1     -10.676  11.079  69.008  1.00  0.00    -0.208 NA 
HETATM   12  C   UNL     1      -9.548   8.860  69.647  1.00  0.00    -0.169 C  
HETATM   13  C   UNL     1      -9.406  10.367  69.299  1.00  0.00    -0.187 C  
BRANCH  11  14
HETATM   14  C   UNL     1     -11.259  10.602  67.730  1.00  0.00    -0.313 C  
BRANCH  14  15
HETATM   15  C   UNL     1     -10.500  11.142  66.514  1.00  0.00    -0.305 C  
BRANCH  15  16
HETATM   16  C   UNL     1     -11.307  12.032  65.643  1.00  0.00    -0.329 A  
HETATM   17  N   UNL     1     -12.277  11.726  64.807  1.00  0.00    -0.162 NA 
HETATM   18  N   UNL     1     -12.716  12.891  64.211  1.00  0.00    -0.693 NA 
HETATM   19  C   UNL     1     -12.004  13.884  64.697  1.00  0.00    -0.419 A  
HETATM   20  C   UNL     1     -12.083  15.333  64.379  1.00  0.00    -0.263 C  
HETATM   21  C   UNL     1     -10.854  16.089  64.900  1.00  0.00    -0.391 C  
HETATM   22  C   UNL     1     -10.511  15.668  66.329  1.00  0.00    -0.313 C  
HETATM   23  C   UNL     1     -10.186  14.175  66.380  1.00  0.00    -0.290 C  
HETATM   24  N   UNL     1     -11.135  13.388  65.624  1.00  0.00    -0.285 NA 
ENDBRANCH  15  16
ENDBRANCH  14  15
ENDBRANCH  11  14
ENDBRANCH   7   8
TORSDOF 4
ENDMDL
MODEL       57
REMARK 921   NORMALIZED FREE ENERGY PREDICTED BY IDOCK:   -5.92 KCAL/MOL
REMARK 922        TOTAL FREE ENERGY PREDICTED BY IDOCK:   -7.56 KCAL/MOL
REMARK 923 INTER-LIGAND FREE ENERGY PREDICTED BY IDOCK:   -8.00 KCAL/MOL
REMARK 924 INTRA-LIGAND FREE ENERGY PREDICTED BY IDOCK:    0.44 KCAL/MOL
REMARK 927      BINDING AFFINITY PREDICTED BY RF-SCORE:    0.00 PKD
ROOT
HETATM    1  C   UNL     1     -12.029  15.514  69.147  1.00  0.00    -0.331 C  
HETATM    2  C   UNL     1     -12.520  14.785  70.369  1.00  0.00    -0.405 A  
HETATM    3  C   UNL     1     -13.125  15.589  71.366  1.00  0.00    -0.580 A  
HETATM    4  C   UNL     1     -13.695  15.022  72.503  1.00  0.00    -0.572 A  
HETATM    5  C   UNL     1     -13.675  13.649  72.661  1.00  0.00    -0.551 A  
HETATM    6  C   UNL     1     -13.050  12.850  71.699  1.00  0.00    -0.430 A  
HETATM    7  C   UNL     1     -12.429  13.384  70.552  1.00  0.00    -0.279 A  
ENDROOT
BRANCH   7   8
HETATM    8  N   UNL     1     -11.715  12.520  69.733  1.00  0.00    -0.305 NA 
HETATM    9  C   UNL     1     -10.795  13.028  68.713  1.00  0.00    -0.244 C  
HETATM   10  C   UNL     1      -9.603  12.071  68.527  1.00  0.00    -0.143 C  
HETATM   11  N   UNL     1      -9.980  10.672  68.214  1.00  0.00    -0.154 NA 
HETATM   12  C   UNL     1     -12.089  11.094  69.620  1.00  0.00    -0.336 C  
HETATM   13  C   UNL     1     -10.848  10.207  69.325  1.00  0.00    -0.235 C  
BRANCH  11  14
HETATM   14  C   UNL     1     -10.678  10.530  66.913  1.00  0.00    -0.219 C  
BRANCH  14  15
HETATM   15  C   UNL     1      -9.988  11.322  65.799  1.00  0.00    -0.281 C  
BRANCH  15  16
HETATM   16  C   UNL     1     -10.898  12.207  65.032  1.00  0.00    -0.300 A  
HETATM   17  N   UNL     1     -11.854  11.889  64.185  1.00  0.00    -0.341 NA 
HETATM   18  N   UNL     1     -12.418  13.056  63.713  1.00  0.00    -0.694 NA 
HETATM   19  C   UNL     1     -11.794  14.064  64.282  1.00  0.00    -0.410 A  
HETATM   20  C   UNL     1     -12.022  15.521  64.109  1.00  0.00    -0.083 C  
HETATM   21  C   UNL     1     -10.858  16.342  64.682  1.00  0.00    -0.122 C  
HETATM   22  C   UNL     1     -10.441  15.821  66.058  1.00  0.00    -0.350 C  
HETATM   23  C   UNL     1      -9.972  14.370  65.958  1.00  0.00    -0.317 C  
HETATM   24  N   UNL     1     -10.858  13.569  65.143  1.00  0.00    -0.314 NA 
ENDBRANCH  15  16
ENDBRANCH  14  15
ENDBRANCH  11  14
ENDBRANCH   7   8
TORSDOF 4
ENDMDL
MODEL       58
REMARK 921   NORMALIZED FREE ENERGY PREDICTED BY IDOCK:   -5.92 KCAL/MOL
REMARK 922        TOTAL FREE ENERGY PREDICTED BY IDOCK:   -7.56 KCAL/MOL
REMARK 923 INTER-LIGAND FREE ENERGY PREDICTED BY IDOCK:   -7.18 KCAL/MOL
REMARK 924 INTRA-LIGAND FREE ENERGY PREDICTED BY IDOCK:   -0.38 KCAL/MOL
REMARK 927      BINDING AFFINITY PREDICTED BY RF-SCORE:    0.00 PKD
ROOT
HETATM    1  C   UNL     1      -9.317   4.395  69.594  1.00  0.00    -0.228 C  
HETATM    2  C   UNL     1      -9.793   4.031  70.974  1.00  0.00    -0.230 A  
HETATM    3  C   UNL     1      -9.762   2.652  71.294  1.00  0.00    -0.202 A  
HETATM    4  C   UNL     1     -10.095   2.199  72.568  1.00  0.00    -0.217 A  
HETATM    5  C   UNL     1     -10.458   3.111  73.541  1.00  0.00    -0.253 A  
HETATM    6  C   UNL     1     -10.525   4.471  73.225  1.00  0.00    -0.259 A  
HETATM    7  C   UNL     1     -10.231   4.970  71.939  1.00  0.00    -0.204 A  
ENDROOT
BRANCH   7   8
HETATM    8  N   UNL     1     -10.464   6.316  71.691  1.00  0.00    -0.212 NA 
HETATM    9  C   UNL     1      -9.951   7.352  72.588  1.00  0.00    -0.194 C  
HETATM   10  C   UNL     1      -9.597   8.629  71.802  1.00  0.00    -0.290 C  
HETATM   11  N   UNL     1     -10.706   9.175  70.983  1.00  0.00    -0.266 NA 
HETATM   12  C   UNL     1     -11.499   6.743  70.724  1.00  0.00    -0.342 C  
HETATM   13  C   UNL     1     -11.120   8.093  70.054  1.00  0.00    -0.146 C  
BRANCH  11  14
HETATM   14  C   UNL     1     -11.860   9.636  71.792  1.00  0.00    -0.320 C  
BRANCH  14  15
HETATM   15  C   UNL     1     -12.846  10.468  70.967  1.00  0.00    -0.502 C  
BRANCH  15  16
HETATM   16  C   UNL     1     -13.034  11.853  71.464  1.00  0.00    -0.323 A  
HETATM   17  N   UNL     1     -13.636  12.273  72.557  1.00  0.00    -0.190 NA 
HETATM   18  N   UNL     1     -13.568  13.651  72.584  1.00  0.00    -0.693 NA 
HETATM   19  C   UNL     1     -12.926  14.044  71.506  1.00  0.00    -0.351 A  
HETATM   20  C   UNL     1     -12.593  15.423  71.067  1.00  0.00    -0.491 C  
HETATM   21  C   UNL     1     -12.152  15.453  69.598  1.00  0.00    -0.354 C  
HETATM   22  C   UNL     1     -11.163  14.327  69.296  1.00  0.00    -0.309 C  
HETATM   23  C   UNL     1     -11.811  12.966  69.551  1.00  0.00    -0.320 C  
HETATM   24  N   UNL     1     -12.544  12.942  70.798  1.00  0.00    -0.280 NA 
ENDBRANCH  15  16
ENDBRANCH  14  15
ENDBRANCH  11  14
ENDBRANCH   7   8
TORSDOF 4
ENDMDL
MODEL       59
REMARK 921   NORMALIZED FREE ENERGY PREDICTED BY IDOCK:   -5.91 KCAL/MOL
REMARK 922        TOTAL FREE ENERGY PREDICTED BY IDOCK:   -7.55 KCAL/MOL
REMARK 923 INTER-LIGAND FREE ENERGY PREDICTED BY IDOCK:   -7.05 KCAL/MOL
REMARK 924 INTRA-LIGAND FREE ENERGY PREDICTED BY IDOCK:   -0.51 KCAL/MOL
REMARK 927      BINDING AFFINITY PREDICTED BY RF-SCORE:    0.00 PKD
ROOT
HETATM    1  C   UNL     1      -9.842   9.266  65.729  1.00  0.00    -0.302 C  
HETATM    2  C   UNL     1     -10.178   8.862  67.140  1.00  0.00    -0.339 A  
HETATM    3  C   UNL     1     -10.325   7.472  67.364  1.00  0.00    -0.346 A  
HETATM    4  C   UNL     1     -10.551   6.967  68.642  1.00  0.00    -0.254 A  
HETATM    5  C   UNL     1     -10.627   7.837  69.713  1.00  0.00    -0.241 A  
HETATM    6  C   UNL     1     -10.517   9.214  69.497  1.00  0.00    -0.226 A  
HETATM    7  C   UNL     1     -10.325   9.770  68.216  1.00  0.00    -0.198 A  
ENDROOT
BRANCH   7   8
HETATM    8  N   UNL     1     -10.370  11.152  68.089  1.00  0.00    -0.181 NA 
HETATM    9  C   UNL     1      -9.145  11.954  68.087  1.00  0.00    -0.190 C  
HETATM   10  C   UNL     1      -9.304  13.191  67.183  1.00  0.00    -0.235 C  
HETATM   11  N   UNL     1     -10.467  14.049  67.513  1.00  0.00    -0.251 NA 
HETATM   12  C   UNL     1     -11.634  11.893  68.287  1.00  0.00    -0.327 C  
HETATM   13  C   UNL     1     -11.671  13.184  67.423  1.00  0.00    -0.370 C  
BRANCH  11  14
HETATM   14  C   UNL     1     -10.374  14.673  68.855  1.00  0.00    -0.245 C  
BRANCH  14  15
HETATM   15  C   UNL     1     -10.692  16.171  68.817  1.00  0.00    -0.294 C  
BRANCH  15  16
HETATM   16  C   UNL     1      -9.503  17.037  68.624  1.00  0.00    -0.274 A  
HETATM   17  N   UNL     1      -8.251  16.825  68.970  1.00  0.00    -0.215 NA 
HETATM   18  N   UNL     1      -7.507  17.925  68.592  1.00  0.00    -0.273 NA 
HETATM   19  C   UNL     1      -8.321  18.785  68.023  1.00  0.00    -0.289 A  
HETATM   20  C   UNL     1      -8.017  20.121  67.448  1.00  0.00    -0.357 C  
HETATM   21  C   UNL     1      -9.297  20.931  67.205  1.00  0.00    -0.334 C  
HETATM   22  C   UNL     1     -10.375  20.074  66.541  1.00  0.00    -0.572 C  
HETATM   23  C   UNL     1     -10.745  18.894  67.439  1.00  0.00    -0.444 C  
HETATM   24  N   UNL     1      -9.575  18.248  67.993  1.00  0.00    -0.293 NA 
ENDBRANCH  15  16
ENDBRANCH  14  15
ENDBRANCH  11  14
ENDBRANCH   7   8
TORSDOF 4
ENDMDL
MODEL       60
REMARK 921   NORMALIZED FREE ENERGY PREDICTED BY IDOCK:   -5.91 KCAL/MOL
REMARK 922        TOTAL FREE ENERGY PREDICTED BY IDOCK:   -7.55 KCAL/MOL
REMARK 923 INTER-LIGAND FREE ENERGY PREDICTED BY IDOCK:   -7.10 KCAL/MOL
REMARK 924 INTRA-LIGAND FREE ENERGY PREDICTED BY IDOCK:   -0.45 KCAL/MOL
REMARK 927      BINDING AFFINITY PREDICTED BY RF-SCORE:    0.00 PKD
ROOT
HETATM    1  C   UNL     1      -9.741  19.839  66.404  1.00  0.00    -0.530 C  
HETATM    2  C   UNL     1      -8.565  19.369  67.218  1.00  0.00    -0.329 A  
HETATM    3  C   UNL     1      -7.502  20.293  67.358  1.00  0.00    -0.343 A  
HETATM    4  C   UNL     1      -6.398  20.008  68.157  1.00  0.00    -0.296 A  
HETATM    5  C   UNL     1      -6.340  18.803  68.832  1.00  0.00    -0.268 A  
HETATM    6  C   UNL     1      -7.369  17.870  68.673  1.00  0.00    -0.271 A  
HETATM    7  C   UNL     1      -8.487  18.102  67.845  1.00  0.00    -0.254 A  
ENDROOT
BRANCH   7   8
HETATM    8  N   UNL     1      -9.379  17.058  67.645  1.00  0.00    -0.239 NA 
HETATM    9  C   UNL     1     -10.146  16.491  68.756  1.00  0.00    -0.255 C  
HETATM   10  C   UNL     1     -11.530  16.013  68.277  1.00  0.00    -0.291 C  
HETATM   11  N   UNL     1     -11.493  15.053  67.149  1.00  0.00    -0.332 NA 
HETATM   12  C   UNL     1      -9.353  16.263  66.398  1.00  0.00    -0.292 C  
HETATM   13  C   UNL     1     -10.767  15.726  66.042  1.00  0.00    -0.306 C  
BRANCH  11  14
HETATM   14  C   UNL     1     -10.839  13.767  67.494  1.00  0.00    -0.265 C  
BRANCH  14  15
HETATM   15  C   UNL     1     -11.839  12.609  67.547  1.00  0.00    -0.396 C  
BRANCH  15  16
HETATM   16  C   UNL     1     -11.209  11.267  67.598  1.00  0.00    -0.292 A  
HETATM   17  N   UNL     1     -10.578  10.605  66.651  1.00  0.00    -0.236 NA 
HETATM   18  N   UNL     1     -10.178   9.389  67.168  1.00  0.00    -0.236 NA 
HETATM   19  C   UNL     1     -10.573   9.335  68.420  1.00  0.00    -0.190 A  
HETATM   20  C   UNL     1     -10.393   8.242  69.410  1.00  0.00    -0.223 C  
HETATM   21  C   UNL     1     -11.301   8.437  70.632  1.00  0.00    -0.262 C  
HETATM   22  C   UNL     1     -11.264   9.885  71.121  1.00  0.00    -0.404 C  
HETATM   23  C   UNL     1     -11.761  10.830  70.026  1.00  0.00    -0.336 C  
HETATM   24  N   UNL     1     -11.192  10.509  68.736  1.00  0.00    -0.257 NA 
ENDBRANCH  15  16
ENDBRANCH  14  15
ENDBRANCH  11  14
ENDBRANCH   7   8
TORSDOF 4
ENDMDL
MODEL       61
REMARK 921   NORMALIZED FREE ENERGY PREDICTED BY IDOCK:   -5.90 KCAL/MOL
REMARK 922        TOTAL FREE ENERGY PREDICTED BY IDOCK:   -7.54 KCAL/MOL
REMARK 923 INTER-LIGAND FREE ENERGY PREDICTED BY IDOCK:   -7.46 KCAL/MOL
REMARK 924 INTRA-LIGAND FREE ENERGY PREDICTED BY IDOCK:   -0.08 KCAL/MOL
REMARK 927      BINDING AFFINITY PREDICTED BY RF-SCORE:    0.00 PKD
ROOT
HETATM    1  C   UNL     1      -6.798  13.445  68.283  1.00  0.00    -0.106 C  
HETATM    2  C   UNL     1      -7.410  14.613  67.557  1.00  0.00    -0.220 A  
HETATM    3  C   UNL     1      -6.572  15.742  67.387  1.00  0.00    -0.215 A  
HETATM    4  C   UNL     1      -6.993  16.851  66.658  1.00  0.00    -0.281 A  
HETATM    5  C   UNL     1      -8.250  16.849  66.082  1.00  0.00    -0.295 A  
HETATM    6  C   UNL     1      -9.097  15.752  66.272  1.00  0.00    -0.373 A  
HETATM    7  C   UNL     1      -8.725  14.626  67.034  1.00  0.00    -0.235 A  
ENDROOT
BRANCH   7   8
HETATM    8  N   UNL     1      -9.688  13.656  67.280  1.00  0.00    -0.237 NA 
HETATM    9  C   UNL     1     -10.636  13.792  68.387  1.00  0.00    -0.253 C  
HETATM   10  C   UNL     1     -11.993  13.160  68.025  1.00  0.00    -0.304 C  
HETATM   11  N   UNL     1     -11.917  11.742  67.599  1.00  0.00    -0.606 NA 
HETATM   12  C   UNL     1      -9.592  12.314  66.665  1.00  0.00    -0.223 C  
HETATM   13  C   UNL     1     -10.999  11.699  66.433  1.00  0.00    -0.295 C  
BRANCH  11  14
HETATM   14  C   UNL     1     -11.444  10.832  68.669  1.00  0.00    -0.295 C  
BRANCH  14  15
HETATM   15  C   UNL     1     -11.930  11.268  70.053  1.00  0.00    -0.447 C  
BRANCH  15  16
HETATM   16  C   UNL     1     -12.207  10.143  70.980  1.00  0.00    -0.374 A  
HETATM   17  N   UNL     1     -13.360   9.703  71.437  1.00  0.00    -0.382 NA 
HETATM   18  N   UNL     1     -13.112   8.640  72.283  1.00  0.00    -0.373 NA 
HETATM   19  C   UNL     1     -11.811   8.455  72.324  1.00  0.00    -0.389 A  
HETATM   20  C   UNL     1     -11.035   7.443  73.086  1.00  0.00    -0.408 C  
HETATM   21  C   UNL     1      -9.542   7.794  73.125  1.00  0.00    -0.337 C  
HETATM   22  C   UNL     1      -9.039   8.219  71.746  1.00  0.00    -0.255 C  
HETATM   23  C   UNL     1      -9.788   9.462  71.265  1.00  0.00    -0.175 C  
HETATM   24  N   UNL     1     -11.213   9.356  71.492  1.00  0.00    -0.378 NA 
ENDBRANCH  15  16
ENDBRANCH  14  15
ENDBRANCH  11  14
ENDBRANCH   7   8
TORSDOF 4
ENDMDL
MODEL       62
REMARK 921   NORMALIZED FREE ENERGY PREDICTED BY IDOCK:   -5.88 KCAL/MOL
REMARK 922        TOTAL FREE ENERGY PREDICTED BY IDOCK:   -7.51 KCAL/MOL
REMARK 923 INTER-LIGAND FREE ENERGY PREDICTED BY IDOCK:   -7.12 KCAL/MOL
REMARK 924 INTRA-LIGAND FREE ENERGY PREDICTED BY IDOCK:   -0.39 KCAL/MOL
REMARK 927      BINDING AFFINITY PREDICTED BY RF-SCORE:    0.00 PKD
ROOT
HETATM    1  C   UNL     1     -10.660   8.157  67.495  1.00  0.00    -0.291 C  
HETATM    2  C   UNL     1      -9.635   8.168  66.393  1.00  0.00    -0.286 A  
HETATM    3  C   UNL     1      -8.875   6.983  66.244  1.00  0.00    -0.164 A  
HETATM    4  C   UNL     1      -7.957   6.839  65.207  1.00  0.00    -0.127 A  
HETATM    5  C   UNL     1      -7.786   7.869  64.302  1.00  0.00    -0.136 A  
HETATM    6  C   UNL     1      -8.508   9.057  64.460  1.00  0.00    -0.191 A  
HETATM    7  C   UNL     1      -9.420   9.259  65.516  1.00  0.00    -0.240 A  
ENDROOT
BRANCH   7   8
HETATM    8  N   UNL     1      -9.977  10.522  65.666  1.00  0.00    -0.254 NA 
HETATM    9  C   UNL     1     -10.595  11.217  64.536  1.00  0.00    -0.336 C  
HETATM   10  C   UNL     1     -11.771  12.092  65.009  1.00  0.00    -0.314 C  
HETATM   11  N   UNL     1     -11.425  13.066  66.072  1.00  0.00    -0.321 NA 
HETATM   12  C   UNL     1      -9.683  11.347  66.858  1.00  0.00    -0.192 C  
HETATM   13  C   UNL     1     -10.876  12.280  67.205  1.00  0.00    -0.245 C  
BRANCH  11  14
HETATM   14  C   UNL     1     -10.451  14.094  65.631  1.00  0.00    -0.321 C  
BRANCH  14  15
HETATM   15  C   UNL     1     -11.001  15.514  65.792  1.00  0.00    -0.285 C  
BRANCH  15  16
HETATM   16  C   UNL     1     -10.568  16.194  67.037  1.00  0.00    -0.292 A  
HETATM   17  N   UNL     1     -10.333  15.685  68.228  1.00  0.00    -0.239 NA 
HETATM   18  N   UNL     1      -9.965  16.713  69.072  1.00  0.00    -0.271 NA 
HETATM   19  C   UNL     1      -9.982  17.829  68.378  1.00  0.00    -0.362 A  
HETATM   20  C   UNL     1      -9.668  19.211  68.822  1.00  0.00    -0.491 C  
HETATM   21  C   UNL     1     -10.146  20.251  67.801  1.00  0.00    -0.505 C  
HETATM   22  C   UNL     1      -9.777  19.836  66.376  1.00  0.00    -0.530 C  
HETATM   23  C   UNL     1     -10.441  18.506  66.020  1.00  0.00    -0.400 C  
HETATM   24  N   UNL     1     -10.321  17.538  67.088  1.00  0.00    -0.329 NA 
ENDBRANCH  15  16
ENDBRANCH  14  15
ENDBRANCH  11  14
ENDBRANCH   7   8
TORSDOF 4
ENDMDL
MODEL       63
REMARK 921   NORMALIZED FREE ENERGY PREDICTED BY IDOCK:   -5.87 KCAL/MOL
REMARK 922        TOTAL FREE ENERGY PREDICTED BY IDOCK:   -7.50 KCAL/MOL
REMARK 923 INTER-LIGAND FREE ENERGY PREDICTED BY IDOCK:   -7.20 KCAL/MOL
REMARK 924 INTRA-LIGAND FREE ENERGY PREDICTED BY IDOCK:   -0.30 KCAL/MOL
REMARK 927      BINDING AFFINITY PREDICTED BY RF-SCORE:    0.00 PKD
ROOT
HETATM    1  C   UNL     1     -11.645  11.577  68.188  1.00  0.00    -0.378 C  
HETATM    2  C   UNL     1     -12.021  12.438  69.364  1.00  0.00    -0.319 A  
HETATM    3  C   UNL     1     -11.997  13.836  69.137  1.00  0.00    -0.403 A  
HETATM    4  C   UNL     1     -12.407  14.733  70.120  1.00  0.00    -0.381 A  
HETATM    5  C   UNL     1     -12.851  14.253  71.337  1.00  0.00    -0.415 A  
HETATM    6  C   UNL     1     -12.847  12.876  71.582  1.00  0.00    -0.368 A  
HETATM    7  C   UNL     1     -12.406  11.935  70.630  1.00  0.00    -0.313 A  
ENDROOT
BRANCH   7   8
HETATM    8  N   UNL     1     -12.307  10.606  71.020  1.00  0.00    -0.368 NA 
HETATM    9  C   UNL     1     -11.042   9.877  70.918  1.00  0.00    -0.348 C  
HETATM   10  C   UNL     1     -10.915   8.842  72.052  1.00  0.00    -0.368 C  
HETATM   11  N   UNL     1     -12.043   7.884  72.140  1.00  0.00    -0.321 NA 
HETATM   12  C   UNL     1     -13.518   9.784  71.235  1.00  0.00    -0.290 C  
HETATM   13  C   UNL     1     -13.275   8.694  72.315  1.00  0.00    -0.372 C  
BRANCH  11  14
HETATM   14  C   UNL     1     -12.161   7.006  70.951  1.00  0.00    -0.357 C  
BRANCH  14  15
HETATM   15  C   UNL     1     -10.852   6.273  70.643  1.00  0.00    -0.339 C  
BRANCH  15  16
HETATM   16  C   UNL     1     -10.665   5.944  69.209  1.00  0.00    -0.331 A  
HETATM   17  N   UNL     1     -11.072   6.599  68.142  1.00  0.00    -0.238 NA 
HETATM   18  N   UNL     1     -10.670   5.896  67.024  1.00  0.00    -0.305 NA 
HETATM   19  C   UNL     1     -10.026   4.826  67.433  1.00  0.00    -0.159 A  
HETATM   20  C   UNL     1      -9.398   3.748  66.626  1.00  0.00    -0.207 C  
HETATM   21  C   UNL     1      -9.062   2.524  67.489  1.00  0.00    -0.212 C  
HETATM   22  C   UNL     1      -8.399   2.941  68.802  1.00  0.00    -0.086 C  
HETATM   23  C   UNL     1      -9.339   3.830  69.615  1.00  0.00    -0.175 C  
HETATM   24  N   UNL     1      -9.972   4.841  68.796  1.00  0.00    -0.145 NA 
ENDBRANCH  15  16
ENDBRANCH  14  15
ENDBRANCH  11  14
ENDBRANCH   7   8
TORSDOF 4
ENDMDL
MODEL       64
REMARK 921   NORMALIZED FREE ENERGY PREDICTED BY IDOCK:   -5.87 KCAL/MOL
REMARK 922        TOTAL FREE ENERGY PREDICTED BY IDOCK:   -7.50 KCAL/MOL
REMARK 923 INTER-LIGAND FREE ENERGY PREDICTED BY IDOCK:   -7.46 KCAL/MOL
REMARK 924 INTRA-LIGAND FREE ENERGY PREDICTED BY IDOCK:   -0.04 KCAL/MOL
REMARK 927      BINDING AFFINITY PREDICTED BY RF-SCORE:    0.00 PKD
ROOT
HETATM    1  C   UNL     1     -12.116  11.552  70.599  1.00  0.00    -0.450 C  
HETATM    2  C   UNL     1     -12.536  12.962  70.914  1.00  0.00    -0.383 A  
HETATM    3  C   UNL     1     -13.287  13.131  72.102  1.00  0.00    -0.621 A  
HETATM    4  C   UNL     1     -13.660  14.397  72.547  1.00  0.00    -0.598 A  
HETATM    5  C   UNL     1     -13.286  15.511  71.819  1.00  0.00    -0.577 A  
HETATM    6  C   UNL     1     -12.573  15.352  70.626  1.00  0.00    -0.491 A  
HETATM    7  C   UNL     1     -12.207  14.088  70.121  1.00  0.00    -0.359 A  
ENDROOT
BRANCH   7   8
HETATM    8  N   UNL     1     -11.627  14.030  68.861  1.00  0.00    -0.291 NA 
HETATM    9  C   UNL     1     -12.225  13.237  67.785  1.00  0.00    -0.113 C  
HETATM   10  C   UNL     1     -11.977  13.898  66.416  1.00  0.00    -0.438 C  
HETATM   11  N   UNL     1     -10.552  14.167  66.111  1.00  0.00    -0.288 NA 
HETATM   12  C   UNL     1     -10.235  14.480  68.643  1.00  0.00    -0.243 C  
HETATM   13  C   UNL     1     -10.040  15.032  67.204  1.00  0.00    -0.239 C  
BRANCH  11  14
HETATM   14  C   UNL     1      -9.735  12.935  65.996  1.00  0.00    -0.223 C  
BRANCH  14  15
HETATM   15  C   UNL     1     -10.560  11.739  65.514  1.00  0.00    -0.323 C  
BRANCH  15  16
HETATM   16  C   UNL     1      -9.874  10.899  64.502  1.00  0.00    -0.300 A  
HETATM   17  N   UNL     1      -9.802  11.056  63.197  1.00  0.00    -0.346 NA 
HETATM   18  N   UNL     1      -9.063  10.012  62.677  1.00  0.00    -0.267 NA 
HETATM   19  C   UNL     1      -8.700   9.239  63.676  1.00  0.00    -0.167 A  
HETATM   20  C   UNL     1      -7.897   7.990  63.647  1.00  0.00    -0.142 C  
HETATM   21  C   UNL     1      -8.001   7.226  64.974  1.00  0.00    -0.129 C  
HETATM   22  C   UNL     1      -7.849   8.170  66.167  1.00  0.00    -0.092 C  
HETATM   23  C   UNL     1      -8.957   9.223  66.158  1.00  0.00    -0.165 C  
HETATM   24  N   UNL     1      -9.160   9.783  64.840  1.00  0.00    -0.214 NA 
ENDBRANCH  15  16
ENDBRANCH  14  15
ENDBRANCH  11  14
ENDBRANCH   7   8
TORSDOF 4
ENDMDL
MODEL       65
REMARK 921   NORMALIZED FREE ENERGY PREDICTED BY IDOCK:   -5.86 KCAL/MOL
REMARK 922        TOTAL FREE ENERGY PREDICTED BY IDOCK:   -7.49 KCAL/MOL
REMARK 923 INTER-LIGAND FREE ENERGY PREDICTED BY IDOCK:   -6.94 KCAL/MOL
REMARK 924 INTRA-LIGAND FREE ENERGY PREDICTED BY IDOCK:   -0.55 KCAL/MOL
REMARK 927      BINDING AFFINITY PREDICTED BY RF-SCORE:    0.00 PKD
ROOT
HETATM    1  C   UNL     1     -12.487   7.133  71.526  1.00  0.00    -0.418 C  
HETATM    2  C   UNL     1     -11.385   6.112  71.612  1.00  0.00    -0.341 A  
HETATM    3  C   UNL     1     -11.265   5.436  72.850  1.00  0.00    -0.372 A  
HETATM    4  C   UNL     1     -10.340   4.410  73.026  1.00  0.00    -0.241 A  
HETATM    5  C   UNL     1      -9.526   4.040  71.972  1.00  0.00    -0.198 A  
HETATM    6  C   UNL     1      -9.613   4.725  70.756  1.00  0.00    -0.249 A  
HETATM    7  C   UNL     1     -10.509   5.793  70.546  1.00  0.00    -0.263 A  
ENDROOT
BRANCH   7   8
HETATM    8  N   UNL     1     -10.418   6.497  69.353  1.00  0.00    -0.203 NA 
HETATM    9  C   UNL     1     -10.476   5.812  68.061  1.00  0.00    -0.225 C  
HETATM   10  C   UNL     1     -11.151   6.701  67.000  1.00  0.00    -0.325 C  
HETATM   11  N   UNL     1     -10.533   8.038  66.834  1.00  0.00    -0.341 NA 
HETATM   12  C   UNL     1      -9.933   7.894  69.329  1.00  0.00    -0.190 C  
HETATM   13  C   UNL     1     -10.578   8.695  68.165  1.00  0.00    -0.133 C  
BRANCH  11  14
HETATM   14  C   UNL     1      -9.140   7.982  66.329  1.00  0.00    -0.186 C  
BRANCH  14  15
HETATM   15  C   UNL     1      -8.589   9.372  66.000  1.00  0.00    -0.154 C  
BRANCH  15  16
HETATM   16  C   UNL     1      -9.246  10.025  64.841  1.00  0.00    -0.239 A  
HETATM   17  N   UNL     1      -9.112   9.774  63.555  1.00  0.00    -0.250 NA 
HETATM   18  N   UNL     1      -9.918  10.651  62.858  1.00  0.00    -0.241 NA 
HETATM   19  C   UNL     1     -10.527  11.420  63.734  1.00  0.00    -0.399 A  
HETATM   20  C   UNL     1     -11.495  12.521  63.496  1.00  0.00    -0.570 C  
HETATM   21  C   UNL     1     -11.691  13.377  64.755  1.00  0.00    -0.393 C  
HETATM   22  C   UNL     1     -11.865  12.501  65.996  1.00  0.00    -0.478 C  
HETATM   23  C   UNL     1     -10.622  11.639  66.217  1.00  0.00    -0.258 C  
HETATM   24  N   UNL     1     -10.158  11.033  64.989  1.00  0.00    -0.275 NA 
ENDBRANCH  15  16
ENDBRANCH  14  15
ENDBRANCH  11  14
ENDBRANCH   7   8
TORSDOF 4
ENDMDL
MODEL       66
REMARK 921   NORMALIZED FREE ENERGY PREDICTED BY IDOCK:   -5.86 KCAL/MOL
REMARK 922        TOTAL FREE ENERGY PREDICTED BY IDOCK:   -7.49 KCAL/MOL
REMARK 923 INTER-LIGAND FREE ENERGY PREDICTED BY IDOCK:   -6.94 KCAL/MOL
REMARK 924 INTRA-LIGAND FREE ENERGY PREDICTED BY IDOCK:   -0.55 KCAL/MOL
REMARK 927      BINDING AFFINITY PREDICTED BY RF-SCORE:    0.00 PKD
ROOT
HETATM    1  C   UNL     1      -9.853  10.686  63.651  1.00  0.00    -0.392 C  
HETATM    2  C   UNL     1     -10.728  11.711  64.321  1.00  0.00    -0.398 A  
HETATM    3  C   UNL     1     -11.378  12.626  63.459  1.00  0.00    -0.527 A  
HETATM    4  C   UNL     1     -12.280  13.566  63.951  1.00  0.00    -0.458 A  
HETATM    5  C   UNL     1     -12.551  13.604  65.306  1.00  0.00    -0.512 A  
HETATM    6  C   UNL     1     -11.889  12.726  66.170  1.00  0.00    -0.484 A  
HETATM    7  C   UNL     1     -10.941  11.784  65.719  1.00  0.00    -0.301 A  
ENDROOT
BRANCH   7   8
HETATM    8  N   UNL     1     -10.236  11.059  66.670  1.00  0.00    -0.226 NA 
HETATM    9  C   UNL     1     -10.904  10.067  67.515  1.00  0.00    -0.265 C  
HETATM   10  C   UNL     1      -9.952   8.902  67.847  1.00  0.00    -0.179 C  
HETATM   11  N   UNL     1      -8.670   9.313  68.468  1.00  0.00    -0.128 NA 
HETATM   12  C   UNL     1      -8.885  11.479  67.101  1.00  0.00    -0.168 C  
HETATM   13  C   UNL     1      -8.023  10.257  67.522  1.00  0.00    -0.106 C  
BRANCH  11  14
HETATM   14  C   UNL     1      -8.839   9.944  69.799  1.00  0.00    -0.211 C  
BRANCH  14  15
HETATM   15  C   UNL     1      -8.462   8.994  70.939  1.00  0.00    -0.253 C  
BRANCH  15  16
HETATM   16  C   UNL     1      -9.624   8.383  71.629  1.00  0.00    -0.221 A  
HETATM   17  N   UNL     1     -10.658   8.967  72.198  1.00  0.00    -0.321 NA 
HETATM   18  N   UNL     1     -11.475   7.984  72.719  1.00  0.00    -0.405 NA 
HETATM   19  C   UNL     1     -10.922   6.821  72.457  1.00  0.00    -0.247 A  
HETATM   20  C   UNL     1     -11.402   5.458  72.805  1.00  0.00    -0.358 C  
HETATM   21  C   UNL     1     -10.296   4.410  72.622  1.00  0.00    -0.248 C  
HETATM   22  C   UNL     1      -9.557   4.614  71.299  1.00  0.00    -0.238 C  
HETATM   23  C   UNL     1      -8.893   5.990  71.266  1.00  0.00    -0.136 C  
HETATM   24  N   UNL     1      -9.778   7.030  71.744  1.00  0.00    -0.159 NA 
ENDBRANCH  15  16
ENDBRANCH  14  15
ENDBRANCH  11  14
ENDBRANCH   7   8
TORSDOF 4
ENDMDL
MODEL       67
REMARK 921   NORMALIZED FREE ENERGY PREDICTED BY IDOCK:   -5.81 KCAL/MOL
REMARK 922        TOTAL FREE ENERGY PREDICTED BY IDOCK:   -7.43 KCAL/MOL
REMARK 923 INTER-LIGAND FREE ENERGY PREDICTED BY IDOCK:   -6.99 KCAL/MOL
REMARK 924 INTRA-LIGAND FREE ENERGY PREDICTED BY IDOCK:   -0.44 KCAL/MOL
REMARK 927      BINDING AFFINITY PREDICTED BY RF-SCORE:    0.00 PKD
ROOT
HETATM    1  C   UNL     1     -11.451  11.539  68.955  1.00  0.00    -0.352 C  
HETATM    2  C   UNL     1     -12.108  12.158  70.159  1.00  0.00    -0.368 A  
HETATM    3  C   UNL     1     -12.090  13.573  70.213  1.00  0.00    -0.425 A  
HETATM    4  C   UNL     1     -12.740  14.265  71.232  1.00  0.00    -0.427 A  
HETATM    5  C   UNL     1     -13.419  13.559  72.207  1.00  0.00    -0.669 A  
HETATM    6  C   UNL     1     -13.414  12.161  72.182  1.00  0.00    -0.383 A  
HETATM    7  C   UNL     1     -12.739  11.420  71.190  1.00  0.00    -0.377 A  
ENDROOT
BRANCH   7   8
HETATM    8  N   UNL     1     -12.676  10.041  71.334  1.00  0.00    -0.379 NA 
HETATM    9  C   UNL     1     -11.412   9.367  71.635  1.00  0.00    -0.393 C  
HETATM   10  C   UNL     1     -11.651   8.119  72.506  1.00  0.00    -0.404 C  
HETATM   11  N   UNL     1     -12.617   7.149  71.939  1.00  0.00    -0.316 NA 
HETATM   12  C   UNL     1     -13.782   9.175  70.869  1.00  0.00     0.140 C  
HETATM   13  C   UNL     1     -13.889   7.887  71.731  1.00  0.00    -0.375 C  
BRANCH  11  14
HETATM   14  C   UNL     1     -12.157   6.537  70.669  1.00  0.00    -0.200 C  
BRANCH  14  15
HETATM   15  C   UNL     1     -10.698   6.079  70.746  1.00  0.00    -0.340 C  
BRANCH  15  16
HETATM   16  C   UNL     1     -10.137   5.625  69.450  1.00  0.00    -0.223 A  
HETATM   17  N   UNL     1      -9.775   4.417  69.073  1.00  0.00    -0.172 NA 
HETATM   18  N   UNL     1      -9.299   4.492  67.780  1.00  0.00    -0.138 NA 
HETATM   19  C   UNL     1      -9.379   5.745  67.394  1.00  0.00    -0.112 A  
HETATM   20  C   UNL     1      -8.992   6.349  66.093  1.00  0.00    -0.162 C  
HETATM   21  C   UNL     1      -8.924   7.879  66.183  1.00  0.00    -0.214 C  
HETATM   22  C   UNL     1     -10.137   8.443  66.923  1.00  0.00    -0.364 C  
HETATM   23  C   UNL     1     -10.187   7.903  68.352  1.00  0.00    -0.202 C  
HETATM   24  N   UNL     1      -9.933   6.480  68.402  1.00  0.00    -0.136 NA 
ENDBRANCH  15  16
ENDBRANCH  14  15
ENDBRANCH  11  14
ENDBRANCH   7   8
TORSDOF 4
ENDMDL
MODEL       68
REMARK 921   NORMALIZED FREE ENERGY PREDICTED BY IDOCK:   -5.81 KCAL/MOL
REMARK 922        TOTAL FREE ENERGY PREDICTED BY IDOCK:   -7.43 KCAL/MOL
REMARK 923 INTER-LIGAND FREE ENERGY PREDICTED BY IDOCK:   -7.30 KCAL/MOL
REMARK 924 INTRA-LIGAND FREE ENERGY PREDICTED BY IDOCK:   -0.13 KCAL/MOL
REMARK 927      BINDING AFFINITY PREDICTED BY RF-SCORE:    0.00 PKD
ROOT
HETATM    1  C   UNL     1      -9.863  10.868  63.275  1.00  0.00    -0.409 C  
HETATM    2  C   UNL     1     -10.708  11.812  64.087  1.00  0.00    -0.410 A  
HETATM    3  C   UNL     1     -11.495  12.729  63.348  1.00  0.00    -0.454 A  
HETATM    4  C   UNL     1     -12.381  13.595  63.983  1.00  0.00    -0.382 A  
HETATM    5  C   UNL     1     -12.501  13.557  65.359  1.00  0.00    -0.540 A  
HETATM    6  C   UNL     1     -11.703  12.679  66.100  1.00  0.00    -0.461 A  
HETATM    7  C   UNL     1     -10.767  11.812  65.502  1.00  0.00    -0.279 A  
ENDROOT
BRANCH   7   8
HETATM    8  N   UNL     1      -9.926  11.084  66.333  1.00  0.00    -0.214 NA 
HETATM    9  C   UNL     1      -9.632   9.675  66.069  1.00  0.00    -0.242 C  
HETATM   10  C   UNL     1      -8.200   9.322  66.514  1.00  0.00    -0.107 C  
HETATM   11  N   UNL     1      -7.899   9.643  67.930  1.00  0.00    -0.087 NA 
HETATM   12  C   UNL     1      -9.564  11.585  67.677  1.00  0.00    -0.171 C  
HETATM   13  C   UNL     1      -8.150  11.096  68.098  1.00  0.00    -0.128 C  
BRANCH  11  14
HETATM   14  C   UNL     1      -8.709   8.859  68.893  1.00  0.00    -0.136 C  
BRANCH  14  15
HETATM   15  C   UNL     1      -8.700   9.481  70.293  1.00  0.00    -0.270 C  
BRANCH  15  16
HETATM   16  C   UNL     1      -9.697   8.895  71.222  1.00  0.00    -0.289 A  
HETATM   17  N   UNL     1      -9.556   7.915  72.089  1.00  0.00    -0.181 NA 
HETATM   18  N   UNL     1     -10.768   7.717  72.718  1.00  0.00    -0.326 NA 
HETATM   19  C   UNL     1     -11.625   8.581  72.221  1.00  0.00    -0.374 A  
HETATM   20  C   UNL     1     -13.058   8.776  72.559  1.00  0.00    -0.392 C  
HETATM   21  C   UNL     1     -13.769   9.642  71.510  1.00  0.00    -0.307 C  
HETATM   22  C   UNL     1     -12.928  10.864  71.142  1.00  0.00    -0.449 C  
HETATM   23  C   UNL     1     -11.590  10.430  70.546  1.00  0.00    -0.344 C  
HETATM   24  N   UNL     1     -10.980   9.361  71.305  1.00  0.00    -0.345 NA 
ENDBRANCH  15  16
ENDBRANCH  14  15
ENDBRANCH  11  14
ENDBRANCH   7   8
TORSDOF 4
ENDMDL
MODEL       69
REMARK 921   NORMALIZED FREE ENERGY PREDICTED BY IDOCK:   -5.80 KCAL/MOL
REMARK 922        TOTAL FREE ENERGY PREDICTED BY IDOCK:   -7.41 KCAL/MOL
REMARK 923 INTER-LIGAND FREE ENERGY PREDICTED BY IDOCK:   -6.90 KCAL/MOL
REMARK 924 INTRA-LIGAND FREE ENERGY PREDICTED BY IDOCK:   -0.51 KCAL/MOL
REMARK 927      BINDING AFFINITY PREDICTED BY RF-SCORE:    0.00 PKD
ROOT
HETATM    1  C   UNL     1     -11.969  13.724  67.217  1.00  0.00    -0.436 C  
HETATM    2  C   UNL     1     -11.736  12.998  65.920  1.00  0.00    -0.442 A  
HETATM    3  C   UNL     1     -12.465  13.478  64.805  1.00  0.00    -0.402 A  
HETATM    4  C   UNL     1     -12.272  12.945  63.533  1.00  0.00    -0.595 A  
HETATM    5  C   UNL     1     -11.349  11.933  63.352  1.00  0.00    -0.465 A  
HETATM    6  C   UNL     1     -10.649  11.429  64.453  1.00  0.00    -0.403 A  
HETATM    7  C   UNL     1     -10.840  11.913  65.763  1.00  0.00    -0.295 A  
ENDROOT
BRANCH   7   8
HETATM    8  N   UNL     1     -10.203  11.251  66.804  1.00  0.00    -0.218 NA 
HETATM    9  C   UNL     1      -8.764  11.400  67.030  1.00  0.00    -0.160 C  
HETATM   10  C   UNL     1      -8.435  11.313  68.532  1.00  0.00    -0.156 C  
HETATM   11  N   UNL     1      -8.925  10.083  69.199  1.00  0.00    -0.158 NA 
HETATM   12  C   UNL     1     -10.861  10.130  67.509  1.00  0.00    -0.290 C  
HETATM   13  C   UNL     1     -10.394  10.043  68.988  1.00  0.00    -0.206 C  
BRANCH  11  14
HETATM   14  C   UNL     1      -8.291   8.845  68.686  1.00  0.00    -0.124 C  
BRANCH  14  15
HETATM   15  C   UNL     1      -7.461   8.135  69.759  1.00  0.00    -0.084 C  
BRANCH  15  16
HETATM   16  C   UNL     1      -8.065   8.170  71.113  1.00  0.00    -0.103 A  
HETATM   17  N   UNL     1      -7.656   8.801  72.194  1.00  0.00    -0.334 NA 
HETATM   18  N   UNL     1      -8.539   8.523  73.217  1.00  0.00    -0.373 NA 
HETATM   19  C   UNL     1      -9.470   7.727  72.739  1.00  0.00    -0.215 A  
HETATM   20  C   UNL     1     -10.644   7.139  73.434  1.00  0.00    -0.424 C  
HETATM   21  C   UNL     1     -11.270   6.003  72.614  1.00  0.00    -0.326 C  
HETATM   22  C   UNL     1     -11.407   6.396  71.143  1.00  0.00    -0.376 C  
HETATM   23  C   UNL     1     -10.034   6.692  70.540  1.00  0.00    -0.179 C  
HETATM   24  N   UNL     1      -9.225   7.513  71.414  1.00  0.00    -0.141 NA 
ENDBRANCH  15  16
ENDBRANCH  14  15
ENDBRANCH  11  14
ENDBRANCH   7   8
TORSDOF 4
ENDMDL
MODEL       70
REMARK 921   NORMALIZED FREE ENERGY PREDICTED BY IDOCK:   -5.80 KCAL/MOL
REMARK 922        TOTAL FREE ENERGY PREDICTED BY IDOCK:   -7.41 KCAL/MOL
REMARK 923 INTER-LIGAND FREE ENERGY PREDICTED BY IDOCK:   -6.92 KCAL/MOL
REMARK 924 INTRA-LIGAND FREE ENERGY PREDICTED BY IDOCK:   -0.49 KCAL/MOL
REMARK 927      BINDING AFFINITY PREDICTED BY RF-SCORE:    0.00 PKD
ROOT
HETATM    1  C   UNL     1     -12.782  12.532  64.766  1.00  0.00    -0.415 C  
HETATM    2  C   UNL     1     -11.903  13.659  65.237  1.00  0.00    -0.365 A  
HETATM    3  C   UNL     1     -11.825  14.781  64.378  1.00  0.00    -0.393 A  
HETATM    4  C   UNL     1     -11.113  15.922  64.742  1.00  0.00    -0.397 A  
HETATM    5  C   UNL     1     -10.475  15.962  65.968  1.00  0.00    -0.357 A  
HETATM    6  C   UNL     1     -10.518  14.846  66.809  1.00  0.00    -0.284 A  
HETATM    7  C   UNL     1     -11.196  13.658  66.464  1.00  0.00    -0.310 A  
ENDROOT
BRANCH   7   8
HETATM    8  N   UNL     1     -11.060  12.561  67.303  1.00  0.00    -0.261 NA 
HETATM    9  C   UNL     1     -11.504  12.612  68.697  1.00  0.00    -0.308 C  
HETATM   10  C   UNL     1     -12.014  11.233  69.158  1.00  0.00    -0.336 C  
HETATM   11  N   UNL     1     -11.044  10.127  68.979  1.00  0.00    -0.222 NA 
HETATM   12  C   UNL     1     -10.176  11.431  66.941  1.00  0.00    -0.219 C  
HETATM   13  C   UNL     1     -10.700  10.094  67.535  1.00  0.00    -0.290 C  
BRANCH  11  14
HETATM   14  C   UNL     1      -9.821  10.280  69.803  1.00  0.00    -0.161 C  
BRANCH  14  15
HETATM   15  C   UNL     1      -9.078   8.953  69.984  1.00  0.00    -0.174 C  
BRANCH  15  16
HETATM   16  C   UNL     1      -8.974   8.506  71.395  1.00  0.00    -0.204 A  
HETATM   17  N   UNL     1      -8.170   8.928  72.347  1.00  0.00    -0.357 NA 
HETATM   18  N   UNL     1      -8.436   8.201  73.490  1.00  0.00    -0.241 NA 
HETATM   19  C   UNL     1      -9.397   7.350  73.211  1.00  0.00    -0.200 A  
HETATM   20  C   UNL     1     -10.042   6.345  74.095  1.00  0.00    -0.353 C  
HETATM   21  C   UNL     1     -10.864   5.332  73.287  1.00  0.00    -0.349 C  
HETATM   22  C   UNL     1     -11.715   6.033  72.228  1.00  0.00    -0.338 C  
HETATM   23  C   UNL     1     -10.824   6.788  71.242  1.00  0.00    -0.232 C  
HETATM   24  N   UNL     1      -9.785   7.536  71.916  1.00  0.00    -0.158 NA 
ENDBRANCH  15  16
ENDBRANCH  14  15
ENDBRANCH  11  14
ENDBRANCH   7   8
TORSDOF 4
ENDMDL
MODEL       71
REMARK 921   NORMALIZED FREE ENERGY PREDICTED BY IDOCK:   -5.78 KCAL/MOL
REMARK 922        TOTAL FREE ENERGY PREDICTED BY IDOCK:   -7.39 KCAL/MOL
REMARK 923 INTER-LIGAND FREE ENERGY PREDICTED BY IDOCK:   -6.78 KCAL/MOL
REMARK 924 INTRA-LIGAND FREE ENERGY PREDICTED BY IDOCK:   -0.61 KCAL/MOL
REMARK 927      BINDING AFFINITY PREDICTED BY RF-SCORE:    0.00 PKD
ROOT
HETATM    1  C   UNL     1     -12.388  10.515  70.574  1.00  0.00    -0.432 C  
HETATM    2  C   UNL     1     -11.167   9.647  70.713  1.00  0.00    -0.403 A  
HETATM    3  C   UNL     1     -11.032   8.965  71.947  1.00  0.00    -0.439 A  
HETATM    4  C   UNL     1      -9.991   8.066  72.164  1.00  0.00    -0.289 A  
HETATM    5  C   UNL     1      -9.075   7.829  71.156  1.00  0.00    -0.152 A  
HETATM    6  C   UNL     1      -9.181   8.522  69.947  1.00  0.00    -0.154 A  
HETATM    7  C   UNL     1     -10.197   9.468  69.697  1.00  0.00    -0.218 A  
ENDROOT
BRANCH   7   8
HETATM    8  N   UNL     1     -10.131  10.204  68.522  1.00  0.00    -0.162 NA 
HETATM    9  C   UNL     1      -9.601  11.568  68.510  1.00  0.00    -0.178 C  
HETATM   10  C   UNL     1      -8.886  11.865  67.178  1.00  0.00    -0.180 C  
HETATM   11  N   UNL     1      -9.714  11.636  65.971  1.00  0.00    -0.226 NA 
HETATM   12  C   UNL     1     -10.883   9.786  67.319  1.00  0.00    -0.177 C  
HETATM   13  C   UNL     1     -10.150  10.217  66.019  1.00  0.00    -0.244 C  
BRANCH  11  14
HETATM   14  C   UNL     1     -10.887  12.538  65.883  1.00  0.00    -0.269 C  
BRANCH  14  15
HETATM   15  C   UNL     1     -10.476  13.996  65.659  1.00  0.00    -0.328 C  
BRANCH  15  16
HETATM   16  C   UNL     1     -10.777  14.893  66.801  1.00  0.00    -0.312 A  
HETATM   17  N   UNL     1     -11.617  14.719  67.800  1.00  0.00    -0.348 NA 
HETATM   18  N   UNL     1     -11.560  15.835  68.611  1.00  0.00    -0.385 NA 
HETATM   19  C   UNL     1     -10.686  16.667  68.089  1.00  0.00    -0.349 A  
HETATM   20  C   UNL     1     -10.263  18.005  68.577  1.00  0.00    -0.392 C  
HETATM   21  C   UNL     1      -9.493  18.778  67.497  1.00  0.00    -0.326 C  
HETATM   22  C   UNL     1      -8.459  17.885  66.812  1.00  0.00    -0.268 C  
HETATM   23  C   UNL     1      -9.146  16.703  66.126  1.00  0.00    -0.283 C  
HETATM   24  N   UNL     1     -10.149  16.095  66.973  1.00  0.00    -0.264 NA 
ENDBRANCH  15  16
ENDBRANCH  14  15
ENDBRANCH  11  14
ENDBRANCH   7   8
TORSDOF 4
ENDMDL
MODEL       72
REMARK 921   NORMALIZED FREE ENERGY PREDICTED BY IDOCK:   -5.78 KCAL/MOL
REMARK 922        TOTAL FREE ENERGY PREDICTED BY IDOCK:   -7.39 KCAL/MOL
REMARK 923 INTER-LIGAND FREE ENERGY PREDICTED BY IDOCK:   -6.95 KCAL/MOL
REMARK 924 INTRA-LIGAND FREE ENERGY PREDICTED BY IDOCK:   -0.44 KCAL/MOL
REMARK 927      BINDING AFFINITY PREDICTED BY RF-SCORE:    0.00 PKD
ROOT
HETATM    1  C   UNL     1     -10.643   6.008  73.445  1.00  0.00    -0.277 C  
HETATM    2  C   UNL     1     -10.249   5.422  72.116  1.00  0.00    -0.253 A  
HETATM    3  C   UNL     1      -9.761   4.093  72.149  1.00  0.00    -0.225 A  
HETATM    4  C   UNL     1      -9.445   3.411  70.977  1.00  0.00    -0.227 A  
HETATM    5  C   UNL     1      -9.615   4.039  69.757  1.00  0.00    -0.280 A  
HETATM    6  C   UNL     1     -10.064   5.363  69.717  1.00  0.00    -0.319 A  
HETATM    7  C   UNL     1     -10.360   6.103  70.880  1.00  0.00    -0.215 A  
ENDROOT
BRANCH   7   8
HETATM    8  N   UNL     1     -10.661   7.450  70.738  1.00  0.00    -0.221 NA 
HETATM    9  C   UNL     1     -12.032   7.941  70.888  1.00  0.00    -0.196 C  
HETATM   10  C   UNL     1     -12.042   9.361  71.487  1.00  0.00    -0.379 C  
HETATM   11  N   UNL     1     -11.231  10.350  70.739  1.00  0.00    -0.296 NA 
HETATM   12  C   UNL     1      -9.699   8.384  70.113  1.00  0.00    -0.173 C  
HETATM   13  C   UNL     1      -9.846   9.817  70.694  1.00  0.00    -0.102 C  
BRANCH  11  14
HETATM   14  C   UNL     1     -11.736  10.605  69.368  1.00  0.00    -0.273 C  
BRANCH  14  15
HETATM   15  C   UNL     1     -10.765  11.457  68.546  1.00  0.00    -0.235 C  
BRANCH  15  16
HETATM   16  C   UNL     1     -11.427  12.378  67.590  1.00  0.00    -0.337 A  
HETATM   17  N   UNL     1     -12.181  13.430  67.831  1.00  0.00    -0.222 NA 
HETATM   18  N   UNL     1     -12.580  13.961  66.621  1.00  0.00    -0.265 NA 
HETATM   19  C   UNL     1     -12.061  13.221  65.666  1.00  0.00    -0.441 A  
HETATM   20  C   UNL     1     -12.191  13.369  64.194  1.00  0.00    -0.457 C  
HETATM   21  C   UNL     1     -11.723  12.105  63.460  1.00  0.00    -0.579 C  
HETATM   22  C   UNL     1     -10.402  11.591  64.033  1.00  0.00    -0.406 C  
HETATM   23  C   UNL     1     -10.567  11.228  65.509  1.00  0.00    -0.246 C  
HETATM   24  N   UNL     1     -11.303  12.240  66.236  1.00  0.00    -0.327 NA 
ENDBRANCH  15  16
ENDBRANCH  14  15
ENDBRANCH  11  14
ENDBRANCH   7   8
TORSDOF 4
ENDMDL
MODEL       73
REMARK 921   NORMALIZED FREE ENERGY PREDICTED BY IDOCK:   -5.78 KCAL/MOL
REMARK 922        TOTAL FREE ENERGY PREDICTED BY IDOCK:   -7.38 KCAL/MOL
REMARK 923 INTER-LIGAND FREE ENERGY PREDICTED BY IDOCK:   -6.98 KCAL/MOL
REMARK 924 INTRA-LIGAND FREE ENERGY PREDICTED BY IDOCK:   -0.41 KCAL/MOL
REMARK 927      BINDING AFFINITY PREDICTED BY RF-SCORE:    0.00 PKD
ROOT
HETATM    1  C   UNL     1      -7.964  16.967  68.512  1.00  0.00    -0.249 C  
HETATM    2  C   UNL     1      -8.850  17.942  67.785  1.00  0.00    -0.251 A  
HETATM    3  C   UNL     1      -8.613  19.312  68.057  1.00  0.00    -0.357 A  
HETATM    4  C   UNL     1      -9.309  20.312  67.382  1.00  0.00    -0.531 A  
HETATM    5  C   UNL     1     -10.245  19.964  66.427  1.00  0.00    -0.617 A  
HETATM    6  C   UNL     1     -10.510  18.614  66.176  1.00  0.00    -0.473 A  
HETATM    7  C   UNL     1      -9.856  17.569  66.861  1.00  0.00    -0.302 A  
ENDROOT
BRANCH   7   8
HETATM    8  N   UNL     1     -10.291  16.270  66.641  1.00  0.00    -0.298 NA 
HETATM    9  C   UNL     1     -11.044  15.539  67.662  1.00  0.00    -0.311 C  
HETATM   10  C   UNL     1     -12.060  14.581  67.011  1.00  0.00    -0.273 C  
HETATM   11  N   UNL     1     -11.471  13.628  66.040  1.00  0.00    -0.317 NA 
HETATM   12  C   UNL     1      -9.742  15.460  65.532  1.00  0.00    -0.283 C  
HETATM   13  C   UNL     1     -10.791  14.444  65.003  1.00  0.00    -0.407 C  
BRANCH  11  14
HETATM   14  C   UNL     1     -10.519  12.673  66.659  1.00  0.00    -0.245 C  
BRANCH  14  15
HETATM   15  C   UNL     1     -11.196  11.357  67.050  1.00  0.00    -0.350 C  
BRANCH  15  16
HETATM   16  C   UNL     1     -10.434  10.554  68.037  1.00  0.00    -0.197 A  
HETATM   17  N   UNL     1      -9.900  10.926  69.182  1.00  0.00    -0.184 NA 
HETATM   18  N   UNL     1      -9.279   9.830  69.745  1.00  0.00    -0.213 NA 
HETATM   19  C   UNL     1      -9.446   8.811  68.932  1.00  0.00    -0.145 A  
HETATM   20  C   UNL     1      -8.971   7.411  69.077  1.00  0.00    -0.131 C  
HETATM   21  C   UNL     1      -9.080   6.641  67.754  1.00  0.00    -0.113 C  
HETATM   22  C   UNL     1     -10.429   6.893  67.079  1.00  0.00    -0.374 C  
HETATM   23  C   UNL     1     -10.595   8.378  66.759  1.00  0.00    -0.156 C  
HETATM   24  N   UNL     1     -10.196   9.218  67.867  1.00  0.00    -0.201 NA 
ENDBRANCH  15  16
ENDBRANCH  14  15
ENDBRANCH  11  14
ENDBRANCH   7   8
TORSDOF 4
ENDMDL
MODEL       74
REMARK 921   NORMALIZED FREE ENERGY PREDICTED BY IDOCK:   -5.76 KCAL/MOL
REMARK 922        TOTAL FREE ENERGY PREDICTED BY IDOCK:   -7.37 KCAL/MOL
REMARK 923 INTER-LIGAND FREE ENERGY PREDICTED BY IDOCK:   -7.10 KCAL/MOL
REMARK 924 INTRA-LIGAND FREE ENERGY PREDICTED BY IDOCK:   -0.27 KCAL/MOL
REMARK 927      BINDING AFFINITY PREDICTED BY RF-SCORE:    0.00 PKD
ROOT
HETATM    1  C   UNL     1     -11.868  13.504  67.596  1.00  0.00    -0.399 C  
HETATM    2  C   UNL     1     -11.699  12.924  66.217  1.00  0.00    -0.457 A  
HETATM    3  C   UNL     1     -12.417  13.572  65.183  1.00  0.00    -0.495 A  
HETATM    4  C   UNL     1     -12.277  13.183  63.853  1.00  0.00    -0.503 A  
HETATM    5  C   UNL     1     -11.417  12.149  63.534  1.00  0.00    -0.544 A  
HETATM    6  C   UNL     1     -10.730  11.481  64.552  1.00  0.00    -0.390 A  
HETATM    7  C   UNL     1     -10.870  11.817  65.914  1.00  0.00    -0.291 A  
ENDROOT
BRANCH   7   8
HETATM    8  N   UNL     1     -10.256  11.003  66.856  1.00  0.00    -0.213 NA 
HETATM    9  C   UNL     1     -11.039  10.118  67.720  1.00  0.00    -0.227 C  
HETATM   10  C   UNL     1     -10.255   8.832  68.040  1.00  0.00    -0.213 C  
HETATM   11  N   UNL     1      -8.915   9.059  68.632  1.00  0.00    -0.137 NA 
HETATM   12  C   UNL     1      -8.850  11.228  67.256  1.00  0.00    -0.150 C  
HETATM   13  C   UNL     1      -8.161   9.898  67.667  1.00  0.00    -0.110 C  
BRANCH  11  14
HETATM   14  C   UNL     1      -8.965   9.712  69.963  1.00  0.00    -0.237 C  
BRANCH  14  15
HETATM   15  C   UNL     1     -10.157   9.233  70.796  1.00  0.00    -0.358 C  
BRANCH  15  16
HETATM   16  C   UNL     1      -9.778   8.506  72.032  1.00  0.00    -0.307 A  
HETATM   17  N   UNL     1      -8.850   8.795  72.920  1.00  0.00    -0.298 NA 
HETATM   18  N   UNL     1      -8.863   7.816  73.893  1.00  0.00    -0.263 NA 
HETATM   19  C   UNL     1      -9.800   6.949  73.578  1.00  0.00    -0.242 A  
HETATM   20  C   UNL     1     -10.211   5.716  74.297  1.00  0.00    -0.293 C  
HETATM   21  C   UNL     1     -11.092   4.821  73.416  1.00  0.00    -0.422 C  
HETATM   22  C   UNL     1     -12.160   5.640  72.691  1.00  0.00    -0.041 C  
HETATM   23  C   UNL     1     -11.507   6.678  71.779  1.00  0.00    -0.291 C  
HETATM   24  N   UNL     1     -10.419   7.368  72.437  1.00  0.00    -0.219 NA 
ENDBRANCH  15  16
ENDBRANCH  14  15
ENDBRANCH  11  14
ENDBRANCH   7   8
TORSDOF 4
ENDMDL
MODEL       75
REMARK 921   NORMALIZED FREE ENERGY PREDICTED BY IDOCK:   -5.75 KCAL/MOL
REMARK 922        TOTAL FREE ENERGY PREDICTED BY IDOCK:   -7.36 KCAL/MOL
REMARK 923 INTER-LIGAND FREE ENERGY PREDICTED BY IDOCK:   -7.05 KCAL/MOL
REMARK 924 INTRA-LIGAND FREE ENERGY PREDICTED BY IDOCK:   -0.31 KCAL/MOL
REMARK 927      BINDING AFFINITY PREDICTED BY RF-SCORE:    0.00 PKD
ROOT
HETATM    1  C   UNL     1     -11.790  11.151  70.305  1.00  0.00    -0.455 C  
HETATM    2  C   UNL     1     -12.329  12.481  70.759  1.00  0.00    -0.376 A  
HETATM    3  C   UNL     1     -13.069  12.468  71.966  1.00  0.00    -0.472 A  
HETATM    4  C   UNL     1     -13.545  13.646  72.534  1.00  0.00    -0.675 A  
HETATM    5  C   UNL     1     -13.288  14.854  71.912  1.00  0.00    -0.458 A  
HETATM    6  C   UNL     1     -12.587  14.874  70.702  1.00  0.00    -0.420 A  
HETATM    7  C   UNL     1     -12.119  13.702  70.073  1.00  0.00    -0.348 A  
ENDROOT
BRANCH   7   8
HETATM    8  N   UNL     1     -11.561  13.818  68.807  1.00  0.00    -0.303 NA 
HETATM    9  C   UNL     1     -12.143  13.125  67.656  1.00  0.00    -0.232 C  
HETATM   10  C   UNL     1     -11.953  13.949  66.369  1.00  0.00    -0.438 C  
HETATM   11  N   UNL     1     -10.548  14.320  66.077  1.00  0.00    -0.293 NA 
HETATM   12  C   UNL     1     -10.196  14.356  68.623  1.00  0.00    -0.245 C  
HETATM   13  C   UNL     1     -10.055  15.078  67.255  1.00  0.00    -0.235 C  
BRANCH  11  14
HETATM   14  C   UNL     1      -9.676  13.150  65.810  1.00  0.00    -0.138 C  
BRANCH  14  15
HETATM   15  C   UNL     1     -10.410  12.049  65.040  1.00  0.00    -0.318 C  
BRANCH  15  16
HETATM   16  C   UNL     1     -10.020  10.673  65.434  1.00  0.00    -0.281 A  
HETATM   17  N   UNL     1     -10.406   9.960  66.471  1.00  0.00    -0.214 NA 
HETATM   18  N   UNL     1      -9.761   8.740  66.420  1.00  0.00    -0.247 NA 
HETATM   19  C   UNL     1      -8.994   8.734  65.353  1.00  0.00    -0.160 A  
HETATM   20  C   UNL     1      -8.098   7.661  64.852  1.00  0.00    -0.128 C  
HETATM   21  C   UNL     1      -7.132   8.190  63.783  1.00  0.00    -0.078 C  
HETATM   22  C   UNL     1      -7.862   9.071  62.769  1.00  0.00    -0.129 C  
HETATM   23  C   UNL     1      -8.483  10.283  63.464  1.00  0.00    -0.182 C  
HETATM   24  N   UNL     1      -9.157   9.916  64.690  1.00  0.00    -0.224 NA 
ENDBRANCH  15  16
ENDBRANCH  14  15
ENDBRANCH  11  14
ENDBRANCH   7   8
TORSDOF 4
ENDMDL
MODEL       76
REMARK 921   NORMALIZED FREE ENERGY PREDICTED BY IDOCK:   -5.75 KCAL/MOL
REMARK 922        TOTAL FREE ENERGY PREDICTED BY IDOCK:   -7.35 KCAL/MOL
REMARK 923 INTER-LIGAND FREE ENERGY PREDICTED BY IDOCK:   -6.88 KCAL/MOL
REMARK 924 INTRA-LIGAND FREE ENERGY PREDICTED BY IDOCK:   -0.48 KCAL/MOL
REMARK 927      BINDING AFFINITY PREDICTED BY RF-SCORE:    0.00 PKD
ROOT
HETATM    1  C   UNL     1      -9.012  15.354  66.247  1.00  0.00    -0.341 C  
HETATM    2  C   UNL     1     -10.210  14.723  65.589  1.00  0.00    -0.382 A  
HETATM    3  C   UNL     1     -11.055  15.604  64.873  1.00  0.00    -0.414 A  
HETATM    4  C   UNL     1     -12.146  15.129  64.150  1.00  0.00    -0.195 A  
HETATM    5  C   UNL     1     -12.408  13.772  64.126  1.00  0.00    -0.382 A  
HETATM    6  C   UNL     1     -11.598  12.898  64.859  1.00  0.00    -0.365 A  
HETATM    7  C   UNL     1     -10.506  13.340  65.633  1.00  0.00    -0.281 A  
ENDROOT
BRANCH   7   8
HETATM    8  N   UNL     1      -9.855  12.412  66.434  1.00  0.00    -0.235 NA 
HETATM    9  C   UNL     1      -9.228  11.220  65.859  1.00  0.00    -0.212 C  
HETATM   10  C   UNL     1      -7.976  10.820  66.663  1.00  0.00    -0.139 C  
HETATM   11  N   UNL     1      -8.214  10.614  68.111  1.00  0.00    -0.113 NA 
HETATM   12  C   UNL     1     -10.048  12.403  67.901  1.00  0.00    -0.208 C  
HETATM   13  C   UNL     1      -8.779  11.884  68.633  1.00  0.00    -0.033 C  
BRANCH  11  14
HETATM   14  C   UNL     1      -9.126   9.481  68.400  1.00  0.00    -0.127 C  
BRANCH  14  15
HETATM   15  C   UNL     1      -9.517   9.419  69.879  1.00  0.00    -0.235 C  
BRANCH  15  16
HETATM   16  C   UNL     1     -10.430   8.300  70.218  1.00  0.00    -0.218 A  
HETATM   17  N   UNL     1     -10.291   7.011  69.993  1.00  0.00    -0.198 NA 
HETATM   18  N   UNL     1     -11.410   6.365  70.479  1.00  0.00    -0.352 NA 
HETATM   19  C   UNL     1     -12.209   7.274  70.991  1.00  0.00    -0.313 A  
HETATM   20  C   UNL     1     -13.535   7.096  71.635  1.00  0.00    -0.397 C  
HETATM   21  C   UNL     1     -14.275   8.433  71.774  1.00  0.00    -0.536 C  
HETATM   22  C   UNL     1     -13.344   9.527  72.299  1.00  0.00    -0.526 C  
HETATM   23  C   UNL     1     -12.182   9.746  71.331  1.00  0.00    -0.397 C  
HETATM   24  N   UNL     1     -11.612   8.496  70.877  1.00  0.00    -0.275 NA 
ENDBRANCH  15  16
ENDBRANCH  14  15
ENDBRANCH  11  14
ENDBRANCH   7   8
TORSDOF 4
ENDMDL
MODEL       77
REMARK 921   NORMALIZED FREE ENERGY PREDICTED BY IDOCK:   -5.73 KCAL/MOL
REMARK 922        TOTAL FREE ENERGY PREDICTED BY IDOCK:   -7.33 KCAL/MOL
REMARK 923 INTER-LIGAND FREE ENERGY PREDICTED BY IDOCK:   -6.93 KCAL/MOL
REMARK 924 INTRA-LIGAND FREE ENERGY PREDICTED BY IDOCK:   -0.40 KCAL/MOL
REMARK 927      BINDING AFFINITY PREDICTED BY RF-SCORE:    0.00 PKD
ROOT
HETATM    1  C   UNL     1      -8.053  17.095  68.666  1.00  0.00    -0.264 C  
HETATM    2  C   UNL     1      -8.965  18.031  67.920  1.00  0.00    -0.265 A  
HETATM    3  C   UNL     1      -8.815  19.407  68.219  1.00  0.00    -0.382 A  
HETATM    4  C   UNL     1      -9.540  20.378  67.533  1.00  0.00    -0.560 A  
HETATM    5  C   UNL     1     -10.418  19.994  66.537  1.00  0.00    -0.525 A  
HETATM    6  C   UNL     1     -10.598  18.636  66.258  1.00  0.00    -0.396 A  
HETATM    7  C   UNL     1      -9.913  17.618  66.953  1.00  0.00    -0.323 A  
ENDROOT
BRANCH   7   8
HETATM    8  N   UNL     1     -10.267  16.300  66.698  1.00  0.00    -0.276 NA 
HETATM    9  C   UNL     1     -11.019  15.514  67.678  1.00  0.00    -0.315 C  
HETATM   10  C   UNL     1     -11.953  14.512  66.973  1.00  0.00    -0.345 C  
HETATM   11  N   UNL     1     -11.274  13.607  66.015  1.00  0.00    -0.294 NA 
HETATM   12  C   UNL     1      -9.629  15.539  65.602  1.00  0.00    -0.293 C  
HETATM   13  C   UNL     1     -10.598  14.475  65.017  1.00  0.00    -0.437 C  
BRANCH  11  14
HETATM   14  C   UNL     1     -10.297  12.697  66.660  1.00  0.00    -0.236 C  
BRANCH  14  15
HETATM   15  C   UNL     1      -9.894  11.540  65.741  1.00  0.00    -0.266 C  
BRANCH  15  16
HETATM   16  C   UNL     1     -10.061  10.198  66.350  1.00  0.00    -0.236 A  
HETATM   17  N   UNL     1     -10.837   9.822  67.344  1.00  0.00    -0.253 NA 
HETATM   18  N   UNL     1     -10.638   8.474  67.562  1.00  0.00    -0.247 NA 
HETATM   19  C   UNL     1      -9.745   8.054  66.694  1.00  0.00    -0.243 A  
HETATM   20  C   UNL     1      -9.186   6.689  66.515  1.00  0.00    -0.183 C  
HETATM   21  C   UNL     1      -7.929   6.710  65.635  1.00  0.00    -0.115 C  
HETATM   22  C   UNL     1      -8.134   7.588  64.400  1.00  0.00    -0.074 C  
HETATM   23  C   UNL     1      -8.425   9.030  64.815  1.00  0.00    -0.180 C  
HETATM   24  N   UNL     1      -9.386   9.099  65.894  1.00  0.00    -0.226 NA 
ENDBRANCH  15  16
ENDBRANCH  14  15
ENDBRANCH  11  14
ENDBRANCH   7   8
TORSDOF 4
ENDMDL
MODEL       78
REMARK 921   NORMALIZED FREE ENERGY PREDICTED BY IDOCK:   -5.73 KCAL/MOL
REMARK 922        TOTAL FREE ENERGY PREDICTED BY IDOCK:   -7.32 KCAL/MOL
REMARK 923 INTER-LIGAND FREE ENERGY PREDICTED BY IDOCK:   -6.89 KCAL/MOL
REMARK 924 INTRA-LIGAND FREE ENERGY PREDICTED BY IDOCK:   -0.43 KCAL/MOL
REMARK 927      BINDING AFFINITY PREDICTED BY RF-SCORE:    0.00 PKD
ROOT
HETATM    1  C   UNL     1     -10.863   4.107  73.600  1.00  0.00    -0.346 C  
HETATM    2  C   UNL     1     -10.333   3.827  72.219  1.00  0.00    -0.155 A  
HETATM    3  C   UNL     1      -9.938   2.490  71.969  1.00  0.00    -0.228 A  
HETATM    4  C   UNL     1      -9.513   2.088  70.705  1.00  0.00    -0.193 A  
HETATM    5  C   UNL     1      -9.480   3.007  69.674  1.00  0.00    -0.177 A  
HETATM    6  C   UNL     1      -9.837   4.337  69.919  1.00  0.00    -0.267 A  
HETATM    7  C   UNL     1     -10.238   4.796  71.191  1.00  0.00    -0.158 A  
ENDROOT
BRANCH   7   8
HETATM    8  N   UNL     1     -10.433   6.159  71.363  1.00  0.00    -0.218 NA 
HETATM    9  C   UNL     1     -11.773   6.746  71.314  1.00  0.00    -0.336 C  
HETATM   10  C   UNL     1     -11.876   7.954  72.264  1.00  0.00    -0.352 C  
HETATM   11  N   UNL     1     -10.857   9.006  72.034  1.00  0.00    -0.338 NA 
HETATM   12  C   UNL     1      -9.302   7.108  71.267  1.00  0.00    -0.155 C  
HETATM   13  C   UNL     1      -9.532   8.351  72.171  1.00  0.00    -0.290 C  
BRANCH  11  14
HETATM   14  C   UNL     1     -10.979   9.661  70.709  1.00  0.00    -0.327 C  
BRANCH  14  15
HETATM   15  C   UNL     1     -12.345  10.324  70.517  1.00  0.00    -0.371 C  
BRANCH  15  16
HETATM   16  C   UNL     1     -12.276  11.757  70.142  1.00  0.00    -0.263 A  
HETATM   17  N   UNL     1     -12.449  12.826  70.891  1.00  0.00    -0.345 NA 
HETATM   18  N   UNL     1     -12.298  13.941  70.092  1.00  0.00    -0.342 NA 
HETATM   19  C   UNL     1     -12.035  13.530  68.872  1.00  0.00    -0.341 A  
HETATM   20  C   UNL     1     -11.792  14.334  67.647  1.00  0.00    -0.420 C  
HETATM   21  C   UNL     1     -11.871  13.468  66.382  1.00  0.00    -0.435 C  
HETATM   22  C   UNL     1     -11.108  12.155  66.564  1.00  0.00    -0.352 C  
HETATM   23  C   UNL     1     -11.708  11.345  67.712  1.00  0.00    -0.203 C  
HETATM   24  N   UNL     1     -11.978  12.167  68.872  1.00  0.00    -0.282 NA 
ENDBRANCH  15  16
ENDBRANCH  14  15
ENDBRANCH  11  14
ENDBRANCH   7   8
TORSDOF 4
ENDMDL
MODEL       79
REMARK 921   NORMALIZED FREE ENERGY PREDICTED BY IDOCK:   -5.71 KCAL/MOL
REMARK 922        TOTAL FREE ENERGY PREDICTED BY IDOCK:   -7.31 KCAL/MOL
REMARK 923 INTER-LIGAND FREE ENERGY PREDICTED BY IDOCK:   -8.03 KCAL/MOL
REMARK 924 INTRA-LIGAND FREE ENERGY PREDICTED BY IDOCK:    0.73 KCAL/MOL
REMARK 927      BINDING AFFINITY PREDICTED BY RF-SCORE:    0.00 PKD
ROOT
HETATM    1  C   UNL     1     -11.953  10.708  70.624  1.00  0.00    -0.466 C  
HETATM    2  C   UNL     1     -12.424  12.115  70.875  1.00  0.00    -0.374 A  
HETATM    3  C   UNL     1     -13.175  12.312  72.059  1.00  0.00    -0.508 A  
HETATM    4  C   UNL     1     -13.593  13.583  72.446  1.00  0.00    -0.709 A  
HETATM    5  C   UNL     1     -13.265  14.674  71.663  1.00  0.00    -0.428 A  
HETATM    6  C   UNL     1     -12.553  14.485  70.475  1.00  0.00    -0.413 A  
HETATM    7  C   UNL     1     -12.142  13.213  70.027  1.00  0.00    -0.305 A  
ENDROOT
BRANCH   7   8
HETATM    8  N   UNL     1     -11.566  13.118  68.767  1.00  0.00    -0.286 NA 
HETATM    9  C   UNL     1     -10.229  12.551  68.585  1.00  0.00    -0.154 C  
HETATM   10  C   UNL     1     -10.126  11.817  67.234  1.00  0.00    -0.192 C  
HETATM   11  N   UNL     1     -10.488  12.642  66.057  1.00  0.00    -0.263 NA 
HETATM   12  C   UNL     1     -12.117  13.871  67.620  1.00  0.00    -0.307 C  
HETATM   13  C   UNL     1     -11.877  13.117  66.283  1.00  0.00    -0.401 C  
BRANCH  11  14
HETATM   14  C   UNL     1      -9.574  13.789  65.840  1.00  0.00    -0.128 C  
BRANCH  14  15
HETATM   15  C   UNL     1     -10.266  14.949  65.119  1.00  0.00    -0.409 C  
BRANCH  15  16
HETATM   16  C   UNL     1     -10.058  16.271  65.758  1.00  0.00    -0.347 A  
HETATM   17  N   UNL     1     -10.653  17.419  65.514  1.00  0.00    -0.598 NA 
HETATM   18  N   UNL     1     -10.115  18.371  66.356  1.00  0.00    -0.384 NA 
HETATM   19  C   UNL     1      -9.202  17.784  67.097  1.00  0.00    -0.253 A  
HETATM   20  C   UNL     1      -8.336  18.369  68.153  1.00  0.00    -0.301 C  
HETATM   21  C   UNL     1      -7.182  17.426  68.518  1.00  0.00    -0.230 C  
HETATM   22  C   UNL     1      -7.675  15.989  68.685  1.00  0.00    -0.176 C  
HETATM   23  C   UNL     1      -8.286  15.480  67.380  1.00  0.00    -0.177 C  
HETATM   24  N   UNL     1      -9.163  16.458  66.775  1.00  0.00    -0.223 NA 
ENDBRANCH  15  16
ENDBRANCH  14  15
ENDBRANCH  11  14
ENDBRANCH   7   8
TORSDOF 4
ENDMDL
MODEL       80
REMARK 921   NORMALIZED FREE ENERGY PREDICTED BY IDOCK:   -5.69 KCAL/MOL
REMARK 922        TOTAL FREE ENERGY PREDICTED BY IDOCK:   -7.28 KCAL/MOL
REMARK 923 INTER-LIGAND FREE ENERGY PREDICTED BY IDOCK:   -6.76 KCAL/MOL
REMARK 924 INTRA-LIGAND FREE ENERGY PREDICTED BY IDOCK:   -0.52 KCAL/MOL
REMARK 927      BINDING AFFINITY PREDICTED BY RF-SCORE:    0.00 PKD
ROOT
HETATM    1  C   UNL     1     -10.113  18.638  68.456  1.00  0.00    -0.426 C  
HETATM    2  C   UNL     1      -8.978  18.745  67.474  1.00  0.00    -0.291 A  
HETATM    3  C   UNL     1      -8.455  20.045  67.274  1.00  0.00    -0.390 A  
HETATM    4  C   UNL     1      -7.349  20.260  66.456  1.00  0.00    -0.302 A  
HETATM    5  C   UNL     1      -6.746  19.185  65.830  1.00  0.00    -0.295 A  
HETATM    6  C   UNL     1      -7.276  17.902  65.994  1.00  0.00    -0.325 A  
HETATM    7  C   UNL     1      -8.416  17.644  66.783  1.00  0.00    -0.251 A  
ENDROOT
BRANCH   7   8
HETATM    8  N   UNL     1      -8.946  16.361  66.767  1.00  0.00    -0.218 NA 
HETATM    9  C   UNL     1     -10.172  16.056  66.028  1.00  0.00    -0.341 C  
HETATM   10  C   UNL     1     -10.132  14.619  65.472  1.00  0.00    -0.377 C  
HETATM   11  N   UNL     1      -9.884  13.572  66.491  1.00  0.00    -0.284 NA 
HETATM   12  C   UNL     1      -8.501  15.341  67.741  1.00  0.00    -0.152 C  
HETATM   13  C   UNL     1      -8.594  13.910  67.142  1.00  0.00    -0.203 C  
BRANCH  11  14
HETATM   14  C   UNL     1     -10.965  13.468  67.501  1.00  0.00    -0.268 C  
BRANCH  14  15
HETATM   15  C   UNL     1     -11.640  12.094  67.482  1.00  0.00    -0.413 C  
BRANCH  15  16
HETATM   16  C   UNL     1     -11.691  11.426  68.805  1.00  0.00    -0.339 A  
HETATM   17  N   UNL     1     -12.618  11.489  69.738  1.00  0.00    -0.032 NA 
HETATM   18  N   UNL     1     -12.215  10.704  70.800  1.00  0.00    -0.341 NA 
HETATM   19  C   UNL     1     -11.050  10.179  70.493  1.00  0.00    -0.327 A  
HETATM   20  C   UNL     1     -10.197   9.266  71.296  1.00  0.00    -0.383 C  
HETATM   21  C   UNL     1      -8.777   9.174  70.720  1.00  0.00    -0.285 C  
HETATM   22  C   UNL     1      -8.808   9.005  69.201  1.00  0.00    -0.142 C  
HETATM   23  C   UNL     1      -9.491  10.205  68.545  1.00  0.00    -0.158 C  
HETATM   24  N   UNL     1     -10.706  10.580  69.236  1.00  0.00    -0.218 NA 
ENDBRANCH  15  16
ENDBRANCH  14  15
ENDBRANCH  11  14
ENDBRANCH   7   8
TORSDOF 4
ENDMDL
MODEL       81
REMARK 921   NORMALIZED FREE ENERGY PREDICTED BY IDOCK:   -5.69 KCAL/MOL
REMARK 922        TOTAL FREE ENERGY PREDICTED BY IDOCK:   -7.28 KCAL/MOL
REMARK 923 INTER-LIGAND FREE ENERGY PREDICTED BY IDOCK:   -6.88 KCAL/MOL
REMARK 924 INTRA-LIGAND FREE ENERGY PREDICTED BY IDOCK:   -0.41 KCAL/MOL
REMARK 927      BINDING AFFINITY PREDICTED BY RF-SCORE:    0.00 PKD
ROOT
HETATM    1  C   UNL     1      -9.907   4.560  69.472  1.00  0.00    -0.277 C  
HETATM    2  C   UNL     1     -10.022   4.635  70.971  1.00  0.00    -0.270 A  
HETATM    3  C   UNL     1      -9.989   3.395  71.655  1.00  0.00    -0.177 A  
HETATM    4  C   UNL     1     -10.000   3.338  73.046  1.00  0.00    -0.206 A  
HETATM    5  C   UNL     1     -10.039   4.512  73.775  1.00  0.00    -0.210 A  
HETATM    6  C   UNL     1     -10.106   5.740  73.108  1.00  0.00    -0.200 A  
HETATM    7  C   UNL     1     -10.134   5.842  71.702  1.00  0.00    -0.190 A  
ENDROOT
BRANCH   7   8
HETATM    8  N   UNL     1     -10.344   7.095  71.142  1.00  0.00    -0.203 NA 
HETATM    9  C   UNL     1     -11.696   7.619  70.942  1.00  0.00    -0.271 C  
HETATM   10  C   UNL     1     -11.718   9.151  71.107  1.00  0.00    -0.313 C  
HETATM   11  N   UNL     1     -10.762   9.877  70.237  1.00  0.00    -0.290 NA 
HETATM   12  C   UNL     1      -9.259   7.801  70.427  1.00  0.00    -0.156 C  
HETATM   13  C   UNL     1      -9.413   9.342  70.550  1.00  0.00    -0.269 C  
BRANCH  11  14
HETATM   14  C   UNL     1     -11.058   9.731  68.791  1.00  0.00    -0.095 C  
BRANCH  14  15
HETATM   15  C   UNL     1     -10.205  10.668  67.932  1.00  0.00    -0.206 C  
BRANCH  15  16
HETATM   16  C   UNL     1     -10.944  11.838  67.396  1.00  0.00    -0.262 A  
HETATM   17  N   UNL     1     -11.539  12.817  68.043  1.00  0.00    -0.320 NA 
HETATM   18  N   UNL     1     -12.103  13.668  67.114  1.00  0.00    -0.384 NA 
HETATM   19  C   UNL     1     -11.840  13.190  65.918  1.00  0.00    -0.406 A  
HETATM   20  C   UNL     1     -12.225  13.732  64.590  1.00  0.00    -0.440 C  
HETATM   21  C   UNL     1     -12.019  12.692  63.480  1.00  0.00    -0.630 C  
HETATM   22  C   UNL     1     -10.669  11.990  63.624  1.00  0.00    -0.506 C  
HETATM   23  C   UNL     1     -10.592  11.253  64.961  1.00  0.00    -0.289 C  
HETATM   24  N   UNL     1     -11.084  12.062  66.054  1.00  0.00    -0.308 NA 
ENDBRANCH  15  16
ENDBRANCH  14  15
ENDBRANCH  11  14
ENDBRANCH   7   8
TORSDOF 4
ENDMDL
MODEL       82
REMARK 921   NORMALIZED FREE ENERGY PREDICTED BY IDOCK:   -5.66 KCAL/MOL
REMARK 922        TOTAL FREE ENERGY PREDICTED BY IDOCK:   -7.25 KCAL/MOL
REMARK 923 INTER-LIGAND FREE ENERGY PREDICTED BY IDOCK:   -6.77 KCAL/MOL
REMARK 924 INTRA-LIGAND FREE ENERGY PREDICTED BY IDOCK:   -0.48 KCAL/MOL
REMARK 927      BINDING AFFINITY PREDICTED BY RF-SCORE:    0.00 PKD
ROOT
HETATM    1  C   UNL     1      -9.279   5.255  72.664  1.00  0.00    -0.144 C  
HETATM    2  C   UNL     1      -9.438   5.101  71.175  1.00  0.00    -0.205 A  
HETATM    3  C   UNL     1      -8.704   4.044  70.583  1.00  0.00    -0.120 A  
HETATM    4  C   UNL     1      -8.834   3.746  69.229  1.00  0.00    -0.153 A  
HETATM    5  C   UNL     1      -9.699   4.490  68.448  1.00  0.00    -0.188 A  
HETATM    6  C   UNL     1     -10.402   5.557  69.017  1.00  0.00    -0.304 A  
HETATM    7  C   UNL     1     -10.273   5.917  70.374  1.00  0.00    -0.213 A  
ENDROOT
BRANCH   7   8
HETATM    8  N   UNL     1     -10.903   7.075  70.806  1.00  0.00    -0.239 NA 
HETATM    9  C   UNL     1     -12.183   7.023  71.516  1.00  0.00    -0.368 C  
HETATM   10  C   UNL     1     -12.283   8.165  72.545  1.00  0.00    -0.278 C  
HETATM   11  N   UNL     1     -12.074   9.521  71.983  1.00  0.00    -0.327 NA 
HETATM   12  C   UNL     1     -10.498   8.401  70.289  1.00  0.00    -0.218 C  
HETATM   13  C   UNL     1     -10.732   9.514  71.348  1.00  0.00    -0.278 C  
BRANCH  11  14
HETATM   14  C   UNL     1     -13.112   9.916  71.002  1.00  0.00    -0.329 C  
BRANCH  14  15
HETATM   15  C   UNL     1     -12.761  11.223  70.286  1.00  0.00    -0.161 C  
BRANCH  15  16
HETATM   16  C   UNL     1     -12.934  12.436  71.121  1.00  0.00    -0.141 A  
HETATM   17  N   UNL     1     -13.642  12.601  72.218  1.00  0.00    -0.515 NA 
HETATM   18  N   UNL     1     -13.504  13.911  72.629  1.00  0.00    -0.617 NA 
HETATM   19  C   UNL     1     -12.713  14.520  71.773  1.00  0.00    -0.343 A  
HETATM   20  C   UNL     1     -12.254  15.932  71.767  1.00  0.00    -0.551 C  
HETATM   21  C   UNL     1     -11.634  16.314  70.416  1.00  0.00    -0.193 C  
HETATM   22  C   UNL     1     -10.677  15.228  69.922  1.00  0.00    -0.300 C  
HETATM   23  C   UNL     1     -11.425  13.909  69.725  1.00  0.00    -0.215 C  
HETATM   24  N   UNL     1     -12.307  13.617  70.834  1.00  0.00    -0.366 NA 
ENDBRANCH  15  16
ENDBRANCH  14  15
ENDBRANCH  11  14
ENDBRANCH   7   8
TORSDOF 4
ENDMDL
MODEL       83
REMARK 921   NORMALIZED FREE ENERGY PREDICTED BY IDOCK:   -5.66 KCAL/MOL
REMARK 922        TOTAL FREE ENERGY PREDICTED BY IDOCK:   -7.25 KCAL/MOL
REMARK 923 INTER-LIGAND FREE ENERGY PREDICTED BY IDOCK:   -7.03 KCAL/MOL
REMARK 924 INTRA-LIGAND FREE ENERGY PREDICTED BY IDOCK:   -0.22 KCAL/MOL
REMARK 927      BINDING AFFINITY PREDICTED BY RF-SCORE:    0.00 PKD
ROOT
HETATM    1  C   UNL     1     -13.274  12.067  71.903  1.00  0.00    -0.469 C  
HETATM    2  C   UNL     1     -12.883  13.520  71.876  1.00  0.00    -0.368 A  
HETATM    3  C   UNL     1     -13.253  14.280  73.011  1.00  0.00    -0.500 A  
HETATM    4  C   UNL     1     -12.873  15.614  73.143  1.00  0.00    -0.621 A  
HETATM    5  C   UNL     1     -12.116  16.206  72.149  1.00  0.00    -0.593 A  
HETATM    6  C   UNL     1     -11.774  15.473  71.008  1.00  0.00    -0.423 A  
HETATM    7  C   UNL     1     -12.169  14.133  70.818  1.00  0.00    -0.365 A  
ENDROOT
BRANCH   7   8
HETATM    8  N   UNL     1     -11.901  13.541  69.591  1.00  0.00    -0.319 NA 
HETATM    9  C   UNL     1     -11.367  12.181  69.506  1.00  0.00    -0.207 C  
HETATM   10  C   UNL     1     -11.888  11.467  68.244  1.00  0.00    -0.256 C  
HETATM   11  N   UNL     1     -11.628  12.191  66.977  1.00  0.00    -0.467 NA 
HETATM   12  C   UNL     1     -11.822  14.351  68.356  1.00  0.00    -0.319 C  
HETATM   13  C   UNL     1     -12.260  13.527  67.113  1.00  0.00    -0.281 C  
BRANCH  11  14
HETATM   14  C   UNL     1     -10.184  12.327  66.664  1.00  0.00    -0.216 C  
BRANCH  14  15
HETATM   15  C   UNL     1      -9.675  11.183  65.783  1.00  0.00    -0.266 C  
BRANCH  15  16
HETATM   16  C   UNL     1      -8.713  10.279  66.460  1.00  0.00    -0.131 A  
HETATM   17  N   UNL     1      -7.428  10.448  66.687  1.00  0.00    -0.109 NA 
HETATM   18  N   UNL     1      -6.954   9.327  67.338  1.00  0.00    -0.077 NA 
HETATM   19  C   UNL     1      -7.961   8.497  67.495  1.00  0.00    -0.106 A  
HETATM   20  C   UNL     1      -7.977   7.155  68.133  1.00  0.00    -0.119 C  
HETATM   21  C   UNL     1      -9.263   6.389  67.796  1.00  0.00    -0.112 C  
HETATM   22  C   UNL     1     -10.493   7.285  67.940  1.00  0.00    -0.267 C  
HETATM   23  C   UNL     1     -10.403   8.471  66.980  1.00  0.00    -0.309 C  
HETATM   24  N   UNL     1      -9.089   9.075  66.988  1.00  0.00    -0.128 NA 
ENDBRANCH  15  16
ENDBRANCH  14  15
ENDBRANCH  11  14
ENDBRANCH   7   8
TORSDOF 4
ENDMDL
MODEL       84
REMARK 921   NORMALIZED FREE ENERGY PREDICTED BY IDOCK:   -5.65 KCAL/MOL
REMARK 922        TOTAL FREE ENERGY PREDICTED BY IDOCK:   -7.23 KCAL/MOL
REMARK 923 INTER-LIGAND FREE ENERGY PREDICTED BY IDOCK:   -6.74 KCAL/MOL
REMARK 924 INTRA-LIGAND FREE ENERGY PREDICTED BY IDOCK:   -0.49 KCAL/MOL
REMARK 927      BINDING AFFINITY PREDICTED BY RF-SCORE:    0.00 PKD
ROOT
HETATM    1  C   UNL     1     -10.106  19.963  67.990  1.00  0.00    -0.572 C  
HETATM    2  C   UNL     1      -8.652  19.752  67.663  1.00  0.00    -0.376 A  
HETATM    3  C   UNL     1      -7.886  20.928  67.476  1.00  0.00    -0.188 A  
HETATM    4  C   UNL     1      -6.512  20.866  67.254  1.00  0.00    -0.389 A  
HETATM    5  C   UNL     1      -5.883  19.635  67.221  1.00  0.00    -0.185 A  
HETATM    6  C   UNL     1      -6.638  18.467  67.370  1.00  0.00    -0.201 A  
HETATM    7  C   UNL     1      -8.035  18.482  67.560  1.00  0.00    -0.236 A  
ENDROOT
BRANCH   7   8
HETATM    8  N   UNL     1      -8.708  17.268  67.555  1.00  0.00    -0.209 NA 
HETATM    9  C   UNL     1      -9.288  16.728  66.325  1.00  0.00    -0.279 C  
HETATM   10  C   UNL     1      -9.232  15.188  66.325  1.00  0.00    -0.301 C  
HETATM   11  N   UNL     1      -9.864  14.549  67.503  1.00  0.00    -0.221 NA 
HETATM   12  C   UNL     1      -9.156  16.641  68.818  1.00  0.00    -0.256 C  
HETATM   13  C   UNL     1      -9.176  15.092  68.701  1.00  0.00    -0.196 C  
BRANCH  11  14
HETATM   14  C   UNL     1     -11.325  14.791  67.588  1.00  0.00    -0.339 C  
BRANCH  14  15
HETATM   15  C   UNL     1     -12.133  13.674  66.922  1.00  0.00    -0.431 C  
BRANCH  15  16
HETATM   16  C   UNL     1     -11.549  12.321  67.089  1.00  0.00    -0.353 A  
HETATM   17  N   UNL     1     -10.898  11.580  66.217  1.00  0.00    -0.281 NA 
HETATM   18  N   UNL     1     -10.559  10.391  66.830  1.00  0.00    -0.246 NA 
HETATM   19  C   UNL     1     -11.010  10.431  68.064  1.00  0.00    -0.291 A  
HETATM   20  C   UNL     1     -10.908   9.403  69.131  1.00  0.00    -0.176 C  
HETATM   21  C   UNL     1     -11.861   9.705  70.295  1.00  0.00    -0.157 C  
HETATM   22  C   UNL     1     -11.800  11.181  70.689  1.00  0.00    -0.403 C  
HETATM   23  C   UNL     1     -12.219  12.064  69.513  1.00  0.00    -0.117 C  
HETATM   24  N   UNL     1     -11.605  11.641  68.273  1.00  0.00    -0.338 NA 
ENDBRANCH  15  16
ENDBRANCH  14  15
ENDBRANCH  11  14
ENDBRANCH   7   8
TORSDOF 4
ENDMDL
MODEL       85
REMARK 921   NORMALIZED FREE ENERGY PREDICTED BY IDOCK:   -5.63 KCAL/MOL
REMARK 922        TOTAL FREE ENERGY PREDICTED BY IDOCK:   -7.21 KCAL/MOL
REMARK 923 INTER-LIGAND FREE ENERGY PREDICTED BY IDOCK:   -6.87 KCAL/MOL
REMARK 924 INTRA-LIGAND FREE ENERGY PREDICTED BY IDOCK:   -0.34 KCAL/MOL
REMARK 927      BINDING AFFINITY PREDICTED BY RF-SCORE:    0.00 PKD
ROOT
HETATM    1  C   UNL     1     -10.765   9.727  70.951  1.00  0.00    -0.375 C  
HETATM    2  C   UNL     1     -10.654   9.025  69.624  1.00  0.00    -0.230 A  
HETATM    3  C   UNL     1     -10.655   7.610  69.673  1.00  0.00    -0.243 A  
HETATM    4  C   UNL     1     -10.643   6.848  68.507  1.00  0.00    -0.247 A  
HETATM    5  C   UNL     1     -10.636   7.483  67.279  1.00  0.00    -0.394 A  
HETATM    6  C   UNL     1     -10.601   8.880  67.222  1.00  0.00    -0.304 A  
HETATM    7  C   UNL     1     -10.574   9.689  68.376  1.00  0.00    -0.225 A  
ENDROOT
BRANCH   7   8
HETATM    8  N   UNL     1     -10.397  11.056  68.213  1.00  0.00    -0.171 NA 
HETATM    9  C   UNL     1     -11.516  11.989  68.354  1.00  0.00    -0.301 C  
HETATM   10  C   UNL     1     -11.037  13.335  68.929  1.00  0.00    -0.261 C  
HETATM   11  N   UNL     1      -9.941  13.976  68.165  1.00  0.00    -0.235 NA 
HETATM   12  C   UNL     1      -9.177  11.594  67.572  1.00  0.00    -0.172 C  
HETATM   13  C   UNL     1      -8.822  13.000  68.129  1.00  0.00    -0.194 C  
BRANCH  11  14
HETATM   14  C   UNL     1     -10.335  14.366  66.790  1.00  0.00    -0.273 C  
BRANCH  14  15
HETATM   15  C   UNL     1      -9.248  15.187  66.090  1.00  0.00    -0.318 C  
BRANCH  15  16
HETATM   16  C   UNL     1      -8.594  16.193  66.962  1.00  0.00    -0.205 A  
HETATM   17  N   UNL     1      -7.413  16.153  67.543  1.00  0.00    -0.140 NA 
HETATM   18  N   UNL     1      -7.248  17.318  68.265  1.00  0.00    -0.202 NA 
HETATM   19  C   UNL     1      -8.332  18.045  68.110  1.00  0.00    -0.268 A  
HETATM   20  C   UNL     1      -8.652  19.379  68.679  1.00  0.00    -0.394 C  
HETATM   21  C   UNL     1     -10.144  19.707  68.534  1.00  0.00    -0.557 C  
HETATM   22  C   UNL     1     -10.650  19.366  67.132  1.00  0.00    -0.596 C  
HETATM   23  C   UNL     1     -10.481  17.873  66.854  1.00  0.00    -0.329 C  
HETATM   24  N   UNL     1      -9.183  17.388  67.270  1.00  0.00    -0.232 NA 
ENDBRANCH  15  16
ENDBRANCH  14  15
ENDBRANCH  11  14
ENDBRANCH   7   8
TORSDOF 4
ENDMDL
MODEL       86
REMARK 921   NORMALIZED FREE ENERGY PREDICTED BY IDOCK:   -5.63 KCAL/MOL
REMARK 922        TOTAL FREE ENERGY PREDICTED BY IDOCK:   -7.21 KCAL/MOL
REMARK 923 INTER-LIGAND FREE ENERGY PREDICTED BY IDOCK:   -6.56 KCAL/MOL
REMARK 924 INTRA-LIGAND FREE ENERGY PREDICTED BY IDOCK:   -0.65 KCAL/MOL
REMARK 927      BINDING AFFINITY PREDICTED BY RF-SCORE:    0.00 PKD
ROOT
HETATM    1  C   UNL     1     -10.688  16.920  68.849  1.00  0.00    -0.321 C  
HETATM    2  C   UNL     1     -11.246  15.830  69.724  1.00  0.00    -0.330 A  
HETATM    3  C   UNL     1     -11.445  16.172  71.084  1.00  0.00    -0.433 A  
HETATM    4  C   UNL     1     -12.036  15.279  71.974  1.00  0.00    -0.459 A  
HETATM    5  C   UNL     1     -12.441  14.037  71.522  1.00  0.00    -0.407 A  
HETATM    6  C   UNL     1     -12.218  13.677  70.189  1.00  0.00    -0.413 A  
HETATM    7  C   UNL     1     -11.591  14.536  69.264  1.00  0.00    -0.302 A  
ENDROOT
BRANCH   7   8
HETATM    8  N   UNL     1     -11.289  14.033  68.006  1.00  0.00    -0.278 NA 
HETATM    9  C   UNL     1     -12.259  14.095  66.911  1.00  0.00    -0.365 C  
HETATM   10  C   UNL     1     -11.545  14.269  65.557  1.00  0.00    -0.338 C  
HETATM   11  N   UNL     1     -10.520  13.239  65.265  1.00  0.00    -0.303 NA 
HETATM   12  C   UNL     1     -10.134  13.131  67.804  1.00  0.00    -0.226 C  
HETATM   13  C   UNL     1      -9.538  13.290  66.378  1.00  0.00    -0.254 C  
BRANCH  11  14
HETATM   14  C   UNL     1     -11.082  11.874  65.128  1.00  0.00    -0.305 C  
BRANCH  14  15
HETATM   15  C   UNL     1     -10.003  10.836  64.807  1.00  0.00    -0.382 C  
BRANCH  15  16
HETATM   16  C   UNL     1      -9.879   9.759  65.819  1.00  0.00    -0.290 A  
HETATM   17  N   UNL     1     -10.427   9.668  67.013  1.00  0.00    -0.246 NA 
HETATM   18  N   UNL     1     -10.007   8.487  67.591  1.00  0.00    -0.184 NA 
HETATM   19  C   UNL     1      -9.211   7.882  66.738  1.00  0.00    -0.166 A  
HETATM   20  C   UNL     1      -8.499   6.586  66.882  1.00  0.00    -0.114 C  
HETATM   21  C   UNL     1      -7.413   6.421  65.810  1.00  0.00    -0.082 C  
HETATM   22  C   UNL     1      -7.934   6.825  64.430  1.00  0.00    -0.096 C  
HETATM   23  C   UNL     1      -8.358   8.293  64.430  1.00  0.00    -0.073 C  
HETATM   24  N   UNL     1      -9.135   8.633  65.601  1.00  0.00    -0.190 NA 
ENDBRANCH  15  16
ENDBRANCH  14  15
ENDBRANCH  11  14
ENDBRANCH   7   8
TORSDOF 4
ENDMDL
MODEL       87
REMARK 921   NORMALIZED FREE ENERGY PREDICTED BY IDOCK:   -5.62 KCAL/MOL
REMARK 922        TOTAL FREE ENERGY PREDICTED BY IDOCK:   -7.19 KCAL/MOL
REMARK 923 INTER-LIGAND FREE ENERGY PREDICTED BY IDOCK:   -6.75 KCAL/MOL
REMARK 924 INTRA-LIGAND FREE ENERGY PREDICTED BY IDOCK:   -0.44 KCAL/MOL
REMARK 927      BINDING AFFINITY PREDICTED BY RF-SCORE:    0.00 PKD
ROOT
HETATM    1  C   UNL     1     -11.107  15.931  64.846  1.00  0.00    -0.400 C  
HETATM    2  C   UNL     1     -10.743  16.624  66.131  1.00  0.00    -0.132 A  
HETATM    3  C   UNL     1     -10.659  18.036  66.069  1.00  0.00    -0.258 A  
HETATM    4  C   UNL     1     -10.414  18.796  67.210  1.00  0.00    -0.489 A  
HETATM    5  C   UNL     1     -10.257  18.162  68.428  1.00  0.00    -0.401 A  
HETATM    6  C   UNL     1     -10.305  16.766  68.494  1.00  0.00    -0.316 A  
HETATM    7  C   UNL     1     -10.513  15.956  67.359  1.00  0.00    -0.306 A  
ENDROOT
BRANCH   7   8
HETATM    8  N   UNL     1     -10.403  14.581  67.507  1.00  0.00    -0.243 NA 
HETATM    9  C   UNL     1     -11.268  13.846  68.431  1.00  0.00    -0.264 C  
HETATM   10  C   UNL     1     -11.566  12.433  67.894  1.00  0.00    -0.356 C  
HETATM   11  N   UNL     1     -10.361  11.627  67.582  1.00  0.00    -0.186 NA 
HETATM   12  C   UNL     1      -9.215  13.854  67.009  1.00  0.00    -0.250 C  
HETATM   13  C   UNL     1      -9.577  12.403  66.589  1.00  0.00    -0.229 C  
BRANCH  11  14
HETATM   14  C   UNL     1      -9.535  11.321  68.775  1.00  0.00    -0.139 C  
BRANCH  14  15
HETATM   15  C   UNL     1      -9.169   9.836  68.857  1.00  0.00    -0.155 C  
BRANCH  15  16
HETATM   16  C   UNL     1      -8.853   9.365  70.227  1.00  0.00    -0.236 A  
HETATM   17  N   UNL     1      -7.730   9.465  70.906  1.00  0.00    -0.285 NA 
HETATM   18  N   UNL     1      -7.915   8.866  72.136  1.00  0.00    -0.367 NA 
HETATM   19  C   UNL     1      -9.148   8.414  72.182  1.00  0.00    -0.239 A  
HETATM   20  C   UNL     1      -9.838   7.692  73.282  1.00  0.00    -0.360 C  
HETATM   21  C   UNL     1     -11.142   7.045  72.796  1.00  0.00    -0.320 C  
HETATM   22  C   UNL     1     -11.950   8.013  71.932  1.00  0.00    -0.359 C  
HETATM   23  C   UNL     1     -11.150   8.416  70.693  1.00  0.00    -0.256 C  
HETATM   24  N   UNL     1      -9.778   8.740  71.017  1.00  0.00    -0.208 NA 
ENDBRANCH  15  16
ENDBRANCH  14  15
ENDBRANCH  11  14
ENDBRANCH   7   8
TORSDOF 4
ENDMDL
MODEL       88
REMARK 921   NORMALIZED FREE ENERGY PREDICTED BY IDOCK:   -5.60 KCAL/MOL
REMARK 922        TOTAL FREE ENERGY PREDICTED BY IDOCK:   -7.17 KCAL/MOL
REMARK 923 INTER-LIGAND FREE ENERGY PREDICTED BY IDOCK:   -6.51 KCAL/MOL
REMARK 924 INTRA-LIGAND FREE ENERGY PREDICTED BY IDOCK:   -0.66 KCAL/MOL
REMARK 927      BINDING AFFINITY PREDICTED BY RF-SCORE:    0.00 PKD
ROOT
HETATM    1  C   UNL     1     -13.003   7.011  71.294  1.00  0.00    -0.357 C  
HETATM    2  C   UNL     1     -11.644   6.475  71.656  1.00  0.00    -0.357 A  
HETATM    3  C   UNL     1     -11.626   5.451  72.634  1.00  0.00    -0.270 A  
HETATM    4  C   UNL     1     -10.440   4.815  72.991  1.00  0.00    -0.258 A  
HETATM    5  C   UNL     1      -9.258   5.185  72.377  1.00  0.00    -0.148 A  
HETATM    6  C   UNL     1      -9.261   6.218  71.435  1.00  0.00    -0.153 A  
HETATM    7  C   UNL     1     -10.432   6.914  71.071  1.00  0.00    -0.214 A  
ENDROOT
BRANCH   7   8
HETATM    8  N   UNL     1     -10.305   8.015  70.235  1.00  0.00    -0.208 NA 
HETATM    9  C   UNL     1      -9.837   7.870  68.856  1.00  0.00    -0.173 C  
HETATM   10  C   UNL     1     -10.503   8.914  67.940  1.00  0.00    -0.223 C  
HETATM   11  N   UNL     1     -10.336  10.318  68.384  1.00  0.00    -0.168 NA 
HETATM   12  C   UNL     1     -10.312   9.390  70.780  1.00  0.00    -0.298 C  
HETATM   13  C   UNL     1     -10.898  10.399  69.755  1.00  0.00    -0.292 C  
BRANCH  11  14
HETATM   14  C   UNL     1      -8.924  10.773  68.372  1.00  0.00    -0.153 C  
BRANCH  14  15
HETATM   15  C   UNL     1      -8.621  11.679  67.175  1.00  0.00    -0.164 C  
BRANCH  15  16
HETATM   16  C   UNL     1      -9.754  12.545  66.768  1.00  0.00    -0.234 A  
HETATM   17  N   UNL     1     -10.265  13.593  67.379  1.00  0.00    -0.239 NA 
HETATM   18  N   UNL     1     -11.319  14.063  66.621  1.00  0.00    -0.324 NA 
HETATM   19  C   UNL     1     -11.430  13.290  65.564  1.00  0.00    -0.311 A  
HETATM   20  C   UNL     1     -12.404  13.371  64.445  1.00  0.00    -0.399 C  
HETATM   21  C   UNL     1     -12.406  12.084  63.609  1.00  0.00    -0.648 C  
HETATM   22  C   UNL     1     -10.980  11.620  63.309  1.00  0.00    -0.361 C  
HETATM   23  C   UNL     1     -10.234  11.319  64.609  1.00  0.00    -0.301 C  
HETATM   24  N   UNL     1     -10.443  12.349  65.603  1.00  0.00    -0.255 NA 
ENDBRANCH  15  16
ENDBRANCH  14  15
ENDBRANCH  11  14
ENDBRANCH   7   8
TORSDOF 4
ENDMDL
MODEL       89
REMARK 921   NORMALIZED FREE ENERGY PREDICTED BY IDOCK:   -5.58 KCAL/MOL
REMARK 922        TOTAL FREE ENERGY PREDICTED BY IDOCK:   -7.14 KCAL/MOL
REMARK 923 INTER-LIGAND FREE ENERGY PREDICTED BY IDOCK:   -7.77 KCAL/MOL
REMARK 924 INTRA-LIGAND FREE ENERGY PREDICTED BY IDOCK:    0.63 KCAL/MOL
REMARK 927      BINDING AFFINITY PREDICTED BY RF-SCORE:    0.00 PKD
ROOT
HETATM    1  C   UNL     1     -12.779  14.160  65.826  1.00  0.00    -0.443 C  
HETATM    2  C   UNL     1     -11.836  13.304  65.024  1.00  0.00    -0.384 A  
HETATM    3  C   UNL     1     -12.440  12.426  64.092  1.00  0.00    -0.534 A  
HETATM    4  C   UNL     1     -11.671  11.646  63.232  1.00  0.00    -0.233 A  
HETATM    5  C   UNL     1     -10.293  11.733  63.284  1.00  0.00    -0.446 A  
HETATM    6  C   UNL     1      -9.686  12.572  64.224  1.00  0.00     0.036 A  
HETATM    7  C   UNL     1     -10.425  13.351  65.138  1.00  0.00    -0.347 A  
ENDROOT
BRANCH   7   8
HETATM    8  N   UNL     1      -9.729  14.040  66.122  1.00  0.00    -0.295 NA 
HETATM    9  C   UNL     1      -8.801  13.350  67.019  1.00  0.00    -0.211 C  
HETATM   10  C   UNL     1      -7.628  14.270  67.405  1.00  0.00    -0.163 C  
HETATM   11  N   UNL     1      -8.032  15.566  68.000  1.00  0.00    -0.130 NA 
HETATM   12  C   UNL     1     -10.131  15.405  66.525  1.00  0.00    -0.271 C  
HETATM   13  C   UNL     1      -8.908  16.235  67.004  1.00  0.00    -0.205 C  
BRANCH  11  14
HETATM   14  C   UNL     1      -8.735  15.423  69.298  1.00  0.00    -0.252 C  
BRANCH  14  15
HETATM   15  C   UNL     1     -10.183  15.914  69.227  1.00  0.00    -0.250 C  
BRANCH  15  16
HETATM   16  C   UNL     1     -11.173  14.963  69.787  1.00  0.00    -0.280 A  
HETATM   17  N   UNL     1     -11.588  13.810  69.307  1.00  0.00    -0.291 NA 
HETATM   18  N   UNL     1     -12.527  13.293  70.177  1.00  0.00    -0.199 NA 
HETATM   19  C   UNL     1     -12.666  14.142  71.170  1.00  0.00    -0.361 A  
HETATM   20  C   UNL     1     -13.552  14.053  72.359  1.00  0.00    -0.658 C  
HETATM   21  C   UNL     1     -13.660  15.403  73.081  1.00  0.00    -0.468 C  
HETATM   22  C   UNL     1     -12.287  16.057  73.235  1.00  0.00    -0.644 C  
HETATM   23  C   UNL     1     -11.665  16.320  71.864  1.00  0.00    -0.438 C  
HETATM   24  N   UNL     1     -11.807  15.185  70.979  1.00  0.00    -0.305 NA 
ENDBRANCH  15  16
ENDBRANCH  14  15
ENDBRANCH  11  14
ENDBRANCH   7   8
TORSDOF 4
ENDMDL
MODEL       90
REMARK 921   NORMALIZED FREE ENERGY PREDICTED BY IDOCK:   -5.58 KCAL/MOL
REMARK 922        TOTAL FREE ENERGY PREDICTED BY IDOCK:   -7.14 KCAL/MOL
REMARK 923 INTER-LIGAND FREE ENERGY PREDICTED BY IDOCK:   -6.72 KCAL/MOL
REMARK 924 INTRA-LIGAND FREE ENERGY PREDICTED BY IDOCK:   -0.42 KCAL/MOL
REMARK 927      BINDING AFFINITY PREDICTED BY RF-SCORE:    0.00 PKD
ROOT
HETATM    1  C   UNL     1     -12.513  13.058  64.720  1.00  0.00    -0.485 C  
HETATM    2  C   UNL     1     -11.666  14.106  65.389  1.00  0.00    -0.347 A  
HETATM    3  C   UNL     1     -11.498  15.316  64.672  1.00  0.00    -0.356 A  
HETATM    4  C   UNL     1     -10.809  16.392  65.223  1.00  0.00    -0.271 A  
HETATM    5  C   UNL     1     -10.281  16.282  66.496  1.00  0.00    -0.307 A  
HETATM    6  C   UNL     1     -10.412  15.080  67.199  1.00  0.00    -0.277 A  
HETATM    7  C   UNL     1     -11.070  13.954  66.665  1.00  0.00    -0.306 A  
ENDROOT
BRANCH   7   8
HETATM    8  N   UNL     1     -11.021  12.767  67.383  1.00  0.00    -0.246 NA 
HETATM    9  C   UNL     1     -11.471  12.704  68.775  1.00  0.00    -0.306 C  
HETATM   10  C   UNL     1     -12.085  11.326  69.089  1.00  0.00    -0.279 C  
HETATM   11  N   UNL     1     -11.198  10.176  68.793  1.00  0.00    -0.201 NA 
HETATM   12  C   UNL     1     -10.222  11.619  66.904  1.00  0.00    -0.214 C  
HETATM   13  C   UNL     1     -10.847  10.269  67.354  1.00  0.00    -0.277 C  
BRANCH  11  14
HETATM   14  C   UNL     1      -9.973  10.150  69.628  1.00  0.00    -0.232 C  
BRANCH  14  15
HETATM   15  C   UNL     1     -10.177   9.367  70.927  1.00  0.00    -0.373 C  
BRANCH  15  16
HETATM   16  C   UNL     1     -10.045   7.897  70.775  1.00  0.00    -0.192 A  
HETATM   17  N   UNL     1      -9.734   7.192  69.708  1.00  0.00    -0.165 NA 
HETATM   18  N   UNL     1      -9.749   5.856  70.054  1.00  0.00    -0.162 NA 
HETATM   19  C   UNL     1     -10.068   5.773  71.326  1.00  0.00    -0.201 A  
HETATM   20  C   UNL     1     -10.220   4.563  72.174  1.00  0.00    -0.256 C  
HETATM   21  C   UNL     1     -10.936   4.889  73.492  1.00  0.00    -0.397 C  
HETATM   22  C   UNL     1     -10.376   6.164  74.124  1.00  0.00    -0.308 C  
HETATM   23  C   UNL     1     -10.578   7.355  73.187  1.00  0.00    -0.374 C  
HETATM   24  N   UNL     1     -10.227   7.035  71.821  1.00  0.00    -0.193 NA 
ENDBRANCH  15  16
ENDBRANCH  14  15
ENDBRANCH  11  14
ENDBRANCH   7   8
TORSDOF 4
ENDMDL
MODEL       91
REMARK 921   NORMALIZED FREE ENERGY PREDICTED BY IDOCK:   -5.54 KCAL/MOL
REMARK 922        TOTAL FREE ENERGY PREDICTED BY IDOCK:   -7.10 KCAL/MOL
REMARK 923 INTER-LIGAND FREE ENERGY PREDICTED BY IDOCK:   -6.96 KCAL/MOL
REMARK 924 INTRA-LIGAND FREE ENERGY PREDICTED BY IDOCK:   -0.13 KCAL/MOL
REMARK 927      BINDING AFFINITY PREDICTED BY RF-SCORE:    0.00 PKD
ROOT
HETATM    1  C   UNL     1     -10.503  15.813  70.374  1.00  0.00    -0.169 C  
HETATM    2  C   UNL     1     -11.569  15.067  71.131  1.00  0.00    -0.377 A  
HETATM    3  C   UNL     1     -11.907  15.594  72.401  1.00  0.00    -0.584 A  
HETATM    4  C   UNL     1     -12.937  15.044  73.160  1.00  0.00    -0.631 A  
HETATM    5  C   UNL     1     -13.648  13.968  72.663  1.00  0.00    -0.623 A  
HETATM    6  C   UNL     1     -13.300  13.420  71.424  1.00  0.00    -0.267 A  
HETATM    7  C   UNL     1     -12.241  13.921  70.640  1.00  0.00    -0.373 A  
ENDROOT
BRANCH   7   8
HETATM    8  N   UNL     1     -11.885  13.220  69.496  1.00  0.00    -0.316 NA 
HETATM    9  C   UNL     1     -11.296  11.883  69.579  1.00  0.00    -0.236 C  
HETATM   10  C   UNL     1     -11.721  11.022  68.374  1.00  0.00    -0.259 C  
HETATM   11  N   UNL     1     -11.422  11.624  67.053  1.00  0.00    -0.490 NA 
HETATM   12  C   UNL     1     -11.772  13.902  68.189  1.00  0.00    -0.353 C  
HETATM   13  C   UNL     1     -12.111  12.938  67.019  1.00  0.00    -0.230 C  
BRANCH  11  14
HETATM   14  C   UNL     1      -9.971  11.790  66.799  1.00  0.00    -0.201 C  
BRANCH  14  15
HETATM   15  C   UNL     1      -9.645  13.159  66.195  1.00  0.00    -0.209 C  
BRANCH  15  16
HETATM   16  C   UNL     1      -8.496  13.845  66.835  1.00  0.00    -0.069 A  
HETATM   17  N   UNL     1      -7.371  13.339  67.295  1.00  0.00    -0.101 NA 
HETATM   18  N   UNL     1      -6.614  14.370  67.813  1.00  0.00    -0.167 NA 
HETATM   19  C   UNL     1      -7.294  15.485  67.660  1.00  0.00    -0.174 A  
HETATM   20  C   UNL     1      -6.920  16.868  68.051  1.00  0.00    -0.159 C  
HETATM   21  C   UNL     1      -8.132  17.809  68.008  1.00  0.00    -0.243 C  
HETATM   22  C   UNL     1      -8.947  17.602  66.731  1.00  0.00    -0.272 C  
HETATM   23  C   UNL     1      -9.477  16.170  66.665  1.00  0.00    -0.247 C  
HETATM   24  N   UNL     1      -8.463  15.200  67.017  1.00  0.00    -0.215 NA 
ENDBRANCH  15  16
ENDBRANCH  14  15
ENDBRANCH  11  14
ENDBRANCH   7   8
TORSDOF 4
ENDMDL
MODEL       92
REMARK 921   NORMALIZED FREE ENERGY PREDICTED BY IDOCK:   -5.51 KCAL/MOL
REMARK 922        TOTAL FREE ENERGY PREDICTED BY IDOCK:   -7.06 KCAL/MOL
REMARK 923 INTER-LIGAND FREE ENERGY PREDICTED BY IDOCK:   -6.42 KCAL/MOL
REMARK 924 INTRA-LIGAND FREE ENERGY PREDICTED BY IDOCK:   -0.65 KCAL/MOL
REMARK 927      BINDING AFFINITY PREDICTED BY RF-SCORE:    0.00 PKD
ROOT
HETATM    1  C   UNL     1      -9.924  12.911  68.154  1.00  0.00    -0.234 C  
HETATM    2  C   UNL     1     -10.862  12.809  66.981  1.00  0.00    -0.282 A  
HETATM    3  C   UNL     1     -11.774  13.881  66.825  1.00  0.00    -0.423 A  
HETATM    4  C   UNL     1     -12.634  13.944  65.732  1.00  0.00    -0.533 A  
HETATM    5  C   UNL     1     -12.594  12.945  64.777  1.00  0.00    -0.493 A  
HETATM    6  C   UNL     1     -11.721  11.865  64.940  1.00  0.00    -0.262 A  
HETATM    7  C   UNL     1     -10.860  11.743  66.050  1.00  0.00    -0.296 A  
ENDROOT
BRANCH   7   8
HETATM    8  N   UNL     1     -10.137  10.566  66.189  1.00  0.00    -0.237 NA 
HETATM    9  C   UNL     1     -10.493   9.573  67.204  1.00  0.00    -0.253 C  
HETATM   10  C   UNL     1     -10.184   8.148  66.707  1.00  0.00    -0.302 C  
HETATM   11  N   UNL     1      -8.784   7.940  66.268  1.00  0.00    -0.147 NA 
HETATM   12  C   UNL     1      -8.804  10.413  65.567  1.00  0.00    -0.176 C  
HETATM   13  C   UNL     1      -8.524   8.931  65.193  1.00  0.00    -0.173 C  
BRANCH  11  14
HETATM   14  C   UNL     1      -7.796   8.091  67.364  1.00  0.00    -0.117 C  
BRANCH  14  15
HETATM   15  C   UNL     1      -8.106   7.171  68.549  1.00  0.00    -0.125 C  
BRANCH  15  16
HETATM   16  C   UNL     1      -8.579   7.883  69.761  1.00  0.00    -0.133 A  
HETATM   17  N   UNL     1      -8.037   8.900  70.396  1.00  0.00    -0.112 NA 
HETATM   18  N   UNL     1      -8.836   9.209  71.479  1.00  0.00    -0.337 NA 
HETATM   19  C   UNL     1      -9.850   8.373  71.481  1.00  0.00    -0.208 A  
HETATM   20  C   UNL     1     -10.986   8.284  72.434  1.00  0.00    -0.438 C  
HETATM   21  C   UNL     1     -11.748   6.962  72.277  1.00  0.00    -0.296 C  
HETATM   22  C   UNL     1     -11.999   6.642  70.803  1.00  0.00    -0.412 C  
HETATM   23  C   UNL     1     -10.673   6.497  70.056  1.00  0.00    -0.249 C  
HETATM   24  N   UNL     1      -9.742   7.550  70.398  1.00  0.00    -0.179 NA 
ENDBRANCH  15  16
ENDBRANCH  14  15
ENDBRANCH  11  14
ENDBRANCH   7   8
TORSDOF 4
ENDMDL
MODEL       93
REMARK 921   NORMALIZED FREE ENERGY PREDICTED BY IDOCK:   -5.49 KCAL/MOL
REMARK 922        TOTAL FREE ENERGY PREDICTED BY IDOCK:   -7.04 KCAL/MOL
REMARK 923 INTER-LIGAND FREE ENERGY PREDICTED BY IDOCK:   -6.38 KCAL/MOL
REMARK 924 INTRA-LIGAND FREE ENERGY PREDICTED BY IDOCK:   -0.66 KCAL/MOL
REMARK 927      BINDING AFFINITY PREDICTED BY RF-SCORE:    0.00 PKD
ROOT
HETATM    1  C   UNL     1     -10.622  19.652  66.559  1.00  0.00    -0.591 C  
HETATM    2  C   UNL     1      -9.317  19.365  67.250  1.00  0.00    -0.386 A  
HETATM    3  C   UNL     1      -8.341  20.389  67.176  1.00  0.00    -0.382 A  
HETATM    4  C   UNL     1      -7.126  20.278  67.847  1.00  0.00    -0.327 A  
HETATM    5  C   UNL     1      -6.868  19.151  68.604  1.00  0.00    -0.320 A  
HETATM    6  C   UNL     1      -7.811  18.119  68.655  1.00  0.00    -0.307 A  
HETATM    7  C   UNL     1      -9.037  18.174  67.962  1.00  0.00    -0.283 A  
ENDROOT
BRANCH   7   8
HETATM    8  N   UNL     1      -9.840  17.041  67.963  1.00  0.00    -0.266 NA 
HETATM    9  C   UNL     1     -10.583  16.639  69.159  1.00  0.00    -0.340 C  
HETATM   10  C   UNL     1     -11.914  15.965  68.774  1.00  0.00    -0.154 C  
HETATM   11  N   UNL     1     -11.775  14.811  67.855  1.00  0.00    -0.351 NA 
HETATM   12  C   UNL     1      -9.723  16.024  66.896  1.00  0.00    -0.235 C  
HETATM   13  C   UNL     1     -11.081  15.314  66.643  1.00  0.00    -0.276 C  
BRANCH  11  14
HETATM   14  C   UNL     1     -11.030  13.674  68.448  1.00  0.00    -0.262 C  
BRANCH  14  15
HETATM   15  C   UNL     1     -11.134  12.408  67.594  1.00  0.00    -0.306 C  
BRANCH  15  16
HETATM   16  C   UNL     1      -9.824  11.843  67.186  1.00  0.00    -0.194 A  
HETATM   17  N   UNL     1      -8.660  12.443  67.059  1.00  0.00    -0.193 NA 
HETATM   18  N   UNL     1      -7.735  11.507  66.642  1.00  0.00    -0.135 NA 
HETATM   19  C   UNL     1      -8.355  10.354  66.523  1.00  0.00    -0.130 A  
HETATM   20  C   UNL     1      -7.809   9.038  66.104  1.00  0.00    -0.102 C  
HETATM   21  C   UNL     1      -8.932   8.047  65.766  1.00  0.00    -0.148 C  
HETATM   22  C   UNL     1     -10.035   8.082  66.824  1.00  0.00    -0.344 C  
HETATM   23  C   UNL     1     -10.661   9.475  66.896  1.00  0.00    -0.171 C  
HETATM   24  N   UNL     1      -9.659  10.519  66.890  1.00  0.00    -0.172 NA 
ENDBRANCH  15  16
ENDBRANCH  14  15
ENDBRANCH  11  14
ENDBRANCH   7   8
TORSDOF 4
ENDMDL
MODEL       94
REMARK 921   NORMALIZED FREE ENERGY PREDICTED BY IDOCK:   -5.48 KCAL/MOL
REMARK 922        TOTAL FREE ENERGY PREDICTED BY IDOCK:   -7.02 KCAL/MOL
REMARK 923 INTER-LIGAND FREE ENERGY PREDICTED BY IDOCK:   -6.57 KCAL/MOL
REMARK 924 INTRA-LIGAND FREE ENERGY PREDICTED BY IDOCK:   -0.45 KCAL/MOL
REMARK 927      BINDING AFFINITY PREDICTED BY RF-SCORE:    0.00 PKD
ROOT
HETATM    1  C   UNL     1     -10.602   7.674  66.854  1.00  0.00    -0.359 C  
HETATM    2  C   UNL     1     -10.203   8.457  68.076  1.00  0.00    -0.263 A  
HETATM    3  C   UNL     1     -10.020   7.702  69.260  1.00  0.00    -0.180 A  
HETATM    4  C   UNL     1      -9.567   8.299  70.434  1.00  0.00    -0.174 A  
HETATM    5  C   UNL     1      -9.287   9.653  70.444  1.00  0.00    -0.268 A  
HETATM    6  C   UNL     1      -9.497  10.413  69.289  1.00  0.00    -0.214 A  
HETATM    7  C   UNL     1      -9.988   9.856  68.090  1.00  0.00    -0.151 A  
ENDROOT
BRANCH   7   8
HETATM    8  N   UNL     1     -10.296  10.719  67.047  1.00  0.00    -0.217 NA 
HETATM    9  C   UNL     1      -9.392  10.885  65.908  1.00  0.00    -0.200 C  
HETATM   10  C   UNL     1     -10.185  11.163  64.617  1.00  0.00    -0.317 C  
HETATM   11  N   UNL     1     -11.108  12.319  64.699  1.00  0.00    -0.302 NA 
HETATM   12  C   UNL     1     -11.357  11.739  67.191  1.00  0.00    -0.322 C  
HETATM   13  C   UNL     1     -12.035  12.043  65.826  1.00  0.00    -0.063 C  
BRANCH  11  14
HETATM   14  C   UNL     1     -10.412  13.613  64.903  1.00  0.00    -0.409 C  
BRANCH  14  15
HETATM   15  C   UNL     1     -11.369  14.716  65.364  1.00  0.00    -0.344 C  
BRANCH  15  16
HETATM   16  C   UNL     1     -10.714  16.026  65.599  1.00  0.00    -0.329 A  
HETATM   17  N   UNL     1     -10.760  17.124  64.876  1.00  0.00    -0.671 NA 
HETATM   18  N   UNL     1      -9.979  18.080  65.493  1.00  0.00    -0.301 NA 
HETATM   19  C   UNL     1      -9.472  17.545  66.581  1.00  0.00    -0.275 A  
HETATM   20  C   UNL     1      -8.567  18.155  67.588  1.00  0.00    -0.252 C  
HETATM   21  C   UNL     1      -7.944  17.090  68.500  1.00  0.00    -0.249 C  
HETATM   22  C   UNL     1      -8.994  16.083  68.970  1.00  0.00    -0.244 C  
HETATM   23  C   UNL     1      -9.609  15.357  67.773  1.00  0.00    -0.210 C  
HETATM   24  N   UNL     1      -9.940  16.269  66.700  1.00  0.00    -0.253 NA 
ENDBRANCH  15  16
ENDBRANCH  14  15
ENDBRANCH  11  14
ENDBRANCH   7   8
TORSDOF 4
ENDMDL
MODEL       95
REMARK 921   NORMALIZED FREE ENERGY PREDICTED BY IDOCK:   -5.48 KCAL/MOL
REMARK 922        TOTAL FREE ENERGY PREDICTED BY IDOCK:   -7.02 KCAL/MOL
REMARK 923 INTER-LIGAND FREE ENERGY PREDICTED BY IDOCK:   -6.80 KCAL/MOL
REMARK 924 INTRA-LIGAND FREE ENERGY PREDICTED BY IDOCK:   -0.22 KCAL/MOL
REMARK 927      BINDING AFFINITY PREDICTED BY RF-SCORE:    0.00 PKD
ROOT
HETATM    1  C   UNL     1      -9.348   8.632  66.062  1.00  0.00    -0.284 C  
HETATM    2  C   UNL     1      -9.269   9.580  64.896  1.00  0.00    -0.284 A  
HETATM    3  C   UNL     1      -8.624   9.082  63.738  1.00  0.00    -0.147 A  
HETATM    4  C   UNL     1      -8.564   9.833  62.566  1.00  0.00    -0.201 A  
HETATM    5  C   UNL     1      -9.149  11.085  62.529  1.00  0.00    -0.362 A  
HETATM    6  C   UNL     1      -9.759  11.599  63.678  1.00  0.00    -0.310 A  
HETATM    7  C   UNL     1      -9.810  10.889  64.895  1.00  0.00    -0.284 A  
ENDROOT
BRANCH   7   8
HETATM    8  N   UNL     1     -10.311  11.543  66.013  1.00  0.00    -0.238 NA 
HETATM    9  C   UNL     1      -9.733  11.327  67.340  1.00  0.00    -0.173 C  
HETATM   10  C   UNL     1      -9.820  12.610  68.189  1.00  0.00    -0.226 C  
HETATM   11  N   UNL     1     -11.186  13.170  68.319  1.00  0.00    -0.257 NA 
HETATM   12  C   UNL     1     -11.630  12.211  65.976  1.00  0.00    -0.358 C  
HETATM   13  C   UNL     1     -11.672  13.429  66.940  1.00  0.00    -0.389 C  
BRANCH  11  14
HETATM   14  C   UNL     1     -12.121  12.275  69.041  1.00  0.00    -0.145 C  
BRANCH  14  15
HETATM   15  C   UNL     1     -11.595  11.888  70.426  1.00  0.00    -0.060 C  
BRANCH  15  16
HETATM   16  C   UNL     1     -12.310  10.747  71.049  1.00  0.00    -0.404 A  
HETATM   17  N   UNL     1     -13.362  10.752  71.839  1.00  0.00    -0.403 NA 
HETATM   18  N   UNL     1     -13.657   9.446  72.174  1.00  0.00    -0.450 NA 
HETATM   19  C   UNL     1     -12.777   8.670  71.581  1.00  0.00    -0.341 A  
HETATM   20  C   UNL     1     -12.658   7.190  71.622  1.00  0.00    -0.410 C  
HETATM   21  C   UNL     1     -11.301   6.722  71.082  1.00  0.00    -0.342 C  
HETATM   22  C   UNL     1     -10.941   7.452  69.788  1.00  0.00    -0.215 C  
HETATM   23  C   UNL     1     -10.839   8.957  70.035  1.00  0.00    -0.227 C  
HETATM   24  N   UNL     1     -11.938   9.448  70.837  1.00  0.00    -0.291 NA 
ENDBRANCH  15  16
ENDBRANCH  14  15
ENDBRANCH  11  14
ENDBRANCH   7   8
TORSDOF 4
ENDMDL
MODEL       96
REMARK 921   NORMALIZED FREE ENERGY PREDICTED BY IDOCK:   -5.47 KCAL/MOL
REMARK 922        TOTAL FREE ENERGY PREDICTED BY IDOCK:   -7.01 KCAL/MOL
REMARK 923 INTER-LIGAND FREE ENERGY PREDICTED BY IDOCK:   -6.35 KCAL/MOL
REMARK 924 INTRA-LIGAND FREE ENERGY PREDICTED BY IDOCK:   -0.66 KCAL/MOL
REMARK 927      BINDING AFFINITY PREDICTED BY RF-SCORE:    0.00 PKD
ROOT
HETATM    1  C   UNL     1      -6.634  19.280  69.353  1.00  0.00    -0.348 C  
HETATM    2  C   UNL     1      -6.788  19.647  67.901  1.00  0.00    -0.279 A  
HETATM    3  C   UNL     1      -6.142  20.840  67.495  1.00  0.00    -0.319 A  
HETATM    4  C   UNL     1      -6.138  21.240  66.161  1.00  0.00    -0.285 A  
HETATM    5  C   UNL     1      -6.771  20.457  65.214  1.00  0.00    -0.309 A  
HETATM    6  C   UNL     1      -7.441  19.295  65.611  1.00  0.00    -0.131 A  
HETATM    7  C   UNL     1      -7.501  18.873  66.955  1.00  0.00    -0.216 A  
ENDROOT
BRANCH   7   8
HETATM    8  N   UNL     1      -8.308  17.786  67.263  1.00  0.00    -0.217 NA 
HETATM    9  C   UNL     1      -7.841  16.413  67.061  1.00  0.00    -0.212 C  
HETATM   10  C   UNL     1      -8.437  15.472  68.126  1.00  0.00    -0.147 C  
HETATM   11  N   UNL     1      -9.916  15.494  68.208  1.00  0.00    -0.212 NA 
HETATM   12  C   UNL     1      -9.761  17.955  67.484  1.00  0.00    -0.278 C  
HETATM   13  C   UNL     1     -10.305  16.900  68.486  1.00  0.00    -0.336 C  
BRANCH  11  14
HETATM   14  C   UNL     1     -10.580  15.004  66.977  1.00  0.00    -0.293 C  
BRANCH  14  15
HETATM   15  C   UNL     1     -10.101  13.604  66.582  1.00  0.00    -0.277 C  
BRANCH  15  16
HETATM   16  C   UNL     1     -10.680  12.512  67.401  1.00  0.00    -0.229 A  
HETATM   17  N   UNL     1     -11.941  12.172  67.568  1.00  0.00    -0.553 NA 
HETATM   18  N   UNL     1     -11.987  11.097  68.433  1.00  0.00    -0.599 NA 
HETATM   19  C   UNL     1     -10.753  10.804  68.776  1.00  0.00    -0.208 A  
HETATM   20  C   UNL     1     -10.265   9.735  69.685  1.00  0.00    -0.254 C  
HETATM   21  C   UNL     1      -8.799   9.960  70.079  1.00  0.00    -0.194 C  
HETATM   22  C   UNL     1      -7.952  10.334  68.863  1.00  0.00    -0.113 C  
HETATM   23  C   UNL     1      -8.462  11.632  68.237  1.00  0.00    -0.160 C  
HETATM   24  N   UNL     1      -9.904  11.647  68.121  1.00  0.00    -0.185 NA 
ENDBRANCH  15  16
ENDBRANCH  14  15
ENDBRANCH  11  14
ENDBRANCH   7   8
TORSDOF 4
ENDMDL
MODEL       97
REMARK 921   NORMALIZED FREE ENERGY PREDICTED BY IDOCK:   -5.47 KCAL/MOL
REMARK 922        TOTAL FREE ENERGY PREDICTED BY IDOCK:   -7.01 KCAL/MOL
REMARK 923 INTER-LIGAND FREE ENERGY PREDICTED BY IDOCK:   -6.57 KCAL/MOL
REMARK 924 INTRA-LIGAND FREE ENERGY PREDICTED BY IDOCK:   -0.44 KCAL/MOL
REMARK 927      BINDING AFFINITY PREDICTED BY RF-SCORE:    0.00 PKD
ROOT
HETATM    1  C   UNL     1     -11.151  13.494  64.492  1.00  0.00    -0.394 C  
HETATM    2  C   UNL     1     -10.801  14.574  65.480  1.00  0.00    -0.342 A  
HETATM    3  C   UNL     1     -10.748  15.890  64.962  1.00  0.00    -0.426 A  
HETATM    4  C   UNL     1     -10.520  16.984  65.793  1.00  0.00    -0.261 A  
HETATM    5  C   UNL     1     -10.347  16.784  67.150  1.00  0.00    -0.297 A  
HETATM    6  C   UNL     1     -10.365  15.484  67.666  1.00  0.00    -0.269 A  
HETATM    7  C   UNL     1     -10.556  14.346  66.856  1.00  0.00    -0.278 A  
ENDROOT
BRANCH   7   8
HETATM    8  N   UNL     1     -10.414  13.096  67.442  1.00  0.00    -0.241 NA 
HETATM    9  C   UNL     1     -11.579  12.257  67.730  1.00  0.00    -0.351 C  
HETATM   10  C   UNL     1     -11.226  10.764  67.585  1.00  0.00    -0.299 C  
HETATM   11  N   UNL     1     -10.072  10.322  68.403  1.00  0.00    -0.154 NA 
HETATM   12  C   UNL     1      -9.148  12.701  68.097  1.00  0.00    -0.204 C  
HETATM   13  C   UNL     1      -8.919  11.167  68.002  1.00  0.00    -0.149 C  
BRANCH  11  14
HETATM   14  C   UNL     1     -10.313  10.427  69.862  1.00  0.00    -0.182 C  
BRANCH  14  15
HETATM   15  C   UNL     1     -11.556   9.648  70.299  1.00  0.00    -0.255 C  
BRANCH  15  16
HETATM   16  C   UNL     1     -11.279   8.560  71.269  1.00  0.00    -0.265 A  
HETATM   17  N   UNL     1     -11.432   8.549  72.576  1.00  0.00    -0.352 NA 
HETATM   18  N   UNL     1     -11.029   7.315  73.047  1.00  0.00    -0.337 NA 
HETATM   19  C   UNL     1     -10.638   6.599  72.016  1.00  0.00    -0.211 A  
HETATM   20  C   UNL     1     -10.115   5.210  71.988  1.00  0.00    -0.253 C  
HETATM   21  C   UNL     1      -9.456   4.886  70.640  1.00  0.00    -0.237 C  
HETATM   22  C   UNL     1     -10.319   5.370  69.474  1.00  0.00    -0.350 C  
HETATM   23  C   UNL     1     -10.502   6.886  69.541  1.00  0.00    -0.223 C  
HETATM   24  N   UNL     1     -10.814   7.335  70.880  1.00  0.00    -0.239 NA 
ENDBRANCH  15  16
ENDBRANCH  14  15
ENDBRANCH  11  14
ENDBRANCH   7   8
TORSDOF 4
ENDMDL
MODEL       98
REMARK 921   NORMALIZED FREE ENERGY PREDICTED BY IDOCK:   -5.46 KCAL/MOL
REMARK 922        TOTAL FREE ENERGY PREDICTED BY IDOCK:   -7.00 KCAL/MOL
REMARK 923 INTER-LIGAND FREE ENERGY PREDICTED BY IDOCK:   -6.60 KCAL/MOL
REMARK 924 INTRA-LIGAND FREE ENERGY PREDICTED BY IDOCK:   -0.40 KCAL/MOL
REMARK 927      BINDING AFFINITY PREDICTED BY RF-SCORE:    0.00 PKD
ROOT
HETATM    1  C   UNL     1     -12.515   7.329  71.382  1.00  0.00    -0.418 C  
HETATM    2  C   UNL     1     -11.201   7.512  72.093  1.00  0.00    -0.313 A  
HETATM    3  C   UNL     1     -11.129   6.982  73.404  1.00  0.00    -0.140 A  
HETATM    4  C   UNL     1      -9.942   7.012  74.131  1.00  0.00    -0.305 A  
HETATM    5  C   UNL     1      -8.810   7.566  73.562  1.00  0.00    -0.258 A  
HETATM    6  C   UNL     1      -8.880   8.122  72.282  1.00  0.00    -0.248 A  
HETATM    7  C   UNL     1     -10.070   8.146  71.525  1.00  0.00    -0.188 A  
ENDROOT
BRANCH   7   8
HETATM    8  N   UNL     1     -10.068   8.847  70.327  1.00  0.00    -0.181 NA 
HETATM    9  C   UNL     1      -9.143   8.501  69.246  1.00  0.00    -0.153 C  
HETATM   10  C   UNL     1      -9.786   8.763  67.871  1.00  0.00    -0.169 C  
HETATM   11  N   UNL     1     -10.289  10.145  67.681  1.00  0.00    -0.203 NA 
HETATM   12  C   UNL     1     -10.747  10.156  70.210  1.00  0.00    -0.293 C  
HETATM   13  C   UNL     1     -11.271  10.392  68.767  1.00  0.00    -0.241 C  
BRANCH  11  14
HETATM   14  C   UNL     1      -9.217  11.168  67.705  1.00  0.00    -0.153 C  
BRANCH  14  15
HETATM   15  C   UNL     1      -8.587  11.375  66.325  1.00  0.00    -0.156 C  
BRANCH  15  16
HETATM   16  C   UNL     1      -9.569  11.453  65.217  1.00  0.00    -0.228 A  
HETATM   17  N   UNL     1      -9.755  10.630  64.206  1.00  0.00    -0.286 NA 
HETATM   18  N   UNL     1     -10.778  11.129  63.426  1.00  0.00    -0.309 NA 
HETATM   19  C   UNL     1     -11.196  12.246  63.977  1.00  0.00    -0.392 A  
HETATM   20  C   UNL     1     -12.274  13.165  63.526  1.00  0.00    -0.552 C  
HETATM   21  C   UNL     1     -12.201  14.514  64.253  1.00  0.00    -0.441 C  
HETATM   22  C   UNL     1     -11.979  14.321  65.754  1.00  0.00    -0.399 C  
HETATM   23  C   UNL     1     -10.660  13.593  66.008  1.00  0.00    -0.290 C  
HETATM   24  N   UNL     1     -10.485  12.464  65.121  1.00  0.00    -0.284 NA 
ENDBRANCH  15  16
ENDBRANCH  14  15
ENDBRANCH  11  14
ENDBRANCH   7   8
TORSDOF 4
ENDMDL
MODEL       99
REMARK 921   NORMALIZED FREE ENERGY PREDICTED BY IDOCK:   -5.45 KCAL/MOL
REMARK 922        TOTAL FREE ENERGY PREDICTED BY IDOCK:   -6.99 KCAL/MOL
REMARK 923 INTER-LIGAND FREE ENERGY PREDICTED BY IDOCK:   -6.52 KCAL/MOL
REMARK 924 INTRA-LIGAND FREE ENERGY PREDICTED BY IDOCK:   -0.47 KCAL/MOL
REMARK 927      BINDING AFFINITY PREDICTED BY RF-SCORE:    0.00 PKD
ROOT
HETATM    1  C   UNL     1     -11.184  14.335  69.050  1.00  0.00    -0.294 C  
HETATM    2  C   UNL     1     -11.930  13.680  70.181  1.00  0.00    -0.407 A  
HETATM    3  C   UNL     1     -12.507  14.558  71.130  1.00  0.00    -0.411 A  
HETATM    4  C   UNL     1     -13.294  14.078  72.174  1.00  0.00    -0.545 A  
HETATM    5  C   UNL     1     -13.522  12.719  72.283  1.00  0.00    -0.591 A  
HETATM    6  C   UNL     1     -12.929  11.841  71.370  1.00  0.00    -0.408 A  
HETATM    7  C   UNL     1     -12.096  12.281  70.321  1.00  0.00    -0.295 A  
ENDROOT
BRANCH   7   8
HETATM    8  N   UNL     1     -11.444  11.322  69.558  1.00  0.00    -0.279 NA 
HETATM    9  C   UNL     1     -11.881  11.011  68.196  1.00  0.00    -0.118 C  
HETATM   10  C   UNL     1     -10.680  10.621  67.313  1.00  0.00    -0.285 C  
HETATM   11  N   UNL     1      -9.861   9.507  67.846  1.00  0.00    -0.150 NA 
HETATM   12  C   UNL     1     -10.516  10.354  70.183  1.00  0.00    -0.128 C  
HETATM   13  C   UNL     1      -9.397   9.927  69.193  1.00  0.00    -0.193 C  
BRANCH  11  14
HETATM   14  C   UNL     1     -10.597   8.222  67.927  1.00  0.00    -0.147 C  
BRANCH  14  15
HETATM   15  C   UNL     1      -9.894   7.211  68.836  1.00  0.00    -0.156 C  
BRANCH  15  16
HETATM   16  C   UNL     1     -10.626   6.914  70.092  1.00  0.00    -0.220 A  
HETATM   17  N   UNL     1     -11.891   6.594  70.265  1.00  0.00    -0.376 NA 
HETATM   18  N   UNL     1     -12.112   6.424  71.617  1.00  0.00    -0.315 NA 
HETATM   19  C   UNL     1     -10.977   6.644  72.241  1.00  0.00    -0.246 A  
HETATM   20  C   UNL     1     -10.685   6.591  73.696  1.00  0.00    -0.245 C  
HETATM   21  C   UNL     1      -9.337   7.250  74.022  1.00  0.00    -0.301 C  
HETATM   22  C   UNL     1      -8.254   6.806  73.039  1.00  0.00    -0.115 C  
HETATM   23  C   UNL     1      -8.629   7.213  71.614  1.00  0.00    -0.114 C  
HETATM   24  N   UNL     1     -10.014   6.920  71.314  1.00  0.00    -0.180 NA 
ENDBRANCH  15  16
ENDBRANCH  14  15
ENDBRANCH  11  14
ENDBRANCH   7   8
TORSDOF 4
ENDMDL
MODEL      100
REMARK 921   NORMALIZED FREE ENERGY PREDICTED BY IDOCK:   -5.44 KCAL/MOL
REMARK 922        TOTAL FREE ENERGY PREDICTED BY IDOCK:   -6.97 KCAL/MOL
REMARK 923 INTER-LIGAND FREE ENERGY PREDICTED BY IDOCK:   -6.48 KCAL/MOL
REMARK 924 INTRA-LIGAND FREE ENERGY PREDICTED BY IDOCK:   -0.48 KCAL/MOL
REMARK 927      BINDING AFFINITY PREDICTED BY RF-SCORE:    0.00 PKD
ROOT
HETATM    1  C   UNL     1     -12.519  14.330  66.650  1.00  0.00    -0.192 C  
HETATM    2  C   UNL     1     -11.927  13.387  65.637  1.00  0.00    -0.439 A  
HETATM    3  C   UNL     1     -12.834  12.845  64.694  1.00  0.00    -0.323 A  
HETATM    4  C   UNL     1     -12.394  12.029  63.656  1.00  0.00    -0.648 A  
HETATM    5  C   UNL     1     -11.046  11.745  63.539  1.00  0.00    -0.503 A  
HETATM    6  C   UNL     1     -10.147  12.247  64.485  1.00  0.00    -0.280 A  
HETATM    7  C   UNL     1     -10.554  13.047  65.572  1.00  0.00    -0.282 A  
ENDROOT
BRANCH   7   8
HETATM    8  N   UNL     1      -9.607  13.377  66.532  1.00  0.00    -0.272 NA 
HETATM    9  C   UNL     1      -9.542  12.664  67.809  1.00  0.00    -0.197 C  
HETATM   10  C   UNL     1      -8.088  12.577  68.312  1.00  0.00    -0.165 C  
HETATM   11  N   UNL     1      -7.398  13.883  68.428  1.00  0.00    -0.106 NA 
HETATM   12  C   UNL     1      -8.858  14.650  66.456  1.00  0.00    -0.155 C  
HETATM   13  C   UNL     1      -7.443  14.508  67.082  1.00  0.00     0.032 C  
BRANCH  11  14
HETATM   14  C   UNL     1      -8.007  14.781  69.439  1.00  0.00    -0.065 C  
BRANCH  14  15
HETATM   15  C   UNL     1      -7.361  16.169  69.441  1.00  0.00    -0.196 C  
BRANCH  15  16
HETATM   16  C   UNL     1      -8.234  17.244  68.911  1.00  0.00    -0.181 A  
HETATM   17  N   UNL     1      -9.540  17.253  68.744  1.00  0.00    -0.277 NA 
HETATM   18  N   UNL     1      -9.898  18.473  68.208  1.00  0.00    -0.343 NA 
HETATM   19  C   UNL     1      -8.803  19.184  68.059  1.00  0.00    -0.313 A  
HETATM   20  C   UNL     1      -8.648  20.561  67.523  1.00  0.00    -0.320 C  
HETATM   21  C   UNL     1      -7.181  20.876  67.201  1.00  0.00    -0.395 C  
HETATM   22  C   UNL     1      -6.258  20.420  68.331  1.00  0.00    -0.343 C  
HETATM   23  C   UNL     1      -6.368  18.908  68.532  1.00  0.00    -0.228 C  
HETATM   24  N   UNL     1      -7.744  18.460  68.523  1.00  0.00    -0.296 NA 
ENDBRANCH  15  16
ENDBRANCH  14  15
ENDBRANCH  11  14
ENDBRANCH   7   8
TORSDOF 4
ENDMDL
MODEL      101
REMARK 921   NORMALIZED FREE ENERGY PREDICTED BY IDOCK:   -5.43 KCAL/MOL
REMARK 922        TOTAL FREE ENERGY PREDICTED BY IDOCK:   -6.96 KCAL/MOL
REMARK 923 INTER-LIGAND FREE ENERGY PREDICTED BY IDOCK:   -6.46 KCAL/MOL
REMARK 924 INTRA-LIGAND FREE ENERGY PREDICTED BY IDOCK:   -0.51 KCAL/MOL
REMARK 927      BINDING AFFINITY PREDICTED BY RF-SCORE:    0.00 PKD
ROOT
HETATM    1  C   UNL     1     -12.615  12.745  64.865  1.00  0.00    -0.541 C  
HETATM    2  C   UNL     1     -11.651  13.802  65.332  1.00  0.00    -0.330 A  
HETATM    3  C   UNL     1     -11.597  14.979  64.546  1.00  0.00    -0.346 A  
HETATM    4  C   UNL     1     -10.809  16.063  64.922  1.00  0.00    -0.391 A  
HETATM    5  C   UNL     1     -10.068  15.993  66.087  1.00  0.00    -0.346 A  
HETATM    6  C   UNL     1     -10.088  14.823  66.852  1.00  0.00    -0.246 A  
HETATM    7  C   UNL     1     -10.843  13.689  66.489  1.00  0.00    -0.283 A  
ENDROOT
BRANCH   7   8
HETATM    8  N   UNL     1     -10.685  12.531  67.238  1.00  0.00    -0.230 NA 
HETATM    9  C   UNL     1      -9.615  11.577  66.942  1.00  0.00    -0.187 C  
HETATM   10  C   UNL     1      -9.115  10.898  68.231  1.00  0.00    -0.158 C  
HETATM   11  N   UNL     1     -10.175  10.236  69.028  1.00  0.00    -0.197 NA 
HETATM   12  C   UNL     1     -11.761  12.047  68.130  1.00  0.00    -0.333 C  
HETATM   13  C   UNL     1     -11.180  11.280  69.349  1.00  0.00    -0.280 C  
BRANCH  11  14
HETATM   14  C   UNL     1     -10.813   9.097  68.324  1.00  0.00    -0.051 C  
BRANCH  14  15
HETATM   15  C   UNL     1     -10.260   7.748  68.791  1.00  0.00    -0.212 C  
BRANCH  15  16
HETATM   16  C   UNL     1     -10.821   7.277  70.081  1.00  0.00    -0.256 A  
HETATM   17  N   UNL     1     -11.992   6.731  70.333  1.00  0.00    -0.348 NA 
HETATM   18  N   UNL     1     -12.065   6.472  71.686  1.00  0.00    -0.346 NA 
HETATM   19  C   UNL     1     -10.937   6.866  72.233  1.00  0.00    -0.242 A  
HETATM   20  C   UNL     1     -10.518   6.808  73.657  1.00  0.00    -0.374 C  
HETATM   21  C   UNL     1      -9.283   7.682  73.914  1.00  0.00    -0.303 C  
HETATM   22  C   UNL     1      -8.226   7.475  72.829  1.00  0.00    -0.145 C  
HETATM   23  C   UNL     1      -8.785   7.865  71.461  1.00  0.00    -0.125 C  
HETATM   24  N   UNL     1     -10.118   7.343  71.252  1.00  0.00    -0.189 NA 
ENDBRANCH  15  16
ENDBRANCH  14  15
ENDBRANCH  11  14
ENDBRANCH   7   8
TORSDOF 4
ENDMDL
MODEL      102
REMARK 921   NORMALIZED FREE ENERGY PREDICTED BY IDOCK:   -5.43 KCAL/MOL
REMARK 922        TOTAL FREE ENERGY PREDICTED BY IDOCK:   -6.96 KCAL/MOL
REMARK 923 INTER-LIGAND FREE ENERGY PREDICTED BY IDOCK:   -6.53 KCAL/MOL
REMARK 924 INTRA-LIGAND FREE ENERGY PREDICTED BY IDOCK:   -0.42 KCAL/MOL
REMARK 927      BINDING AFFINITY PREDICTED BY RF-SCORE:    0.00 PKD
ROOT
HETATM    1  C   UNL     1     -10.797  16.742  64.958  1.00  0.00    -0.131 C  
HETATM    2  C   UNL     1     -10.499  17.535  66.201  1.00  0.00    -0.288 A  
HETATM    3  C   UNL     1     -10.371  18.934  66.025  1.00  0.00    -0.485 A  
HETATM    4  C   UNL     1     -10.182  19.785  67.111  1.00  0.00    -0.574 A  
HETATM    5  C   UNL     1     -10.122  19.256  68.386  1.00  0.00    -0.518 A  
HETATM    6  C   UNL     1     -10.213  17.872  68.568  1.00  0.00    -0.393 A  
HETATM    7  C   UNL     1     -10.369  16.972  67.494  1.00  0.00    -0.329 A  
ENDROOT
BRANCH   7   8
HETATM    8  N   UNL     1     -10.306  15.612  67.766  1.00  0.00    -0.260 NA 
HETATM    9  C   UNL     1      -9.144  14.813  67.374  1.00  0.00    -0.195 C  
HETATM   10  C   UNL     1      -8.892  13.681  68.388  1.00  0.00    -0.152 C  
HETATM   11  N   UNL     1     -10.057  12.795  68.624  1.00  0.00    -0.175 NA 
HETATM   12  C   UNL     1     -11.518  14.856  68.151  1.00  0.00    -0.330 C  
HETATM   13  C   UNL     1     -11.166  13.667  69.087  1.00  0.00    -0.261 C  
BRANCH  11  14
HETATM   14  C   UNL     1     -10.464  12.028  67.422  1.00  0.00    -0.216 C  
BRANCH  14  15
HETATM   15  C   UNL     1     -11.273  10.780  67.781  1.00  0.00    -0.385 C  
BRANCH  15  16
HETATM   16  C   UNL     1     -10.572   9.502  67.504  1.00  0.00    -0.275 A  
HETATM   17  N   UNL     1      -9.983   9.096  66.399  1.00  0.00    -0.281 NA 
HETATM   18  N   UNL     1      -9.480   7.830  66.618  1.00  0.00    -0.193 NA 
HETATM   19  C   UNL     1      -9.773   7.489  67.854  1.00  0.00    -0.146 A  
HETATM   20  C   UNL     1      -9.458   6.229  68.575  1.00  0.00    -0.123 C  
HETATM   21  C   UNL     1     -10.276   6.104  69.867  1.00  0.00    -0.246 C  
HETATM   22  C   UNL     1     -10.278   7.418  70.649  1.00  0.00    -0.202 C  
HETATM   23  C   UNL     1     -10.908   8.533  69.815  1.00  0.00    -0.175 C  
HETATM   24  N   UNL     1     -10.426   8.527  68.451  1.00  0.00    -0.200 NA 
ENDBRANCH  15  16
ENDBRANCH  14  15
ENDBRANCH  11  14
ENDBRANCH   7   8
TORSDOF 4
ENDMDL
MODEL      103
REMARK 921   NORMALIZED FREE ENERGY PREDICTED BY IDOCK:   -5.38 KCAL/MOL
REMARK 922        TOTAL FREE ENERGY PREDICTED BY IDOCK:   -6.90 KCAL/MOL
REMARK 923 INTER-LIGAND FREE ENERGY PREDICTED BY IDOCK:   -6.79 KCAL/MOL
REMARK 924 INTRA-LIGAND FREE ENERGY PREDICTED BY IDOCK:   -0.11 KCAL/MOL
REMARK 927      BINDING AFFINITY PREDICTED BY RF-SCORE:    0.00 PKD
ROOT
HETATM    1  C   UNL     1     -12.007  11.450  70.233  1.00  0.00    -0.460 C  
HETATM    2  C   UNL     1     -11.990  10.028  70.725  1.00  0.00    -0.426 A  
HETATM    3  C   UNL     1     -12.783   9.761  71.867  1.00  0.00    -0.501 A  
HETATM    4  C   UNL     1     -12.917   8.468  72.366  1.00  0.00    -0.354 A  
HETATM    5  C   UNL     1     -12.269   7.424  71.733  1.00  0.00    -0.359 A  
HETATM    6  C   UNL     1     -11.456   7.683  70.625  1.00  0.00    -0.276 A  
HETATM    7  C   UNL     1     -11.263   8.981  70.109  1.00  0.00    -0.171 A  
ENDROOT
BRANCH   7   8
HETATM    8  N   UNL     1     -10.327   9.149  69.098  1.00  0.00    -0.208 NA 
HETATM    9  C   UNL     1      -8.962   9.587  69.393  1.00  0.00    -0.172 C  
HETATM   10  C   UNL     1      -7.961   8.960  68.404  1.00  0.00    -0.105 C  
HETATM   11  N   UNL     1      -8.271   9.206  66.976  1.00  0.00    -0.115 NA 
HETATM   12  C   UNL     1     -10.743   9.222  67.681  1.00  0.00    -0.209 C  
HETATM   13  C   UNL     1      -9.636   8.671  66.740  1.00  0.00    -0.207 C  
BRANCH  11  14
HETATM   14  C   UNL     1      -8.201  10.638  66.598  1.00  0.00    -0.134 C  
BRANCH  14  15
HETATM   15  C   UNL     1      -8.333  10.842  65.087  1.00  0.00     0.001 C  
BRANCH  15  16
HETATM   16  C   UNL     1      -9.676  11.300  64.653  1.00  0.00    -0.253 A  
HETATM   17  N   UNL     1     -10.381  10.941  63.601  1.00  0.00    -0.345 NA 
HETATM   18  N   UNL     1     -11.566  11.649  63.613  1.00  0.00    -0.404 NA 
HETATM   19  C   UNL     1     -11.559  12.426  64.673  1.00  0.00    -0.343 A  
HETATM   20  C   UNL     1     -12.596  13.383  65.138  1.00  0.00    -0.495 C  
HETATM   21  C   UNL     1     -12.045  14.330  66.212  1.00  0.00    -0.433 C  
HETATM   22  C   UNL     1     -11.231  13.565  67.256  1.00  0.00    -0.319 C  
HETATM   23  C   UNL     1     -10.036  12.875  66.598  1.00  0.00    -0.245 C  
HETATM   24  N   UNL     1     -10.406  12.208  65.369  1.00  0.00    -0.261 NA 
ENDBRANCH  15  16
ENDBRANCH  14  15
ENDBRANCH  11  14
ENDBRANCH   7   8
TORSDOF 4
ENDMDL
MODEL      104
REMARK 921   NORMALIZED FREE ENERGY PREDICTED BY IDOCK:   -5.37 KCAL/MOL
REMARK 922        TOTAL FREE ENERGY PREDICTED BY IDOCK:   -6.88 KCAL/MOL
REMARK 923 INTER-LIGAND FREE ENERGY PREDICTED BY IDOCK:   -6.39 KCAL/MOL
REMARK 924 INTRA-LIGAND FREE ENERGY PREDICTED BY IDOCK:   -0.50 KCAL/MOL
REMARK 927      BINDING AFFINITY PREDICTED BY RF-SCORE:    0.00 PKD
ROOT
HETATM    1  C   UNL     1     -10.321   4.809  70.330  1.00  0.00    -0.183 C  
HETATM    2  C   UNL     1     -10.339   5.206  71.782  1.00  0.00    -0.274 A  
HETATM    3  C   UNL     1     -10.383   4.140  72.713  1.00  0.00    -0.243 A  
HETATM    4  C   UNL     1     -10.316   4.375  74.084  1.00  0.00    -0.289 A  
HETATM    5  C   UNL     1     -10.199   5.672  74.546  1.00  0.00    -0.288 A  
HETATM    6  C   UNL     1     -10.189   6.734  73.637  1.00  0.00    -0.354 A  
HETATM    7  C   UNL     1     -10.291   6.544  72.243  1.00  0.00    -0.191 A  
ENDROOT
BRANCH   7   8
HETATM    8  N   UNL     1     -10.414   7.668  71.437  1.00  0.00    -0.208 NA 
HETATM    9  C   UNL     1     -11.717   8.288  71.195  1.00  0.00    -0.280 C  
HETATM   10  C   UNL     1     -11.574   9.813  71.027  1.00  0.00    -0.376 C  
HETATM   11  N   UNL     1     -10.615  10.229  69.977  1.00  0.00    -0.280 NA 
HETATM   12  C   UNL     1      -9.317   8.082  70.536  1.00  0.00    -0.155 C  
HETATM   13  C   UNL     1      -9.307   9.622  70.331  1.00  0.00    -0.211 C  
BRANCH  11  14
HETATM   14  C   UNL     1     -11.026   9.819  68.612  1.00  0.00    -0.147 C  
BRANCH  14  15
HETATM   15  C   UNL     1     -10.293  10.613  67.527  1.00  0.00    -0.254 C  
BRANCH  15  16
HETATM   16  C   UNL     1     -10.935  11.907  67.186  1.00  0.00    -0.269 A  
HETATM   17  N   UNL     1     -12.016  12.140  66.472  1.00  0.00    -0.631 NA 
HETATM   18  N   UNL     1     -12.213  13.505  66.422  1.00  0.00    -0.415 NA 
HETATM   19  C   UNL     1     -11.248  14.077  67.106  1.00  0.00    -0.313 A  
HETATM   20  C   UNL     1     -11.006  15.522  67.353  1.00  0.00    -0.306 C  
HETATM   21  C   UNL     1      -9.593  15.769  67.898  1.00  0.00    -0.214 C  
HETATM   22  C   UNL     1      -9.242  14.766  68.998  1.00  0.00    -0.145 C  
HETATM   23  C   UNL     1      -9.278  13.340  68.450  1.00  0.00    -0.145 C  
HETATM   24  N   UNL     1     -10.447  13.104  67.631  1.00  0.00    -0.220 NA 
ENDBRANCH  15  16
ENDBRANCH  14  15
ENDBRANCH  11  14
ENDBRANCH   7   8
TORSDOF 4
ENDMDL
MODEL      105
REMARK 921   NORMALIZED FREE ENERGY PREDICTED BY IDOCK:   -5.36 KCAL/MOL
REMARK 922        TOTAL FREE ENERGY PREDICTED BY IDOCK:   -6.87 KCAL/MOL
REMARK 923 INTER-LIGAND FREE ENERGY PREDICTED BY IDOCK:   -6.45 KCAL/MOL
REMARK 924 INTRA-LIGAND FREE ENERGY PREDICTED BY IDOCK:   -0.42 KCAL/MOL
REMARK 927      BINDING AFFINITY PREDICTED BY RF-SCORE:    0.00 PKD
ROOT
HETATM    1  C   UNL     1     -10.017  19.805  68.754  1.00  0.00    -0.510 C  
HETATM    2  C   UNL     1      -8.744  19.640  67.967  1.00  0.00    -0.366 A  
HETATM    3  C   UNL     1      -8.068  20.837  67.629  1.00  0.00    -0.138 A  
HETATM    4  C   UNL     1      -6.837  20.812  66.978  1.00  0.00    -0.385 A  
HETATM    5  C   UNL     1      -6.261  19.597  66.659  1.00  0.00    -0.172 A  
HETATM    6  C   UNL     1      -6.937  18.410  66.959  1.00  0.00    -0.209 A  
HETATM    7  C   UNL     1      -8.201  18.390  67.584  1.00  0.00    -0.254 A  
ENDROOT
BRANCH   7   8
HETATM    8  N   UNL     1      -8.850  17.169  67.708  1.00  0.00    -0.222 NA 
HETATM    9  C   UNL     1      -9.877  16.755  66.750  1.00  0.00    -0.276 C  
HETATM   10  C   UNL     1      -9.860  15.227  66.557  1.00  0.00    -0.266 C  
HETATM   11  N   UNL     1      -9.995  14.447  67.811  1.00  0.00    -0.224 NA 
HETATM   12  C   UNL     1      -8.782  16.395  68.967  1.00  0.00    -0.233 C  
HETATM   13  C   UNL     1      -8.881  14.869  68.696  1.00  0.00    -0.179 C  
BRANCH  11  14
HETATM   14  C   UNL     1     -11.300  14.644  68.486  1.00  0.00    -0.284 C  
BRANCH  14  15
HETATM   15  C   UNL     1     -12.122  13.353  68.541  1.00  0.00    -0.283 C  
BRANCH  15  16
HETATM   16  C   UNL     1     -11.372  12.140  68.133  1.00  0.00    -0.293 A  
HETATM   17  N   UNL     1     -10.731  11.265  68.878  1.00  0.00    -0.199 NA 
HETATM   18  N   UNL     1     -10.177  10.314  68.046  1.00  0.00    -0.161 NA 
HETATM   19  C   UNL     1     -10.491  10.628  66.809  1.00  0.00    -0.247 A  
HETATM   20  C   UNL     1     -10.137   9.929  65.548  1.00  0.00    -0.297 C  
HETATM   21  C   UNL     1     -10.406  10.812  64.322  1.00  0.00    -0.401 C  
HETATM   22  C   UNL     1     -11.768  11.498  64.424  1.00  0.00    -0.131 C  
HETATM   23  C   UNL     1     -11.819  12.400  65.658  1.00  0.00    -0.409 C  
HETATM   24  N   UNL     1     -11.271  11.748  66.827  1.00  0.00    -0.316 NA 
ENDBRANCH  15  16
ENDBRANCH  14  15
ENDBRANCH  11  14
ENDBRANCH   7   8
TORSDOF 4
ENDMDL
MODEL      106
REMARK 921   NORMALIZED FREE ENERGY PREDICTED BY IDOCK:   -5.34 KCAL/MOL
REMARK 922        TOTAL FREE ENERGY PREDICTED BY IDOCK:   -6.85 KCAL/MOL
REMARK 923 INTER-LIGAND FREE ENERGY PREDICTED BY IDOCK:   -6.60 KCAL/MOL
REMARK 924 INTRA-LIGAND FREE ENERGY PREDICTED BY IDOCK:   -0.25 KCAL/MOL
REMARK 927      BINDING AFFINITY PREDICTED BY RF-SCORE:    0.00 PKD
ROOT
HETATM    1  C   UNL     1      -8.551  10.755  68.782  1.00  0.00    -0.156 C  
HETATM    2  C   UNL     1      -9.896  10.553  69.424  1.00  0.00    -0.205 A  
HETATM    3  C   UNL     1      -9.982   9.489  70.355  1.00  0.00    -0.325 A  
HETATM    4  C   UNL     1     -11.149   9.255  71.079  1.00  0.00    -0.396 A  
HETATM    5  C   UNL     1     -12.243  10.079  70.890  1.00  0.00    -0.441 A  
HETATM    6  C   UNL     1     -12.179  11.111  69.949  1.00  0.00    -0.385 A  
HETATM    7  C   UNL     1     -11.031  11.360  69.168  1.00  0.00    -0.236 A  
ENDROOT
BRANCH   7   8
HETATM    8  N   UNL     1     -11.118  12.315  68.165  1.00  0.00    -0.224 NA 
HETATM    9  C   UNL     1     -10.844  11.974  66.768  1.00  0.00    -0.266 C  
HETATM   10  C   UNL     1     -11.720  12.814  65.818  1.00  0.00    -0.402 C  
HETATM   11  N   UNL     1     -11.605  14.279  66.011  1.00  0.00    -0.351 NA 
HETATM   12  C   UNL     1     -11.157  13.758  68.488  1.00  0.00    -0.267 C  
HETATM   13  C   UNL     1     -11.967  14.551  67.425  1.00  0.00    -0.335 C  
BRANCH  11  14
HETATM   14  C   UNL     1     -10.252  14.806  65.709  1.00  0.00    -0.338 C  
BRANCH  14  15
HETATM   15  C   UNL     1     -10.017  16.182  66.337  1.00  0.00    -0.315 C  
BRANCH  15  16
HETATM   16  C   UNL     1      -8.595  16.606  66.350  1.00  0.00    -0.310 A  
HETATM   17  N   UNL     1      -8.013  17.597  65.708  1.00  0.00    -0.541 NA 
HETATM   18  N   UNL     1      -6.671  17.589  66.028  1.00  0.00    -0.248 NA 
HETATM   19  C   UNL     1      -6.461  16.593  66.860  1.00  0.00    -0.188 A  
HETATM   20  C   UNL     1      -5.191  16.158  67.496  1.00  0.00    -0.136 C  
HETATM   21  C   UNL     1      -5.323  14.759  68.112  1.00  0.00    -0.122 C  
HETATM   22  C   UNL     1      -6.625  14.625  68.903  1.00  0.00    -0.093 C  
HETATM   23  C   UNL     1      -7.829  14.836  67.986  1.00  0.00    -0.130 C  
HETATM   24  N   UNL     1      -7.651  15.976  67.113  1.00  0.00    -0.189 NA 
ENDBRANCH  15  16
ENDBRANCH  14  15
ENDBRANCH  11  14
ENDBRANCH   7   8
TORSDOF 4
ENDMDL
MODEL      107
REMARK 921   NORMALIZED FREE ENERGY PREDICTED BY IDOCK:   -5.34 KCAL/MOL
REMARK 922        TOTAL FREE ENERGY PREDICTED BY IDOCK:   -6.85 KCAL/MOL
REMARK 923 INTER-LIGAND FREE ENERGY PREDICTED BY IDOCK:   -6.53 KCAL/MOL
REMARK 924 INTRA-LIGAND FREE ENERGY PREDICTED BY IDOCK:   -0.31 KCAL/MOL
REMARK 927      BINDING AFFINITY PREDICTED BY RF-SCORE:    0.00 PKD
ROOT
HETATM    1  C   UNL     1      -9.950  19.275  68.438  1.00  0.00    -0.502 C  
HETATM    2  C   UNL     1      -8.816  19.340  67.451  1.00  0.00    -0.335 A  
HETATM    3  C   UNL     1      -8.090  20.555  67.425  1.00  0.00    -0.345 A  
HETATM    4  C   UNL     1      -6.966  20.708  66.617  1.00  0.00    -0.322 A  
HETATM    5  C   UNL     1      -6.548  19.653  65.828  1.00  0.00    -0.264 A  
HETATM    6  C   UNL     1      -7.278  18.460  65.821  1.00  0.00    -0.222 A  
HETATM    7  C   UNL     1      -8.442  18.276  66.596  1.00  0.00    -0.265 A  
ENDROOT
BRANCH   7   8
HETATM    8  N   UNL     1      -9.172  17.110  66.410  1.00  0.00    -0.295 NA 
HETATM    9  C   UNL     1     -10.512  17.140  65.822  1.00  0.00    -0.233 C  
HETATM   10  C   UNL     1     -10.776  15.866  64.997  1.00  0.00    -0.404 C  
HETATM   11  N   UNL     1     -10.581  14.599  65.742  1.00  0.00    -0.304 NA 
HETATM   12  C   UNL     1      -8.786  15.854  67.088  1.00  0.00    -0.207 C  
HETATM   13  C   UNL     1      -9.183  14.612  66.243  1.00  0.00    -0.222 C  
BRANCH  11  14
HETATM   14  C   UNL     1     -11.534  14.427  66.865  1.00  0.00    -0.366 C  
BRANCH  14  15
HETATM   15  C   UNL     1     -12.124  13.014  66.908  1.00  0.00    -0.349 C  
BRANCH  15  16
HETATM   16  C   UNL     1     -11.342  12.008  66.148  1.00  0.00    -0.351 A  
HETATM   17  N   UNL     1     -11.440  11.657  64.883  1.00  0.00    -0.196 NA 
HETATM   18  N   UNL     1     -10.507  10.670  64.636  1.00  0.00    -0.291 NA 
HETATM   19  C   UNL     1      -9.859  10.439  65.756  1.00  0.00    -0.239 A  
HETATM   20  C   UNL     1      -8.763   9.472  66.020  1.00  0.00    -0.166 C  
HETATM   21  C   UNL     1      -8.534   9.280  67.525  1.00  0.00    -0.115 C  
HETATM   22  C   UNL     1      -8.521  10.622  68.257  1.00  0.00    -0.127 C  
HETATM   23  C   UNL     1      -9.862  11.336  68.085  1.00  0.00    -0.183 C  
HETATM   24  N   UNL     1     -10.331  11.285  66.718  1.00  0.00    -0.229 NA 
ENDBRANCH  15  16
ENDBRANCH  14  15
ENDBRANCH  11  14
ENDBRANCH   7   8
TORSDOF 4
ENDMDL
MODEL      108
REMARK 921   NORMALIZED FREE ENERGY PREDICTED BY IDOCK:   -5.34 KCAL/MOL
REMARK 922        TOTAL FREE ENERGY PREDICTED BY IDOCK:   -6.85 KCAL/MOL
REMARK 923 INTER-LIGAND FREE ENERGY PREDICTED BY IDOCK:   -6.68 KCAL/MOL
REMARK 924 INTRA-LIGAND FREE ENERGY PREDICTED BY IDOCK:   -0.16 KCAL/MOL
REMARK 927      BINDING AFFINITY PREDICTED BY RF-SCORE:    0.00 PKD
ROOT
HETATM    1  C   UNL     1      -7.066  16.118  67.136  1.00  0.00    -0.253 C  
HETATM    2  C   UNL     1      -7.971  17.155  67.744  1.00  0.00    -0.190 A  
HETATM    3  C   UNL     1      -7.324  18.243  68.379  1.00  0.00    -0.285 A  
HETATM    4  C   UNL     1      -8.051  19.309  68.903  1.00  0.00    -0.347 A  
HETATM    5  C   UNL     1      -9.429  19.309  68.799  1.00  0.00    -0.459 A  
HETATM    6  C   UNL     1     -10.079  18.223  68.205  1.00  0.00    -0.397 A  
HETATM    7  C   UNL     1      -9.385  17.107  67.694  1.00  0.00    -0.239 A  
ENDROOT
BRANCH   7   8
HETATM    8  N   UNL     1     -10.129  16.020  67.253  1.00  0.00    -0.260 NA 
HETATM    9  C   UNL     1     -10.481  14.925  68.159  1.00  0.00    -0.242 C  
HETATM   10  C   UNL     1     -11.852  14.328  67.788  1.00  0.00    -0.379 C  
HETATM   11  N   UNL     1     -11.965  13.875  66.381  1.00  0.00    -0.414 NA 
HETATM   12  C   UNL     1     -10.309  15.756  65.809  1.00  0.00    -0.369 C  
HETATM   13  C   UNL     1     -11.667  15.055  65.530  1.00  0.00    -0.145 C  
BRANCH  11  14
HETATM   14  C   UNL     1     -11.056  12.752  66.051  1.00  0.00    -0.285 C  
BRANCH  14  15
HETATM   15  C   UNL     1     -11.368  12.140  64.682  1.00  0.00    -0.382 C  
BRANCH  15  16
HETATM   16  C   UNL     1     -10.317  11.225  64.174  1.00  0.00    -0.351 A  
HETATM   17  N   UNL     1      -9.632  11.283  63.051  1.00  0.00    -0.365 NA 
HETATM   18  N   UNL     1      -8.775  10.202  63.013  1.00  0.00    -0.187 NA 
HETATM   19  C   UNL     1      -8.955   9.507  64.114  1.00  0.00    -0.198 A  
HETATM   20  C   UNL     1      -8.280   8.258  64.551  1.00  0.00    -0.138 C  
HETATM   21  C   UNL     1      -9.026   7.596  65.718  1.00  0.00    -0.095 C  
HETATM   22  C   UNL     1      -9.420   8.627  66.775  1.00  0.00    -0.250 C  
HETATM   23  C   UNL     1     -10.353   9.678  66.173  1.00  0.00    -0.132 C  
HETATM   24  N   UNL     1      -9.889  10.137  64.883  1.00  0.00    -0.324 NA 
ENDBRANCH  15  16
ENDBRANCH  14  15
ENDBRANCH  11  14
ENDBRANCH   7   8
TORSDOF 4
ENDMDL
MODEL      109
REMARK 921   NORMALIZED FREE ENERGY PREDICTED BY IDOCK:   -5.33 KCAL/MOL
REMARK 922        TOTAL FREE ENERGY PREDICTED BY IDOCK:   -6.83 KCAL/MOL
REMARK 923 INTER-LIGAND FREE ENERGY PREDICTED BY IDOCK:   -6.31 KCAL/MOL
REMARK 924 INTRA-LIGAND FREE ENERGY PREDICTED BY IDOCK:   -0.52 KCAL/MOL
REMARK 927      BINDING AFFINITY PREDICTED BY RF-SCORE:    0.00 PKD
ROOT
HETATM    1  C   UNL     1     -12.386  12.568  63.794  1.00  0.00    -0.595 C  
HETATM    2  C   UNL     1     -11.536  13.542  64.566  1.00  0.00    -0.410 A  
HETATM    3  C   UNL     1     -11.694  14.906  64.222  1.00  0.00    -0.261 A  
HETATM    4  C   UNL     1     -11.028  15.909  64.922  1.00  0.00    -0.427 A  
HETATM    5  C   UNL     1     -10.200  15.568  65.976  1.00  0.00    -0.349 A  
HETATM    6  C   UNL     1     -10.012  14.221  66.301  1.00  0.00    -0.319 A  
HETATM    7  C   UNL     1     -10.638  13.172  65.596  1.00  0.00    -0.277 A  
ENDROOT
BRANCH   7   8
HETATM    8  N   UNL     1     -10.275  11.869  65.905  1.00  0.00    -0.228 NA 
HETATM    9  C   UNL     1     -10.663  11.255  67.176  1.00  0.00    -0.253 C  
HETATM   10  C   UNL     1     -10.901   9.742  67.002  1.00  0.00    -0.094 C  
HETATM   11  N   UNL     1      -9.759   9.004  66.413  1.00  0.00    -0.246 NA 
HETATM   12  C   UNL     1      -9.221  11.169  65.138  1.00  0.00    -0.189 C  
HETATM   13  C   UNL     1      -9.475   9.637  65.101  1.00  0.00    -0.265 C  
BRANCH  11  14
HETATM   14  C   UNL     1      -8.548   9.015  67.270  1.00  0.00    -0.114 C  
BRANCH  14  15
HETATM   15  C   UNL     1      -8.271   7.644  67.893  1.00  0.00    -0.123 C  
BRANCH  15  16
HETATM   16  C   UNL     1      -9.450   7.026  68.547  1.00  0.00    -0.134 A  
HETATM   17  N   UNL     1     -10.221   6.046  68.124  1.00  0.00    -0.160 NA 
HETATM   18  N   UNL     1     -11.199   5.828  69.073  1.00  0.00    -0.122 NA 
HETATM   19  C   UNL     1     -11.005   6.679  70.055  1.00  0.00    -0.311 A  
HETATM   20  C   UNL     1     -11.783   6.853  71.308  1.00  0.00    -0.371 C  
HETATM   21  C   UNL     1     -11.434   8.175  72.006  1.00  0.00    -0.380 C  
HETATM   22  C   UNL     1      -9.922   8.396  72.043  1.00  0.00    -0.354 C  
HETATM   23  C   UNL     1      -9.359   8.466  70.624  1.00  0.00    -0.160 C  
HETATM   24  N   UNL     1      -9.896   7.423  69.777  1.00  0.00    -0.170 NA 
ENDBRANCH  15  16
ENDBRANCH  14  15
ENDBRANCH  11  14
ENDBRANCH   7   8
TORSDOF 4
ENDMDL
MODEL      110
REMARK 921   NORMALIZED FREE ENERGY PREDICTED BY IDOCK:   -5.31 KCAL/MOL
REMARK 922        TOTAL FREE ENERGY PREDICTED BY IDOCK:   -6.81 KCAL/MOL
REMARK 923 INTER-LIGAND FREE ENERGY PREDICTED BY IDOCK:   -6.12 KCAL/MOL
REMARK 924 INTRA-LIGAND FREE ENERGY PREDICTED BY IDOCK:   -0.69 KCAL/MOL
REMARK 927      BINDING AFFINITY PREDICTED BY RF-SCORE:    0.00 PKD
ROOT
HETATM    1  C   UNL     1     -10.605  16.822  69.343  1.00  0.00    -0.318 C  
HETATM    2  C   UNL     1     -11.341  15.816  70.187  1.00  0.00    -0.361 A  
HETATM    3  C   UNL     1     -11.740  16.261  71.470  1.00  0.00    -0.467 A  
HETATM    4  C   UNL     1     -12.502  15.453  72.310  1.00  0.00    -0.455 A  
HETATM    5  C   UNL     1     -12.880  14.194  71.882  1.00  0.00    -0.425 A  
HETATM    6  C   UNL     1     -12.461  13.732  70.630  1.00  0.00    -0.429 A  
HETATM    7  C   UNL     1     -11.659  14.503  69.764  1.00  0.00    -0.295 A  
ENDROOT
BRANCH   7   8
HETATM    8  N   UNL     1     -11.181  13.901  68.608  1.00  0.00    -0.255 NA 
HETATM    9  C   UNL     1     -12.070  13.601  67.485  1.00  0.00    -0.316 C  
HETATM   10  C   UNL     1     -11.321  13.728  66.145  1.00  0.00    -0.314 C  
HETATM   11  N   UNL     1     -10.091  12.906  66.047  1.00  0.00    -0.281 NA 
HETATM   12  C   UNL     1      -9.856  13.244  68.584  1.00  0.00    -0.091 C  
HETATM   13  C   UNL     1      -9.214  13.320  67.172  1.00  0.00    -0.235 C  
BRANCH  11  14
HETATM   14  C   UNL     1     -10.354  11.448  66.101  1.00  0.00    -0.248 C  
BRANCH  14  15
HETATM   15  C   UNL     1      -9.061  10.633  66.188  1.00  0.00    -0.190 C  
BRANCH  15  16
HETATM   16  C   UNL     1      -9.212   9.331  66.883  1.00  0.00    -0.144 A  
HETATM   17  N   UNL     1      -9.627   8.175  66.410  1.00  0.00    -0.225 NA 
HETATM   18  N   UNL     1      -9.609   7.255  67.439  1.00  0.00    -0.137 NA 
HETATM   19  C   UNL     1      -9.182   7.870  68.520  1.00  0.00    -0.138 A  
HETATM   20  C   UNL     1      -8.985   7.326  69.888  1.00  0.00    -0.142 C  
HETATM   21  C   UNL     1      -8.811   8.449  70.919  1.00  0.00    -0.185 C  
HETATM   22  C   UNL     1      -7.848   9.522  70.409  1.00  0.00    -0.190 C  
HETATM   23  C   UNL     1      -8.388  10.156  69.127  1.00  0.00    -0.154 C  
HETATM   24  N   UNL     1      -8.889   9.164  68.202  1.00  0.00    -0.129 NA 
ENDBRANCH  15  16
ENDBRANCH  14  15
ENDBRANCH  11  14
ENDBRANCH   7   8
TORSDOF 4
ENDMDL
MODEL      111
REMARK 921   NORMALIZED FREE ENERGY PREDICTED BY IDOCK:   -5.31 KCAL/MOL
REMARK 922        TOTAL FREE ENERGY PREDICTED BY IDOCK:   -6.81 KCAL/MOL
REMARK 923 INTER-LIGAND FREE ENERGY PREDICTED BY IDOCK:   -6.82 KCAL/MOL
REMARK 924 INTRA-LIGAND FREE ENERGY PREDICTED BY IDOCK:    0.01 KCAL/MOL
REMARK 927      BINDING AFFINITY PREDICTED BY RF-SCORE:    0.00 PKD
ROOT
HETATM    1  C   UNL     1     -12.373  11.311  71.068  1.00  0.00    -0.472 C  
HETATM    2  C   UNL     1     -12.716  12.776  71.113  1.00  0.00    -0.355 A  
HETATM    3  C   UNL     1     -13.569  13.178  72.170  1.00  0.00    -0.637 A  
HETATM    4  C   UNL     1     -13.889  14.518  72.369  1.00  0.00    -0.587 A  
HETATM    5  C   UNL     1     -13.361  15.476  71.524  1.00  0.00    -0.593 A  
HETATM    6  C   UNL     1     -12.545  15.086  70.458  1.00  0.00    -0.420 A  
HETATM    7  C   UNL     1     -12.225  13.738  70.197  1.00  0.00    -0.356 A  
ENDROOT
BRANCH   7   8
HETATM    8  N   UNL     1     -11.527  13.444  69.034  1.00  0.00    -0.281 NA 
HETATM    9  C   UNL     1     -11.734  12.182  68.323  1.00  0.00    -0.342 C  
HETATM   10  C   UNL     1     -11.560  12.375  66.805  1.00  0.00    -0.379 C  
HETATM   11  N   UNL     1     -10.264  12.972  66.405  1.00  0.00    -0.273 NA 
HETATM   12  C   UNL     1     -10.327  14.220  68.651  1.00  0.00    -0.246 C  
HETATM   13  C   UNL     1     -10.163  14.276  67.107  1.00  0.00    -0.254 C  
BRANCH  11  14
HETATM   14  C   UNL     1      -9.098  12.115  66.728  1.00  0.00    -0.205 C  
BRANCH  14  15
HETATM   15  C   UNL     1      -9.119  10.796  65.951  1.00  0.00    -0.208 C  
BRANCH  15  16
HETATM   16  C   UNL     1      -9.460   9.612  66.776  1.00  0.00    -0.161 A  
HETATM   17  N   UNL     1     -10.594   8.948  66.856  1.00  0.00    -0.236 NA 
HETATM   18  N   UNL     1     -10.433   7.927  67.771  1.00  0.00    -0.224 NA 
HETATM   19  C   UNL     1      -9.203   7.988  68.230  1.00  0.00    -0.134 A  
HETATM   20  C   UNL     1      -8.535   7.118  69.231  1.00  0.00    -0.133 C  
HETATM   21  C   UNL     1      -7.226   7.744  69.733  1.00  0.00    -0.067 C  
HETATM   22  C   UNL     1      -6.399   8.297  68.572  1.00  0.00    -0.054 C  
HETATM   23  C   UNL     1      -7.176   9.390  67.838  1.00  0.00    -0.082 C  
HETATM   24  N   UNL     1      -8.552   9.011  67.603  1.00  0.00    -0.120 NA 
ENDBRANCH  15  16
ENDBRANCH  14  15
ENDBRANCH  11  14
ENDBRANCH   7   8
TORSDOF 4
ENDMDL
MODEL      112
REMARK 921   NORMALIZED FREE ENERGY PREDICTED BY IDOCK:   -5.28 KCAL/MOL
REMARK 922        TOTAL FREE ENERGY PREDICTED BY IDOCK:   -6.78 KCAL/MOL
REMARK 923 INTER-LIGAND FREE ENERGY PREDICTED BY IDOCK:   -6.20 KCAL/MOL
REMARK 924 INTRA-LIGAND FREE ENERGY PREDICTED BY IDOCK:   -0.58 KCAL/MOL
REMARK 927      BINDING AFFINITY PREDICTED BY RF-SCORE:    0.00 PKD
ROOT
HETATM    1  C   UNL     1      -8.992   7.021  65.945  1.00  0.00    -0.092 C  
HETATM    2  C   UNL     1      -9.445   6.772  67.359  1.00  0.00    -0.150 A  
HETATM    3  C   UNL     1      -9.619   5.414  67.720  1.00  0.00    -0.147 A  
HETATM    4  C   UNL     1      -9.952   5.051  69.023  1.00  0.00    -0.251 A  
HETATM    5  C   UNL     1     -10.111   6.032  69.983  1.00  0.00    -0.241 A  
HETATM    6  C   UNL     1      -9.974   7.378  69.628  1.00  0.00    -0.182 A  
HETATM    7  C   UNL     1      -9.674   7.792  68.313  1.00  0.00    -0.159 A  
ENDROOT
BRANCH   7   8
HETATM    8  N   UNL     1      -9.701   9.151  68.034  1.00  0.00    -0.151 NA 
HETATM    9  C   UNL     1      -8.525   9.994  68.257  1.00  0.00    -0.111 C  
HETATM   10  C   UNL     1      -8.460  11.129  67.217  1.00  0.00    -0.137 C  
HETATM   11  N   UNL     1      -9.678  11.971  67.149  1.00  0.00    -0.195 NA 
HETATM   12  C   UNL     1     -10.981   9.861  67.825  1.00  0.00    -0.217 C  
HETATM   13  C   UNL     1     -10.810  11.057  66.849  1.00  0.00    -0.269 C  
BRANCH  11  14
HETATM   14  C   UNL     1      -9.938  12.729  68.396  1.00  0.00    -0.210 C  
BRANCH  14  15
HETATM   15  C   UNL     1     -11.150  13.656  68.265  1.00  0.00    -0.281 C  
BRANCH  15  16
HETATM   16  C   UNL     1     -11.235  14.693  69.322  1.00  0.00    -0.282 A  
HETATM   17  N   UNL     1     -10.743  15.914  69.334  1.00  0.00    -0.248 NA 
HETATM   18  N   UNL     1     -11.071  16.499  70.541  1.00  0.00    -0.226 NA 
HETATM   19  C   UNL     1     -11.756  15.623  71.240  1.00  0.00    -0.422 A  
HETATM   20  C   UNL     1     -12.336  15.760  72.600  1.00  0.00    -0.559 C  
HETATM   21  C   UNL     1     -12.749  14.398  73.174  1.00  0.00    -0.436 C  
HETATM   22  C   UNL     1     -13.502  13.567  72.135  1.00  0.00    -0.631 C  
HETATM   23  C   UNL     1     -12.614  13.301  70.920  1.00  0.00    -0.306 C  
HETATM   24  N   UNL     1     -11.910  14.491  70.493  1.00  0.00    -0.295 NA 
ENDBRANCH  15  16
ENDBRANCH  14  15
ENDBRANCH  11  14
ENDBRANCH   7   8
TORSDOF 4
ENDMDL
MODEL      113
REMARK 921   NORMALIZED FREE ENERGY PREDICTED BY IDOCK:   -5.27 KCAL/MOL
REMARK 922        TOTAL FREE ENERGY PREDICTED BY IDOCK:   -6.77 KCAL/MOL
REMARK 923 INTER-LIGAND FREE ENERGY PREDICTED BY IDOCK:   -6.31 KCAL/MOL
REMARK 924 INTRA-LIGAND FREE ENERGY PREDICTED BY IDOCK:   -0.46 KCAL/MOL
REMARK 927      BINDING AFFINITY PREDICTED BY RF-SCORE:    0.00 PKD
ROOT
HETATM    1  C   UNL     1      -6.724  16.061  69.682  1.00  0.00    -0.171 C  
HETATM    2  C   UNL     1      -7.024  17.441  69.161  1.00  0.00    -0.209 A  
HETATM    3  C   UNL     1      -6.082  18.445  69.494  1.00  0.00    -0.260 A  
HETATM    4  C   UNL     1      -6.203  19.741  68.999  1.00  0.00    -0.325 A  
HETATM    5  C   UNL     1      -7.259  20.054  68.164  1.00  0.00    -0.320 A  
HETATM    6  C   UNL     1      -8.213  19.079  67.857  1.00  0.00    -0.311 A  
HETATM    7  C   UNL     1      -8.150  17.765  68.365  1.00  0.00    -0.297 A  
ENDROOT
BRANCH   7   8
HETATM    8  N   UNL     1      -9.219  16.915  68.117  1.00  0.00    -0.228 NA 
HETATM    9  C   UNL     1     -10.168  16.561  69.174  1.00  0.00    -0.298 C  
HETATM   10  C   UNL     1     -11.580  16.353  68.594  1.00  0.00    -0.127 C  
HETATM   11  N   UNL     1     -11.654  15.359  67.497  1.00  0.00    -0.241 NA 
HETATM   12  C   UNL     1      -9.261  16.080  66.897  1.00  0.00    -0.224 C  
HETATM   13  C   UNL     1     -10.723  15.826  66.438  1.00  0.00    -0.277 C  
BRANCH  11  14
HETATM   14  C   UNL     1     -11.306  13.984  67.927  1.00  0.00    -0.291 C  
BRANCH  14  15
HETATM   15  C   UNL     1     -11.331  12.992  66.761  1.00  0.00    -0.365 C  
BRANCH  15  16
HETATM   16  C   UNL     1     -11.175  11.574  67.169  1.00  0.00    -0.301 A  
HETATM   17  N   UNL     1     -11.661  10.949  68.220  1.00  0.00    -0.470 NA 
HETATM   18  N   UNL     1     -11.235   9.637  68.179  1.00  0.00    -0.041 NA 
HETATM   19  C   UNL     1     -10.497   9.488  67.101  1.00  0.00    -0.253 A  
HETATM   20  C   UNL     1      -9.804   8.272  66.604  1.00  0.00    -0.337 C  
HETATM   21  C   UNL     1      -8.779   8.616  65.515  1.00  0.00    -0.219 C  
HETATM   22  C   UNL     1      -9.363   9.597  64.498  1.00  0.00    -0.247 C  
HETATM   23  C   UNL     1      -9.758  10.904  65.184  1.00  0.00    -0.262 C  
HETATM   24  N   UNL     1     -10.466  10.673  66.424  1.00  0.00    -0.235 NA 
ENDBRANCH  15  16
ENDBRANCH  14  15
ENDBRANCH  11  14
ENDBRANCH   7   8
TORSDOF 4
ENDMDL
MODEL      114
REMARK 921   NORMALIZED FREE ENERGY PREDICTED BY IDOCK:   -5.27 KCAL/MOL
REMARK 922        TOTAL FREE ENERGY PREDICTED BY IDOCK:   -6.76 KCAL/MOL
REMARK 923 INTER-LIGAND FREE ENERGY PREDICTED BY IDOCK:   -6.32 KCAL/MOL
REMARK 924 INTRA-LIGAND FREE ENERGY PREDICTED BY IDOCK:   -0.44 KCAL/MOL
REMARK 927      BINDING AFFINITY PREDICTED BY RF-SCORE:    0.00 PKD
ROOT
HETATM    1  C   UNL     1      -9.611  10.491  63.687  1.00  0.00    -0.370 C  
HETATM    2  C   UNL     1     -10.568  11.489  64.281  1.00  0.00    -0.405 A  
HETATM    3  C   UNL     1     -11.178  12.380  63.364  1.00  0.00    -0.492 A  
HETATM    4  C   UNL     1     -12.145  13.292  63.778  1.00  0.00    -0.546 A  
HETATM    5  C   UNL     1     -12.522  13.327  65.108  1.00  0.00    -0.525 A  
HETATM    6  C   UNL     1     -11.901  12.475  66.027  1.00  0.00    -0.478 A  
HETATM    7  C   UNL     1     -10.891  11.562  65.657  1.00  0.00    -0.252 A  
ENDROOT
BRANCH   7   8
HETATM    8  N   UNL     1     -10.240  10.864  66.665  1.00  0.00    -0.226 NA 
HETATM    9  C   UNL     1     -10.660   9.515  67.047  1.00  0.00    -0.201 C  
HETATM   10  C   UNL     1      -9.452   8.674  67.501  1.00  0.00    -0.149 C  
HETATM   11  N   UNL     1      -8.655   9.282  68.593  1.00  0.00    -0.126 NA 
HETATM   12  C   UNL     1      -9.335  11.556  67.608  1.00  0.00    -0.171 C  
HETATM   13  C   UNL     1      -8.207  10.610  68.104  1.00  0.00    -0.116 C  
BRANCH  11  14
HETATM   14  C   UNL     1      -9.410   9.422  69.862  1.00  0.00    -0.214 C  
BRANCH  14  15
HETATM   15  C   UNL     1      -8.734   8.682  71.019  1.00  0.00    -0.227 C  
BRANCH  15  16
HETATM   16  C   UNL     1      -8.820   7.204  70.925  1.00  0.00    -0.150 A  
HETATM   17  N   UNL     1      -8.313   6.395  70.020  1.00  0.00    -0.128 NA 
HETATM   18  N   UNL     1      -8.669   5.102  70.349  1.00  0.00    -0.112 NA 
HETATM   19  C   UNL     1      -9.386   5.150  71.449  1.00  0.00    -0.148 A  
HETATM   20  C   UNL     1     -10.008   4.035  72.209  1.00  0.00    -0.236 C  
HETATM   21  C   UNL     1     -11.037   4.553  73.223  1.00  0.00    -0.389 C  
HETATM   22  C   UNL     1     -10.493   5.756  73.995  1.00  0.00    -0.286 C  
HETATM   23  C   UNL     1     -10.177   6.904  73.038  1.00  0.00    -0.218 C  
HETATM   24  N   UNL     1      -9.471   6.449  71.860  1.00  0.00    -0.153 NA 
ENDBRANCH  15  16
ENDBRANCH  14  15
ENDBRANCH  11  14
ENDBRANCH   7   8
TORSDOF 4
ENDMDL
MODEL      115
REMARK 921   NORMALIZED FREE ENERGY PREDICTED BY IDOCK:   -5.26 KCAL/MOL
REMARK 922        TOTAL FREE ENERGY PREDICTED BY IDOCK:   -6.76 KCAL/MOL
REMARK 923 INTER-LIGAND FREE ENERGY PREDICTED BY IDOCK:   -7.56 KCAL/MOL
REMARK 924 INTRA-LIGAND FREE ENERGY PREDICTED BY IDOCK:    0.80 KCAL/MOL
REMARK 927      BINDING AFFINITY PREDICTED BY RF-SCORE:    0.00 PKD
ROOT
HETATM    1  C   UNL     1     -10.574  16.037  70.016  1.00  0.00    -0.297 C  
HETATM    2  C   UNL     1     -11.609  15.421  70.918  1.00  0.00    -0.396 A  
HETATM    3  C   UNL     1     -11.883  16.127  72.115  1.00  0.00    -0.626 A  
HETATM    4  C   UNL     1     -12.880  15.705  72.990  1.00  0.00    -0.599 A  
HETATM    5  C   UNL     1     -13.622  14.579  72.684  1.00  0.00    -0.577 A  
HETATM    6  C   UNL     1     -13.336  13.856  71.522  1.00  0.00    -0.406 A  
HETATM    7  C   UNL     1     -12.311  14.227  70.627  1.00  0.00    -0.361 A  
ENDROOT
BRANCH   7   8
HETATM    8  N   UNL     1     -12.015  13.365  69.579  1.00  0.00    -0.323 NA 
HETATM    9  C   UNL     1     -11.698  11.957  69.822  1.00  0.00    -0.331 C  
HETATM   10  C   UNL     1     -12.192  11.077  68.658  1.00  0.00     0.111 C  
HETATM   11  N   UNL     1     -11.690  11.484  67.324  1.00  0.00    -0.603 NA 
HETATM   12  C   UNL     1     -11.681  13.887  68.236  1.00  0.00    -0.361 C  
HETATM   13  C   UNL     1     -12.113  12.893  67.123  1.00  0.00    -0.219 C  
BRANCH  11  14
HETATM   14  C   UNL     1     -10.220  11.357  67.186  1.00  0.00    -0.202 C  
BRANCH  14  15
HETATM   15  C   UNL     1      -9.632  10.357  68.186  1.00  0.00    -0.155 C  
BRANCH  15  16
HETATM   16  C   UNL     1     -10.080   8.959  67.979  1.00  0.00    -0.195 A  
HETATM   17  N   UNL     1     -10.584   8.394  66.902  1.00  0.00    -0.280 NA 
HETATM   18  N   UNL     1     -10.862   7.074  67.196  1.00  0.00    -0.358 NA 
HETATM   19  C   UNL     1     -10.523   6.861  68.448  1.00  0.00    -0.204 A  
HETATM   20  C   UNL     1     -10.623   5.611  69.243  1.00  0.00    -0.359 C  
HETATM   21  C   UNL     1     -10.447   5.884  70.743  1.00  0.00    -0.311 C  
HETATM   22  C   UNL     1      -9.268   6.824  70.997  1.00  0.00    -0.156 C  
HETATM   23  C   UNL     1      -9.502   8.170  70.311  1.00  0.00    -0.170 C  
HETATM   24  N   UNL     1      -9.995   8.010  68.960  1.00  0.00    -0.180 NA 
ENDBRANCH  15  16
ENDBRANCH  14  15
ENDBRANCH  11  14
ENDBRANCH   7   8
TORSDOF 4
ENDMDL
MODEL      116
REMARK 921   NORMALIZED FREE ENERGY PREDICTED BY IDOCK:   -5.25 KCAL/MOL
REMARK 922        TOTAL FREE ENERGY PREDICTED BY IDOCK:   -6.74 KCAL/MOL
REMARK 923 INTER-LIGAND FREE ENERGY PREDICTED BY IDOCK:   -6.67 KCAL/MOL
REMARK 924 INTRA-LIGAND FREE ENERGY PREDICTED BY IDOCK:   -0.07 KCAL/MOL
REMARK 927      BINDING AFFINITY PREDICTED BY RF-SCORE:    0.00 PKD
ROOT
HETATM    1  C   UNL     1     -13.411  12.371  71.947  1.00  0.00    -0.366 C  
HETATM    2  C   UNL     1     -12.877  13.764  71.745  1.00  0.00    -0.415 A  
HETATM    3  C   UNL     1     -13.226  14.709  72.741  1.00  0.00    -0.591 A  
HETATM    4  C   UNL     1     -12.723  16.007  72.712  1.00  0.00    -0.547 A  
HETATM    5  C   UNL     1     -11.863  16.380  71.696  1.00  0.00    -0.349 A  
HETATM    6  C   UNL     1     -11.540  15.465  70.690  1.00  0.00    -0.363 A  
HETATM    7  C   UNL     1     -12.055  14.152  70.660  1.00  0.00    -0.351 A  
ENDROOT
BRANCH   7   8
HETATM    8  N   UNL     1     -11.786  13.370  69.546  1.00  0.00    -0.316 NA 
HETATM    9  C   UNL     1     -11.349  11.980  69.683  1.00  0.00    -0.179 C  
HETATM   10  C   UNL     1     -11.874  11.124  68.514  1.00  0.00    -0.260 C  
HETATM   11  N   UNL     1     -11.517  11.634  67.169  1.00  0.00    -0.478 NA 
HETATM   12  C   UNL     1     -11.605  13.982  68.212  1.00  0.00    -0.329 C  
HETATM   13  C   UNL     1     -12.056  13.015  67.082  1.00  0.00    -0.264 C  
BRANCH  11  14
HETATM   14  C   UNL     1     -10.058  11.628  66.907  1.00  0.00    -0.211 C  
BRANCH  14  15
HETATM   15  C   UNL     1      -9.575  10.277  66.370  1.00  0.00    -0.233 C  
BRANCH  15  16
HETATM   16  C   UNL     1      -9.156  10.306  64.948  1.00  0.00    -0.213 A  
HETATM   17  N   UNL     1      -9.871  10.557  63.872  1.00  0.00    -0.317 NA 
HETATM   18  N   UNL     1      -9.045  10.454  62.771  1.00  0.00    -0.254 NA 
HETATM   19  C   UNL     1      -7.842  10.142  63.198  1.00  0.00    -0.150 A  
HETATM   20  C   UNL     1      -6.600   9.916  62.414  1.00  0.00    -0.110 C  
HETATM   21  C   UNL     1      -5.517   9.238  63.263  1.00  0.00    -0.068 C  
HETATM   22  C   UNL     1      -5.407   9.891  64.641  1.00  0.00    -0.074 C  
HETATM   23  C   UNL     1      -6.728   9.762  65.399  1.00  0.00    -0.093 C  
HETATM   24  N   UNL     1      -7.865  10.076  64.561  1.00  0.00    -0.142 NA 
ENDBRANCH  15  16
ENDBRANCH  14  15
ENDBRANCH  11  14
ENDBRANCH   7   8
TORSDOF 4
ENDMDL
MODEL      117
REMARK 921   NORMALIZED FREE ENERGY PREDICTED BY IDOCK:   -5.25 KCAL/MOL
REMARK 922        TOTAL FREE ENERGY PREDICTED BY IDOCK:   -6.74 KCAL/MOL
REMARK 923 INTER-LIGAND FREE ENERGY PREDICTED BY IDOCK:   -6.16 KCAL/MOL
REMARK 924 INTRA-LIGAND FREE ENERGY PREDICTED BY IDOCK:   -0.59 KCAL/MOL
REMARK 927      BINDING AFFINITY PREDICTED BY RF-SCORE:    0.00 PKD
ROOT
HETATM    1  C   UNL     1      -7.499   7.191  64.969  1.00  0.00    -0.093 C  
HETATM    2  C   UNL     1      -8.336   6.210  65.745  1.00  0.00    -0.143 A  
HETATM    3  C   UNL     1      -8.334   4.879  65.260  1.00  0.00    -0.131 A  
HETATM    4  C   UNL     1      -8.999   3.862  65.940  1.00  0.00    -0.132 A  
HETATM    5  C   UNL     1      -9.670   4.155  67.113  1.00  0.00    -0.224 A  
HETATM    6  C   UNL     1      -9.706   5.472  67.581  1.00  0.00    -0.145 A  
HETATM    7  C   UNL     1      -9.078   6.538  66.905  1.00  0.00    -0.138 A  
ENDROOT
BRANCH   7   8
HETATM    8  N   UNL     1      -9.292   7.826  67.374  1.00  0.00    -0.138 NA 
HETATM    9  C   UNL     1      -8.634   8.310  68.590  1.00  0.00    -0.133 C  
HETATM   10  C   UNL     1      -8.336   9.818  68.487  1.00  0.00    -0.110 C  
HETATM   11  N   UNL     1      -9.518  10.660  68.184  1.00  0.00    -0.150 NA 
HETATM   12  C   UNL     1     -10.422   8.640  66.877  1.00  0.00    -0.258 C  
HETATM   13  C   UNL     1     -10.082  10.155  66.907  1.00  0.00    -0.223 C  
BRANCH  11  14
HETATM   14  C   UNL     1     -10.545  10.635  69.253  1.00  0.00    -0.233 C  
BRANCH  14  15
HETATM   15  C   UNL     1     -11.732  11.546  68.933  1.00  0.00    -0.403 C  
BRANCH  15  16
HETATM   16  C   UNL     1     -11.569  12.942  69.406  1.00  0.00    -0.302 A  
HETATM   17  N   UNL     1     -10.891  13.933  68.866  1.00  0.00    -0.256 NA 
HETATM   18  N   UNL     1     -11.025  15.041  69.677  1.00  0.00    -0.269 NA 
HETATM   19  C   UNL     1     -11.783  14.704  70.697  1.00  0.00    -0.281 A  
HETATM   20  C   UNL     1     -12.224  15.532  71.848  1.00  0.00    -0.477 C  
HETATM   21  C   UNL     1     -12.799  14.664  72.976  1.00  0.00    -0.572 C  
HETATM   22  C   UNL     1     -13.754  13.605  72.424  1.00  0.00    -0.697 C  
HETATM   23  C   UNL     1     -13.018  12.674  71.461  1.00  0.00    -0.282 C  
HETATM   24  N   UNL     1     -12.172  13.405  70.542  1.00  0.00    -0.365 NA 
ENDBRANCH  15  16
ENDBRANCH  14  15
ENDBRANCH  11  14
ENDBRANCH   7   8
TORSDOF 4
ENDMDL
MODEL      118
REMARK 921   NORMALIZED FREE ENERGY PREDICTED BY IDOCK:   -5.24 KCAL/MOL
REMARK 922        TOTAL FREE ENERGY PREDICTED BY IDOCK:   -6.72 KCAL/MOL
REMARK 923 INTER-LIGAND FREE ENERGY PREDICTED BY IDOCK:   -6.10 KCAL/MOL
REMARK 924 INTRA-LIGAND FREE ENERGY PREDICTED BY IDOCK:   -0.62 KCAL/MOL
REMARK 927      BINDING AFFINITY PREDICTED BY RF-SCORE:    0.00 PKD
ROOT
HETATM    1  C   UNL     1      -9.731   7.824  73.089  1.00  0.00    -0.347 C  
HETATM    2  C   UNL     1      -9.752   6.702  72.086  1.00  0.00    -0.159 A  
HETATM    3  C   UNL     1      -9.523   5.405  72.606  1.00  0.00    -0.162 A  
HETATM    4  C   UNL     1      -9.603   4.277  71.793  1.00  0.00    -0.218 A  
HETATM    5  C   UNL     1      -9.916   4.424  70.455  1.00  0.00    -0.253 A  
HETATM    6  C   UNL     1     -10.111   5.703  69.925  1.00  0.00    -0.289 A  
HETATM    7  C   UNL     1     -10.004   6.874  70.703  1.00  0.00    -0.186 A  
ENDROOT
BRANCH   7   8
HETATM    8  N   UNL     1     -10.075   8.099  70.054  1.00  0.00    -0.193 NA 
HETATM    9  C   UNL     1     -11.278   8.929  70.130  1.00  0.00    -0.160 C  
HETATM   10  C   UNL     1     -10.913  10.425  70.093  1.00  0.00    -0.300 C  
HETATM   11  N   UNL     1     -10.095  10.830  68.926  1.00  0.00    -0.197 NA 
HETATM   12  C   UNL     1      -9.097   8.463  69.006  1.00  0.00    -0.147 C  
HETATM   13  C   UNL     1      -8.865   9.999  68.960  1.00  0.00    -0.159 C  
BRANCH  11  14
HETATM   14  C   UNL     1     -10.798  10.666  67.631  1.00  0.00    -0.292 C  
BRANCH  14  15
HETATM   15  C   UNL     1     -11.855  11.751  67.408  1.00  0.00    -0.210 C  
BRANCH  15  16
HETATM   16  C   UNL     1     -11.294  13.103  67.168  1.00  0.00    -0.316 A  
HETATM   17  N   UNL     1     -10.646  13.564  66.119  1.00  0.00    -0.286 NA 
HETATM   18  N   UNL     1     -10.311  14.881  66.364  1.00  0.00    -0.277 NA 
HETATM   19  C   UNL     1     -10.761  15.196  67.557  1.00  0.00    -0.284 A  
HETATM   20  C   UNL     1     -10.658  16.487  68.285  1.00  0.00    -0.326 C  
HETATM   21  C   UNL     1     -11.004  16.323  69.771  1.00  0.00    -0.354 C  
HETATM   22  C   UNL     1     -12.264  15.475  69.953  1.00  0.00    -0.351 C  
HETATM   23  C   UNL     1     -12.053  14.076  69.375  1.00  0.00    -0.340 C  
HETATM   24  N   UNL     1     -11.415  14.117  68.078  1.00  0.00    -0.294 NA 
ENDBRANCH  15  16
ENDBRANCH  14  15
ENDBRANCH  11  14
ENDBRANCH   7   8
TORSDOF 4
ENDMDL
MODEL      119
REMARK 921   NORMALIZED FREE ENERGY PREDICTED BY IDOCK:   -5.23 KCAL/MOL
REMARK 922        TOTAL FREE ENERGY PREDICTED BY IDOCK:   -6.72 KCAL/MOL
REMARK 923 INTER-LIGAND FREE ENERGY PREDICTED BY IDOCK:   -6.29 KCAL/MOL
REMARK 924 INTRA-LIGAND FREE ENERGY PREDICTED BY IDOCK:   -0.42 KCAL/MOL
REMARK 927      BINDING AFFINITY PREDICTED BY RF-SCORE:    0.00 PKD
ROOT
HETATM    1  C   UNL     1     -10.210   8.816  67.134  1.00  0.00    -0.346 C  
HETATM    2  C   UNL     1      -8.915   9.521  66.832  1.00  0.00    -0.148 A  
HETATM    3  C   UNL     1      -7.841   8.692  66.427  1.00  0.00    -0.099 A  
HETATM    4  C   UNL     1      -6.618   9.234  66.038  1.00  0.00    -0.072 A  
HETATM    5  C   UNL     1      -6.450  10.606  66.042  1.00  0.00    -0.129 A  
HETATM    6  C   UNL     1      -7.493  11.431  66.474  1.00  0.00    -0.068 A  
HETATM    7  C   UNL     1      -8.734  10.923  66.911  1.00  0.00    -0.144 A  
ENDROOT
BRANCH   7   8
HETATM    8  N   UNL     1      -9.651  11.815  67.452  1.00  0.00    -0.168 NA 
HETATM    9  C   UNL     1      -9.896  13.119  66.834  1.00  0.00    -0.249 C  
HETATM   10  C   UNL     1     -11.363  13.548  67.027  1.00  0.00    -0.324 C  
HETATM   11  N   UNL     1     -11.819  13.564  68.438  1.00  0.00    -0.360 NA 
HETATM   12  C   UNL     1     -10.162  11.638  68.828  1.00  0.00    -0.177 C  
HETATM   13  C   UNL     1     -11.606  12.194  68.968  1.00  0.00    -0.319 C  
BRANCH  11  14
HETATM   14  C   UNL     1     -11.108  14.562  69.272  1.00  0.00    -0.270 C  
BRANCH  14  15
HETATM   15  C   UNL     1     -11.216  15.977  68.697  1.00  0.00    -0.366 C  
BRANCH  15  16
HETATM   16  C   UNL     1      -9.912  16.660  68.520  1.00  0.00    -0.261 A  
HETATM   17  N   UNL     1      -8.703  16.249  68.841  1.00  0.00    -0.243 NA 
HETATM   18  N   UNL     1      -7.805  17.237  68.493  1.00  0.00    -0.257 NA 
HETATM   19  C   UNL     1      -8.484  18.232  67.966  1.00  0.00    -0.262 A  
HETATM   20  C   UNL     1      -7.986  19.527  67.436  1.00  0.00    -0.305 C  
HETATM   21  C   UNL     1      -9.130  20.530  67.239  1.00  0.00    -0.473 C  
HETATM   22  C   UNL     1     -10.330  19.871  66.559  1.00  0.00    -0.608 C  
HETATM   23  C   UNL     1     -10.868  18.727  67.419  1.00  0.00    -0.348 C  
HETATM   24  N   UNL     1      -9.805  17.891  67.933  1.00  0.00    -0.296 NA 
ENDBRANCH  15  16
ENDBRANCH  14  15
ENDBRANCH  11  14
ENDBRANCH   7   8
TORSDOF 4
ENDMDL
MODEL      120
REMARK 921   NORMALIZED FREE ENERGY PREDICTED BY IDOCK:   -5.22 KCAL/MOL
REMARK 922        TOTAL FREE ENERGY PREDICTED BY IDOCK:   -6.71 KCAL/MOL
REMARK 923 INTER-LIGAND FREE ENERGY PREDICTED BY IDOCK:   -6.27 KCAL/MOL
REMARK 924 INTRA-LIGAND FREE ENERGY PREDICTED BY IDOCK:   -0.44 KCAL/MOL
REMARK 927      BINDING AFFINITY PREDICTED BY RF-SCORE:    0.00 PKD
ROOT
HETATM    1  C   UNL     1      -9.992   5.963  66.990  1.00  0.00    -0.195 C  
HETATM    2  C   UNL     1      -9.747   5.717  68.455  1.00  0.00    -0.161 A  
HETATM    3  C   UNL     1      -9.779   4.363  68.867  1.00  0.00    -0.211 A  
HETATM    4  C   UNL     1      -9.482   4.001  70.179  1.00  0.00    -0.258 A  
HETATM    5  C   UNL     1      -9.145   4.979  71.095  1.00  0.00    -0.177 A  
HETATM    6  C   UNL     1      -9.144   6.322  70.706  1.00  0.00    -0.150 A  
HETATM    7  C   UNL     1      -9.473   6.737  69.399  1.00  0.00    -0.147 A  
ENDROOT
BRANCH   7   8
HETATM    8  N   UNL     1      -9.580   8.098  69.152  1.00  0.00    -0.156 NA 
HETATM    9  C   UNL     1     -10.844   8.808  69.353  1.00  0.00    -0.110 C  
HETATM   10  C   UNL     1     -10.591  10.256  69.814  1.00  0.00    -0.271 C  
HETATM   11  N   UNL     1      -9.708  11.042  68.919  1.00  0.00    -0.194 NA 
HETATM   12  C   UNL     1      -8.546   8.815  68.374  1.00  0.00    -0.134 C  
HETATM   13  C   UNL     1      -8.428  10.297  68.826  1.00  0.00    -0.130 C  
BRANCH  11  14
HETATM   14  C   UNL     1     -10.284  11.259  67.570  1.00  0.00    -0.189 C  
BRANCH  14  15
HETATM   15  C   UNL     1     -11.619  12.007  67.627  1.00  0.00    -0.392 C  
BRANCH  15  16
HETATM   16  C   UNL     1     -11.916  12.808  66.414  1.00  0.00    -0.375 A  
HETATM   17  N   UNL     1     -12.599  12.474  65.339  1.00  0.00    -0.615 NA 
HETATM   18  N   UNL     1     -12.594  13.549  64.474  1.00  0.00    -0.640 NA 
HETATM   19  C   UNL     1     -11.907  14.517  65.038  1.00  0.00    -0.399 A  
HETATM   20  C   UNL     1     -11.606  15.876  64.519  1.00  0.00    -0.232 C  
HETATM   21  C   UNL     1     -10.495  16.554  65.331  1.00  0.00    -0.291 C  
HETATM   22  C   UNL     1     -10.723  16.375  66.833  1.00  0.00    -0.202 C  
HETATM   23  C   UNL     1     -10.717  14.891  67.199  1.00  0.00    -0.296 C  
HETATM   24  N   UNL     1     -11.496  14.102  66.271  1.00  0.00    -0.341 NA 
ENDBRANCH  15  16
ENDBRANCH  14  15
ENDBRANCH  11  14
ENDBRANCH   7   8
TORSDOF 4
ENDMDL
MODEL      121
REMARK 921   NORMALIZED FREE ENERGY PREDICTED BY IDOCK:   -5.22 KCAL/MOL
REMARK 922        TOTAL FREE ENERGY PREDICTED BY IDOCK:   -6.70 KCAL/MOL
REMARK 923 INTER-LIGAND FREE ENERGY PREDICTED BY IDOCK:   -6.27 KCAL/MOL
REMARK 924 INTRA-LIGAND FREE ENERGY PREDICTED BY IDOCK:   -0.44 KCAL/MOL
REMARK 927      BINDING AFFINITY PREDICTED BY RF-SCORE:    0.00 PKD
ROOT
HETATM    1  C   UNL     1     -10.986   9.245  71.378  1.00  0.00    -0.429 C  
HETATM    2  C   UNL     1     -10.701   7.775  71.539  1.00  0.00    -0.255 A  
HETATM    3  C   UNL     1     -11.023   7.219  72.801  1.00  0.00    -0.366 A  
HETATM    4  C   UNL     1     -10.887   5.855  73.044  1.00  0.00    -0.300 A  
HETATM    5  C   UNL     1     -10.434   5.026  72.035  1.00  0.00    -0.269 A  
HETATM    6  C   UNL     1     -10.082   5.571  70.796  1.00  0.00    -0.277 A  
HETATM    7  C   UNL     1     -10.169   6.951  70.519  1.00  0.00    -0.192 A  
ENDROOT
BRANCH   7   8
HETATM    8  N   UNL     1      -9.662   7.408  69.310  1.00  0.00    -0.164 NA 
HETATM    9  C   UNL     1      -8.343   8.038  69.230  1.00  0.00    -0.134 C  
HETATM   10  C   UNL     1      -7.670   7.726  67.880  1.00  0.00    -0.122 C  
HETATM   11  N   UNL     1      -8.476   8.093  66.691  1.00  0.00    -0.124 NA 
HETATM   12  C   UNL     1     -10.542   7.585  68.134  1.00  0.00    -0.145 C  
HETATM   13  C   UNL     1      -9.762   7.360  66.809  1.00  0.00    -0.207 C  
BRANCH  11  14
HETATM   14  C   UNL     1      -8.716   9.551  66.572  1.00  0.00    -0.134 C  
BRANCH  14  15
HETATM   15  C   UNL     1      -9.846   9.870  65.589  1.00  0.00    -0.368 C  
BRANCH  15  16
HETATM   16  C   UNL     1     -10.311  11.278  65.638  1.00  0.00    -0.256 A  
HETATM   17  N   UNL     1     -10.343  12.180  64.680  1.00  0.00    -0.286 NA 
HETATM   18  N   UNL     1     -10.847  13.352  65.207  1.00  0.00    -0.299 NA 
HETATM   19  C   UNL     1     -11.112  13.140  66.477  1.00  0.00    -0.294 A  
HETATM   20  C   UNL     1     -11.666  14.080  67.485  1.00  0.00    -0.421 C  
HETATM   21  C   UNL     1     -11.492  13.540  68.911  1.00  0.00    -0.348 C  
HETATM   22  C   UNL     1     -11.878  12.063  68.992  1.00  0.00    -0.372 C  
HETATM   23  C   UNL     1     -10.986  11.227  68.074  1.00  0.00    -0.247 C  
HETATM   24  N   UNL     1     -10.822  11.840  66.774  1.00  0.00    -0.257 NA 
ENDBRANCH  15  16
ENDBRANCH  14  15
ENDBRANCH  11  14
ENDBRANCH   7   8
TORSDOF 4
ENDMDL
MODEL      122
REMARK 921   NORMALIZED FREE ENERGY PREDICTED BY IDOCK:   -5.21 KCAL/MOL
REMARK 922        TOTAL FREE ENERGY PREDICTED BY IDOCK:   -6.69 KCAL/MOL
REMARK 923 INTER-LIGAND FREE ENERGY PREDICTED BY IDOCK:   -6.36 KCAL/MOL
REMARK 924 INTRA-LIGAND FREE ENERGY PREDICTED BY IDOCK:   -0.33 KCAL/MOL
REMARK 927      BINDING AFFINITY PREDICTED BY RF-SCORE:    0.00 PKD
ROOT
HETATM    1  C   UNL     1      -9.368   9.320  65.226  1.00  0.00    -0.269 C  
HETATM    2  C   UNL     1     -10.004   9.408  66.587  1.00  0.00    -0.326 A  
HETATM    3  C   UNL     1      -9.941   8.233  67.374  1.00  0.00    -0.271 A  
HETATM    4  C   UNL     1     -10.418   8.214  68.683  1.00  0.00    -0.195 A  
HETATM    5  C   UNL     1     -10.957   9.365  69.227  1.00  0.00    -0.137 A  
HETATM    6  C   UNL     1     -11.054  10.521  68.446  1.00  0.00    -0.335 A  
HETATM    7  C   UNL     1     -10.618  10.573  67.106  1.00  0.00    -0.264 A  
ENDROOT
BRANCH   7   8
HETATM    8  N   UNL     1     -10.888  11.722  66.375  1.00  0.00    -0.271 NA 
HETATM    9  C   UNL     1      -9.808  12.574  65.873  1.00  0.00    -0.247 C  
HETATM   10  C   UNL     1     -10.202  13.222  64.532  1.00  0.00    -0.310 C  
HETATM   11  N   UNL     1     -11.471  13.987  64.568  1.00  0.00    -0.375 NA 
HETATM   12  C   UNL     1     -12.245  12.311  66.357  1.00  0.00     0.185 C  
HETATM   13  C   UNL     1     -12.525  13.040  65.013  1.00  0.00    -0.477 C  
BRANCH  11  14
HETATM   14  C   UNL     1     -11.420  15.168  65.463  1.00  0.00    -0.213 C  
BRANCH  14  15
HETATM   15  C   UNL     1     -10.293  16.132  65.080  1.00  0.00    -0.202 C  
BRANCH  15  16
HETATM   16  C   UNL     1      -9.275  16.325  66.142  1.00  0.00    -0.341 A  
HETATM   17  N   UNL     1      -8.443  15.452  66.669  1.00  0.00    -0.275 NA 
HETATM   18  N   UNL     1      -7.695  16.097  67.634  1.00  0.00    -0.135 NA 
HETATM   19  C   UNL     1      -8.087  17.350  67.675  1.00  0.00    -0.197 A  
HETATM   20  C   UNL     1      -7.599  18.454  68.542  1.00  0.00    -0.319 C  
HETATM   21  C   UNL     1      -8.555  19.654  68.512  1.00  0.00    -0.338 C  
HETATM   22  C   UNL     1      -8.988  19.980  67.082  1.00  0.00    -0.441 C  
HETATM   23  C   UNL     1      -9.727  18.792  66.466  1.00  0.00    -0.354 C  
HETATM   24  N   UNL     1      -9.052  17.539  66.729  1.00  0.00    -0.254 NA 
ENDBRANCH  15  16
ENDBRANCH  14  15
ENDBRANCH  11  14
ENDBRANCH   7   8
TORSDOF 4
ENDMDL
MODEL      123
REMARK 921   NORMALIZED FREE ENERGY PREDICTED BY IDOCK:   -5.21 KCAL/MOL
REMARK 922        TOTAL FREE ENERGY PREDICTED BY IDOCK:   -6.69 KCAL/MOL
REMARK 923 INTER-LIGAND FREE ENERGY PREDICTED BY IDOCK:   -6.31 KCAL/MOL
REMARK 924 INTRA-LIGAND FREE ENERGY PREDICTED BY IDOCK:   -0.37 KCAL/MOL
REMARK 927      BINDING AFFINITY PREDICTED BY RF-SCORE:    0.00 PKD
ROOT
HETATM    1  C   UNL     1     -12.563   7.137  71.114  1.00  0.00    -0.384 C  
HETATM    2  C   UNL     1     -11.106   6.808  70.931  1.00  0.00    -0.322 A  
HETATM    3  C   UNL     1     -10.639   5.668  71.629  1.00  0.00    -0.301 A  
HETATM    4  C   UNL     1      -9.332   5.211  71.473  1.00  0.00    -0.187 A  
HETATM    5  C   UNL     1      -8.476   5.879  70.617  1.00  0.00    -0.129 A  
HETATM    6  C   UNL     1      -8.919   7.026  69.950  1.00  0.00    -0.142 A  
HETATM    7  C   UNL     1     -10.221   7.544  70.107  1.00  0.00    -0.206 A  
ENDROOT
BRANCH   7   8
HETATM    8  N   UNL     1     -10.515   8.763  69.513  1.00  0.00    -0.218 NA 
HETATM    9  C   UNL     1     -10.212   9.013  68.103  1.00  0.00    -0.204 C  
HETATM   10  C   UNL     1     -11.256   9.958  67.478  1.00  0.00     0.086 C  
HETATM   11  N   UNL     1     -11.426  11.245  68.193  1.00  0.00    -0.365 NA 
HETATM   12  C   UNL     1     -10.829   9.953  70.333  1.00  0.00    -0.319 C  
HETATM   13  C   UNL     1     -11.802  10.910  69.589  1.00  0.00    -0.344 C  
BRANCH  11  14
HETATM   14  C   UNL     1     -10.210  12.093  68.170  1.00  0.00    -0.203 C  
BRANCH  14  15
HETATM   15  C   UNL     1     -10.338  13.260  67.187  1.00  0.00    -0.248 C  
BRANCH  15  16
HETATM   16  C   UNL     1     -10.730  14.544  67.817  1.00  0.00    -0.256 A  
HETATM   17  N   UNL     1     -11.512  14.761  68.854  1.00  0.00    -0.282 NA 
HETATM   18  N   UNL     1     -11.586  16.123  69.060  1.00  0.00    -0.336 NA 
HETATM   19  C   UNL     1     -10.848  16.710  68.145  1.00  0.00    -0.348 A  
HETATM   20  C   UNL     1     -10.599  18.159  67.932  1.00  0.00    -0.389 C  
HETATM   21  C   UNL     1      -9.970  18.424  66.558  1.00  0.00    -0.392 C  
HETATM   22  C   UNL     1      -8.842  17.434  66.267  1.00  0.00    -0.236 C  
HETATM   23  C   UNL     1      -9.378  16.003  66.256  1.00  0.00    -0.322 C  
HETATM   24  N   UNL     1     -10.267  15.750  67.369  1.00  0.00    -0.265 NA 
ENDBRANCH  15  16
ENDBRANCH  14  15
ENDBRANCH  11  14
ENDBRANCH   7   8
TORSDOF 4
ENDMDL
MODEL      124
REMARK 921   NORMALIZED FREE ENERGY PREDICTED BY IDOCK:   -5.20 KCAL/MOL
REMARK 922        TOTAL FREE ENERGY PREDICTED BY IDOCK:   -6.67 KCAL/MOL
REMARK 923 INTER-LIGAND FREE ENERGY PREDICTED BY IDOCK:   -6.20 KCAL/MOL
REMARK 924 INTRA-LIGAND FREE ENERGY PREDICTED BY IDOCK:   -0.47 KCAL/MOL
REMARK 927      BINDING AFFINITY PREDICTED BY RF-SCORE:    0.00 PKD
ROOT
HETATM    1  C   UNL     1      -8.359   4.074  70.383  1.00  0.00    -0.081 C  
HETATM    2  C   UNL     1      -9.473   4.326  71.364  1.00  0.00    -0.225 A  
HETATM    3  C   UNL     1      -9.749   3.273  72.269  1.00  0.00    -0.223 A  
HETATM    4  C   UNL     1     -10.697   3.418  73.278  1.00  0.00    -0.291 A  
HETATM    5  C   UNL     1     -11.379   4.614  73.404  1.00  0.00    -0.394 A  
HETATM    6  C   UNL     1     -11.138   5.648  72.494  1.00  0.00    -0.327 A  
HETATM    7  C   UNL     1     -10.213   5.531  71.435  1.00  0.00    -0.215 A  
ENDROOT
BRANCH   7   8
HETATM    8  N   UNL     1     -10.151   6.559  70.505  1.00  0.00    -0.183 NA 
HETATM    9  C   UNL     1      -9.277   7.715  70.710  1.00  0.00    -0.157 C  
HETATM   10  C   UNL     1      -8.749   8.246  69.364  1.00  0.00    -0.142 C  
HETATM   11  N   UNL     1      -9.803   8.580  68.377  1.00  0.00    -0.167 NA 
HETATM   12  C   UNL     1     -11.185   6.701  69.457  1.00  0.00    -0.326 C  
HETATM   13  C   UNL     1     -10.598   7.343  68.170  1.00  0.00    -0.162 C  
BRANCH  11  14
HETATM   14  C   UNL     1     -10.680   9.695  68.810  1.00  0.00    -0.206 C  
BRANCH  14  15
HETATM   15  C   UNL     1     -11.277  10.453  67.622  1.00  0.00    -0.287 C  
BRANCH  15  16
HETATM   16  C   UNL     1     -11.399  11.916  67.836  1.00  0.00    -0.291 A  
HETATM   17  N   UNL     1     -11.646  12.579  68.946  1.00  0.00    -0.296 NA 
HETATM   18  N   UNL     1     -11.678  13.926  68.646  1.00  0.00    -0.339 NA 
HETATM   19  C   UNL     1     -11.450  14.057  67.358  1.00  0.00    -0.348 A  
HETATM   20  C   UNL     1     -11.382  15.296  66.542  1.00  0.00    -0.168 C  
HETATM   21  C   UNL     1     -11.443  14.983  65.041  1.00  0.00    -0.364 C  
HETATM   22  C   UNL     1     -10.522  13.816  64.683  1.00  0.00    -0.433 C  
HETATM   23  C   UNL     1     -10.947  12.553  65.431  1.00  0.00    -0.294 C  
HETATM   24  N   UNL     1     -11.235  12.820  66.824  1.00  0.00    -0.281 NA 
ENDBRANCH  15  16
ENDBRANCH  14  15
ENDBRANCH  11  14
ENDBRANCH   7   8
TORSDOF 4
ENDMDL
MODEL      125
REMARK 921   NORMALIZED FREE ENERGY PREDICTED BY IDOCK:   -5.18 KCAL/MOL
REMARK 922        TOTAL FREE ENERGY PREDICTED BY IDOCK:   -6.65 KCAL/MOL
REMARK 923 INTER-LIGAND FREE ENERGY PREDICTED BY IDOCK:   -6.03 KCAL/MOL
REMARK 924 INTRA-LIGAND FREE ENERGY PREDICTED BY IDOCK:   -0.63 KCAL/MOL
REMARK 927      BINDING AFFINITY PREDICTED BY RF-SCORE:    0.00 PKD
ROOT
HETATM    1  C   UNL     1     -10.029   5.381  68.561  1.00  0.00    -0.223 C  
HETATM    2  C   UNL     1      -9.955   4.825  69.958  1.00  0.00    -0.314 A  
HETATM    3  C   UNL     1      -9.578   3.464  70.061  1.00  0.00    -0.202 A  
HETATM    4  C   UNL     1      -9.391   2.860  71.302  1.00  0.00    -0.208 A  
HETATM    5  C   UNL     1      -9.572   3.601  72.454  1.00  0.00    -0.200 A  
HETATM    6  C   UNL     1      -9.978   4.936  72.362  1.00  0.00    -0.228 A  
HETATM    7  C   UNL     1     -10.214   5.577  71.129  1.00  0.00    -0.222 A  
ENDROOT
BRANCH   7   8
HETATM    8  N   UNL     1     -10.750   6.858  71.150  1.00  0.00    -0.223 NA 
HETATM    9  C   UNL     1     -12.194   7.077  71.055  1.00  0.00    -0.374 C  
HETATM   10  C   UNL     1     -12.613   8.319  71.865  1.00  0.00    -0.344 C  
HETATM   11  N   UNL     1     -11.889   9.561  71.504  1.00  0.00    -0.381 NA 
HETATM   12  C   UNL     1      -9.895   8.045  70.933  1.00  0.00    -0.175 C  
HETATM   13  C   UNL     1     -10.444   9.282  71.696  1.00  0.00    -0.258 C  
BRANCH  11  14
HETATM   14  C   UNL     1     -12.153  10.012  70.117  1.00  0.00    -0.091 C  
BRANCH  14  15
HETATM   15  C   UNL     1     -11.570  11.400  69.841  1.00  0.00    -0.402 C  
BRANCH  15  16
HETATM   16  C   UNL     1     -10.752  11.479  68.606  1.00  0.00    -0.207 A  
HETATM   17  N   UNL     1      -9.624  10.867  68.311  1.00  0.00    -0.161 NA 
HETATM   18  N   UNL     1      -9.234  11.266  67.049  1.00  0.00    -0.163 NA 
HETATM   19  C   UNL     1     -10.132  12.114  66.599  1.00  0.00    -0.199 A  
HETATM   20  C   UNL     1     -10.172  12.830  65.298  1.00  0.00    -0.296 C  
HETATM   21  C   UNL     1     -11.193  13.975  65.320  1.00  0.00    -0.319 C  
HETATM   22  C   UNL     1     -12.511  13.528  65.954  1.00  0.00    -0.484 C  
HETATM   23  C   UNL     1     -12.284  13.090  67.401  1.00  0.00    -0.097 C  
HETATM   24  N   UNL     1     -11.117  12.245  67.534  1.00  0.00    -0.260 NA 
ENDBRANCH  15  16
ENDBRANCH  14  15
ENDBRANCH  11  14
ENDBRANCH   7   8
TORSDOF 4
ENDMDL
MODEL      126
REMARK 921   NORMALIZED FREE ENERGY PREDICTED BY IDOCK:   -5.14 KCAL/MOL
REMARK 922        TOTAL FREE ENERGY PREDICTED BY IDOCK:   -6.61 KCAL/MOL
REMARK 923 INTER-LIGAND FREE ENERGY PREDICTED BY IDOCK:   -6.37 KCAL/MOL
REMARK 924 INTRA-LIGAND FREE ENERGY PREDICTED BY IDOCK:   -0.24 KCAL/MOL
REMARK 927      BINDING AFFINITY PREDICTED BY RF-SCORE:    0.00 PKD
ROOT
HETATM    1  C   UNL     1      -7.813  16.460  68.732  1.00  0.00    -0.220 C  
HETATM    2  C   UNL     1      -8.843  17.423  68.206  1.00  0.00    -0.264 A  
HETATM    3  C   UNL     1      -8.668  18.778  68.577  1.00  0.00    -0.380 A  
HETATM    4  C   UNL     1      -9.505  19.775  68.084  1.00  0.00    -0.454 A  
HETATM    5  C   UNL     1     -10.524  19.439  67.212  1.00  0.00    -0.579 A  
HETATM    6  C   UNL     1     -10.726  18.099  66.867  1.00  0.00    -0.246 A  
HETATM    7  C   UNL     1      -9.926  17.054  67.371  1.00  0.00    -0.278 A  
ENDROOT
BRANCH   7   8
HETATM    8  N   UNL     1     -10.296  15.748  67.080  1.00  0.00    -0.285 NA 
HETATM    9  C   UNL     1     -11.480  15.141  67.692  1.00  0.00    -0.309 C  
HETATM   10  C   UNL     1     -12.144  14.143  66.724  1.00  0.00    -0.442 C  
HETATM   11  N   UNL     1     -11.240  13.084  66.217  1.00  0.00    -0.293 NA 
HETATM   12  C   UNL     1      -9.354  14.818  66.420  1.00  0.00    -0.291 C  
HETATM   13  C   UNL     1     -10.108  13.775  65.550  1.00  0.00    -0.284 C  
BRANCH  11  14
HETATM   14  C   UNL     1     -10.743  12.178  67.280  1.00  0.00    -0.229 C  
BRANCH  14  15
HETATM   15  C   UNL     1      -9.740  11.154  66.742  1.00  0.00    -0.220 C  
BRANCH  15  16
HETATM   16  C   UNL     1      -9.811   9.829  67.406  1.00  0.00    -0.174 A  
HETATM   17  N   UNL     1     -10.445   8.739  67.029  1.00  0.00    -0.285 NA 
HETATM   18  N   UNL     1     -10.227   7.762  67.980  1.00  0.00    -0.193 NA 
HETATM   19  C   UNL     1      -9.464   8.277  68.918  1.00  0.00    -0.151 A  
HETATM   20  C   UNL     1      -8.946   7.641  70.156  1.00  0.00    -0.146 C  
HETATM   21  C   UNL     1      -8.392   8.685  71.134  1.00  0.00    -0.201 C  
HETATM   22  C   UNL     1      -7.514   9.707  70.411  1.00  0.00    -0.168 C  
HETATM   23  C   UNL     1      -8.327  10.455  69.355  1.00  0.00    -0.142 C  
HETATM   24  N   UNL     1      -9.153   9.561  68.574  1.00  0.00    -0.131 NA 
ENDBRANCH  15  16
ENDBRANCH  14  15
ENDBRANCH  11  14
ENDBRANCH   7   8
TORSDOF 4
ENDMDL
MODEL      127
REMARK 921   NORMALIZED FREE ENERGY PREDICTED BY IDOCK:   -5.11 KCAL/MOL
REMARK 922        TOTAL FREE ENERGY PREDICTED BY IDOCK:   -6.57 KCAL/MOL
REMARK 923 INTER-LIGAND FREE ENERGY PREDICTED BY IDOCK:   -5.92 KCAL/MOL
REMARK 924 INTRA-LIGAND FREE ENERGY PREDICTED BY IDOCK:   -0.65 KCAL/MOL
REMARK 927      BINDING AFFINITY PREDICTED BY RF-SCORE:    0.00 PKD
ROOT
HETATM    1  C   UNL     1     -10.656  19.399  66.327  1.00  0.00    -0.569 C  
HETATM    2  C   UNL     1      -9.397  19.207  67.128  1.00  0.00    -0.358 A  
HETATM    3  C   UNL     1      -8.458  20.265  67.064  1.00  0.00    -0.388 A  
HETATM    4  C   UNL     1      -7.293  20.244  67.828  1.00  0.00    -0.325 A  
HETATM    5  C   UNL     1      -7.051  19.174  68.669  1.00  0.00    -0.353 A  
HETATM    6  C   UNL     1      -7.956  18.109  68.714  1.00  0.00    -0.259 A  
HETATM    7  C   UNL     1      -9.128  18.072  67.931  1.00  0.00    -0.268 A  
ENDROOT
BRANCH   7   8
HETATM    8  N   UNL     1      -9.886  16.909  67.943  1.00  0.00    -0.256 NA 
HETATM    9  C   UNL     1     -10.723  16.561  69.092  1.00  0.00    -0.335 C  
HETATM   10  C   UNL     1     -11.987  15.805  68.639  1.00  0.00    -0.149 C  
HETATM   11  N   UNL     1     -11.721  14.596  67.824  1.00  0.00    -0.360 NA 
HETATM   12  C   UNL     1      -9.633  15.826  66.969  1.00  0.00    -0.226 C  
HETATM   13  C   UNL     1     -10.935  15.042  66.647  1.00  0.00    -0.325 C  
BRANCH  11  14
HETATM   14  C   UNL     1     -10.994  13.537  68.565  1.00  0.00    -0.267 C  
BRANCH  14  15
HETATM   15  C   UNL     1     -10.835  12.259  67.737  1.00  0.00    -0.256 C  
BRANCH  15  16
HETATM   16  C   UNL     1      -9.922  11.258  68.338  1.00  0.00    -0.197 A  
HETATM   17  N   UNL     1     -10.170  10.343  69.252  1.00  0.00    -0.218 NA 
HETATM   18  N   UNL     1      -9.001   9.653  69.502  1.00  0.00    -0.179 NA 
HETATM   19  C   UNL     1      -8.062  10.162  68.735  1.00  0.00    -0.111 A  
HETATM   20  C   UNL     1      -6.632   9.775  68.627  1.00  0.00    -0.051 C  
HETATM   21  C   UNL     1      -5.818  10.839  67.880  1.00  0.00    -0.042 C  
HETATM   22  C   UNL     1      -6.549  11.310  66.622  1.00  0.00    -0.135 C  
HETATM   23  C   UNL     1      -7.893  11.938  66.991  1.00  0.00    -0.152 C  
HETATM   24  N   UNL     1      -8.611  11.146  67.965  1.00  0.00    -0.135 NA 
ENDBRANCH  15  16
ENDBRANCH  14  15
ENDBRANCH  11  14
ENDBRANCH   7   8
TORSDOF 4
ENDMDL
MODEL      128
REMARK 921   NORMALIZED FREE ENERGY PREDICTED BY IDOCK:   -5.10 KCAL/MOL
REMARK 922        TOTAL FREE ENERGY PREDICTED BY IDOCK:   -6.55 KCAL/MOL
REMARK 923 INTER-LIGAND FREE ENERGY PREDICTED BY IDOCK:   -6.26 KCAL/MOL
REMARK 924 INTRA-LIGAND FREE ENERGY PREDICTED BY IDOCK:   -0.29 KCAL/MOL
REMARK 927      BINDING AFFINITY PREDICTED BY RF-SCORE:    0.00 PKD
ROOT
HETATM    1  C   UNL     1     -12.461   8.036  71.436  1.00  0.00    -0.320 C  
HETATM    2  C   UNL     1     -11.020   7.996  71.868  1.00  0.00    -0.321 A  
HETATM    3  C   UNL     1     -10.793   7.679  73.230  1.00  0.00    -0.379 A  
HETATM    4  C   UNL     1      -9.503   7.528  73.730  1.00  0.00    -0.330 A  
HETATM    5  C   UNL     1      -8.422   7.684  72.883  1.00  0.00    -0.185 A  
HETATM    6  C   UNL     1      -8.635   8.030  71.544  1.00  0.00    -0.157 A  
HETATM    7  C   UNL     1      -9.923   8.229  71.005  1.00  0.00    -0.187 A  
ENDROOT
BRANCH   7   8
HETATM    8  N   UNL     1     -10.020   8.709  69.706  1.00  0.00    -0.186 NA 
HETATM    9  C   UNL     1      -9.508   7.937  68.572  1.00  0.00    -0.148 C  
HETATM   10  C   UNL     1     -10.366   8.176  67.316  1.00  0.00    -0.303 C  
HETATM   11  N   UNL     1     -10.511   9.601  66.932  1.00  0.00    -0.233 NA 
HETATM   12  C   UNL     1     -10.330  10.130  69.440  1.00  0.00    -0.232 C  
HETATM   13  C   UNL     1     -11.101  10.298  68.102  1.00  0.00    -0.264 C  
BRANCH  11  14
HETATM   14  C   UNL     1      -9.229  10.235  66.539  1.00  0.00    -0.153 C  
BRANCH  14  15
HETATM   15  C   UNL     1      -9.413  11.255  65.412  1.00  0.00    -0.251 C  
BRANCH  15  16
HETATM   16  C   UNL     1     -10.491  12.243  65.659  1.00  0.00    -0.261 A  
HETATM   17  N   UNL     1     -11.690  12.323  65.121  1.00  0.00    -0.370 NA 
HETATM   18  N   UNL     1     -12.331  13.421  65.657  1.00  0.00    -0.456 NA 
HETATM   19  C   UNL     1     -11.510  13.989  66.512  1.00  0.00    -0.357 A  
HETATM   20  C   UNL     1     -11.721  15.198  67.349  1.00  0.00    -0.189 C  
HETATM   21  C   UNL     1     -10.399  15.712  67.935  1.00  0.00    -0.259 C  
HETATM   22  C   UNL     1      -9.563  14.563  68.501  1.00  0.00    -0.220 C  
HETATM   23  C   UNL     1      -9.216  13.563  67.399  1.00  0.00    -0.223 C  
HETATM   24  N   UNL     1     -10.359  13.257  66.566  1.00  0.00    -0.280 NA 
ENDBRANCH  15  16
ENDBRANCH  14  15
ENDBRANCH  11  14
ENDBRANCH   7   8
TORSDOF 4
ENDMDL
MODEL      129
REMARK 921   NORMALIZED FREE ENERGY PREDICTED BY IDOCK:   -5.07 KCAL/MOL
REMARK 922        TOTAL FREE ENERGY PREDICTED BY IDOCK:   -6.51 KCAL/MOL
REMARK 923 INTER-LIGAND FREE ENERGY PREDICTED BY IDOCK:   -6.80 KCAL/MOL
REMARK 924 INTRA-LIGAND FREE ENERGY PREDICTED BY IDOCK:    0.29 KCAL/MOL
REMARK 927      BINDING AFFINITY PREDICTED BY RF-SCORE:    0.00 PKD
ROOT
HETATM    1  C   UNL     1     -13.045  11.439  71.824  1.00  0.00    -0.523 C  
HETATM    2  C   UNL     1     -13.095  12.933  71.644  1.00  0.00    -0.430 A  
HETATM    3  C   UNL     1     -13.911  13.638  72.561  1.00  0.00    -0.620 A  
HETATM    4  C   UNL     1     -13.972  15.029  72.552  1.00  0.00    -0.551 A  
HETATM    5  C   UNL     1     -13.219  15.737  71.634  1.00  0.00    -0.462 A  
HETATM    6  C   UNL     1     -12.437  15.048  70.702  1.00  0.00    -0.422 A  
HETATM    7  C   UNL     1     -12.374  13.641  70.652  1.00  0.00    -0.368 A  
ENDROOT
BRANCH   7   8
HETATM    8  N   UNL     1     -11.681  13.054  69.601  1.00  0.00    -0.305 NA 
HETATM    9  C   UNL     1     -11.652  11.600  69.430  1.00  0.00    -0.327 C  
HETATM   10  C   UNL     1     -11.589  11.227  67.937  1.00  0.00    -0.256 C  
HETATM   11  N   UNL     1     -10.465  11.845  67.195  1.00  0.00    -0.217 NA 
HETATM   12  C   UNL     1     -10.688  13.823  68.821  1.00  0.00    -0.249 C  
HETATM   13  C   UNL     1     -10.607  13.314  67.355  1.00  0.00    -0.246 C  
BRANCH  11  14
HETATM   14  C   UNL     1      -9.133  11.396  67.667  1.00  0.00    -0.155 C  
BRANCH  14  15
HETATM   15  C   UNL     1      -9.099   9.891  67.949  1.00  0.00    -0.135 C  
BRANCH  15  16
HETATM   16  C   UNL     1      -8.230   9.509  69.088  1.00  0.00    -0.111 A  
HETATM   17  N   UNL     1      -6.916   9.501  69.171  1.00  0.00    -0.056 NA 
HETATM   18  N   UNL     1      -6.565   9.055  70.429  1.00  0.00    -0.044 NA 
HETATM   19  C   UNL     1      -7.672   8.799  71.089  1.00  0.00    -0.123 A  
HETATM   20  C   UNL     1      -7.839   8.296  72.476  1.00  0.00    -0.176 C  
HETATM   21  C   UNL     1      -9.272   7.810  72.728  1.00  0.00    -0.252 C  
HETATM   22  C   UNL     1     -10.296   8.803  72.179  1.00  0.00    -0.378 C  
HETATM   23  C   UNL     1     -10.127   8.963  70.669  1.00  0.00    -0.212 C  
HETATM   24  N   UNL     1      -8.737   9.106  70.292  1.00  0.00    -0.180 NA 
ENDBRANCH  15  16
ENDBRANCH  14  15
ENDBRANCH  11  14
ENDBRANCH   7   8
TORSDOF 4
ENDMDL
MODEL      130
REMARK 921   NORMALIZED FREE ENERGY PREDICTED BY IDOCK:   -5.07 KCAL/MOL
REMARK 922        TOTAL FREE ENERGY PREDICTED BY IDOCK:   -6.51 KCAL/MOL
REMARK 923 INTER-LIGAND FREE ENERGY PREDICTED BY IDOCK:   -5.97 KCAL/MOL
REMARK 924 INTRA-LIGAND FREE ENERGY PREDICTED BY IDOCK:   -0.54 KCAL/MOL
REMARK 927      BINDING AFFINITY PREDICTED BY RF-SCORE:    0.00 PKD
ROOT
HETATM    1  C   UNL     1     -10.212   8.518  72.685  1.00  0.00    -0.237 C  
HETATM    2  C   UNL     1     -10.318   7.590  71.505  1.00  0.00    -0.216 A  
HETATM    3  C   UNL     1     -10.112   6.216  71.781  1.00  0.00    -0.214 A  
HETATM    4  C   UNL     1     -10.268   5.250  70.790  1.00  0.00    -0.317 A  
HETATM    5  C   UNL     1     -10.635   5.637  69.515  1.00  0.00    -0.384 A  
HETATM    6  C   UNL     1     -10.807   6.994  69.225  1.00  0.00    -0.241 A  
HETATM    7  C   UNL     1     -10.624   8.008  70.188  1.00  0.00    -0.237 A  
ENDROOT
BRANCH   7   8
HETATM    8  N   UNL     1     -10.679   9.329  69.765  1.00  0.00    -0.227 NA 
HETATM    9  C   UNL     1     -11.882  10.139  69.964  1.00  0.00    -0.179 C  
HETATM   10  C   UNL     1     -11.513  11.616  70.199  1.00  0.00    -0.118 C  
HETATM   11  N   UNL     1     -10.671  12.217  69.138  1.00  0.00    -0.125 NA 
HETATM   12  C   UNL     1      -9.680   9.867  68.816  1.00  0.00    -0.160 C  
HETATM   13  C   UNL     1      -9.444  11.385  69.048  1.00  0.00     0.037 C  
BRANCH  11  14
HETATM   14  C   UNL     1     -11.349  12.289  67.821  1.00  0.00    -0.301 C  
BRANCH  14  15
HETATM   15  C   UNL     1     -12.031  13.641  67.598  1.00  0.00    -0.386 C  
BRANCH  15  16
HETATM   16  C   UNL     1     -11.287  14.553  66.696  1.00  0.00    -0.356 A  
HETATM   17  N   UNL     1     -11.346  14.664  65.386  1.00  0.00    -0.335 NA 
HETATM   18  N   UNL     1     -10.457  15.645  64.995  1.00  0.00    -0.468 NA 
HETATM   19  C   UNL     1      -9.873  16.113  66.076  1.00  0.00    -0.347 A  
HETATM   20  C   UNL     1      -8.841  17.174  66.195  1.00  0.00    -0.220 C  
HETATM   21  C   UNL     1      -8.187  17.166  67.583  1.00  0.00    -0.194 C  
HETATM   22  C   UNL     1      -9.238  17.036  68.687  1.00  0.00    -0.266 C  
HETATM   23  C   UNL     1     -10.007  15.724  68.537  1.00  0.00    -0.208 C  
HETATM   24  N   UNL     1     -10.395  15.477  67.165  1.00  0.00    -0.266 NA 
ENDBRANCH  15  16
ENDBRANCH  14  15
ENDBRANCH  11  14
ENDBRANCH   7   8
TORSDOF 4
ENDMDL
MODEL      131
REMARK 921   NORMALIZED FREE ENERGY PREDICTED BY IDOCK:   -5.07 KCAL/MOL
REMARK 922        TOTAL FREE ENERGY PREDICTED BY IDOCK:   -6.51 KCAL/MOL
REMARK 923 INTER-LIGAND FREE ENERGY PREDICTED BY IDOCK:   -5.97 KCAL/MOL
REMARK 924 INTRA-LIGAND FREE ENERGY PREDICTED BY IDOCK:   -0.54 KCAL/MOL
REMARK 927      BINDING AFFINITY PREDICTED BY RF-SCORE:    0.00 PKD
ROOT
HETATM    1  C   UNL     1     -10.606  14.266  67.949  1.00  0.00    -0.240 C  
HETATM    2  C   UNL     1     -10.974  13.539  66.684  1.00  0.00    -0.293 A  
HETATM    3  C   UNL     1     -11.402  14.352  65.607  1.00  0.00    -0.330 A  
HETATM    4  C   UNL     1     -11.687  13.806  64.358  1.00  0.00    -0.436 A  
HETATM    5  C   UNL     1     -11.545  12.445  64.163  1.00  0.00    -0.458 A  
HETATM    6  C   UNL     1     -11.154  11.629  65.229  1.00  0.00    -0.298 A  
HETATM    7  C   UNL     1     -10.892  12.135  66.519  1.00  0.00    -0.270 A  
ENDROOT
BRANCH   7   8
HETATM    8  N   UNL     1     -10.650  11.227  67.541  1.00  0.00    -0.207 NA 
HETATM    9  C   UNL     1      -9.460  10.375  67.533  1.00  0.00    -0.149 C  
HETATM   10  C   UNL     1      -8.971  10.104  68.968  1.00  0.00    -0.167 C  
HETATM   11  N   UNL     1      -9.998   9.528  69.869  1.00  0.00    -0.214 NA 
HETATM   12  C   UNL     1     -11.720  10.844  68.487  1.00  0.00    -0.237 C  
HETATM   13  C   UNL     1     -11.136  10.481  69.881  1.00  0.00    -0.307 C  
BRANCH  11  14
HETATM   14  C   UNL     1     -10.453   8.179  69.453  1.00  0.00    -0.220 C  
BRANCH  14  15
HETATM   15  C   UNL     1     -11.583   7.653  70.341  1.00  0.00    -0.138 C  
BRANCH  15  16
HETATM   16  C   UNL     1     -11.161   7.316  71.723  1.00  0.00    -0.247 A  
HETATM   17  N   UNL     1     -11.298   8.014  72.831  1.00  0.00    -0.382 NA 
HETATM   18  N   UNL     1     -10.737   7.294  73.866  1.00  0.00    -0.253 NA 
HETATM   19  C   UNL     1     -10.269   6.171  73.368  1.00  0.00    -0.217 A  
HETATM   20  C   UNL     1      -9.574   5.059  74.065  1.00  0.00    -0.139 C  
HETATM   21  C   UNL     1      -8.893   4.112  73.067  1.00  0.00    -0.103 C  
HETATM   22  C   UNL     1      -9.821   3.781  71.898  1.00  0.00    -0.248 C  
HETATM   23  C   UNL     1     -10.195   5.054  71.139  1.00  0.00    -0.211 C  
HETATM   24  N   UNL     1     -10.548   6.134  72.033  1.00  0.00    -0.211 NA 
ENDBRANCH  15  16
ENDBRANCH  14  15
ENDBRANCH  11  14
ENDBRANCH   7   8
TORSDOF 4
ENDMDL
MODEL      132
REMARK 921   NORMALIZED FREE ENERGY PREDICTED BY IDOCK:   -5.06 KCAL/MOL
REMARK 922        TOTAL FREE ENERGY PREDICTED BY IDOCK:   -6.50 KCAL/MOL
REMARK 923 INTER-LIGAND FREE ENERGY PREDICTED BY IDOCK:   -6.10 KCAL/MOL
REMARK 924 INTRA-LIGAND FREE ENERGY PREDICTED BY IDOCK:   -0.41 KCAL/MOL
REMARK 927      BINDING AFFINITY PREDICTED BY RF-SCORE:    0.00 PKD
ROOT
HETATM    1  C   UNL     1     -11.019   9.743  71.188  1.00  0.00    -0.386 C  
HETATM    2  C   UNL     1     -10.902   8.453  70.422  1.00  0.00    -0.246 A  
HETATM    3  C   UNL     1     -11.279   7.282  71.125  1.00  0.00    -0.284 A  
HETATM    4  C   UNL     1     -11.296   6.039  70.498  1.00  0.00    -0.310 A  
HETATM    5  C   UNL     1     -10.945   5.944  69.165  1.00  0.00    -0.382 A  
HETATM    6  C   UNL     1     -10.539   7.089  68.472  1.00  0.00    -0.235 A  
HETATM    7  C   UNL     1     -10.471   8.361  69.077  1.00  0.00    -0.201 A  
ENDROOT
BRANCH   7   8
HETATM    8  N   UNL     1      -9.921   9.404  68.344  1.00  0.00    -0.164 NA 
HETATM    9  C   UNL     1      -8.477   9.644  68.332  1.00  0.00    -0.118 C  
HETATM   10  C   UNL     1      -8.028  10.206  66.970  1.00  0.00    -0.110 C  
HETATM   11  N   UNL     1      -8.746  11.431  66.543  1.00  0.00    -0.178 NA 
HETATM   12  C   UNL     1     -10.769  10.500  67.827  1.00  0.00    -0.272 C  
HETATM   13  C   UNL     1     -10.190  11.086  66.510  1.00  0.00    -0.234 C  
BRANCH  11  14
HETATM   14  C   UNL     1      -8.508  12.591  67.434  1.00  0.00    -0.181 C  
BRANCH  14  15
HETATM   15  C   UNL     1      -9.141  13.875  66.890  1.00  0.00    -0.257 C  
BRANCH  15  16
HETATM   16  C   UNL     1      -8.875  15.078  67.716  1.00  0.00    -0.171 A  
HETATM   17  N   UNL     1      -8.096  15.213  68.768  1.00  0.00    -0.154 NA 
HETATM   18  N   UNL     1      -8.183  16.520  69.204  1.00  0.00    -0.207 NA 
HETATM   19  C   UNL     1      -9.014  17.155  68.409  1.00  0.00    -0.259 A  
HETATM   20  C   UNL     1      -9.448  18.575  68.452  1.00  0.00    -0.368 C  
HETATM   21  C   UNL     1     -10.678  18.813  67.567  1.00  0.00    -0.474 C  
HETATM   22  C   UNL     1     -10.517  18.136  66.205  1.00  0.00    -0.374 C  
HETATM   23  C   UNL     1     -10.363  16.625  66.378  1.00  0.00    -0.306 C  
HETATM   24  N   UNL     1      -9.441  16.293  67.442  1.00  0.00    -0.226 NA 
ENDBRANCH  15  16
ENDBRANCH  14  15
ENDBRANCH  11  14
ENDBRANCH   7   8
TORSDOF 4
ENDMDL
MODEL      133
REMARK 921   NORMALIZED FREE ENERGY PREDICTED BY IDOCK:   -5.03 KCAL/MOL
REMARK 922        TOTAL FREE ENERGY PREDICTED BY IDOCK:   -6.47 KCAL/MOL
REMARK 923 INTER-LIGAND FREE ENERGY PREDICTED BY IDOCK:   -6.62 KCAL/MOL
REMARK 924 INTRA-LIGAND FREE ENERGY PREDICTED BY IDOCK:    0.15 KCAL/MOL
REMARK 927      BINDING AFFINITY PREDICTED BY RF-SCORE:    0.00 PKD
ROOT
HETATM    1  C   UNL     1     -10.106   9.605  66.335  1.00  0.00    -0.317 C  
HETATM    2  C   UNL     1      -9.586  10.016  64.984  1.00  0.00    -0.362 A  
HETATM    3  C   UNL     1      -8.839   9.037  64.285  1.00  0.00    -0.089 A  
HETATM    4  C   UNL     1      -8.379   9.267  62.992  1.00  0.00    -0.195 A  
HETATM    5  C   UNL     1      -8.659  10.471  62.374  1.00  0.00    -0.267 A  
HETATM    6  C   UNL     1      -9.367  11.458  63.068  1.00  0.00    -0.344 A  
HETATM    7  C   UNL     1      -9.820  11.281  64.392  1.00  0.00    -0.269 A  
ENDROOT
BRANCH   7   8
HETATM    8  N   UNL     1     -10.387  12.370  65.039  1.00  0.00    -0.287 NA 
HETATM    9  C   UNL     1     -10.773  13.574  64.302  1.00  0.00    -0.308 C  
HETATM   10  C   UNL     1     -12.012  14.231  64.940  1.00  0.00    -0.425 C  
HETATM   11  N   UNL     1     -11.868  14.547  66.381  1.00  0.00    -0.375 NA 
HETATM   12  C   UNL     1     -10.319  12.500  66.511  1.00  0.00    -0.237 C  
HETATM   13  C   UNL     1     -11.550  13.269  67.066  1.00  0.00    -0.359 C  
BRANCH  11  14
HETATM   14  C   UNL     1     -10.821  15.561  66.657  1.00  0.00    -0.285 C  
BRANCH  14  15
HETATM   15  C   UNL     1     -10.772  15.949  68.138  1.00  0.00    -0.302 C  
BRANCH  15  16
HETATM   16  C   UNL     1      -9.948  17.149  68.422  1.00  0.00    -0.310 A  
HETATM   17  N   UNL     1     -10.329  18.382  68.679  1.00  0.00    -0.328 NA 
HETATM   18  N   UNL     1      -9.200  19.153  68.865  1.00  0.00    -0.349 NA 
HETATM   19  C   UNL     1      -8.152  18.374  68.718  1.00  0.00    -0.244 A  
HETATM   20  C   UNL     1      -6.710  18.718  68.818  1.00  0.00    -0.292 C  
HETATM   21  C   UNL     1      -5.827  17.605  68.238  1.00  0.00    -0.160 C  
HETATM   22  C   UNL     1      -6.288  16.229  68.718  1.00  0.00    -0.125 C  
HETATM   23  C   UNL     1      -7.722  15.959  68.261  1.00  0.00    -0.137 C  
HETATM   24  N   UNL     1      -8.582  17.102  68.475  1.00  0.00    -0.252 NA 
ENDBRANCH  15  16
ENDBRANCH  14  15
ENDBRANCH  11  14
ENDBRANCH   7   8
TORSDOF 4
ENDMDL
MODEL      134
REMARK 921   NORMALIZED FREE ENERGY PREDICTED BY IDOCK:   -5.02 KCAL/MOL
REMARK 922        TOTAL FREE ENERGY PREDICTED BY IDOCK:   -6.46 KCAL/MOL
REMARK 923 INTER-LIGAND FREE ENERGY PREDICTED BY IDOCK:   -5.92 KCAL/MOL
REMARK 924 INTRA-LIGAND FREE ENERGY PREDICTED BY IDOCK:   -0.53 KCAL/MOL
REMARK 927      BINDING AFFINITY PREDICTED BY RF-SCORE:    0.00 PKD
ROOT
HETATM    1  C   UNL     1     -12.050  13.241  66.101  1.00  0.00    -0.477 C  
HETATM    2  C   UNL     1     -10.695  13.831  66.383  1.00  0.00    -0.281 A  
HETATM    3  C   UNL     1     -10.520  15.185  66.004  1.00  0.00    -0.330 A  
HETATM    4  C   UNL     1      -9.340  15.867  66.290  1.00  0.00    -0.357 A  
HETATM    5  C   UNL     1      -8.322  15.216  66.961  1.00  0.00    -0.263 A  
HETATM    6  C   UNL     1      -8.473  13.870  67.309  1.00  0.00    -0.212 A  
HETATM    7  C   UNL     1      -9.635  13.130  67.007  1.00  0.00    -0.241 A  
ENDROOT
BRANCH   7   8
HETATM    8  N   UNL     1      -9.628  11.767  67.268  1.00  0.00    -0.175 NA 
HETATM    9  C   UNL     1      -9.382  10.792  66.204  1.00  0.00    -0.183 C  
HETATM   10  C   UNL     1      -8.642   9.558  66.754  1.00  0.00    -0.127 C  
HETATM   11  N   UNL     1      -9.314   8.896  67.898  1.00  0.00    -0.141 NA 
HETATM   12  C   UNL     1     -10.188  11.230  68.527  1.00  0.00    -0.205 C  
HETATM   13  C   UNL     1      -9.460   9.926  68.957  1.00  0.00    -0.183 C  
BRANCH  11  14
HETATM   14  C   UNL     1     -10.633   8.317  67.548  1.00  0.00    -0.221 C  
BRANCH  14  15
HETATM   15  C   UNL     1     -10.709   6.822  67.867  1.00  0.00    -0.320 C  
BRANCH  15  16
HETATM   16  C   UNL     1     -10.854   6.517  69.311  1.00  0.00    -0.307 A  
HETATM   17  N   UNL     1     -11.491   7.189  70.246  1.00  0.00    -0.273 NA 
HETATM   18  N   UNL     1     -11.335   6.518  71.442  1.00  0.00    -0.281 NA 
HETATM   19  C   UNL     1     -10.606   5.449  71.212  1.00  0.00    -0.206 A  
HETATM   20  C   UNL     1     -10.154   4.403  72.164  1.00  0.00    -0.262 C  
HETATM   21  C   UNL     1      -9.045   3.533  71.558  1.00  0.00    -0.174 C  
HETATM   22  C   UNL     1      -9.385   3.125  70.125  1.00  0.00    -0.238 C  
HETATM   23  C   UNL     1      -9.533   4.362  69.239  1.00  0.00    -0.179 C  
HETATM   24  N   UNL     1     -10.315   5.396  69.880  1.00  0.00    -0.285 NA 
ENDBRANCH  15  16
ENDBRANCH  14  15
ENDBRANCH  11  14
ENDBRANCH   7   8
TORSDOF 4
ENDMDL
MODEL      135
REMARK 921   NORMALIZED FREE ENERGY PREDICTED BY IDOCK:   -5.01 KCAL/MOL
REMARK 922        TOTAL FREE ENERGY PREDICTED BY IDOCK:   -6.45 KCAL/MOL
REMARK 923 INTER-LIGAND FREE ENERGY PREDICTED BY IDOCK:   -5.92 KCAL/MOL
REMARK 924 INTRA-LIGAND FREE ENERGY PREDICTED BY IDOCK:   -0.53 KCAL/MOL
REMARK 927      BINDING AFFINITY PREDICTED BY RF-SCORE:    0.00 PKD
ROOT
HETATM    1  C   UNL     1     -11.877  14.214  67.214  1.00  0.00    -0.452 C  
HETATM    2  C   UNL     1     -11.752  13.323  66.007  1.00  0.00    -0.408 A  
HETATM    3  C   UNL     1     -12.257  13.852  64.795  1.00  0.00    -0.441 A  
HETATM    4  C   UNL     1     -12.123  13.160  63.594  1.00  0.00    -0.583 A  
HETATM    5  C   UNL     1     -11.480  11.937  63.582  1.00  0.00    -0.551 A  
HETATM    6  C   UNL     1     -11.008  11.391  64.780  1.00  0.00    -0.303 A  
HETATM    7  C   UNL     1     -11.155  12.040  66.023  1.00  0.00    -0.320 A  
ENDROOT
BRANCH   7   8
HETATM    8  N   UNL     1     -10.780  11.351  67.169  1.00  0.00    -0.236 NA 
HETATM    9  C   UNL     1      -9.485  10.674  67.257  1.00  0.00    -0.158 C  
HETATM   10  C   UNL     1      -8.947  10.709  68.700  1.00  0.00    -0.170 C  
HETATM   11  N   UNL     1      -9.875  10.156  69.715  1.00  0.00    -0.230 NA 
HETATM   12  C   UNL     1     -11.776  10.989  68.200  1.00  0.00    -0.202 C  
HETATM   13  C   UNL     1     -11.132  10.939  69.613  1.00  0.00    -0.266 C  
BRANCH  11  14
HETATM   14  C   UNL     1     -10.146   8.709  69.536  1.00  0.00    -0.203 C  
BRANCH  14  15
HETATM   15  C   UNL     1      -8.935   7.846  69.901  1.00  0.00    -0.146 C  
BRANCH  15  16
HETATM   16  C   UNL     1      -8.493   6.934  68.818  1.00  0.00    -0.121 A  
HETATM   17  N   UNL     1      -7.786   7.199  67.740  1.00  0.00    -0.112 NA 
HETATM   18  N   UNL     1      -7.638   6.029  67.023  1.00  0.00    -0.094 NA 
HETATM   19  C   UNL     1      -8.258   5.074  67.679  1.00  0.00    -0.105 A  
HETATM   20  C   UNL     1      -8.395   3.636  67.330  1.00  0.00    -0.096 C  
HETATM   21  C   UNL     1      -9.479   2.954  68.175  1.00  0.00    -0.220 C  
HETATM   22  C   UNL     1      -9.355   3.343  69.648  1.00  0.00    -0.241 C  
HETATM   23  C   UNL     1      -9.526   4.853  69.817  1.00  0.00    -0.154 C  
HETATM   24  N   UNL     1      -8.776   5.596  68.828  1.00  0.00    -0.107 NA 
ENDBRANCH  15  16
ENDBRANCH  14  15
ENDBRANCH  11  14
ENDBRANCH   7   8
TORSDOF 4
ENDMDL
MODEL      136
REMARK 921   NORMALIZED FREE ENERGY PREDICTED BY IDOCK:   -5.00 KCAL/MOL
REMARK 922        TOTAL FREE ENERGY PREDICTED BY IDOCK:   -6.43 KCAL/MOL
REMARK 923 INTER-LIGAND FREE ENERGY PREDICTED BY IDOCK:   -5.82 KCAL/MOL
REMARK 924 INTRA-LIGAND FREE ENERGY PREDICTED BY IDOCK:   -0.61 KCAL/MOL
REMARK 927      BINDING AFFINITY PREDICTED BY RF-SCORE:    0.00 PKD
ROOT
HETATM    1  C   UNL     1     -11.182   3.694  73.628  1.00  0.00    -0.278 C  
HETATM    2  C   UNL     1      -9.978   3.563  72.734  1.00  0.00    -0.218 A  
HETATM    3  C   UNL     1      -9.236   2.365  72.871  1.00  0.00    -0.107 A  
HETATM    4  C   UNL     1      -8.152   2.089  72.041  1.00  0.00    -0.049 A  
HETATM    5  C   UNL     1      -7.797   2.997  71.061  1.00  0.00    -0.047 A  
HETATM    6  C   UNL     1      -8.503   4.198  70.940  1.00  0.00    -0.101 A  
HETATM    7  C   UNL     1      -9.583   4.534  71.783  1.00  0.00    -0.160 A  
ENDROOT
BRANCH   7   8
HETATM    8  N   UNL     1     -10.125   5.808  71.674  1.00  0.00    -0.189 NA 
HETATM    9  C   UNL     1     -10.854   6.222  70.474  1.00  0.00    -0.288 C  
HETATM   10  C   UNL     1     -11.978   7.212  70.832  1.00  0.00    -0.334 C  
HETATM   11  N   UNL     1     -11.530   8.406  71.587  1.00  0.00    -0.270 NA 
HETATM   12  C   UNL     1      -9.714   6.891  72.594  1.00  0.00    -0.149 C  
HETATM   13  C   UNL     1     -10.868   7.907  72.819  1.00  0.00    -0.386 C  
BRANCH  11  14
HETATM   14  C   UNL     1     -10.607   9.274  70.816  1.00  0.00    -0.285 C  
BRANCH  14  15
HETATM   15  C   UNL     1     -11.357  10.212  69.865  1.00  0.00    -0.335 C  
BRANCH  15  16
HETATM   16  C   UNL     1     -10.972  10.064  68.441  1.00  0.00    -0.217 A  
HETATM   17  N   UNL     1     -10.436   9.032  67.823  1.00  0.00    -0.248 NA 
HETATM   18  N   UNL     1     -10.247   9.372  66.499  1.00  0.00    -0.256 NA 
HETATM   19  C   UNL     1     -10.671  10.605  66.336  1.00  0.00    -0.129 A  
HETATM   20  C   UNL     1     -10.685  11.433  65.102  1.00  0.00    -0.332 C  
HETATM   21  C   UNL     1     -10.936  12.912  65.423  1.00  0.00    -0.305 C  
HETATM   22  C   UNL     1     -12.076  13.074  66.429  1.00  0.00    -0.428 C  
HETATM   23  C   UNL     1     -11.730  12.373  67.743  1.00  0.00    -0.350 C  
HETATM   24  N   UNL     1     -11.166  11.059  67.523  1.00  0.00    -0.362 NA 
ENDBRANCH  15  16
ENDBRANCH  14  15
ENDBRANCH  11  14
ENDBRANCH   7   8
TORSDOF 4
ENDMDL
MODEL      137
REMARK 921   NORMALIZED FREE ENERGY PREDICTED BY IDOCK:   -4.98 KCAL/MOL
REMARK 922        TOTAL FREE ENERGY PREDICTED BY IDOCK:   -6.41 KCAL/MOL
REMARK 923 INTER-LIGAND FREE ENERGY PREDICTED BY IDOCK:   -5.86 KCAL/MOL
REMARK 924 INTRA-LIGAND FREE ENERGY PREDICTED BY IDOCK:   -0.54 KCAL/MOL
REMARK 927      BINDING AFFINITY PREDICTED BY RF-SCORE:    0.00 PKD
ROOT
HETATM    1  C   UNL     1      -8.082   5.539  68.199  1.00  0.00    -0.096 C  
HETATM    2  C   UNL     1      -8.893   5.528  69.467  1.00  0.00    -0.115 A  
HETATM    3  C   UNL     1      -9.045   4.266  70.091  1.00  0.00    -0.174 A  
HETATM    4  C   UNL     1      -9.700   4.140  71.313  1.00  0.00    -0.255 A  
HETATM    5  C   UNL     1     -10.206   5.267  71.933  1.00  0.00    -0.264 A  
HETATM    6  C   UNL     1     -10.090   6.513  71.309  1.00  0.00    -0.208 A  
HETATM    7  C   UNL     1      -9.468   6.681  70.054  1.00  0.00    -0.157 A  
ENDROOT
BRANCH   7   8
HETATM    8  N   UNL     1      -9.531   7.932  69.456  1.00  0.00    -0.160 NA 
HETATM    9  C   UNL     1      -8.540   8.966  69.757  1.00  0.00    -0.134 C  
HETATM   10  C   UNL     1      -8.284   9.853  68.523  1.00  0.00    -0.106 C  
HETATM   11  N   UNL     1      -9.501  10.472  67.947  1.00  0.00    -0.146 NA 
HETATM   12  C   UNL     1     -10.757   8.384  68.765  1.00  0.00    -0.051 C  
HETATM   13  C   UNL     1     -10.421   9.360  67.603  1.00  0.00    -0.268 C  
BRANCH  11  14
HETATM   14  C   UNL     1     -10.162  11.430  68.866  1.00  0.00    -0.168 C  
BRANCH  14  15
HETATM   15  C   UNL     1     -11.578  11.787  68.405  1.00  0.00    -0.380 C  
BRANCH  15  16
HETATM   16  C   UNL     1     -11.652  13.007  67.565  1.00  0.00    -0.356 A  
HETATM   17  N   UNL     1     -11.706  14.270  67.931  1.00  0.00    -0.342 NA 
HETATM   18  N   UNL     1     -11.777  15.047  66.792  1.00  0.00    -0.230 NA 
HETATM   19  C   UNL     1     -11.764  14.241  65.754  1.00  0.00    -0.359 A  
HETATM   20  C   UNL     1     -11.823  14.578  64.309  1.00  0.00    -0.368 C  
HETATM   21  C   UNL     1     -12.134  13.340  63.457  1.00  0.00    -0.550 C  
HETATM   22  C   UNL     1     -11.294  12.141  63.898  1.00  0.00    -0.501 C  
HETATM   23  C   UNL     1     -11.600  11.784  65.353  1.00  0.00    -0.125 C  
HETATM   24  N   UNL     1     -11.651  12.956  66.199  1.00  0.00    -0.352 NA 
ENDBRANCH  15  16
ENDBRANCH  14  15
ENDBRANCH  11  14
ENDBRANCH   7   8
TORSDOF 4
ENDMDL
MODEL      138
REMARK 921   NORMALIZED FREE ENERGY PREDICTED BY IDOCK:   -4.95 KCAL/MOL
REMARK 922        TOTAL FREE ENERGY PREDICTED BY IDOCK:   -6.37 KCAL/MOL
REMARK 923 INTER-LIGAND FREE ENERGY PREDICTED BY IDOCK:   -5.75 KCAL/MOL
REMARK 924 INTRA-LIGAND FREE ENERGY PREDICTED BY IDOCK:   -0.61 KCAL/MOL
REMARK 927      BINDING AFFINITY PREDICTED BY RF-SCORE:    0.00 PKD
ROOT
HETATM    1  C   UNL     1     -10.947   6.662  66.983  1.00  0.00    -0.463 C  
HETATM    2  C   UNL     1      -9.551   6.714  66.422  1.00  0.00    -0.147 A  
HETATM    3  C   UNL     1      -8.999   5.471  66.026  1.00  0.00    -0.154 A  
HETATM    4  C   UNL     1      -7.751   5.398  65.414  1.00  0.00    -0.092 A  
HETATM    5  C   UNL     1      -7.038   6.560  65.182  1.00  0.00    -0.060 A  
HETATM    6  C   UNL     1      -7.560   7.788  65.600  1.00  0.00    -0.085 A  
HETATM    7  C   UNL     1      -8.802   7.904  66.256  1.00  0.00    -0.159 A  
ENDROOT
BRANCH   7   8
HETATM    8  N   UNL     1      -9.164   9.147  66.756  1.00  0.00    -0.149 NA 
HETATM    9  C   UNL     1      -8.993   9.474  68.173  1.00  0.00    -0.123 C  
HETATM   10  C   UNL     1      -8.667  10.969  68.353  1.00  0.00    -0.150 C  
HETATM   11  N   UNL     1      -9.651  11.892  67.738  1.00  0.00    -0.185 NA 
HETATM   12  C   UNL     1     -10.029  10.059  65.977  1.00  0.00    -0.267 C  
HETATM   13  C   UNL     1      -9.713  11.546  66.295  1.00  0.00    -0.215 C  
BRANCH  11  14
HETATM   14  C   UNL     1     -10.998  11.807  68.352  1.00  0.00    -0.231 C  
BRANCH  14  15
HETATM   15  C   UNL     1     -11.888  12.987  67.953  1.00  0.00    -0.389 C  
BRANCH  15  16
HETATM   16  C   UNL     1     -11.514  14.272  68.592  1.00  0.00    -0.296 A  
HETATM   17  N   UNL     1     -11.527  14.607  69.865  1.00  0.00    -0.264 NA 
HETATM   18  N   UNL     1     -11.105  15.916  69.971  1.00  0.00    -0.325 NA 
HETATM   19  C   UNL     1     -10.842  16.354  68.760  1.00  0.00    -0.338 A  
HETATM   20  C   UNL     1     -10.361  17.693  68.334  1.00  0.00    -0.375 C  
HETATM   21  C   UNL     1     -10.518  17.891  66.821  1.00  0.00    -0.315 C  
HETATM   22  C   UNL     1     -10.041  16.659  66.051  1.00  0.00    -0.359 C  
HETATM   23  C   UNL     1     -10.867  15.434  66.441  1.00  0.00    -0.303 C  
HETATM   24  N   UNL     1     -11.053  15.340  67.872  1.00  0.00    -0.310 NA 
ENDBRANCH  15  16
ENDBRANCH  14  15
ENDBRANCH  11  14
ENDBRANCH   7   8
TORSDOF 4
ENDMDL
MODEL      139
REMARK 921   NORMALIZED FREE ENERGY PREDICTED BY IDOCK:   -4.94 KCAL/MOL
REMARK 922        TOTAL FREE ENERGY PREDICTED BY IDOCK:   -6.35 KCAL/MOL
REMARK 923 INTER-LIGAND FREE ENERGY PREDICTED BY IDOCK:   -5.85 KCAL/MOL
REMARK 924 INTRA-LIGAND FREE ENERGY PREDICTED BY IDOCK:   -0.50 KCAL/MOL
REMARK 927      BINDING AFFINITY PREDICTED BY RF-SCORE:    0.00 PKD
ROOT
HETATM    1  C   UNL     1     -11.028  18.994  67.291  1.00  0.00    -0.365 C  
HETATM    2  C   UNL     1      -9.638  18.691  67.781  1.00  0.00    -0.332 A  
HETATM    3  C   UNL     1      -8.846  19.814  68.124  1.00  0.00    -0.347 A  
HETATM    4  C   UNL     1      -7.575  19.661  68.670  1.00  0.00    -0.366 A  
HETATM    5  C   UNL     1      -7.076  18.390  68.888  1.00  0.00    -0.292 A  
HETATM    6  C   UNL     1      -7.837  17.275  68.521  1.00  0.00    -0.266 A  
HETATM    7  C   UNL     1      -9.113  17.385  67.931  1.00  0.00    -0.255 A  
ENDROOT
BRANCH   7   8
HETATM    8  N   UNL     1      -9.724  16.225  67.475  1.00  0.00    -0.232 NA 
HETATM    9  C   UNL     1     -10.669  15.485  68.313  1.00  0.00    -0.271 C  
HETATM   10  C   UNL     1     -11.759  14.820  67.451  1.00  0.00    -0.350 C  
HETATM   11  N   UNL     1     -11.241  13.939  66.377  1.00  0.00    -0.310 NA 
HETATM   12  C   UNL     1      -9.210  15.512  66.285  1.00  0.00    -0.329 C  
HETATM   13  C   UNL     1     -10.354  14.777  65.532  1.00  0.00    -0.364 C  
BRANCH  11  14
HETATM   14  C   UNL     1     -10.508  12.757  66.890  1.00  0.00    -0.240 C  
BRANCH  14  15
HETATM   15  C   UNL     1     -10.505  11.601  65.886  1.00  0.00    -0.300 C  
BRANCH  15  16
HETATM   16  C   UNL     1      -9.328  10.705  65.998  1.00  0.00    -0.186 A  
HETATM   17  N   UNL     1      -8.739  10.231  67.075  1.00  0.00    -0.129 NA 
HETATM   18  N   UNL     1      -7.674   9.449  66.676  1.00  0.00    -0.097 NA 
HETATM   19  C   UNL     1      -7.635   9.462  65.362  1.00  0.00    -0.100 A  
HETATM   20  C   UNL     1      -6.682   8.782  64.449  1.00  0.00    -0.071 C  
HETATM   21  C   UNL     1      -6.781   9.337  63.021  1.00  0.00    -0.093 C  
HETATM   22  C   UNL     1      -8.239   9.483  62.586  1.00  0.00    -0.150 C  
HETATM   23  C   UNL     1      -8.975  10.456  63.506  1.00  0.00    -0.233 C  
HETATM   24  N   UNL     1      -8.679  10.210  64.901  1.00  0.00    -0.169 NA 
ENDBRANCH  15  16
ENDBRANCH  14  15
ENDBRANCH  11  14
ENDBRANCH   7   8
TORSDOF 4
ENDMDL
MODEL      140
REMARK 921   NORMALIZED FREE ENERGY PREDICTED BY IDOCK:   -4.93 KCAL/MOL
REMARK 922        TOTAL FREE ENERGY PREDICTED BY IDOCK:   -6.35 KCAL/MOL
REMARK 923 INTER-LIGAND FREE ENERGY PREDICTED BY IDOCK:   -6.39 KCAL/MOL
REMARK 924 INTRA-LIGAND FREE ENERGY PREDICTED BY IDOCK:    0.04 KCAL/MOL
REMARK 927      BINDING AFFINITY PREDICTED BY RF-SCORE:    0.00 PKD
ROOT
HETATM    1  C   UNL     1      -9.125  11.621  68.238  1.00  0.00    -0.187 C  
HETATM    2  C   UNL     1     -10.000  12.638  67.555  1.00  0.00    -0.205 A  
HETATM    3  C   UNL     1     -11.137  12.124  66.886  1.00  0.00    -0.348 A  
HETATM    4  C   UNL     1     -12.068  12.970  66.290  1.00  0.00    -0.453 A  
HETATM    5  C   UNL     1     -11.883  14.339  66.356  1.00  0.00    -0.427 A  
HETATM    6  C   UNL     1     -10.745  14.855  66.984  1.00  0.00    -0.307 A  
HETATM    7  C   UNL     1      -9.759  14.033  67.568  1.00  0.00    -0.232 A  
ENDROOT
BRANCH   7   8
HETATM    8  N   UNL     1      -8.601  14.636  68.039  1.00  0.00    -0.155 NA 
HETATM    9  C   UNL     1      -8.450  14.986  69.453  1.00  0.00    -0.125 C  
HETATM   10  C   UNL     1      -6.980  14.855  69.894  1.00  0.00    -0.143 C  
HETATM   11  N   UNL     1      -6.020  15.634  69.076  1.00  0.00    -0.104 NA 
HETATM   12  C   UNL     1      -7.627  15.247  67.108  1.00  0.00    -0.189 C  
HETATM   13  C   UNL     1      -6.183  15.171  67.675  1.00  0.00    -0.120 C  
BRANCH  11  14
HETATM   14  C   UNL     1      -6.225  17.099  69.168  1.00  0.00    -0.212 C  
BRANCH  14  15
HETATM   15  C   UNL     1      -5.820  17.819  67.879  1.00  0.00    -0.151 C  
BRANCH  15  16
HETATM   16  C   UNL     1      -6.553  19.086  67.637  1.00  0.00    -0.203 A  
HETATM   17  N   UNL     1      -6.087  20.312  67.524  1.00  0.00    -0.199 NA 
HETATM   18  N   UNL     1      -7.155  21.162  67.315  1.00  0.00    -0.490 NA 
HETATM   19  C   UNL     1      -8.251  20.436  67.305  1.00  0.00    -0.336 A  
HETATM   20  C   UNL     1      -9.658  20.872  67.119  1.00  0.00    -0.362 C  
HETATM   21  C   UNL     1     -10.645  19.768  67.523  1.00  0.00    -0.544 C  
HETATM   22  C   UNL     1     -10.216  18.413  66.961  1.00  0.00    -0.402 C  
HETATM   23  C   UNL     1      -8.843  18.021  67.507  1.00  0.00    -0.252 C  
HETATM   24  N   UNL     1      -7.909  19.125  67.468  1.00  0.00    -0.243 NA 
ENDBRANCH  15  16
ENDBRANCH  14  15
ENDBRANCH  11  14
ENDBRANCH   7   8
TORSDOF 4
ENDMDL
MODEL      141
REMARK 921   NORMALIZED FREE ENERGY PREDICTED BY IDOCK:   -4.91 KCAL/MOL
REMARK 922        TOTAL FREE ENERGY PREDICTED BY IDOCK:   -6.32 KCAL/MOL
REMARK 923 INTER-LIGAND FREE ENERGY PREDICTED BY IDOCK:   -5.92 KCAL/MOL
REMARK 924 INTRA-LIGAND FREE ENERGY PREDICTED BY IDOCK:   -0.40 KCAL/MOL
REMARK 927      BINDING AFFINITY PREDICTED BY RF-SCORE:    0.00 PKD
ROOT
HETATM    1  C   UNL     1     -11.159  15.294  68.875  1.00  0.00    -0.269 C  
HETATM    2  C   UNL     1     -11.622  14.208  69.808  1.00  0.00    -0.351 A  
HETATM    3  C   UNL     1     -12.160  14.644  71.043  1.00  0.00    -0.393 A  
HETATM    4  C   UNL     1     -12.701  13.740  71.953  1.00  0.00    -0.347 A  
HETATM    5  C   UNL     1     -12.719  12.392  71.645  1.00  0.00    -0.299 A  
HETATM    6  C   UNL     1     -12.160  11.949  70.443  1.00  0.00    -0.421 A  
HETATM    7  C   UNL     1     -11.569  12.825  69.509  1.00  0.00    -0.276 A  
ENDROOT
BRANCH   7   8
HETATM    8  N   UNL     1     -10.917  12.272  68.415  1.00  0.00    -0.222 NA 
HETATM    9  C   UNL     1     -11.651  11.892  67.207  1.00  0.00    -0.293 C  
HETATM   10  C   UNL     1     -10.779  12.089  65.953  1.00  0.00    -0.275 C  
HETATM   11  N   UNL     1      -9.475  11.386  65.993  1.00  0.00    -0.217 NA 
HETATM   12  C   UNL     1      -9.543  11.740  68.537  1.00  0.00    -0.170 C  
HETATM   13  C   UNL     1      -8.764  11.877  67.200  1.00  0.00    -0.176 C  
BRANCH  11  14
HETATM   14  C   UNL     1      -9.606   9.909  66.031  1.00  0.00    -0.225 C  
BRANCH  14  15
HETATM   15  C   UNL     1      -8.364   9.235  66.620  1.00  0.00    -0.122 C  
BRANCH  15  16
HETATM   16  C   UNL     1      -8.573   7.822  67.019  1.00  0.00    -0.129 A  
HETATM   17  N   UNL     1      -8.034   6.727  66.527  1.00  0.00    -0.103 NA 
HETATM   18  N   UNL     1      -8.546   5.646  67.216  1.00  0.00    -0.110 NA 
HETATM   19  C   UNL     1      -9.389   6.105  68.115  1.00  0.00    -0.115 A  
HETATM   20  C   UNL     1     -10.202   5.352  69.104  1.00  0.00    -0.302 C  
HETATM   21  C   UNL     1     -11.299   6.234  69.716  1.00  0.00    -0.506 C  
HETATM   22  C   UNL     1     -10.748   7.605  70.109  1.00  0.00    -0.245 C  
HETATM   23  C   UNL     1     -10.208   8.335  68.879  1.00  0.00    -0.210 C  
HETATM   24  N   UNL     1      -9.405   7.468  68.045  1.00  0.00    -0.139 NA 
ENDBRANCH  15  16
ENDBRANCH  14  15
ENDBRANCH  11  14
ENDBRANCH   7   8
TORSDOF 4
ENDMDL
MODEL      142
REMARK 921   NORMALIZED FREE ENERGY PREDICTED BY IDOCK:   -4.89 KCAL/MOL
REMARK 922        TOTAL FREE ENERGY PREDICTED BY IDOCK:   -6.29 KCAL/MOL
REMARK 923 INTER-LIGAND FREE ENERGY PREDICTED BY IDOCK:   -5.98 KCAL/MOL
REMARK 924 INTRA-LIGAND FREE ENERGY PREDICTED BY IDOCK:   -0.31 KCAL/MOL
REMARK 927      BINDING AFFINITY PREDICTED BY RF-SCORE:    0.00 PKD
ROOT
HETATM    1  C   UNL     1      -6.777  13.487  68.288  1.00  0.00    -0.107 C  
HETATM    2  C   UNL     1      -7.352  14.674  67.563  1.00  0.00    -0.220 A  
HETATM    3  C   UNL     1      -6.488  15.788  67.421  1.00  0.00    -0.193 A  
HETATM    4  C   UNL     1      -6.874  16.912  66.695  1.00  0.00    -0.271 A  
HETATM    5  C   UNL     1      -8.120  16.941  66.097  1.00  0.00    -0.295 A  
HETATM    6  C   UNL     1      -8.992  15.860  66.260  1.00  0.00    -0.381 A  
HETATM    7  C   UNL     1      -8.657  14.719  67.017  1.00  0.00    -0.234 A  
ENDROOT
BRANCH   7   8
HETATM    8  N   UNL     1      -9.643  13.766  67.235  1.00  0.00    -0.230 NA 
HETATM    9  C   UNL     1     -10.646  13.940  68.288  1.00  0.00    -0.257 C  
HETATM   10  C   UNL     1     -11.990  13.314  67.870  1.00  0.00    -0.309 C  
HETATM   11  N   UNL     1     -11.910  11.886  67.482  1.00  0.00    -0.597 NA 
HETATM   12  C   UNL     1      -9.532  12.409  66.659  1.00  0.00    -0.232 C  
HETATM   13  C   UNL     1     -10.933  11.803  66.368  1.00  0.00    -0.294 C  
BRANCH  11  14
HETATM   14  C   UNL     1     -11.504  10.997  68.598  1.00  0.00    -0.308 C  
BRANCH  14  15
HETATM   15  C   UNL     1     -11.134   9.594  68.110  1.00  0.00    -0.109 C  
BRANCH  15  16
HETATM   16  C   UNL     1     -10.115   8.912  68.945  1.00  0.00    -0.197 A  
HETATM   17  N   UNL     1      -8.851   8.658  68.679  1.00  0.00    -0.141 NA 
HETATM   18  N   UNL     1      -8.308   7.991  69.759  1.00  0.00    -0.120 NA 
HETATM   19  C   UNL     1      -9.253   7.851  70.662  1.00  0.00    -0.157 A  
HETATM   20  C   UNL     1      -9.181   7.204  71.997  1.00  0.00    -0.146 C  
HETATM   21  C   UNL     1     -10.581   6.952  72.574  1.00  0.00    -0.251 C  
HETATM   22  C   UNL     1     -11.478   8.177  72.399  1.00  0.00    -0.462 C  
HETATM   23  C   UNL     1     -11.647   8.506  70.916  1.00  0.00    -0.263 C  
HETATM   24  N   UNL     1     -10.391   8.448  70.202  1.00  0.00    -0.206 NA 
ENDBRANCH  15  16
ENDBRANCH  14  15
ENDBRANCH  11  14
ENDBRANCH   7   8
TORSDOF 4
ENDMDL
MODEL      143
REMARK 921   NORMALIZED FREE ENERGY PREDICTED BY IDOCK:   -4.88 KCAL/MOL
REMARK 922        TOTAL FREE ENERGY PREDICTED BY IDOCK:   -6.28 KCAL/MOL
REMARK 923 INTER-LIGAND FREE ENERGY PREDICTED BY IDOCK:   -5.75 KCAL/MOL
REMARK 924 INTRA-LIGAND FREE ENERGY PREDICTED BY IDOCK:   -0.53 KCAL/MOL
REMARK 927      BINDING AFFINITY PREDICTED BY RF-SCORE:    0.00 PKD
ROOT
HETATM    1  C   UNL     1      -6.941   6.814  64.560  1.00  0.00    -0.058 C  
HETATM    2  C   UNL     1      -8.163   6.128  65.108  1.00  0.00    -0.141 A  
HETATM    3  C   UNL     1      -8.471   4.868  64.540  1.00  0.00    -0.144 A  
HETATM    4  C   UNL     1      -9.526   4.097  65.021  1.00  0.00    -0.173 A  
HETATM    5  C   UNL     1     -10.285   4.567  66.077  1.00  0.00    -0.288 A  
HETATM    6  C   UNL     1     -10.010   5.824  66.623  1.00  0.00    -0.212 A  
HETATM    7  C   UNL     1      -8.975   6.653  66.142  1.00  0.00    -0.139 A  
ENDROOT
BRANCH   7   8
HETATM    8  N   UNL     1      -8.875   7.939  66.657  1.00  0.00    -0.139 NA 
HETATM    9  C   UNL     1      -8.549   8.169  68.065  1.00  0.00    -0.129 C  
HETATM   10  C   UNL     1      -7.730   9.464  68.231  1.00  0.00    -0.083 C  
HETATM   11  N   UNL     1      -8.367  10.673  67.657  1.00  0.00    -0.114 NA 
HETATM   12  C   UNL     1      -9.411   9.100  65.913  1.00  0.00    -0.243 C  
HETATM   13  C   UNL     1      -8.598  10.388  66.218  1.00  0.00    -0.142 C  
BRANCH  11  14
HETATM   14  C   UNL     1      -9.638  11.040  68.326  1.00  0.00    -0.171 C  
BRANCH  14  15
HETATM   15  C   UNL     1      -9.973  12.524  68.151  1.00  0.00    -0.224 C  
BRANCH  15  16
HETATM   16  C   UNL     1     -10.935  12.802  67.057  1.00  0.00    -0.263 A  
HETATM   17  N   UNL     1     -11.890  12.038  66.571  1.00  0.00    -0.605 NA 
HETATM   18  N   UNL     1     -12.515  12.725  65.550  1.00  0.00    -0.623 NA 
HETATM   19  C   UNL     1     -11.928  13.895  65.434  1.00  0.00    -0.381 A  
HETATM   20  C   UNL     1     -12.223  15.000  64.486  1.00  0.00    -0.344 C  
HETATM   21  C   UNL     1     -11.089  16.033  64.457  1.00  0.00    -0.269 C  
HETATM   22  C   UNL     1     -10.625  16.383  65.871  1.00  0.00    -0.294 C  
HETATM   23  C   UNL     1     -10.092  15.138  66.580  1.00  0.00    -0.264 C  
HETATM   24  N   UNL     1     -10.955  13.994  66.387  1.00  0.00    -0.305 NA 
ENDBRANCH  15  16
ENDBRANCH  14  15
ENDBRANCH  11  14
ENDBRANCH   7   8
TORSDOF 4
ENDMDL
MODEL      144
REMARK 921   NORMALIZED FREE ENERGY PREDICTED BY IDOCK:   -4.88 KCAL/MOL
REMARK 922        TOTAL FREE ENERGY PREDICTED BY IDOCK:   -6.28 KCAL/MOL
REMARK 923 INTER-LIGAND FREE ENERGY PREDICTED BY IDOCK:   -7.01 KCAL/MOL
REMARK 924 INTRA-LIGAND FREE ENERGY PREDICTED BY IDOCK:    0.73 KCAL/MOL
REMARK 927      BINDING AFFINITY PREDICTED BY RF-SCORE:    0.00 PKD
ROOT
HETATM    1  C   UNL     1      -9.907  19.739  68.079  1.00  0.00    -0.533 C  
HETATM    2  C   UNL     1      -8.716  19.526  67.183  1.00  0.00    -0.347 A  
HETATM    3  C   UNL     1      -7.866  20.646  67.011  1.00  0.00    -0.307 A  
HETATM    4  C   UNL     1      -6.687  20.551  66.276  1.00  0.00    -0.288 A  
HETATM    5  C   UNL     1      -6.336  19.341  65.707  1.00  0.00    -0.251 A  
HETATM    6  C   UNL     1      -7.186  18.239  65.843  1.00  0.00    -0.270 A  
HETATM    7  C   UNL     1      -8.406  18.300  66.547  1.00  0.00    -0.266 A  
ENDROOT
BRANCH   7   8
HETATM    8  N   UNL     1      -9.243  17.193  66.503  1.00  0.00    -0.256 NA 
HETATM    9  C   UNL     1     -10.452  17.189  65.678  1.00  0.00    -0.197 C  
HETATM   10  C   UNL     1     -10.742  15.775  65.139  1.00  0.00    -0.435 C  
HETATM   11  N   UNL     1     -10.840  14.727  66.183  1.00  0.00    -0.314 NA 
HETATM   12  C   UNL     1      -9.141  16.121  67.516  1.00  0.00    -0.203 C  
HETATM   13  C   UNL     1      -9.554  14.745  66.925  1.00  0.00    -0.241 C  
BRANCH  11  14
HETATM   14  C   UNL     1     -11.979  14.928  67.111  1.00  0.00    -0.114 C  
BRANCH  14  15
HETATM   15  C   UNL     1     -11.896  14.008  68.332  1.00  0.00    -0.397 C  
BRANCH  15  16
HETATM   16  C   UNL     1     -11.451  14.688  69.573  1.00  0.00    -0.297 A  
HETATM   17  N   UNL     1     -10.262  15.157  69.887  1.00  0.00    -0.206 NA 
HETATM   18  N   UNL     1     -10.332  15.693  71.157  1.00  0.00     0.466 NA 
HETATM   19  C   UNL     1     -11.562  15.539  71.592  1.00  0.00    -0.430 A  
HETATM   20  C   UNL     1     -12.150  15.941  72.896  1.00  0.00    -0.612 C  
HETATM   21  C   UNL     1     -13.510  15.269  73.129  1.00  0.00    -0.518 C  
HETATM   22  C   UNL     1     -14.383  15.340  71.876  1.00  0.00    -0.691 C  
HETATM   23  C   UNL     1     -13.707  14.612  70.714  1.00  0.00     0.020 C  
HETATM   24  N   UNL     1     -12.302  14.944  70.612  1.00  0.00    -0.320 NA 
ENDBRANCH  15  16
ENDBRANCH  14  15
ENDBRANCH  11  14
ENDBRANCH   7   8
TORSDOF 4
ENDMDL
MODEL      145
REMARK 921   NORMALIZED FREE ENERGY PREDICTED BY IDOCK:   -4.86 KCAL/MOL
REMARK 922        TOTAL FREE ENERGY PREDICTED BY IDOCK:   -6.26 KCAL/MOL
REMARK 923 INTER-LIGAND FREE ENERGY PREDICTED BY IDOCK:   -5.88 KCAL/MOL
REMARK 924 INTRA-LIGAND FREE ENERGY PREDICTED BY IDOCK:   -0.38 KCAL/MOL
REMARK 927      BINDING AFFINITY PREDICTED BY RF-SCORE:    0.00 PKD
ROOT
HETATM    1  C   UNL     1     -11.129  16.207  69.503  1.00  0.00    -0.344 C  
HETATM    2  C   UNL     1     -10.214  16.629  68.385  1.00  0.00    -0.284 A  
HETATM    3  C   UNL     1      -9.804  17.985  68.402  1.00  0.00    -0.369 A  
HETATM    4  C   UNL     1      -8.891  18.474  67.471  1.00  0.00    -0.276 A  
HETATM    5  C   UNL     1      -8.370  17.621  66.516  1.00  0.00    -0.300 A  
HETATM    6  C   UNL     1      -8.795  16.290  66.470  1.00  0.00    -0.318 A  
HETATM    7  C   UNL     1      -9.745  15.762  67.369  1.00  0.00    -0.223 A  
ENDROOT
BRANCH   7   8
HETATM    8  N   UNL     1     -10.204  14.470  67.151  1.00  0.00    -0.258 NA 
HETATM    9  C   UNL     1      -9.505  13.312  67.710  1.00  0.00    -0.208 C  
HETATM   10  C   UNL     1     -10.500  12.189  68.060  1.00  0.00    -0.212 C  
HETATM   11  N   UNL     1     -11.365  11.761  66.935  1.00  0.00    -0.382 NA 
HETATM   12  C   UNL     1     -11.197  14.184  66.093  1.00  0.00    -0.326 C  
HETATM   13  C   UNL     1     -12.091  12.971  66.473  1.00  0.00    -0.341 C  
BRANCH  11  14
HETATM   14  C   UNL     1     -10.610  11.148  65.815  1.00  0.00    -0.227 C  
BRANCH  14  15
HETATM   15  C   UNL     1      -9.438  10.296  66.309  1.00  0.00    -0.223 C  
BRANCH  15  16
HETATM   16  C   UNL     1      -9.788   8.879  66.572  1.00  0.00    -0.274 A  
HETATM   17  N   UNL     1     -10.780   8.381  67.281  1.00  0.00    -0.241 NA 
HETATM   18  N   UNL     1     -10.688   7.005  67.245  1.00  0.00    -0.318 NA 
HETATM   19  C   UNL     1      -9.641   6.690  66.515  1.00  0.00    -0.140 A  
HETATM   20  C   UNL     1      -9.110   5.346  66.173  1.00  0.00    -0.154 C  
HETATM   21  C   UNL     1      -7.690   5.433  65.599  1.00  0.00    -0.091 C  
HETATM   22  C   UNL     1      -7.581   6.552  64.562  1.00  0.00    -0.101 C  
HETATM   23  C   UNL     1      -7.900   7.903  65.202  1.00  0.00    -0.114 C  
HETATM   24  N   UNL     1      -9.073   7.839  66.047  1.00  0.00    -0.156 NA 
ENDBRANCH  15  16
ENDBRANCH  14  15
ENDBRANCH  11  14
ENDBRANCH   7   8
TORSDOF 4
ENDMDL
MODEL      146
REMARK 921   NORMALIZED FREE ENERGY PREDICTED BY IDOCK:   -4.86 KCAL/MOL
REMARK 922        TOTAL FREE ENERGY PREDICTED BY IDOCK:   -6.26 KCAL/MOL
REMARK 923 INTER-LIGAND FREE ENERGY PREDICTED BY IDOCK:   -6.01 KCAL/MOL
REMARK 924 INTRA-LIGAND FREE ENERGY PREDICTED BY IDOCK:   -0.25 KCAL/MOL
REMARK 927      BINDING AFFINITY PREDICTED BY RF-SCORE:    0.00 PKD
ROOT
HETATM    1  C   UNL     1     -10.377  16.379  69.841  1.00  0.00    -0.129 C  
HETATM    2  C   UNL     1     -10.458  17.082  68.513  1.00  0.00    -0.373 A  
HETATM    3  C   UNL     1     -10.532  18.495  68.566  1.00  0.00    -0.207 A  
HETATM    4  C   UNL     1     -10.524  19.263  67.404  1.00  0.00    -0.564 A  
HETATM    5  C   UNL     1     -10.438  18.636  66.175  1.00  0.00    -0.473 A  
HETATM    6  C   UNL     1     -10.398  17.239  66.111  1.00  0.00    -0.320 A  
HETATM    7  C   UNL     1     -10.441  16.423  67.260  1.00  0.00    -0.303 A  
ENDROOT
BRANCH   7   8
HETATM    8  N   UNL     1     -10.540  15.050  67.082  1.00  0.00    -0.289 NA 
HETATM    9  C   UNL     1      -9.500  14.144  67.573  1.00  0.00    -0.210 C  
HETATM   10  C   UNL     1     -10.108  12.798  68.011  1.00  0.00    -0.230 C  
HETATM   11  N   UNL     1     -10.915  12.121  66.968  1.00  0.00    -0.257 NA 
HETATM   12  C   UNL     1     -11.504  14.474  66.120  1.00  0.00    -0.357 C  
HETATM   13  C   UNL     1     -11.987  13.070  66.578  1.00  0.00    -0.391 C  
BRANCH  11  14
HETATM   14  C   UNL     1     -10.122  11.714  65.783  1.00  0.00    -0.240 C  
BRANCH  14  15
HETATM   15  C   UNL     1     -10.142  10.199  65.569  1.00  0.00    -0.338 C  
BRANCH  15  16
HETATM   16  C   UNL     1      -9.389   9.746  64.373  1.00  0.00    -0.215 A  
HETATM   17  N   UNL     1      -9.432  10.200  63.139  1.00  0.00    -0.295 NA 
HETATM   18  N   UNL     1      -8.560   9.453  62.373  1.00  0.00    -0.195 NA 
HETATM   19  C   UNL     1      -8.002   8.557  63.158  1.00  0.00    -0.164 A  
HETATM   20  C   UNL     1      -6.999   7.516  62.821  1.00  0.00    -0.072 C  
HETATM   21  C   UNL     1      -6.880   6.469  63.937  1.00  0.00    -0.045 C  
HETATM   22  C   UNL     1      -6.815   7.135  65.312  1.00  0.00    -0.051 C  
HETATM   23  C   UNL     1      -8.087   7.941  65.574  1.00  0.00    -0.130 C  
HETATM   24  N   UNL     1      -8.471   8.734  64.427  1.00  0.00    -0.159 NA 
ENDBRANCH  15  16
ENDBRANCH  14  15
ENDBRANCH  11  14
ENDBRANCH   7   8
TORSDOF 4
ENDMDL
MODEL      147
REMARK 921   NORMALIZED FREE ENERGY PREDICTED BY IDOCK:   -4.83 KCAL/MOL
REMARK 922        TOTAL FREE ENERGY PREDICTED BY IDOCK:   -6.22 KCAL/MOL
REMARK 923 INTER-LIGAND FREE ENERGY PREDICTED BY IDOCK:   -5.73 KCAL/MOL
REMARK 924 INTRA-LIGAND FREE ENERGY PREDICTED BY IDOCK:   -0.49 KCAL/MOL
REMARK 927      BINDING AFFINITY PREDICTED BY RF-SCORE:    0.00 PKD
ROOT
HETATM    1  C   UNL     1      -6.820   5.309  67.055  1.00  0.00    -0.063 C  
HETATM    2  C   UNL     1      -8.115   5.090  66.320  1.00  0.00    -0.108 A  
HETATM    3  C   UNL     1      -8.052   4.215  65.208  1.00  0.00    -0.101 A  
HETATM    4  C   UNL     1      -9.199   3.865  64.500  1.00  0.00    -0.147 A  
HETATM    5  C   UNL     1     -10.422   4.376  64.891  1.00  0.00    -0.125 A  
HETATM    6  C   UNL     1     -10.490   5.267  65.966  1.00  0.00    -0.187 A  
HETATM    7  C   UNL     1      -9.350   5.677  66.688  1.00  0.00    -0.144 A  
ENDROOT
BRANCH   7   8
HETATM    8  N   UNL     1      -9.504   6.672  67.644  1.00  0.00    -0.125 NA 
HETATM    9  C   UNL     1      -9.765   6.342  69.046  1.00  0.00    -0.130 C  
HETATM   10  C   UNL     1      -9.122   7.384  69.981  1.00  0.00    -0.148 C  
HETATM   11  N   UNL     1      -9.523   8.785  69.709  1.00  0.00    -0.165 NA 
HETATM   12  C   UNL     1      -9.743   8.077  67.248  1.00  0.00    -0.177 C  
HETATM   13  C   UNL     1      -9.160   9.064  68.297  1.00  0.00    -0.133 C  
BRANCH  11  14
HETATM   14  C   UNL     1     -10.967   9.037  69.936  1.00  0.00    -0.193 C  
BRANCH  14  15
HETATM   15  C   UNL     1     -11.346  10.496  69.669  1.00  0.00    -0.345 C  
BRANCH  15  16
HETATM   16  C   UNL     1     -12.198  11.102  70.721  1.00  0.00    -0.385 A  
HETATM   17  N   UNL     1     -12.878  10.517  71.685  1.00  0.00    -0.448 NA 
HETATM   18  N   UNL     1     -13.530  11.494  72.408  1.00  0.00    -0.040 NA 
HETATM   19  C   UNL     1     -13.235  12.657  71.870  1.00  0.00    -0.403 A  
HETATM   20  C   UNL     1     -13.684  14.014  72.273  1.00  0.00    -0.646 C  
HETATM   21  C   UNL     1     -13.393  15.050  71.179  1.00  0.00    -0.510 C  
HETATM   22  C   UNL     1     -11.980  14.879  70.620  1.00  0.00    -0.363 C  
HETATM   23  C   UNL     1     -11.819  13.494  69.994  1.00  0.00    -0.301 C  
HETATM   24  N   UNL     1     -12.374  12.453  70.832  1.00  0.00    -0.346 NA 
ENDBRANCH  15  16
ENDBRANCH  14  15
ENDBRANCH  11  14
ENDBRANCH   7   8
TORSDOF 4
ENDMDL
MODEL      148
REMARK 921   NORMALIZED FREE ENERGY PREDICTED BY IDOCK:   -4.81 KCAL/MOL
REMARK 922        TOTAL FREE ENERGY PREDICTED BY IDOCK:   -6.20 KCAL/MOL
REMARK 923 INTER-LIGAND FREE ENERGY PREDICTED BY IDOCK:   -5.74 KCAL/MOL
REMARK 924 INTRA-LIGAND FREE ENERGY PREDICTED BY IDOCK:   -0.46 KCAL/MOL
REMARK 927      BINDING AFFINITY PREDICTED BY RF-SCORE:    0.00 PKD
ROOT
HETATM    1  C   UNL     1      -7.867  16.241  69.382  1.00  0.00    -0.081 C  
HETATM    2  C   UNL     1      -8.762  17.244  68.704  1.00  0.00    -0.268 A  
HETATM    3  C   UNL     1      -8.150  18.465  68.332  1.00  0.00    -0.327 A  
HETATM    4  C   UNL     1      -8.851  19.437  67.622  1.00  0.00    -0.355 A  
HETATM    5  C   UNL     1     -10.167  19.204  67.269  1.00  0.00    -0.487 A  
HETATM    6  C   UNL     1     -10.790  18.015  67.660  1.00  0.00    -0.257 A  
HETATM    7  C   UNL     1     -10.129  17.021  68.411  1.00  0.00    -0.302 A  
ENDROOT
BRANCH   7   8
HETATM    8  N   UNL     1     -10.876  15.945  68.870  1.00  0.00    -0.255 NA 
HETATM    9  C   UNL     1     -11.162  15.773  70.296  1.00  0.00    -0.366 C  
HETATM   10  C   UNL     1     -12.540  15.116  70.501  1.00  0.00    -0.380 C  
HETATM   11  N   UNL     1     -12.718  13.826  69.792  1.00  0.00    -0.030 NA 
HETATM   12  C   UNL     1     -11.125  14.768  68.009  1.00  0.00    -0.286 C  
HETATM   13  C   UNL     1     -12.484  14.097  68.352  1.00  0.00     0.252 C  
BRANCH  11  14
HETATM   14  C   UNL     1     -11.808  12.760  70.276  1.00  0.00    -0.212 C  
BRANCH  14  15
HETATM   15  C   UNL     1     -12.095  11.411  69.611  1.00  0.00    -0.373 C  
BRANCH  15  16
HETATM   16  C   UNL     1     -11.524  10.247  70.331  1.00  0.00    -0.335 A  
HETATM   17  N   UNL     1     -11.913   9.690  71.458  1.00  0.00    -0.384 NA 
HETATM   18  N   UNL     1     -11.062   8.639  71.737  1.00  0.00    -0.301 NA 
HETATM   19  C   UNL     1     -10.170   8.578  70.773  1.00  0.00    -0.198 A  
HETATM   20  C   UNL     1      -9.039   7.629  70.606  1.00  0.00    -0.158 C  
HETATM   21  C   UNL     1      -8.048   8.120  69.542  1.00  0.00    -0.119 C  
HETATM   22  C   UNL     1      -8.780   8.619  68.296  1.00  0.00    -0.142 C  
HETATM   23  C   UNL     1      -9.692   9.794  68.648  1.00  0.00    -0.155 C  
HETATM   24  N   UNL     1     -10.450   9.548  69.855  1.00  0.00    -0.223 NA 
ENDBRANCH  15  16
ENDBRANCH  14  15
ENDBRANCH  11  14
ENDBRANCH   7   8
TORSDOF 4
ENDMDL
MODEL      149
REMARK 921   NORMALIZED FREE ENERGY PREDICTED BY IDOCK:   -4.78 KCAL/MOL
REMARK 922        TOTAL FREE ENERGY PREDICTED BY IDOCK:   -6.15 KCAL/MOL
REMARK 923 INTER-LIGAND FREE ENERGY PREDICTED BY IDOCK:   -5.83 KCAL/MOL
REMARK 924 INTRA-LIGAND FREE ENERGY PREDICTED BY IDOCK:   -0.33 KCAL/MOL
REMARK 927      BINDING AFFINITY PREDICTED BY RF-SCORE:    0.00 PKD
ROOT
HETATM    1  C   UNL     1      -7.283  17.750  68.640  1.00  0.00    -0.260 C  
HETATM    2  C   UNL     1      -8.553  18.336  68.084  1.00  0.00    -0.290 A  
HETATM    3  C   UNL     1      -8.707  19.735  68.242  1.00  0.00    -0.323 A  
HETATM    4  C   UNL     1      -9.797  20.407  67.695  1.00  0.00    -0.538 A  
HETATM    5  C   UNL     1     -10.744  19.699  66.980  1.00  0.00    -0.575 A  
HETATM    6  C   UNL     1     -10.619  18.312  66.848  1.00  0.00    -0.356 A  
HETATM    7  C   UNL     1      -9.551  17.587  67.417  1.00  0.00    -0.265 A  
ENDROOT
BRANCH   7   8
HETATM    8  N   UNL     1      -9.594  16.201  67.349  1.00  0.00    -0.228 NA 
HETATM    9  C   UNL     1      -9.561  15.381  68.562  1.00  0.00    -0.201 C  
HETATM   10  C   UNL     1     -10.387  14.095  68.375  1.00  0.00    -0.249 C  
HETATM   11  N   UNL     1      -9.995  13.277  67.203  1.00  0.00    -0.234 NA 
HETATM   12  C   UNL     1      -9.340  15.492  66.076  1.00  0.00    -0.344 C  
HETATM   13  C   UNL     1     -10.125  14.153  66.011  1.00  0.00    -0.316 C  
BRANCH  11  14
HETATM   14  C   UNL     1      -8.619  12.732  67.301  1.00  0.00    -0.197 C  
BRANCH  14  15
HETATM   15  C   UNL     1      -8.600  11.202  67.243  1.00  0.00    -0.140 C  
BRANCH  15  16
HETATM   16  C   UNL     1      -8.693  10.647  65.871  1.00  0.00    -0.177 A  
HETATM   17  N   UNL     1      -9.730  10.588  65.063  1.00  0.00    -0.265 NA 
HETATM   18  N   UNL     1      -9.333   9.971  63.894  1.00  0.00    -0.277 NA 
HETATM   19  C   UNL     1      -8.060   9.666  64.013  1.00  0.00    -0.152 A  
HETATM   20  C   UNL     1      -7.165   8.991  63.038  1.00  0.00    -0.091 C  
HETATM   21  C   UNL     1      -5.865   8.521  63.702  1.00  0.00    -0.072 C  
HETATM   22  C   UNL     1      -5.281   9.609  64.604  1.00  0.00    -0.055 C  
HETATM   23  C   UNL     1      -6.264   9.959  65.721  1.00  0.00    -0.082 C  
HETATM   24  N   UNL     1      -7.615  10.107  65.226  1.00  0.00    -0.141 NA 
ENDBRANCH  15  16
ENDBRANCH  14  15
ENDBRANCH  11  14
ENDBRANCH   7   8
TORSDOF 4
ENDMDL
MODEL      150
REMARK 921   NORMALIZED FREE ENERGY PREDICTED BY IDOCK:   -4.77 KCAL/MOL
REMARK 922        TOTAL FREE ENERGY PREDICTED BY IDOCK:   -6.15 KCAL/MOL
REMARK 923 INTER-LIGAND FREE ENERGY PREDICTED BY IDOCK:   -5.48 KCAL/MOL
REMARK 924 INTRA-LIGAND FREE ENERGY PREDICTED BY IDOCK:   -0.67 KCAL/MOL
REMARK 927      BINDING AFFINITY PREDICTED BY RF-SCORE:    0.00 PKD
ROOT
HETATM    1  C   UNL     1      -6.556  11.850  68.877  1.00  0.00    -0.087 C  
HETATM    2  C   UNL     1      -6.894  10.384  68.913  1.00  0.00    -0.061 A  
HETATM    3  C   UNL     1      -5.877   9.528  69.402  1.00  0.00    -0.034 A  
HETATM    4  C   UNL     1      -6.098   8.163  69.564  1.00  0.00    -0.033 A  
HETATM    5  C   UNL     1      -7.334   7.632  69.247  1.00  0.00    -0.088 A  
HETATM    6  C   UNL     1      -8.334   8.463  68.731  1.00  0.00    -0.116 A  
HETATM    7  C   UNL     1      -8.141   9.843  68.517  1.00  0.00    -0.101 A  
ENDROOT
BRANCH   7   8
HETATM    8  N   UNL     1      -9.145  10.551  67.870  1.00  0.00    -0.135 NA 
HETATM    9  C   UNL     1      -9.090  10.799  66.428  1.00  0.00    -0.171 C  
HETATM   10  C   UNL     1     -10.507  10.823  65.823  1.00  0.00    -0.188 C  
HETATM   11  N   UNL     1     -11.433  11.786  66.465  1.00  0.00    -0.456 NA 
HETATM   12  C   UNL     1     -10.120  11.359  68.633  1.00  0.00    -0.210 C  
HETATM   13  C   UNL     1     -11.491  11.425  67.904  1.00  0.00    -0.291 C  
BRANCH  11  14
HETATM   14  C   UNL     1     -11.017  13.200  66.300  1.00  0.00    -0.280 C  
BRANCH  14  15
HETATM   15  C   UNL     1     -12.076  14.177  66.818  1.00  0.00    -0.474 C  
BRANCH  15  16
HETATM   16  C   UNL     1     -11.590  15.087  67.884  1.00  0.00    -0.333 A  
HETATM   17  N   UNL     1     -11.616  14.932  69.190  1.00  0.00    -0.290 NA 
HETATM   18  N   UNL     1     -11.059  16.054  69.769  1.00  0.00    -0.312 NA 
HETATM   19  C   UNL     1     -10.705  16.872  68.803  1.00  0.00    -0.333 A  
HETATM   20  C   UNL     1     -10.066  18.210  68.898  1.00  0.00    -0.354 C  
HETATM   21  C   UNL     1     -10.144  18.964  67.563  1.00  0.00    -0.424 C  
HETATM   22  C   UNL     1      -9.773  18.053  66.393  1.00  0.00    -0.324 C  
HETATM   23  C   UNL     1     -10.741  16.873  66.308  1.00  0.00    -0.096 C  
HETATM   24  N   UNL     1     -10.990  16.284  67.605  1.00  0.00    -0.288 NA 
ENDBRANCH  15  16
ENDBRANCH  14  15
ENDBRANCH  11  14
ENDBRANCH   7   8
TORSDOF 4
ENDMDL
MODEL      151
REMARK 921   NORMALIZED FREE ENERGY PREDICTED BY IDOCK:   -4.77 KCAL/MOL
REMARK 922        TOTAL FREE ENERGY PREDICTED BY IDOCK:   -6.14 KCAL/MOL
REMARK 923 INTER-LIGAND FREE ENERGY PREDICTED BY IDOCK:   -5.55 KCAL/MOL
REMARK 924 INTRA-LIGAND FREE ENERGY PREDICTED BY IDOCK:   -0.60 KCAL/MOL
REMARK 927      BINDING AFFINITY PREDICTED BY RF-SCORE:    0.00 PKD
ROOT
HETATM    1  C   UNL     1     -11.741  13.899  66.792  1.00  0.00    -0.423 C  
HETATM    2  C   UNL     1     -11.569  13.019  65.583  1.00  0.00    -0.391 A  
HETATM    3  C   UNL     1     -12.262  13.429  64.418  1.00  0.00    -0.444 A  
HETATM    4  C   UNL     1     -12.115  12.747  63.213  1.00  0.00    -0.524 A  
HETATM    5  C   UNL     1     -11.272  11.653  63.149  1.00  0.00    -0.180 A  
HETATM    6  C   UNL     1     -10.609  11.221  64.302  1.00  0.00    -0.422 A  
HETATM    7  C   UNL     1     -10.758  11.859  65.551  1.00  0.00    -0.283 A  
ENDROOT
BRANCH   7   8
HETATM    8  N   UNL     1     -10.170  11.269  66.661  1.00  0.00    -0.221 NA 
HETATM    9  C   UNL     1      -8.754  11.475  66.969  1.00  0.00    -0.169 C  
HETATM   10  C   UNL     1      -8.520  11.470  68.492  1.00  0.00    -0.143 C  
HETATM   11  N   UNL     1      -9.015  10.258  69.187  1.00  0.00    -0.171 NA 
HETATM   12  C   UNL     1     -10.838  10.161  67.378  1.00  0.00    -0.261 C  
HETATM   13  C   UNL     1     -10.466  10.160  68.886  1.00  0.00    -0.210 C  
BRANCH  11  14
HETATM   14  C   UNL     1      -8.313   9.019  68.777  1.00  0.00    -0.122 C  
BRANCH  14  15
HETATM   15  C   UNL     1      -7.595   8.348  69.951  1.00  0.00    -0.076 C  
BRANCH  15  16
HETATM   16  C   UNL     1      -7.990   6.936  70.175  1.00  0.00    -0.115 A  
HETATM   17  N   UNL     1      -7.498   5.836  69.645  1.00  0.00    -0.074 NA 
HETATM   18  N   UNL     1      -8.199   4.761  70.152  1.00  0.00    -0.068 NA 
HETATM   19  C   UNL     1      -9.106   5.227  70.982  1.00  0.00    -0.143 A  
HETATM   20  C   UNL     1     -10.112   4.482  71.781  1.00  0.00    -0.254 C  
HETATM   21  C   UNL     1     -11.190   5.420  72.340  1.00  0.00    -0.272 C  
HETATM   22  C   UNL     1     -10.568   6.684  72.935  1.00  0.00    -0.272 C  
HETATM   23  C   UNL     1      -9.801   7.456  71.862  1.00  0.00    -0.162 C  
HETATM   24  N   UNL     1      -8.981   6.584  71.049  1.00  0.00    -0.146 NA 
ENDBRANCH  15  16
ENDBRANCH  14  15
ENDBRANCH  11  14
ENDBRANCH   7   8
TORSDOF 4
ENDMDL
MODEL      152
REMARK 921   NORMALIZED FREE ENERGY PREDICTED BY IDOCK:   -4.76 KCAL/MOL
REMARK 922        TOTAL FREE ENERGY PREDICTED BY IDOCK:   -6.14 KCAL/MOL
REMARK 923 INTER-LIGAND FREE ENERGY PREDICTED BY IDOCK:   -5.67 KCAL/MOL
REMARK 924 INTRA-LIGAND FREE ENERGY PREDICTED BY IDOCK:   -0.47 KCAL/MOL
REMARK 927      BINDING AFFINITY PREDICTED BY RF-SCORE:    0.00 PKD
ROOT
HETATM    1  C   UNL     1      -9.988  14.314  67.411  1.00  0.00    -0.242 C  
HETATM    2  C   UNL     1     -10.802  13.854  66.231  1.00  0.00    -0.290 A  
HETATM    3  C   UNL     1     -11.328  14.880  65.408  1.00  0.00    -0.346 A  
HETATM    4  C   UNL     1     -12.025  14.581  64.240  1.00  0.00    -0.419 A  
HETATM    5  C   UNL     1     -12.202  13.260  63.872  1.00  0.00    -0.491 A  
HETATM    6  C   UNL     1     -11.716  12.241  64.696  1.00  0.00    -0.420 A  
HETATM    7  C   UNL     1     -11.037  12.497  65.905  1.00  0.00    -0.299 A  
ENDROOT
BRANCH   7   8
HETATM    8  N   UNL     1     -10.721  11.417  66.719  1.00  0.00    -0.259 NA 
HETATM    9  C   UNL     1      -9.943  10.287  66.210  1.00  0.00    -0.235 C  
HETATM   10  C   UNL     1      -9.060   9.686  67.320  1.00  0.00    -0.134 C  
HETATM   11  N   UNL     1      -9.798   9.282  68.541  1.00  0.00    -0.154 NA 
HETATM   12  C   UNL     1     -11.420  11.202  68.004  1.00  0.00    -0.293 C  
HETATM   13  C   UNL     1     -10.497  10.494  69.035  1.00  0.00    -0.217 C  
BRANCH  11  14
HETATM   14  C   UNL     1     -10.764   8.182  68.305  1.00  0.00    -0.016 C  
BRANCH  14  15
HETATM   15  C   UNL     1     -10.276   6.852  68.886  1.00  0.00    -0.184 C  
BRANCH  15  16
HETATM   16  C   UNL     1      -9.353   6.996  70.037  1.00  0.00    -0.158 A  
HETATM   17  N   UNL     1      -8.038   7.071  70.050  1.00  0.00    -0.125 NA 
HETATM   18  N   UNL     1      -7.625   7.187  71.362  1.00  0.00    -0.087 NA 
HETATM   19  C   UNL     1      -8.696   7.179  72.123  1.00  0.00    -0.121 A  
HETATM   20  C   UNL     1      -8.792   7.276  73.602  1.00  0.00    -0.223 C  
HETATM   21  C   UNL     1     -10.189   6.880  74.101  1.00  0.00    -0.331 C  
HETATM   22  C   UNL     1     -11.282   7.528  73.250  1.00  0.00    -0.201 C  
HETATM   23  C   UNL     1     -11.168   7.068  71.797  1.00  0.00    -0.246 C  
HETATM   24  N   UNL     1      -9.800   7.097  71.325  1.00  0.00    -0.178 NA 
ENDBRANCH  15  16
ENDBRANCH  14  15
ENDBRANCH  11  14
ENDBRANCH   7   8
TORSDOF 4
ENDMDL
MODEL      153
REMARK 921   NORMALIZED FREE ENERGY PREDICTED BY IDOCK:   -4.75 KCAL/MOL
REMARK 922        TOTAL FREE ENERGY PREDICTED BY IDOCK:   -6.12 KCAL/MOL
REMARK 923 INTER-LIGAND FREE ENERGY PREDICTED BY IDOCK:   -5.73 KCAL/MOL
REMARK 924 INTRA-LIGAND FREE ENERGY PREDICTED BY IDOCK:   -0.39 KCAL/MOL
REMARK 927      BINDING AFFINITY PREDICTED BY RF-SCORE:    0.00 PKD
ROOT
HETATM    1  C   UNL     1     -11.764  12.441  66.172  1.00  0.00    -0.460 C  
HETATM    2  C   UNL     1     -11.480  13.545  67.155  1.00  0.00    -0.368 A  
HETATM    3  C   UNL     1     -11.283  14.832  66.599  1.00  0.00    -0.346 A  
HETATM    4  C   UNL     1     -11.098  15.948  67.410  1.00  0.00    -0.207 A  
HETATM    5  C   UNL     1     -11.113  15.800  68.785  1.00  0.00    -0.321 A  
HETATM    6  C   UNL     1     -11.274  14.528  69.343  1.00  0.00    -0.312 A  
HETATM    7  C   UNL     1     -11.427  13.366  68.559  1.00  0.00    -0.310 A  
ENDROOT
BRANCH   7   8
HETATM    8  N   UNL     1     -11.436  12.138  69.206  1.00  0.00    -0.287 NA 
HETATM    9  C   UNL     1     -12.280  11.905  70.378  1.00  0.00    -0.314 C  
HETATM   10  C   UNL     1     -12.760  10.442  70.424  1.00  0.00    -0.218 C  
HETATM   11  N   UNL     1     -11.673   9.435  70.378  1.00  0.00    -0.200 NA 
HETATM   12  C   UNL     1     -10.374  11.139  68.958  1.00  0.00    -0.194 C  
HETATM   13  C   UNL     1     -10.911   9.691  69.129  1.00  0.00    -0.190 C  
BRANCH  11  14
HETATM   14  C   UNL     1     -10.775   9.488  71.556  1.00  0.00    -0.198 C  
BRANCH  14  15
HETATM   15  C   UNL     1     -11.054   8.352  72.544  1.00  0.00    -0.397 C  
BRANCH  15  16
HETATM   16  C   UNL     1      -9.885   7.478  72.808  1.00  0.00    -0.208 A  
HETATM   17  N   UNL     1      -8.908   7.629  73.677  1.00  0.00    -0.217 NA 
HETATM   18  N   UNL     1      -8.042   6.563  73.545  1.00  0.00    -0.111 NA 
HETATM   19  C   UNL     1      -8.509   5.782  72.596  1.00  0.00    -0.120 A  
HETATM   20  C   UNL     1      -7.947   4.510  72.071  1.00  0.00    -0.099 C  
HETATM   21  C   UNL     1      -8.607   4.111  70.745  1.00  0.00    -0.107 C  
HETATM   22  C   UNL     1     -10.127   4.269  70.815  1.00  0.00    -0.154 C  
HETATM   23  C   UNL     1     -10.498   5.726  71.090  1.00  0.00    -0.239 C  
HETATM   24  N   UNL     1      -9.682   6.305  72.135  1.00  0.00    -0.154 NA 
ENDBRANCH  15  16
ENDBRANCH  14  15
ENDBRANCH  11  14
ENDBRANCH   7   8
TORSDOF 4
ENDMDL
MODEL      154
REMARK 921   NORMALIZED FREE ENERGY PREDICTED BY IDOCK:   -4.75 KCAL/MOL
REMARK 922        TOTAL FREE ENERGY PREDICTED BY IDOCK:   -6.12 KCAL/MOL
REMARK 923 INTER-LIGAND FREE ENERGY PREDICTED BY IDOCK:   -6.18 KCAL/MOL
REMARK 924 INTRA-LIGAND FREE ENERGY PREDICTED BY IDOCK:    0.06 KCAL/MOL
REMARK 927      BINDING AFFINITY PREDICTED BY RF-SCORE:    0.00 PKD
ROOT
HETATM    1  C   UNL     1     -12.340  12.306  64.628  1.00  0.00    -0.449 C  
HETATM    2  C   UNL     1     -11.581  13.577  64.899  1.00  0.00    -0.355 A  
HETATM    3  C   UNL     1     -11.979  14.707  64.144  1.00  0.00    -0.316 A  
HETATM    4  C   UNL     1     -11.412  15.959  64.365  1.00  0.00    -0.268 A  
HETATM    5  C   UNL     1     -10.445  16.105  65.341  1.00  0.00    -0.396 A  
HETATM    6  C   UNL     1     -10.020  14.988  66.069  1.00  0.00    -0.334 A  
HETATM    7  C   UNL     1     -10.541  13.696  65.853  1.00  0.00    -0.289 A  
ENDROOT
BRANCH   7   8
HETATM    8  N   UNL     1      -9.954  12.633  66.525  1.00  0.00    -0.245 NA 
HETATM    9  C   UNL     1     -10.764  11.559  67.102  1.00  0.00    -0.254 C  
HETATM   10  C   UNL     1     -10.012  10.216  67.045  1.00  0.00    -0.199 C  
HETATM   11  N   UNL     1      -8.673  10.234  67.680  1.00  0.00    -0.122 NA 
HETATM   12  C   UNL     1      -8.547  12.703  66.976  1.00  0.00    -0.181 C  
HETATM   13  C   UNL     1      -7.891  11.294  66.995  1.00  0.00    -0.150 C  
BRANCH  11  14
HETATM   14  C   UNL     1      -8.720  10.484  69.141  1.00  0.00    -0.147 C  
BRANCH  14  15
HETATM   15  C   UNL     1      -9.437   9.360  69.895  1.00  0.00    -0.235 C  
BRANCH  15  16
HETATM   16  C   UNL     1     -10.810   9.707  70.336  1.00  0.00    -0.295 A  
HETATM   17  N   UNL     1     -11.439  10.862  70.277  1.00  0.00    -0.311 NA 
HETATM   18  N   UNL     1     -12.697  10.697  70.821  1.00  0.00    -0.371 NA 
HETATM   19  C   UNL     1     -12.809   9.444  71.201  1.00  0.00    -0.251 A  
HETATM   20  C   UNL     1     -13.961   8.762  71.844  1.00  0.00    -0.493 C  
HETATM   21  C   UNL     1     -13.553   7.405  72.433  1.00  0.00     0.241 C  
HETATM   22  C   UNL     1     -12.687   6.616  71.451  1.00  0.00    -0.211 C  
HETATM   23  C   UNL     1     -11.403   7.383  71.137  1.00  0.00    -0.268 C  
HETATM   24  N   UNL     1     -11.658   8.784  70.880  1.00  0.00    -0.282 NA 
ENDBRANCH  15  16
ENDBRANCH  14  15
ENDBRANCH  11  14
ENDBRANCH   7   8
TORSDOF 4
ENDMDL
MODEL      155
REMARK 921   NORMALIZED FREE ENERGY PREDICTED BY IDOCK:   -4.73 KCAL/MOL
REMARK 922        TOTAL FREE ENERGY PREDICTED BY IDOCK:   -6.10 KCAL/MOL
REMARK 923 INTER-LIGAND FREE ENERGY PREDICTED BY IDOCK:   -5.68 KCAL/MOL
REMARK 924 INTRA-LIGAND FREE ENERGY PREDICTED BY IDOCK:   -0.42 KCAL/MOL
REMARK 927      BINDING AFFINITY PREDICTED BY RF-SCORE:    0.00 PKD
ROOT
HETATM    1  C   UNL     1      -7.232  15.524  67.291  1.00  0.00    -0.242 C  
HETATM    2  C   UNL     1      -8.374  16.424  67.681  1.00  0.00    -0.176 A  
HETATM    3  C   UNL     1      -8.016  17.727  68.102  1.00  0.00    -0.263 A  
HETATM    4  C   UNL     1      -8.986  18.679  68.407  1.00  0.00    -0.356 A  
HETATM    5  C   UNL     1     -10.323  18.349  68.291  1.00  0.00    -0.384 A  
HETATM    6  C   UNL     1     -10.686  17.054  67.908  1.00  0.00    -0.348 A  
HETATM    7  C   UNL     1      -9.738  16.049  67.627  1.00  0.00    -0.224 A  
ENDROOT
BRANCH   7   8
HETATM    8  N   UNL     1     -10.200  14.760  67.395  1.00  0.00    -0.236 NA 
HETATM    9  C   UNL     1     -10.056  13.710  68.404  1.00  0.00    -0.241 C  
HETATM   10  C   UNL     1     -11.238  12.724  68.339  1.00  0.00    -0.278 C  
HETATM   11  N   UNL     1     -11.460  12.115  67.006  1.00  0.00    -0.367 NA 
HETATM   12  C   UNL     1     -10.545  14.310  66.029  1.00  0.00    -0.300 C  
HETATM   13  C   UNL     1     -11.669  13.237  66.057  1.00  0.00    -0.368 C  
BRANCH  11  14
HETATM   14  C   UNL     1     -10.336  11.258  66.559  1.00  0.00    -0.240 C  
BRANCH  14  15
HETATM   15  C   UNL     1     -10.761   9.797  66.383  1.00  0.00    -0.013 C  
BRANCH  15  16
HETATM   16  C   UNL     1      -9.868   8.822  67.056  1.00  0.00    -0.216 A  
HETATM   17  N   UNL     1      -8.979   8.005  66.532  1.00  0.00    -0.148 NA 
HETATM   18  N   UNL     1      -8.402   7.281  67.556  1.00  0.00    -0.116 NA 
HETATM   19  C   UNL     1      -8.952   7.671  68.684  1.00  0.00    -0.133 A  
HETATM   20  C   UNL     1      -8.683   7.201  70.067  1.00  0.00    -0.141 C  
HETATM   21  C   UNL     1      -9.778   7.661  71.039  1.00  0.00    -0.169 C  
HETATM   22  C   UNL     1     -10.128   9.133  70.819  1.00  0.00    -0.333 C  
HETATM   23  C   UNL     1     -10.655   9.348  69.401  1.00  0.00    -0.221 C  
HETATM   24  N   UNL     1      -9.851   8.662  68.414  1.00  0.00    -0.167 NA 
ENDBRANCH  15  16
ENDBRANCH  14  15
ENDBRANCH  11  14
ENDBRANCH   7   8
TORSDOF 4
ENDMDL
MODEL      156
REMARK 921   NORMALIZED FREE ENERGY PREDICTED BY IDOCK:   -4.73 KCAL/MOL
REMARK 922        TOTAL FREE ENERGY PREDICTED BY IDOCK:   -6.09 KCAL/MOL
REMARK 923 INTER-LIGAND FREE ENERGY PREDICTED BY IDOCK:   -5.92 KCAL/MOL
REMARK 924 INTRA-LIGAND FREE ENERGY PREDICTED BY IDOCK:   -0.17 KCAL/MOL
REMARK 927      BINDING AFFINITY PREDICTED BY RF-SCORE:    0.00 PKD
ROOT
HETATM    1  C   UNL     1     -12.039  13.438  67.185  1.00  0.00    -0.367 C  
HETATM    2  C   UNL     1     -11.730  12.719  65.899  1.00  0.00    -0.464 A  
HETATM    3  C   UNL     1     -12.577  13.019  64.805  1.00  0.00    -0.460 A  
HETATM    4  C   UNL     1     -12.340  12.484  63.542  1.00  0.00    -0.623 A  
HETATM    5  C   UNL     1     -11.256  11.648  63.349  1.00  0.00    -0.401 A  
HETATM    6  C   UNL     1     -10.434  11.319  64.431  1.00  0.00    -0.407 A  
HETATM    7  C   UNL     1     -10.658  11.809  65.734  1.00  0.00    -0.268 A  
ENDROOT
BRANCH   7   8
HETATM    8  N   UNL     1      -9.871  11.311  66.763  1.00  0.00    -0.196 NA 
HETATM    9  C   UNL     1      -8.434  11.585  66.820  1.00  0.00    -0.168 C  
HETATM   10  C   UNL     1      -7.954  11.685  68.281  1.00  0.00    -0.143 C  
HETATM   11  N   UNL     1      -8.276  10.504  69.117  1.00  0.00    -0.148 NA 
HETATM   12  C   UNL     1     -10.364  10.229  67.644  1.00  0.00    -0.220 C  
HETATM   13  C   UNL     1      -9.750  10.337  69.067  1.00  0.00    -0.205 C  
BRANCH  11  14
HETATM   14  C   UNL     1      -7.596   9.265  68.668  1.00  0.00    -0.081 C  
BRANCH  14  15
HETATM   15  C   UNL     1      -7.890   8.079  69.591  1.00  0.00    -0.104 C  
BRANCH  15  16
HETATM   16  C   UNL     1      -8.990   7.203  69.119  1.00  0.00    -0.138 A  
HETATM   17  N   UNL     1     -10.083   6.823  69.746  1.00  0.00    -0.180 NA 
HETATM   18  N   UNL     1     -10.800   5.997  68.904  1.00  0.00    -0.317 NA 
HETATM   19  C   UNL     1     -10.129   5.890  67.779  1.00  0.00    -0.159 A  
HETATM   20  C   UNL     1     -10.470   5.117  66.558  1.00  0.00    -0.346 C  
HETATM   21  C   UNL     1      -9.261   4.986  65.621  1.00  0.00    -0.161 C  
HETATM   22  C   UNL     1      -8.536   6.322  65.466  1.00  0.00    -0.145 C  
HETATM   23  C   UNL     1      -8.015   6.806  66.819  1.00  0.00    -0.108 C  
HETATM   24  N   UNL     1      -9.006   6.662  67.863  1.00  0.00    -0.114 NA 
ENDBRANCH  15  16
ENDBRANCH  14  15
ENDBRANCH  11  14
ENDBRANCH   7   8
TORSDOF 4
ENDMDL
MODEL      157
REMARK 921   NORMALIZED FREE ENERGY PREDICTED BY IDOCK:   -4.72 KCAL/MOL
REMARK 922        TOTAL FREE ENERGY PREDICTED BY IDOCK:   -6.08 KCAL/MOL
REMARK 923 INTER-LIGAND FREE ENERGY PREDICTED BY IDOCK:   -5.51 KCAL/MOL
REMARK 924 INTRA-LIGAND FREE ENERGY PREDICTED BY IDOCK:   -0.58 KCAL/MOL
REMARK 927      BINDING AFFINITY PREDICTED BY RF-SCORE:    0.00 PKD
ROOT
HETATM    1  C   UNL     1     -10.079   7.492  67.060  1.00  0.00    -0.332 C  
HETATM    2  C   UNL     1      -8.777   8.248  67.021  1.00  0.00    -0.132 A  
HETATM    3  C   UNL     1      -7.646   7.507  66.601  1.00  0.00    -0.097 A  
HETATM    4  C   UNL     1      -6.404   8.116  66.442  1.00  0.00    -0.050 A  
HETATM    5  C   UNL     1      -6.272   9.469  66.693  1.00  0.00    -0.065 A  
HETATM    6  C   UNL     1      -7.376  10.201  67.141  1.00  0.00    -0.091 A  
HETATM    7  C   UNL     1      -8.642   9.618  67.350  1.00  0.00    -0.125 A  
ENDROOT
BRANCH   7   8
HETATM    8  N   UNL     1      -9.633  10.398  67.930  1.00  0.00    -0.142 NA 
HETATM    9  C   UNL     1     -10.189  11.560  67.234  1.00  0.00    -0.202 C  
HETATM   10  C   UNL     1     -11.674  11.753  67.593  1.00  0.00    -0.250 C  
HETATM   11  N   UNL     1     -11.948  11.859  69.046  1.00  0.00    -0.290 NA 
HETATM   12  C   UNL     1      -9.929  10.302  69.376  1.00  0.00    -0.233 C  
HETATM   13  C   UNL     1     -11.423  10.617  69.667  1.00  0.00    -0.291 C  
BRANCH  11  14
HETATM   14  C   UNL     1     -11.335  13.054  69.673  1.00  0.00    -0.106 C  
BRANCH  14  15
HETATM   15  C   UNL     1     -12.234  14.288  69.561  1.00  0.00    -0.341 C  
BRANCH  15  16
HETATM   16  C   UNL     1     -11.506  15.542  69.247  1.00  0.00    -0.340 A  
HETATM   17  N   UNL     1     -11.093  16.493  70.059  1.00  0.00    -0.303 NA 
HETATM   18  N   UNL     1     -10.473  17.467  69.302  1.00  0.00    -0.283 NA 
HETATM   19  C   UNL     1     -10.521  17.090  68.044  1.00  0.00    -0.353 A  
HETATM   20  C   UNL     1      -9.999  17.785  66.839  1.00  0.00    -0.332 C  
HETATM   21  C   UNL     1     -10.568  17.177  65.550  1.00  0.00    -0.160 C  
HETATM   22  C   UNL     1     -10.523  15.650  65.594  1.00  0.00    -0.402 C  
HETATM   23  C   UNL     1     -11.365  15.125  66.757  1.00  0.00    -0.248 C  
HETATM   24  N   UNL     1     -11.130  15.871  67.975  1.00  0.00    -0.338 NA 
ENDBRANCH  15  16
ENDBRANCH  14  15
ENDBRANCH  11  14
ENDBRANCH   7   8
TORSDOF 4
ENDMDL
MODEL      158
REMARK 921   NORMALIZED FREE ENERGY PREDICTED BY IDOCK:   -4.70 KCAL/MOL
REMARK 922        TOTAL FREE ENERGY PREDICTED BY IDOCK:   -6.05 KCAL/MOL
REMARK 923 INTER-LIGAND FREE ENERGY PREDICTED BY IDOCK:   -5.51 KCAL/MOL
REMARK 924 INTRA-LIGAND FREE ENERGY PREDICTED BY IDOCK:   -0.54 KCAL/MOL
REMARK 927      BINDING AFFINITY PREDICTED BY RF-SCORE:    0.00 PKD
ROOT
HETATM    1  C   UNL     1     -10.275   7.899  68.359  1.00  0.00    -0.232 C  
HETATM    2  C   UNL     1      -8.844   8.289  68.104  1.00  0.00    -0.139 A  
HETATM    3  C   UNL     1      -7.872   7.309  68.419  1.00  0.00    -0.122 A  
HETATM    4  C   UNL     1      -6.522   7.518  68.148  1.00  0.00    -0.049 A  
HETATM    5  C   UNL     1      -6.122   8.701  67.555  1.00  0.00    -0.052 A  
HETATM    6  C   UNL     1      -7.071   9.688  67.270  1.00  0.00    -0.086 A  
HETATM    7  C   UNL     1      -8.442   9.534  67.562  1.00  0.00    -0.126 A  
ENDROOT
BRANCH   7   8
HETATM    8  N   UNL     1      -9.277  10.626  67.371  1.00  0.00    -0.143 NA 
HETATM    9  C   UNL     1      -9.513  11.178  66.036  1.00  0.00    -0.208 C  
HETATM   10  C   UNL     1     -10.942  11.741  65.921  1.00  0.00    -0.304 C  
HETATM   11  N   UNL     1     -11.291  12.747  66.951  1.00  0.00    -0.303 NA 
HETATM   12  C   UNL     1      -9.693  11.474  68.510  1.00  0.00    -0.189 C  
HETATM   13  C   UNL     1     -11.098  12.091  68.269  1.00  0.00    -0.243 C  
BRANCH  11  14
HETATM   14  C   UNL     1     -10.479  13.985  66.862  1.00  0.00    -0.276 C  
BRANCH  14  15
HETATM   15  C   UNL     1     -10.740  14.932  68.036  1.00  0.00    -0.253 C  
BRANCH  15  16
HETATM   16  C   UNL     1      -9.625  15.869  68.318  1.00  0.00    -0.205 A  
HETATM   17  N   UNL     1      -8.423  15.618  68.791  1.00  0.00    -0.176 NA 
HETATM   18  N   UNL     1      -7.741  16.813  68.893  1.00  0.00    -0.243 NA 
HETATM   19  C   UNL     1      -8.542  17.770  68.480  1.00  0.00    -0.291 A  
HETATM   20  C   UNL     1      -8.287  19.231  68.394  1.00  0.00    -0.383 C  
HETATM   21  C   UNL     1      -9.589  20.017  68.192  1.00  0.00    -0.423 C  
HETATM   22  C   UNL     1     -10.470  19.361  67.128  1.00  0.00    -0.577 C  
HETATM   23  C   UNL     1     -10.852  17.943  67.553  1.00  0.00    -0.225 C  
HETATM   24  N   UNL     1      -9.720  17.211  68.077  1.00  0.00    -0.265 NA 
ENDBRANCH  15  16
ENDBRANCH  14  15
ENDBRANCH  11  14
ENDBRANCH   7   8
TORSDOF 4
ENDMDL
MODEL      159
REMARK 921   NORMALIZED FREE ENERGY PREDICTED BY IDOCK:   -4.67 KCAL/MOL
REMARK 922        TOTAL FREE ENERGY PREDICTED BY IDOCK:   -6.02 KCAL/MOL
REMARK 923 INTER-LIGAND FREE ENERGY PREDICTED BY IDOCK:   -6.79 KCAL/MOL
REMARK 924 INTRA-LIGAND FREE ENERGY PREDICTED BY IDOCK:    0.77 KCAL/MOL
REMARK 927      BINDING AFFINITY PREDICTED BY RF-SCORE:    0.00 PKD
ROOT
HETATM    1  C   UNL     1     -13.126   9.207  71.629  1.00  0.00    -0.431 C  
HETATM    2  C   UNL     1     -11.777   8.619  71.943  1.00  0.00    -0.422 A  
HETATM    3  C   UNL     1     -11.732   7.732  73.046  1.00  0.00    -0.089 A  
HETATM    4  C   UNL     1     -10.561   7.058  73.382  1.00  0.00    -0.399 A  
HETATM    5  C   UNL     1      -9.421   7.253  72.624  1.00  0.00    -0.186 A  
HETATM    6  C   UNL     1      -9.447   8.153  71.554  1.00  0.00    -0.222 A  
HETATM    7  C   UNL     1     -10.600   8.884  71.201  1.00  0.00    -0.265 A  
ENDROOT
BRANCH   7   8
HETATM    8  N   UNL     1     -10.483   9.854  70.215  1.00  0.00    -0.279 NA 
HETATM    9  C   UNL     1      -9.292   9.933  69.366  1.00  0.00    -0.214 C  
HETATM   10  C   UNL     1      -9.659  10.431  67.955  1.00  0.00    -0.143 C  
HETATM   11  N   UNL     1     -10.384  11.723  67.928  1.00  0.00    -0.189 NA 
HETATM   12  C   UNL     1     -11.376  11.033  70.197  1.00  0.00    -0.251 C  
HETATM   13  C   UNL     1     -11.609  11.540  68.747  1.00  0.00    -0.316 C  
BRANCH  11  14
HETATM   14  C   UNL     1      -9.580  12.858  68.442  1.00  0.00    -0.176 C  
BRANCH  14  15
HETATM   15  C   UNL     1      -8.604  13.395  67.390  1.00  0.00    -0.204 C  
BRANCH  15  16
HETATM   16  C   UNL     1      -9.138  14.523  66.589  1.00  0.00    -0.251 A  
HETATM   17  N   UNL     1      -8.736  15.775  66.539  1.00  0.00    -0.293 NA 
HETATM   18  N   UNL     1      -9.551  16.456  65.657  1.00  0.00    -0.507 NA 
HETATM   19  C   UNL     1     -10.435  15.604  65.187  1.00  0.00    -0.389 A  
HETATM   20  C   UNL     1     -11.532  15.837  64.213  1.00  0.00    -0.203 C  
HETATM   21  C   UNL     1     -12.534  14.674  64.208  1.00  0.00    -0.267 C  
HETATM   22  C   UNL     1     -11.813  13.326  64.195  1.00  0.00    -0.497 C  
HETATM   23  C   UNL     1     -10.944  13.174  65.443  1.00  0.00    -0.279 C  
HETATM   24  N   UNL     1     -10.185  14.374  65.722  1.00  0.00    -0.320 NA 
ENDBRANCH  15  16
ENDBRANCH  14  15
ENDBRANCH  11  14
ENDBRANCH   7   8
TORSDOF 4
ENDMDL
MODEL      160
REMARK 921   NORMALIZED FREE ENERGY PREDICTED BY IDOCK:   -4.66 KCAL/MOL
REMARK 922        TOTAL FREE ENERGY PREDICTED BY IDOCK:   -6.02 KCAL/MOL
REMARK 923 INTER-LIGAND FREE ENERGY PREDICTED BY IDOCK:   -6.05 KCAL/MOL
REMARK 924 INTRA-LIGAND FREE ENERGY PREDICTED BY IDOCK:    0.04 KCAL/MOL
REMARK 927      BINDING AFFINITY PREDICTED BY RF-SCORE:    0.00 PKD
ROOT
HETATM    1  C   UNL     1     -10.779   8.421  67.312  1.00  0.00    -0.230 C  
HETATM    2  C   UNL     1      -9.790   9.047  66.367  1.00  0.00    -0.356 A  
HETATM    3  C   UNL     1      -8.930   8.150  65.689  1.00  0.00    -0.128 A  
HETATM    4  C   UNL     1      -8.031   8.600  64.726  1.00  0.00    -0.141 A  
HETATM    5  C   UNL     1      -7.979   9.947  64.420  1.00  0.00    -0.146 A  
HETATM    6  C   UNL     1      -8.801  10.845  65.107  1.00  0.00    -0.167 A  
HETATM    7  C   UNL     1      -9.699  10.438  66.115  1.00  0.00    -0.209 A  
ENDROOT
BRANCH   7   8
HETATM    8  N   UNL     1     -10.364  11.421  66.834  1.00  0.00    -0.219 NA 
HETATM    9  C   UNL     1     -10.646  12.732  66.246  1.00  0.00    -0.257 C  
HETATM   10  C   UNL     1     -11.971  13.301  66.787  1.00  0.00    -0.382 C  
HETATM   11  N   UNL     1     -12.046  13.386  68.265  1.00  0.00    -0.307 NA 
HETATM   12  C   UNL     1     -10.519  11.319  68.302  1.00  0.00    -0.196 C  
HETATM   13  C   UNL     1     -11.824  12.011  68.781  1.00  0.00    -0.302 C  
BRANCH  11  14
HETATM   14  C   UNL     1     -11.060  14.326  68.850  1.00  0.00    -0.262 C  
BRANCH  14  15
HETATM   15  C   UNL     1     -11.309  15.771  68.407  1.00  0.00    -0.372 C  
BRANCH  15  16
HETATM   16  C   UNL     1     -10.278  16.307  67.485  1.00  0.00    -0.270 A  
HETATM   17  N   UNL     1     -10.412  16.768  66.260  1.00  0.00    -0.292 NA 
HETATM   18  N   UNL     1      -9.165  17.144  65.801  1.00  0.00    -0.519 NA 
HETATM   19  C   UNL     1      -8.296  16.904  66.757  1.00  0.00    -0.235 A  
HETATM   20  C   UNL     1      -6.828  17.130  66.763  1.00  0.00    -0.259 C  
HETATM   21  C   UNL     1      -6.152  16.396  67.929  1.00  0.00    -0.137 C  
HETATM   22  C   UNL     1      -6.931  16.594  69.230  1.00  0.00    -0.225 C  
HETATM   23  C   UNL     1      -8.346  16.031  69.094  1.00  0.00    -0.244 C  
HETATM   24  N   UNL     1      -8.962  16.412  67.841  1.00  0.00    -0.195 NA 
ENDBRANCH  15  16
ENDBRANCH  14  15
ENDBRANCH  11  14
ENDBRANCH   7   8
TORSDOF 4
ENDMDL
MODEL      161
REMARK 921   NORMALIZED FREE ENERGY PREDICTED BY IDOCK:   -4.65 KCAL/MOL
REMARK 922        TOTAL FREE ENERGY PREDICTED BY IDOCK:   -5.99 KCAL/MOL
REMARK 923 INTER-LIGAND FREE ENERGY PREDICTED BY IDOCK:   -5.52 KCAL/MOL
REMARK 924 INTRA-LIGAND FREE ENERGY PREDICTED BY IDOCK:   -0.48 KCAL/MOL
REMARK 927      BINDING AFFINITY PREDICTED BY RF-SCORE:    0.00 PKD
ROOT
HETATM    1  C   UNL     1      -7.281  14.595  67.505  1.00  0.00    -0.216 C  
HETATM    2  C   UNL     1      -8.393  15.585  67.285  1.00  0.00    -0.218 A  
HETATM    3  C   UNL     1      -8.038  16.950  67.410  1.00  0.00    -0.193 A  
HETATM    4  C   UNL     1      -8.958  17.962  67.146  1.00  0.00    -0.252 A  
HETATM    5  C   UNL     1     -10.239  17.630  66.749  1.00  0.00    -0.335 A  
HETATM    6  C   UNL     1     -10.609  16.285  66.656  1.00  0.00    -0.252 A  
HETATM    7  C   UNL     1      -9.722  15.229  66.949  1.00  0.00    -0.233 A  
ENDROOT
BRANCH   7   8
HETATM    8  N   UNL     1     -10.226  13.936  66.964  1.00  0.00    -0.252 NA 
HETATM    9  C   UNL     1     -10.458  13.226  68.223  1.00  0.00    -0.250 C  
HETATM   10  C   UNL     1     -11.669  12.281  68.102  1.00  0.00    -0.349 C  
HETATM   11  N   UNL     1     -11.584  11.311  66.985  1.00  0.00    -0.480 NA 
HETATM   12  C   UNL     1     -10.236  13.109  65.738  1.00  0.00    -0.289 C  
HETATM   13  C   UNL     1     -11.424  12.107  65.743  1.00  0.00    -0.361 C  
BRANCH  11  14
HETATM   14  C   UNL     1     -10.469  10.344  67.132  1.00  0.00    -0.256 C  
BRANCH  14  15
HETATM   15  C   UNL     1     -10.761   9.285  68.198  1.00  0.00    -0.205 C  
BRANCH  15  16
HETATM   16  C   UNL     1     -10.408   7.903  67.791  1.00  0.00    -0.226 A  
HETATM   17  N   UNL     1     -11.122   7.020  67.126  1.00  0.00    -0.322 NA 
HETATM   18  N   UNL     1     -10.373   5.867  66.997  1.00  0.00    -0.213 NA 
HETATM   19  C   UNL     1      -9.216   6.071  67.587  1.00  0.00    -0.107 A  
HETATM   20  C   UNL     1      -8.063   5.146  67.729  1.00  0.00    -0.099 C  
HETATM   21  C   UNL     1      -7.063   5.652  68.777  1.00  0.00    -0.072 C  
HETATM   22  C   UNL     1      -6.789   7.146  68.601  1.00  0.00    -0.076 C  
HETATM   23  C   UNL     1      -8.078   7.948  68.774  1.00  0.00    -0.126 C  
HETATM   24  N   UNL     1      -9.188   7.349  68.065  1.00  0.00    -0.133 NA 
ENDBRANCH  15  16
ENDBRANCH  14  15
ENDBRANCH  11  14
ENDBRANCH   7   8
TORSDOF 4
ENDMDL
MODEL      162
REMARK 921   NORMALIZED FREE ENERGY PREDICTED BY IDOCK:   -4.62 KCAL/MOL
REMARK 922        TOTAL FREE ENERGY PREDICTED BY IDOCK:   -5.96 KCAL/MOL
REMARK 923 INTER-LIGAND FREE ENERGY PREDICTED BY IDOCK:   -5.48 KCAL/MOL
REMARK 924 INTRA-LIGAND FREE ENERGY PREDICTED BY IDOCK:   -0.48 KCAL/MOL
REMARK 927      BINDING AFFINITY PREDICTED BY RF-SCORE:    0.00 PKD
ROOT
HETATM    1  C   UNL     1      -9.864  15.203  69.043  1.00  0.00    -0.238 C  
HETATM    2  C   UNL     1     -10.209  15.028  67.589  1.00  0.00    -0.236 A  
HETATM    3  C   UNL     1     -10.455  16.220  66.866  1.00  0.00    -0.302 A  
HETATM    4  C   UNL     1     -10.700  16.196  65.495  1.00  0.00    -0.355 A  
HETATM    5  C   UNL     1     -10.696  14.987  64.825  1.00  0.00    -0.354 A  
HETATM    6  C   UNL     1     -10.487  13.801  65.537  1.00  0.00    -0.327 A  
HETATM    7  C   UNL     1     -10.273  13.777  66.930  1.00  0.00    -0.261 A  
ENDROOT
BRANCH   7   8
HETATM    8  N   UNL     1     -10.217  12.541  67.561  1.00  0.00    -0.215 NA 
HETATM    9  C   UNL     1     -11.387  11.986  68.245  1.00  0.00    -0.286 C  
HETATM   10  C   UNL     1     -11.402  10.449  68.140  1.00  0.00    -0.213 C  
HETATM   11  N   UNL     1     -10.170   9.786  68.630  1.00  0.00    -0.183 NA 
HETATM   12  C   UNL     1      -8.920  11.896  67.859  1.00  0.00    -0.179 C  
HETATM   13  C   UNL     1      -9.045  10.347  67.841  1.00  0.00    -0.132 C  
BRANCH  11  14
HETATM   14  C   UNL     1      -9.937   9.980  70.081  1.00  0.00    -0.184 C  
BRANCH  14  15
HETATM   15  C   UNL     1     -10.541   8.850  70.918  1.00  0.00    -0.295 C  
BRANCH  15  16
HETATM   16  C   UNL     1      -9.670   7.656  71.042  1.00  0.00    -0.163 A  
HETATM   17  N   UNL     1      -8.445   7.467  70.599  1.00  0.00    -0.134 NA 
HETATM   18  N   UNL     1      -8.052   6.190  70.947  1.00  0.00    -0.119 NA 
HETATM   19  C   UNL     1      -9.046   5.626  71.596  1.00  0.00    -0.139 A  
HETATM   20  C   UNL     1      -9.128   4.263  72.179  1.00  0.00    -0.150 C  
HETATM   21  C   UNL     1     -10.574   3.891  72.537  1.00  0.00    -0.125 C  
HETATM   22  C   UNL     1     -11.276   5.042  73.258  1.00  0.00    -0.411 C  
HETATM   23  C   UNL     1     -11.330   6.279  72.361  1.00  0.00    -0.292 C  
HETATM   24  N   UNL     1     -10.065   6.528  71.707  1.00  0.00    -0.184 NA 
ENDBRANCH  15  16
ENDBRANCH  14  15
ENDBRANCH  11  14
ENDBRANCH   7   8
TORSDOF 4
ENDMDL
MODEL      163
REMARK 921   NORMALIZED FREE ENERGY PREDICTED BY IDOCK:   -4.61 KCAL/MOL
REMARK 922        TOTAL FREE ENERGY PREDICTED BY IDOCK:   -5.95 KCAL/MOL
REMARK 923 INTER-LIGAND FREE ENERGY PREDICTED BY IDOCK:   -5.70 KCAL/MOL
REMARK 924 INTRA-LIGAND FREE ENERGY PREDICTED BY IDOCK:   -0.25 KCAL/MOL
REMARK 927      BINDING AFFINITY PREDICTED BY RF-SCORE:    0.00 PKD
ROOT
HETATM    1  C   UNL     1      -8.043   5.358  65.884  1.00  0.00    -0.108 C  
HETATM    2  C   UNL     1      -8.665   4.967  67.198  1.00  0.00    -0.103 A  
HETATM    3  C   UNL     1      -8.762   3.576  67.444  1.00  0.00    -0.129 A  
HETATM    4  C   UNL     1      -9.240   3.090  68.659  1.00  0.00    -0.231 A  
HETATM    5  C   UNL     1      -9.621   3.980  69.645  1.00  0.00    -0.270 A  
HETATM    6  C   UNL     1      -9.560   5.355  69.399  1.00  0.00    -0.203 A  
HETATM    7  C   UNL     1      -9.118   5.890  68.171  1.00  0.00    -0.117 A  
ENDROOT
BRANCH   7   8
HETATM    8  N   UNL     1      -9.230   7.260  67.977  1.00  0.00    -0.132 NA 
HETATM    9  C   UNL     1      -8.210   8.183  68.478  1.00  0.00    -0.125 C  
HETATM   10  C   UNL     1      -8.066   9.399  67.543  1.00  0.00    -0.110 C  
HETATM   11  N   UNL     1      -9.328  10.133  67.289  1.00  0.00    -0.151 NA 
HETATM   12  C   UNL     1     -10.513   7.868  67.564  1.00  0.00    -0.262 C  
HETATM   13  C   UNL     1     -10.283   9.150  66.717  1.00  0.00    -0.261 C  
BRANCH  11  14
HETATM   14  C   UNL     1      -9.896  10.762  68.506  1.00  0.00    -0.177 C  
BRANCH  14  15
HETATM   15  C   UNL     1     -11.277  11.370  68.249  1.00  0.00    -0.326 C  
BRANCH  15  16
HETATM   16  C   UNL     1     -11.324  12.300  67.094  1.00  0.00    -0.335 A  
HETATM   17  N   UNL     1     -11.983  12.191  65.960  1.00  0.00    -0.585 NA 
HETATM   18  N   UNL     1     -11.704  13.302  65.190  1.00  0.00    -0.318 NA 
HETATM   19  C   UNL     1     -10.881  14.067  65.871  1.00  0.00    -0.288 A  
HETATM   20  C   UNL     1     -10.281  15.370  65.485  1.00  0.00    -0.411 C  
HETATM   21  C   UNL     1      -9.118  15.749  66.412  1.00  0.00    -0.357 C  
HETATM   22  C   UNL     1      -9.481  15.512  67.878  1.00  0.00    -0.201 C  
HETATM   23  C   UNL     1      -9.795  14.035  68.117  1.00  0.00    -0.235 C  
HETATM   24  N   UNL     1     -10.648  13.489  67.085  1.00  0.00    -0.263 NA 
ENDBRANCH  15  16
ENDBRANCH  14  15
ENDBRANCH  11  14
ENDBRANCH   7   8
TORSDOF 4
ENDMDL
MODEL      164
REMARK 921   NORMALIZED FREE ENERGY PREDICTED BY IDOCK:   -4.61 KCAL/MOL
REMARK 922        TOTAL FREE ENERGY PREDICTED BY IDOCK:   -5.94 KCAL/MOL
REMARK 923 INTER-LIGAND FREE ENERGY PREDICTED BY IDOCK:   -6.29 KCAL/MOL
REMARK 924 INTRA-LIGAND FREE ENERGY PREDICTED BY IDOCK:    0.35 KCAL/MOL
REMARK 927      BINDING AFFINITY PREDICTED BY RF-SCORE:    0.00 PKD
ROOT
HETATM    1  C   UNL     1     -12.058  14.009  64.069  1.00  0.00    -0.413 C  
HETATM    2  C   UNL     1     -11.190  12.805  64.317  1.00  0.00    -0.409 A  
HETATM    3  C   UNL     1     -11.036  11.919  63.223  1.00  0.00    -0.390 A  
HETATM    4  C   UNL     1     -10.190  10.816  63.301  1.00  0.00    -0.243 A  
HETATM    5  C   UNL     1      -9.484  10.581  64.466  1.00  0.00    -0.329 A  
HETATM    6  C   UNL     1      -9.656  11.431  65.563  1.00  0.00    -0.256 A  
HETATM    7  C   UNL     1     -10.529  12.538  65.540  1.00  0.00    -0.279 A  
ENDROOT
BRANCH   7   8
HETATM    8  N   UNL     1     -10.735  13.233  66.724  1.00  0.00    -0.275 NA 
HETATM    9  C   UNL     1      -9.610  13.664  67.556  1.00  0.00    -0.220 C  
HETATM   10  C   UNL     1      -9.934  14.992  68.267  1.00  0.00    -0.225 C  
HETATM   11  N   UNL     1     -11.178  14.971  69.072  1.00  0.00    -0.253 NA 
HETATM   12  C   UNL     1     -12.070  13.275  67.359  1.00  0.00    -0.278 C  
HETATM   13  C   UNL     1     -12.277  14.599  68.147  1.00  0.00    -0.059 C  
BRANCH  11  14
HETATM   14  C   UNL     1     -11.120  14.030  70.217  1.00  0.00     0.244 C  
BRANCH  14  15
HETATM   15  C   UNL     1     -12.203  12.952  70.132  1.00  0.00    -0.336 C  
BRANCH  15  16
HETATM   16  C   UNL     1     -11.682  11.564  70.182  1.00  0.00    -0.309 A  
HETATM   17  N   UNL     1     -10.615  11.052  69.607  1.00  0.00    -0.147 NA 
HETATM   18  N   UNL     1     -10.548   9.713  69.936  1.00  0.00    -0.231 NA 
HETATM   19  C   UNL     1     -11.576   9.436  70.706  1.00  0.00    -0.298 A  
HETATM   20  C   UNL     1     -11.959   8.141  71.324  1.00  0.00    -0.318 C  
HETATM   21  C   UNL     1     -13.400   8.175  71.852  1.00  0.00    -0.350 C  
HETATM   22  C   UNL     1     -13.674   9.466  72.623  1.00  0.00    -0.337 C  
HETATM   23  C   UNL     1     -13.491  10.680  71.712  1.00  0.00    -0.225 C  
HETATM   24  N   UNL     1     -12.290  10.581  70.912  1.00  0.00    -0.355 NA 
ENDBRANCH  15  16
ENDBRANCH  14  15
ENDBRANCH  11  14
ENDBRANCH   7   8
TORSDOF 4
ENDMDL
MODEL      165
REMARK 921   NORMALIZED FREE ENERGY PREDICTED BY IDOCK:   -4.61 KCAL/MOL
REMARK 922        TOTAL FREE ENERGY PREDICTED BY IDOCK:   -5.94 KCAL/MOL
REMARK 923 INTER-LIGAND FREE ENERGY PREDICTED BY IDOCK:   -5.39 KCAL/MOL
REMARK 924 INTRA-LIGAND FREE ENERGY PREDICTED BY IDOCK:   -0.55 KCAL/MOL
REMARK 927      BINDING AFFINITY PREDICTED BY RF-SCORE:    0.00 PKD
ROOT
HETATM    1  C   UNL     1     -10.882   8.419  70.001  1.00  0.00    -0.225 C  
HETATM    2  C   UNL     1      -9.721   7.923  69.182  1.00  0.00    -0.162 A  
HETATM    3  C   UNL     1      -9.221   6.645  69.530  1.00  0.00    -0.143 A  
HETATM    4  C   UNL     1      -8.206   6.041  68.792  1.00  0.00    -0.104 A  
HETATM    5  C   UNL     1      -7.680   6.698  67.695  1.00  0.00    -0.107 A  
HETATM    6  C   UNL     1      -8.143   7.975  67.364  1.00  0.00    -0.122 A  
HETATM    7  C   UNL     1      -9.143   8.638  68.105  1.00  0.00    -0.141 A  
ENDROOT
BRANCH   7   8
HETATM    8  N   UNL     1      -9.431   9.957  67.780  1.00  0.00    -0.140 NA 
HETATM    9  C   UNL     1      -8.961  11.064  68.614  1.00  0.00    -0.167 C  
HETATM   10  C   UNL     1      -8.660  12.306  67.755  1.00  0.00    -0.170 C  
HETATM   11  N   UNL     1      -9.790  12.757  66.909  1.00  0.00    -0.231 NA 
HETATM   12  C   UNL     1     -10.482  10.285  66.793  1.00  0.00    -0.214 C  
HETATM   13  C   UNL     1     -10.159  11.608  66.045  1.00  0.00    -0.224 C  
BRANCH  11  14
HETATM   14  C   UNL     1     -10.962  13.217  67.692  1.00  0.00    -0.262 C  
BRANCH  14  15
HETATM   15  C   UNL     1     -11.501  14.559  67.188  1.00  0.00    -0.383 C  
BRANCH  15  16
HETATM   16  C   UNL     1     -10.932  15.739  67.884  1.00  0.00    -0.324 A  
HETATM   17  N   UNL     1     -11.265  16.267  69.043  1.00  0.00    -0.335 NA 
HETATM   18  N   UNL     1     -10.461  17.366  69.265  1.00  0.00    -0.283 NA 
HETATM   19  C   UNL     1      -9.652  17.487  68.235  1.00  0.00    -0.299 A  
HETATM   20  C   UNL     1      -8.600  18.505  67.988  1.00  0.00    -0.310 C  
HETATM   21  C   UNL     1      -8.136  18.489  66.525  1.00  0.00    -0.299 C  
HETATM   22  C   UNL     1      -7.904  17.059  66.036  1.00  0.00    -0.167 C  
HETATM   23  C   UNL     1      -9.200  16.253  66.114  1.00  0.00    -0.341 C  
HETATM   24  N   UNL     1      -9.894  16.464  67.365  1.00  0.00    -0.240 NA 
ENDBRANCH  15  16
ENDBRANCH  14  15
ENDBRANCH  11  14
ENDBRANCH   7   8
TORSDOF 4
ENDMDL
MODEL      166
REMARK 921   NORMALIZED FREE ENERGY PREDICTED BY IDOCK:   -4.60 KCAL/MOL
REMARK 922        TOTAL FREE ENERGY PREDICTED BY IDOCK:   -5.94 KCAL/MOL
REMARK 923 INTER-LIGAND FREE ENERGY PREDICTED BY IDOCK:   -5.42 KCAL/MOL
REMARK 924 INTRA-LIGAND FREE ENERGY PREDICTED BY IDOCK:   -0.52 KCAL/MOL
REMARK 927      BINDING AFFINITY PREDICTED BY RF-SCORE:    0.00 PKD
ROOT
HETATM    1  C   UNL     1     -10.879  13.025  68.385  1.00  0.00    -0.280 C  
HETATM    2  C   UNL     1     -11.520  12.418  69.604  1.00  0.00    -0.264 A  
HETATM    3  C   UNL     1     -12.274  13.304  70.412  1.00  0.00    -0.404 A  
HETATM    4  C   UNL     1     -12.984  12.845  71.518  1.00  0.00    -0.388 A  
HETATM    5  C   UNL     1     -12.959  11.499  71.832  1.00  0.00    -0.453 A  
HETATM    6  C   UNL     1     -12.190  10.622  71.061  1.00  0.00    -0.498 A  
HETATM    7  C   UNL     1     -11.427  11.049  69.955  1.00  0.00    -0.320 A  
ENDROOT
BRANCH   7   8
HETATM    8  N   UNL     1     -10.588  10.127  69.344  1.00  0.00    -0.221 NA 
HETATM    9  C   UNL     1     -11.017   9.381  68.159  1.00  0.00    -0.045 C  
HETATM   10  C   UNL     1      -9.821   9.099  67.230  1.00  0.00    -0.189 C  
HETATM   11  N   UNL     1      -8.687   8.401  67.881  1.00  0.00    -0.137 NA 
HETATM   12  C   UNL     1      -9.385   9.617  70.036  1.00  0.00    -0.241 C  
HETATM   13  C   UNL     1      -8.265   9.252  69.023  1.00  0.00    -0.111 C  
BRANCH  11  14
HETATM   14  C   UNL     1      -9.027   7.036  68.347  1.00  0.00    -0.122 C  
BRANCH  14  15
HETATM   15  C   UNL     1      -8.125   6.578  69.497  1.00  0.00    -0.118 C  
BRANCH  15  16
HETATM   16  C   UNL     1      -8.612   5.368  70.203  1.00  0.00    -0.119 A  
HETATM   17  N   UNL     1      -8.345   4.100  69.970  1.00  0.00    -0.061 NA 
HETATM   18  N   UNL     1      -9.042   3.337  70.884  1.00  0.00    -0.100 NA 
HETATM   19  C   UNL     1      -9.722   4.155  71.656  1.00  0.00    -0.176 A  
HETATM   20  C   UNL     1     -10.628   3.834  72.789  1.00  0.00    -0.198 C  
HETATM   21  C   UNL     1     -11.478   5.048  73.188  1.00  0.00    -0.362 C  
HETATM   22  C   UNL     1     -10.628   6.316  73.263  1.00  0.00    -0.284 C  
HETATM   23  C   UNL     1     -10.006   6.622  71.900  1.00  0.00    -0.177 C  
HETATM   24  N   UNL     1      -9.449   5.438  71.282  1.00  0.00    -0.147 NA 
ENDBRANCH  15  16
ENDBRANCH  14  15
ENDBRANCH  11  14
ENDBRANCH   7   8
TORSDOF 4
ENDMDL
MODEL      167
REMARK 921   NORMALIZED FREE ENERGY PREDICTED BY IDOCK:   -4.59 KCAL/MOL
REMARK 922        TOTAL FREE ENERGY PREDICTED BY IDOCK:   -5.92 KCAL/MOL
REMARK 923 INTER-LIGAND FREE ENERGY PREDICTED BY IDOCK:   -5.45 KCAL/MOL
REMARK 924 INTRA-LIGAND FREE ENERGY PREDICTED BY IDOCK:   -0.47 KCAL/MOL
REMARK 927      BINDING AFFINITY PREDICTED BY RF-SCORE:    0.00 PKD
ROOT
HETATM    1  C   UNL     1     -11.185  14.335  69.050  1.00  0.00    -0.294 C  
HETATM    2  C   UNL     1     -11.936  13.680  70.178  1.00  0.00    -0.407 A  
HETATM    3  C   UNL     1     -12.506  14.558  71.131  1.00  0.00    -0.411 A  
HETATM    4  C   UNL     1     -13.297  14.078  72.172  1.00  0.00    -0.545 A  
HETATM    5  C   UNL     1     -13.535  12.720  72.275  1.00  0.00    -0.591 A  
HETATM    6  C   UNL     1     -12.948  11.842  71.358  1.00  0.00    -0.408 A  
HETATM    7  C   UNL     1     -12.111  12.281  70.312  1.00  0.00    -0.295 A  
ENDROOT
BRANCH   7   8
HETATM    8  N   UNL     1     -11.466  11.321  69.544  1.00  0.00    -0.279 NA 
HETATM    9  C   UNL     1     -11.900  11.024  68.178  1.00  0.00    -0.118 C  
HETATM   10  C   UNL     1     -10.700  10.628  67.297  1.00  0.00    -0.285 C  
HETATM   11  N   UNL     1      -9.893   9.503  67.826  1.00  0.00    -0.154 NA 
HETATM   12  C   UNL     1     -10.550  10.340  70.165  1.00  0.00    -0.246 C  
HETATM   13  C   UNL     1      -9.431   9.909  69.177  1.00  0.00    -0.196 C  
BRANCH  11  14
HETATM   14  C   UNL     1     -10.643   8.225  67.894  1.00  0.00    -0.147 C  
BRANCH  14  15
HETATM   15  C   UNL     1      -9.746   7.015  67.623  1.00  0.00    -0.163 C  
BRANCH  15  16
HETATM   16  C   UNL     1      -9.526   6.147  68.805  1.00  0.00    -0.121 A  
HETATM   17  N   UNL     1     -10.404   5.643  69.646  1.00  0.00    -0.249 NA 
HETATM   18  N   UNL     1      -9.722   4.907  70.593  1.00  0.00    -0.185 NA 
HETATM   19  C   UNL     1      -8.440   4.977  70.311  1.00  0.00    -0.099 A  
HETATM   20  C   UNL     1      -7.291   4.362  71.023  1.00  0.00    -0.045 C  
HETATM   21  C   UNL     1      -5.958   4.975  70.572  1.00  0.00    -0.018 C  
HETATM   22  C   UNL     1      -5.897   5.101  69.050  1.00  0.00    -0.020 C  
HETATM   23  C   UNL     1      -7.014   6.014  68.545  1.00  0.00    -0.076 C  
HETATM   24  N   UNL     1      -8.282   5.716  69.175  1.00  0.00    -0.099 NA 
ENDBRANCH  15  16
ENDBRANCH  14  15
ENDBRANCH  11  14
ENDBRANCH   7   8
TORSDOF 4
ENDMDL
MODEL      168
REMARK 921   NORMALIZED FREE ENERGY PREDICTED BY IDOCK:   -4.58 KCAL/MOL
REMARK 922        TOTAL FREE ENERGY PREDICTED BY IDOCK:   -5.91 KCAL/MOL
REMARK 923 INTER-LIGAND FREE ENERGY PREDICTED BY IDOCK:   -5.42 KCAL/MOL
REMARK 924 INTRA-LIGAND FREE ENERGY PREDICTED BY IDOCK:   -0.49 KCAL/MOL
REMARK 927      BINDING AFFINITY PREDICTED BY RF-SCORE:    0.00 PKD
ROOT
HETATM    1  C   UNL     1      -8.107  19.187  69.144  1.00  0.00    -0.172 C  
HETATM    2  C   UNL     1      -9.055  19.035  67.986  1.00  0.00    -0.350 A  
HETATM    3  C   UNL     1      -9.748  20.208  67.598  1.00  0.00    -0.551 A  
HETATM    4  C   UNL     1     -10.588  20.215  66.487  1.00  0.00    -0.352 A  
HETATM    5  C   UNL     1     -10.745  19.060  65.745  1.00  0.00    -0.350 A  
HETATM    6  C   UNL     1     -10.091  17.888  66.140  1.00  0.00    -0.322 A  
HETATM    7  C   UNL     1      -9.261  17.826  67.278  1.00  0.00    -0.253 A  
ENDROOT
BRANCH   7   8
HETATM    8  N   UNL     1      -8.773  16.586  67.665  1.00  0.00    -0.189 NA 
HETATM    9  C   UNL     1      -7.910  15.801  66.780  1.00  0.00    -0.213 C  
HETATM   10  C   UNL     1      -6.895  14.978  67.597  1.00  0.00    -0.179 C  
HETATM   11  N   UNL     1      -7.500  14.097  68.623  1.00  0.00    -0.120 NA 
HETATM   12  C   UNL     1      -9.357  15.863  68.816  1.00  0.00    -0.220 C  
HETATM   13  C   UNL     1      -8.296  14.972  69.519  1.00  0.00    -0.092 C  
BRANCH  11  14
HETATM   14  C   UNL     1      -8.352  13.027  68.049  1.00  0.00    -0.169 C  
BRANCH  14  15
HETATM   15  C   UNL     1      -7.600  11.701  67.915  1.00  0.00    -0.115 C  
BRANCH  15  16
HETATM   16  C   UNL     1      -7.579  10.888  69.155  1.00  0.00    -0.133 A  
HETATM   17  N   UNL     1      -6.675  10.847  70.111  1.00  0.00    -0.212 NA 
HETATM   18  N   UNL     1      -7.087   9.929  71.056  1.00  0.00    -0.319 NA 
HETATM   19  C   UNL     1      -8.235   9.429  70.657  1.00  0.00    -0.168 A  
HETATM   20  C   UNL     1      -9.089   8.406  71.315  1.00  0.00    -0.226 C  
HETATM   21  C   UNL     1     -10.153   7.861  70.353  1.00  0.00    -0.194 C  
HETATM   22  C   UNL     1     -10.828   8.993  69.577  1.00  0.00    -0.177 C  
HETATM   23  C   UNL     1      -9.799   9.751  68.739  1.00  0.00    -0.169 C  
HETATM   24  N   UNL     1      -8.593  10.033  69.486  1.00  0.00    -0.176 NA 
ENDBRANCH  15  16
ENDBRANCH  14  15
ENDBRANCH  11  14
ENDBRANCH   7   8
TORSDOF 4
ENDMDL
MODEL      169
REMARK 921   NORMALIZED FREE ENERGY PREDICTED BY IDOCK:   -4.58 KCAL/MOL
REMARK 922        TOTAL FREE ENERGY PREDICTED BY IDOCK:   -5.91 KCAL/MOL
REMARK 923 INTER-LIGAND FREE ENERGY PREDICTED BY IDOCK:   -5.24 KCAL/MOL
REMARK 924 INTRA-LIGAND FREE ENERGY PREDICTED BY IDOCK:   -0.67 KCAL/MOL
REMARK 927      BINDING AFFINITY PREDICTED BY RF-SCORE:    0.00 PKD
ROOT
HETATM    1  C   UNL     1     -10.453  15.064  69.352  1.00  0.00    -0.254 C  
HETATM    2  C   UNL     1     -10.449  15.100  67.847  1.00  0.00    -0.245 A  
HETATM    3  C   UNL     1     -10.550  16.385  67.261  1.00  0.00    -0.293 A  
HETATM    4  C   UNL     1     -10.472  16.557  65.881  1.00  0.00    -0.335 A  
HETATM    5  C   UNL     1     -10.286  15.455  65.068  1.00  0.00    -0.362 A  
HETATM    6  C   UNL     1     -10.219  14.179  65.635  1.00  0.00    -0.357 A  
HETATM    7  C   UNL     1     -10.331  13.955  67.023  1.00  0.00    -0.267 A  
ENDROOT
BRANCH   7   8
HETATM    8  N   UNL     1     -10.395  12.643  67.471  1.00  0.00    -0.216 NA 
HETATM    9  C   UNL     1      -9.179  11.883  67.766  1.00  0.00    -0.184 C  
HETATM   10  C   UNL     1      -9.420  10.894  68.922  1.00  0.00    -0.172 C  
HETATM   11  N   UNL     1     -10.556   9.966  68.711  1.00  0.00    -0.214 NA 
HETATM   12  C   UNL     1     -11.642  11.858  67.353  1.00  0.00    -0.297 C  
HETATM   13  C   UNL     1     -11.758  10.809  68.493  1.00  0.00    -0.189 C  
BRANCH  11  14
HETATM   14  C   UNL     1     -10.354   9.041  67.570  1.00  0.00    -0.264 C  
BRANCH  14  15
HETATM   15  C   UNL     1      -9.265   8.003  67.854  1.00  0.00    -0.137 C  
BRANCH  15  16
HETATM   16  C   UNL     1      -9.724   6.850  68.665  1.00  0.00    -0.136 A  
HETATM   17  N   UNL     1     -10.367   5.766  68.286  1.00  0.00    -0.195 NA 
HETATM   18  N   UNL     1     -10.589   4.983  69.401  1.00  0.00    -0.059 NA 
HETATM   19  C   UNL     1     -10.076   5.606  70.439  1.00  0.00    -0.219 A  
HETATM   20  C   UNL     1     -10.053   5.187  71.863  1.00  0.00    -0.255 C  
HETATM   21  C   UNL     1      -9.672   6.353  72.785  1.00  0.00    -0.163 C  
HETATM   22  C   UNL     1      -8.479   7.129  72.228  1.00  0.00    -0.126 C  
HETATM   23  C   UNL     1      -8.819   7.720  70.860  1.00  0.00    -0.142 C  
HETATM   24  N   UNL     1      -9.494   6.764  70.010  1.00  0.00    -0.158 NA 
ENDBRANCH  15  16
ENDBRANCH  14  15
ENDBRANCH  11  14
ENDBRANCH   7   8
TORSDOF 4
ENDMDL
MODEL      170
REMARK 921   NORMALIZED FREE ENERGY PREDICTED BY IDOCK:   -4.57 KCAL/MOL
REMARK 922        TOTAL FREE ENERGY PREDICTED BY IDOCK:   -5.90 KCAL/MOL
REMARK 923 INTER-LIGAND FREE ENERGY PREDICTED BY IDOCK:   -5.26 KCAL/MOL
REMARK 924 INTRA-LIGAND FREE ENERGY PREDICTED BY IDOCK:   -0.64 KCAL/MOL
REMARK 927      BINDING AFFINITY PREDICTED BY RF-SCORE:    0.00 PKD
ROOT
HETATM    1  C   UNL     1      -8.815   6.534  65.920  1.00  0.00    -0.131 C  
HETATM    2  C   UNL     1      -7.837   7.046  64.896  1.00  0.00    -0.126 A  
HETATM    3  C   UNL     1      -7.004   6.071  64.297  1.00  0.00    -0.051 A  
HETATM    4  C   UNL     1      -6.119   6.406  63.275  1.00  0.00    -0.026 A  
HETATM    5  C   UNL     1      -6.056   7.714  62.833  1.00  0.00    -0.063 A  
HETATM    6  C   UNL     1      -6.851   8.691  63.441  1.00  0.00    -0.089 A  
HETATM    7  C   UNL     1      -7.733   8.402  64.502  1.00  0.00    -0.121 A  
ENDROOT
BRANCH   7   8
HETATM    8  N   UNL     1      -8.370   9.464  65.130  1.00  0.00    -0.137 NA 
HETATM    9  C   UNL     1      -7.988   9.888  66.478  1.00  0.00    -0.110 C  
HETATM   10  C   UNL     1      -8.164  11.410  66.642  1.00  0.00    -0.163 C  
HETATM   11  N   UNL     1      -9.522  11.910  66.323  1.00  0.00    -0.224 NA 
HETATM   12  C   UNL     1      -9.656   9.988  64.622  1.00  0.00    -0.297 C  
HETATM   13  C   UNL     1      -9.805  11.505  64.923  1.00  0.00    -0.252 C  
BRANCH  11  14
HETATM   14  C   UNL     1     -10.569  11.392  67.236  1.00  0.00    -0.227 C  
BRANCH  14  15
HETATM   15  C   UNL     1     -10.270  11.722  68.701  1.00  0.00    -0.211 C  
BRANCH  15  16
HETATM   16  C   UNL     1     -10.329  10.551  69.610  1.00  0.00    -0.193 A  
HETATM   17  N   UNL     1      -9.474   9.560  69.752  1.00  0.00    -0.195 NA 
HETATM   18  N   UNL     1      -9.966   8.700  70.713  1.00  0.00    -0.187 NA 
HETATM   19  C   UNL     1     -11.111   9.185  71.138  1.00  0.00    -0.323 A  
HETATM   20  C   UNL     1     -12.035   8.635  72.163  1.00  0.00    -0.449 C  
HETATM   21  C   UNL     1     -13.408   9.318  72.104  1.00  0.00    -0.537 C  
HETATM   22  C   UNL     1     -13.265  10.836  71.981  1.00  0.00    -0.466 C  
HETATM   23  C   UNL     1     -12.518  11.198  70.698  1.00  0.00    -0.356 C  
HETATM   24  N   UNL     1     -11.354  10.363  70.495  1.00  0.00    -0.329 NA 
ENDBRANCH  15  16
ENDBRANCH  14  15
ENDBRANCH  11  14
ENDBRANCH   7   8
TORSDOF 4
ENDMDL
MODEL      171
REMARK 921   NORMALIZED FREE ENERGY PREDICTED BY IDOCK:   -4.57 KCAL/MOL
REMARK 922        TOTAL FREE ENERGY PREDICTED BY IDOCK:   -5.90 KCAL/MOL
REMARK 923 INTER-LIGAND FREE ENERGY PREDICTED BY IDOCK:   -5.38 KCAL/MOL
REMARK 924 INTRA-LIGAND FREE ENERGY PREDICTED BY IDOCK:   -0.52 KCAL/MOL
REMARK 927      BINDING AFFINITY PREDICTED BY RF-SCORE:    0.00 PKD
ROOT
HETATM    1  C   UNL     1     -11.625  15.806  69.728  1.00  0.00    -0.359 C  
HETATM    2  C   UNL     1     -12.123  14.606  70.489  1.00  0.00    -0.388 A  
HETATM    3  C   UNL     1     -12.739  14.879  71.734  1.00  0.00    -0.401 A  
HETATM    4  C   UNL     1     -13.317  13.862  72.491  1.00  0.00    -0.656 A  
HETATM    5  C   UNL     1     -13.293  12.564  72.017  1.00  0.00    -0.528 A  
HETATM    6  C   UNL     1     -12.658  12.280  70.805  1.00  0.00    -0.302 A  
HETATM    7  C   UNL     1     -12.029  13.272  70.024  1.00  0.00    -0.329 A  
ENDROOT
BRANCH   7   8
HETATM    8  N   UNL     1     -11.305  12.867  68.911  1.00  0.00    -0.271 NA 
HETATM    9  C   UNL     1     -11.889  12.909  67.570  1.00  0.00    -0.351 C  
HETATM   10  C   UNL     1     -10.811  13.217  66.513  1.00  0.00    -0.281 C  
HETATM   11  N   UNL     1      -9.652  12.294  66.530  1.00  0.00    -0.232 NA 
HETATM   12  C   UNL     1     -10.063  12.077  69.057  1.00  0.00     0.092 C  
HETATM   13  C   UNL     1      -9.073  12.363  67.895  1.00  0.00    -0.191 C  
BRANCH  11  14
HETATM   14  C   UNL     1     -10.010  10.897  66.186  1.00  0.00    -0.233 C  
BRANCH  14  15
HETATM   15  C   UNL     1      -9.142  10.341  65.054  1.00  0.00    -0.244 C  
BRANCH  15  16
HETATM   16  C   UNL     1      -7.820   9.834  65.497  1.00  0.00    -0.120 A  
HETATM   17  N   UNL     1      -6.762  10.504  65.903  1.00  0.00    -0.126 NA 
HETATM   18  N   UNL     1      -5.765   9.597  66.199  1.00  0.00    -0.052 NA 
HETATM   19  C   UNL     1      -6.235   8.391  65.967  1.00  0.00    -0.052 A  
HETATM   20  C   UNL     1      -5.559   7.078  66.126  1.00  0.00    -0.026 C  
HETATM   21  C   UNL     1      -6.337   5.959  65.422  1.00  0.00    -0.038 C  
HETATM   22  C   UNL     1      -7.834   6.056  65.718  1.00  0.00    -0.104 C  
HETATM   23  C   UNL     1      -8.391   7.387  65.214  1.00  0.00    -0.104 C  
HETATM   24  N   UNL     1      -7.533   8.499  65.560  1.00  0.00    -0.083 NA 
ENDBRANCH  15  16
ENDBRANCH  14  15
ENDBRANCH  11  14
ENDBRANCH   7   8
TORSDOF 4
ENDMDL
MODEL      172
REMARK 921   NORMALIZED FREE ENERGY PREDICTED BY IDOCK:   -4.57 KCAL/MOL
REMARK 922        TOTAL FREE ENERGY PREDICTED BY IDOCK:   -5.90 KCAL/MOL
REMARK 923 INTER-LIGAND FREE ENERGY PREDICTED BY IDOCK:   -5.34 KCAL/MOL
REMARK 924 INTRA-LIGAND FREE ENERGY PREDICTED BY IDOCK:   -0.56 KCAL/MOL
REMARK 927      BINDING AFFINITY PREDICTED BY RF-SCORE:    0.00 PKD
ROOT
HETATM    1  C   UNL     1      -8.682  10.077  66.613  1.00  0.00    -0.138 C  
HETATM    2  C   UNL     1      -8.358   8.629  66.362  1.00  0.00    -0.114 A  
HETATM    3  C   UNL     1      -7.802   8.331  65.094  1.00  0.00    -0.120 A  
HETATM    4  C   UNL     1      -7.380   7.043  64.775  1.00  0.00    -0.085 A  
HETATM    5  C   UNL     1      -7.502   6.036  65.714  1.00  0.00    -0.082 A  
HETATM    6  C   UNL     1      -8.081   6.312  66.956  1.00  0.00    -0.109 A  
HETATM    7  C   UNL     1      -8.554   7.593  67.307  1.00  0.00    -0.121 A  
ENDROOT
BRANCH   7   8
HETATM    8  N   UNL     1      -9.240   7.730  68.507  1.00  0.00    -0.138 NA 
HETATM    9  C   UNL     1     -10.684   7.967  68.532  1.00  0.00    -0.018 C  
HETATM   10  C   UNL     1     -11.325   7.308  69.768  1.00  0.00    -0.071 C  
HETATM   11  N   UNL     1     -10.725   7.712  71.062  1.00  0.00    -0.226 NA 
HETATM   12  C   UNL     1      -8.516   7.976  69.773  1.00  0.00    -0.127 C  
HETATM   13  C   UNL     1      -9.281   7.374  70.984  1.00  0.00    -0.153 C  
BRANCH  11  14
HETATM   14  C   UNL     1     -10.907   9.152  71.368  1.00  0.00    -0.349 C  
BRANCH  14  15
HETATM   15  C   UNL     1     -12.332   9.628  71.073  1.00  0.00    -0.396 C  
BRANCH  15  16
HETATM   16  C   UNL     1     -12.518  11.094  71.199  1.00  0.00    -0.393 A  
HETATM   17  N   UNL     1     -13.044  11.786  72.188  1.00  0.00    -0.373 NA 
HETATM   18  N   UNL     1     -13.012  13.123  71.843  1.00  0.00    -0.338 NA 
HETATM   19  C   UNL     1     -12.468  13.218  70.651  1.00  0.00    -0.298 A  
HETATM   20  C   UNL     1     -12.208  14.433  69.836  1.00  0.00    -0.394 C  
HETATM   21  C   UNL     1     -11.885  14.073  68.380  1.00  0.00    -0.397 C  
HETATM   22  C   UNL     1     -10.892  12.912  68.306  1.00  0.00    -0.263 C  
HETATM   23  C   UNL     1     -11.480  11.665  68.966  1.00  0.00    -0.294 C  
HETATM   24  N   UNL     1     -12.113  11.969  70.230  1.00  0.00    -0.340 NA 
ENDBRANCH  15  16
ENDBRANCH  14  15
ENDBRANCH  11  14
ENDBRANCH   7   8
TORSDOF 4
ENDMDL
MODEL      173
REMARK 921   NORMALIZED FREE ENERGY PREDICTED BY IDOCK:   -4.57 KCAL/MOL
REMARK 922        TOTAL FREE ENERGY PREDICTED BY IDOCK:   -5.90 KCAL/MOL
REMARK 923 INTER-LIGAND FREE ENERGY PREDICTED BY IDOCK:   -5.41 KCAL/MOL
REMARK 924 INTRA-LIGAND FREE ENERGY PREDICTED BY IDOCK:   -0.49 KCAL/MOL
REMARK 927      BINDING AFFINITY PREDICTED BY RF-SCORE:    0.00 PKD
ROOT
HETATM    1  C   UNL     1      -8.695   5.069  66.584  1.00  0.00    -0.108 C  
HETATM    2  C   UNL     1      -9.098   4.666  67.977  1.00  0.00    -0.144 A  
HETATM    3  C   UNL     1      -9.129   3.273  68.231  1.00  0.00    -0.211 A  
HETATM    4  C   UNL     1      -9.402   2.777  69.504  1.00  0.00    -0.191 A  
HETATM    5  C   UNL     1      -9.643   3.660  70.540  1.00  0.00    -0.256 A  
HETATM    6  C   UNL     1      -9.648   5.036  70.291  1.00  0.00    -0.255 A  
HETATM    7  C   UNL     1      -9.413   5.579  69.012  1.00  0.00    -0.129 A  
ENDROOT
BRANCH   7   8
HETATM    8  N   UNL     1      -9.580   6.947  68.842  1.00  0.00    -0.139 NA 
HETATM    9  C   UNL     1      -8.699   7.908  69.507  1.00  0.00    -0.134 C  
HETATM   10  C   UNL     1      -8.501   9.162  68.636  1.00  0.00    -0.127 C  
HETATM   11  N   UNL     1      -9.758   9.832  68.226  1.00  0.00    -0.144 NA 
HETATM   12  C   UNL     1     -10.828   7.496  68.268  1.00  0.00     0.008 C  
HETATM   13  C   UNL     1     -10.561   8.818  67.497  1.00  0.00    -0.228 C  
BRANCH  11  14
HETATM   14  C   UNL     1     -10.528  10.384  69.367  1.00  0.00    -0.238 C  
BRANCH  14  15
HETATM   15  C   UNL     1     -11.501  11.481  68.928  1.00  0.00    -0.352 C  
BRANCH  15  16
HETATM   16  C   UNL     1     -10.889  12.829  68.830  1.00  0.00    -0.234 A  
HETATM   17  N   UNL     1      -9.914  13.249  68.052  1.00  0.00    -0.227 NA 
HETATM   18  N   UNL     1      -9.683  14.581  68.329  1.00  0.00    -0.212 NA 
HETATM   19  C   UNL     1     -10.524  14.947  69.271  1.00  0.00    -0.241 A  
HETATM   20  C   UNL     1     -10.680  16.274  69.920  1.00  0.00    -0.322 C  
HETATM   21  C   UNL     1     -11.526  16.178  71.196  1.00  0.00    -0.433 C  
HETATM   22  C   UNL     1     -12.771  15.320  70.970  1.00  0.00    -0.487 C  
HETATM   23  C   UNL     1     -12.372  13.897  70.577  1.00  0.00    -0.369 C  
HETATM   24  N   UNL     1     -11.320  13.884  69.585  1.00  0.00    -0.233 NA 
ENDBRANCH  15  16
ENDBRANCH  14  15
ENDBRANCH  11  14
ENDBRANCH   7   8
TORSDOF 4
ENDMDL
MODEL      174
REMARK 921   NORMALIZED FREE ENERGY PREDICTED BY IDOCK:   -4.54 KCAL/MOL
REMARK 922        TOTAL FREE ENERGY PREDICTED BY IDOCK:   -5.87 KCAL/MOL
REMARK 923 INTER-LIGAND FREE ENERGY PREDICTED BY IDOCK:   -5.93 KCAL/MOL
REMARK 924 INTRA-LIGAND FREE ENERGY PREDICTED BY IDOCK:    0.06 KCAL/MOL
REMARK 927      BINDING AFFINITY PREDICTED BY RF-SCORE:    0.00 PKD
ROOT
HETATM    1  C   UNL     1      -8.188   4.108  70.872  1.00  0.00    -0.077 C  
HETATM    2  C   UNL     1      -9.405   4.241  71.747  1.00  0.00    -0.195 A  
HETATM    3  C   UNL     1      -9.700   3.126  72.568  1.00  0.00    -0.206 A  
HETATM    4  C   UNL     1     -10.749   3.161  73.483  1.00  0.00    -0.298 A  
HETATM    5  C   UNL     1     -11.514   4.307  73.598  1.00  0.00    -0.206 A  
HETATM    6  C   UNL     1     -11.251   5.401  72.768  1.00  0.00    -0.358 A  
HETATM    7  C   UNL     1     -10.223   5.396  71.803  1.00  0.00    -0.206 A  
ENDROOT
BRANCH   7   8
HETATM    8  N   UNL     1     -10.136   6.475  70.934  1.00  0.00    -0.184 NA 
HETATM    9  C   UNL     1      -9.403   7.688  71.303  1.00  0.00    -0.149 C  
HETATM   10  C   UNL     1      -8.757   8.334  70.063  1.00  0.00    -0.133 C  
HETATM   11  N   UNL     1      -9.702   8.632  68.961  1.00  0.00    -0.170 NA 
HETATM   12  C   UNL     1     -11.035   6.587  69.766  1.00  0.00    -0.338 C  
HETATM   13  C   UNL     1     -10.348   7.346  68.597  1.00  0.00    -0.198 C  
BRANCH  11  14
HETATM   14  C   UNL     1     -10.724   9.644  69.322  1.00  0.00    -0.226 C  
BRANCH  14  15
HETATM   15  C   UNL     1     -11.236  10.408  68.098  1.00  0.00    -0.333 C  
BRANCH  15  16
HETATM   16  C   UNL     1     -11.253  11.882  68.268  1.00  0.00    -0.261 A  
HETATM   17  N   UNL     1     -10.889  12.824  67.425  1.00  0.00    -0.236 NA 
HETATM   18  N   UNL     1     -11.075  14.047  68.037  1.00  0.00    -0.255 NA 
HETATM   19  C   UNL     1     -11.549  13.826  69.242  1.00  0.00    -0.312 A  
HETATM   20  C   UNL     1     -11.914  14.805  70.297  1.00  0.00    -0.367 C  
HETATM   21  C   UNL     1     -12.093  14.122  71.660  1.00  0.00    -0.191 C  
HETATM   22  C   UNL     1     -12.917  12.840  71.530  1.00  0.00    -0.388 C  
HETATM   23  C   UNL     1     -12.212  11.845  70.608  1.00  0.00    -0.331 C  
HETATM   24  N   UNL     1     -11.708  12.481  69.410  1.00  0.00    -0.310 NA 
ENDBRANCH  15  16
ENDBRANCH  14  15
ENDBRANCH  11  14
ENDBRANCH   7   8
TORSDOF 4
ENDMDL
MODEL      175
REMARK 921   NORMALIZED FREE ENERGY PREDICTED BY IDOCK:   -4.50 KCAL/MOL
REMARK 922        TOTAL FREE ENERGY PREDICTED BY IDOCK:   -5.81 KCAL/MOL
REMARK 923 INTER-LIGAND FREE ENERGY PREDICTED BY IDOCK:   -5.35 KCAL/MOL
REMARK 924 INTRA-LIGAND FREE ENERGY PREDICTED BY IDOCK:   -0.46 KCAL/MOL
REMARK 927      BINDING AFFINITY PREDICTED BY RF-SCORE:    0.00 PKD
ROOT
HETATM    1  C   UNL     1     -10.350  16.702  69.773  1.00  0.00    -0.115 C  
HETATM    2  C   UNL     1     -10.484  17.302  68.399  1.00  0.00    -0.381 A  
HETATM    3  C   UNL     1     -10.609  18.712  68.350  1.00  0.00    -0.132 A  
HETATM    4  C   UNL     1     -10.654  19.391  67.135  1.00  0.00    -0.596 A  
HETATM    5  C   UNL     1     -10.571  18.678  65.954  1.00  0.00    -0.365 A  
HETATM    6  C   UNL     1     -10.482  17.283  65.991  1.00  0.00    -0.285 A  
HETATM    7  C   UNL     1     -10.470  16.553  67.197  1.00  0.00    -0.300 A  
ENDROOT
BRANCH   7   8
HETATM    8  N   UNL     1     -10.523  15.167  67.123  1.00  0.00    -0.275 NA 
HETATM    9  C   UNL     1      -9.475  14.404  66.445  1.00  0.00    -0.285 C  
HETATM   10  C   UNL     1      -9.267  13.037  67.126  1.00  0.00    -0.226 C  
HETATM   11  N   UNL     1     -10.494  12.215  67.243  1.00  0.00    -0.215 NA 
HETATM   12  C   UNL     1     -11.774  14.436  67.420  1.00  0.00    -0.397 C  
HETATM   13  C   UNL     1     -11.478  13.026  68.002  1.00  0.00    -0.309 C  
BRANCH  11  14
HETATM   14  C   UNL     1     -11.055  11.808  65.931  1.00  0.00    -0.302 C  
BRANCH  14  15
HETATM   15  C   UNL     1      -9.998  11.172  65.025  1.00  0.00    -0.325 C  
BRANCH  15  16
HETATM   16  C   UNL     1      -9.341   9.976  65.607  1.00  0.00    -0.204 A  
HETATM   17  N   UNL     1      -9.880   8.859  66.046  1.00  0.00    -0.257 NA 
HETATM   18  N   UNL     1      -8.867   8.044  66.509  1.00  0.00    -0.143 NA 
HETATM   19  C   UNL     1      -7.729   8.682  66.342  1.00  0.00    -0.095 A  
HETATM   20  C   UNL     1      -6.352   8.240  66.679  1.00  0.00    -0.055 C  
HETATM   21  C   UNL     1      -5.363   9.412  66.646  1.00  0.00    -0.045 C  
HETATM   22  C   UNL     1      -5.574  10.277  65.402  1.00  0.00    -0.098 C  
HETATM   23  C   UNL     1      -6.984  10.867  65.397  1.00  0.00     0.171 C  
HETATM   24  N   UNL     1      -7.984   9.882  65.747  1.00  0.00    -0.116 NA 
ENDBRANCH  15  16
ENDBRANCH  14  15
ENDBRANCH  11  14
ENDBRANCH   7   8
TORSDOF 4
ENDMDL
MODEL      176
REMARK 921   NORMALIZED FREE ENERGY PREDICTED BY IDOCK:   -4.50 KCAL/MOL
REMARK 922        TOTAL FREE ENERGY PREDICTED BY IDOCK:   -5.81 KCAL/MOL
REMARK 923 INTER-LIGAND FREE ENERGY PREDICTED BY IDOCK:   -5.31 KCAL/MOL
REMARK 924 INTRA-LIGAND FREE ENERGY PREDICTED BY IDOCK:   -0.50 KCAL/MOL
REMARK 927      BINDING AFFINITY PREDICTED BY RF-SCORE:    0.00 PKD
ROOT
HETATM    1  C   UNL     1     -10.271   9.159  71.329  1.00  0.00    -0.400 C  
HETATM    2  C   UNL     1     -10.359   7.733  71.803  1.00  0.00    -0.243 A  
HETATM    3  C   UNL     1     -10.799   7.553  73.137  1.00  0.00    -0.448 A  
HETATM    4  C   UNL     1     -11.004   6.280  73.663  1.00  0.00    -0.020 A  
HETATM    5  C   UNL     1     -10.779   5.171  72.869  1.00  0.00    -0.300 A  
HETATM    6  C   UNL     1     -10.311   5.338  71.562  1.00  0.00    -0.287 A  
HETATM    7  C   UNL     1     -10.056   6.607  71.001  1.00  0.00    -0.187 A  
ENDROOT
BRANCH   7   8
HETATM    8  N   UNL     1      -9.460   6.660  69.748  1.00  0.00    -0.148 NA 
HETATM    9  C   UNL     1      -8.010   6.539  69.592  1.00  0.00    -0.120 C  
HETATM   10  C   UNL     1      -7.659   5.835  68.268  1.00  0.00    -0.085 C  
HETATM   11  N   UNL     1      -8.245   6.466  67.061  1.00  0.00    -0.112 NA 
HETATM   12  C   UNL     1     -10.202   7.165  68.573  1.00  0.00    -0.175 C  
HETATM   13  C   UNL     1      -9.716   6.485  67.264  1.00  0.00    -0.132 C  
BRANCH  11  14
HETATM   14  C   UNL     1      -7.736   7.836  66.811  1.00  0.00    -0.099 C  
BRANCH  14  15
HETATM   15  C   UNL     1      -8.531   8.555  65.717  1.00  0.00    -0.167 C  
BRANCH  15  16
HETATM   16  C   UNL     1      -9.091   9.862  66.136  1.00  0.00    -0.158 A  
HETATM   17  N   UNL     1      -9.105  10.422  67.327  1.00  0.00    -0.136 NA 
HETATM   18  N   UNL     1      -9.751  11.638  67.226  1.00  0.00    -0.180 NA 
HETATM   19  C   UNL     1     -10.118  11.795  65.973  1.00  0.00    -0.231 A  
HETATM   20  C   UNL     1     -10.844  12.930  65.348  1.00  0.00    -0.307 C  
HETATM   21  C   UNL     1     -11.373  12.558  63.956  1.00  0.00    -0.467 C  
HETATM   22  C   UNL     1     -10.308  11.827  63.138  1.00  0.00    -0.364 C  
HETATM   23  C   UNL     1      -9.900  10.529  63.834  1.00  0.00    -0.310 C  
HETATM   24  N   UNL     1      -9.690  10.718  65.253  1.00  0.00    -0.235 NA 
ENDBRANCH  15  16
ENDBRANCH  14  15
ENDBRANCH  11  14
ENDBRANCH   7   8
TORSDOF 4
ENDMDL
MODEL      177
REMARK 921   NORMALIZED FREE ENERGY PREDICTED BY IDOCK:   -4.50 KCAL/MOL
REMARK 922        TOTAL FREE ENERGY PREDICTED BY IDOCK:   -5.81 KCAL/MOL
REMARK 923 INTER-LIGAND FREE ENERGY PREDICTED BY IDOCK:   -5.20 KCAL/MOL
REMARK 924 INTRA-LIGAND FREE ENERGY PREDICTED BY IDOCK:   -0.60 KCAL/MOL
REMARK 927      BINDING AFFINITY PREDICTED BY RF-SCORE:    0.00 PKD
ROOT
HETATM    1  C   UNL     1      -8.533   8.269  65.492  1.00  0.00    -0.177 C  
HETATM    2  C   UNL     1      -7.758   8.422  66.773  1.00  0.00    -0.091 A  
HETATM    3  C   UNL     1      -6.990   7.300  67.167  1.00  0.00    -0.078 A  
HETATM    4  C   UNL     1      -6.164   7.349  68.287  1.00  0.00    -0.036 A  
HETATM    5  C   UNL     1      -6.086   8.515  69.025  1.00  0.00    -0.043 A  
HETATM    6  C   UNL     1      -6.867   9.617  68.663  1.00  0.00    -0.056 A  
HETATM    7  C   UNL     1      -7.744   9.599  67.559  1.00  0.00    -0.095 A  
ENDROOT
BRANCH   7   8
HETATM    8  N   UNL     1      -8.578  10.693  67.369  1.00  0.00    -0.122 NA 
HETATM    9  C   UNL     1      -8.055  11.970  66.880  1.00  0.00    -0.127 C  
HETATM   10  C   UNL     1      -9.103  12.694  66.015  1.00  0.00     0.111 C  
HETATM   11  N   UNL     1     -10.410  12.907  66.681  1.00  0.00    -0.248 NA 
HETATM   12  C   UNL     1      -9.935  10.726  67.956  1.00  0.00    -0.164 C  
HETATM   13  C   UNL     1     -10.907  11.566  67.081  1.00  0.00    -0.268 C  
BRANCH  11  14
HETATM   14  C   UNL     1     -10.329  13.805  67.859  1.00  0.00    -0.244 C  
BRANCH  14  15
HETATM   15  C   UNL     1     -11.708  14.301  68.302  1.00  0.00    -0.377 C  
BRANCH  15  16
HETATM   16  C   UNL     1     -12.132  13.802  69.633  1.00  0.00    -0.336 A  
HETATM   17  N   UNL     1     -12.407  12.572  70.014  1.00  0.00    -0.148 NA 
HETATM   18  N   UNL     1     -12.770  12.605  71.346  1.00  0.00    -0.315 NA 
HETATM   19  C   UNL     1     -12.710  13.854  71.749  1.00  0.00    -0.304 A  
HETATM   20  C   UNL     1     -13.005  14.419  73.091  1.00  0.00    -0.517 C  
HETATM   21  C   UNL     1     -13.147  15.946  73.038  1.00  0.00    -0.639 C  
HETATM   22  C   UNL     1     -12.029  16.575  72.206  1.00  0.00    -0.365 C  
HETATM   23  C   UNL     1     -12.082  16.061  70.767  1.00  0.00    -0.262 C  
HETATM   24  N   UNL     1     -12.279  14.629  70.711  1.00  0.00    -0.301 NA 
ENDBRANCH  15  16
ENDBRANCH  14  15
ENDBRANCH  11  14
ENDBRANCH   7   8
TORSDOF 4
ENDMDL
MODEL      178
REMARK 921   NORMALIZED FREE ENERGY PREDICTED BY IDOCK:   -4.49 KCAL/MOL
REMARK 922        TOTAL FREE ENERGY PREDICTED BY IDOCK:   -5.80 KCAL/MOL
REMARK 923 INTER-LIGAND FREE ENERGY PREDICTED BY IDOCK:   -5.34 KCAL/MOL
REMARK 924 INTRA-LIGAND FREE ENERGY PREDICTED BY IDOCK:   -0.46 KCAL/MOL
REMARK 927      BINDING AFFINITY PREDICTED BY RF-SCORE:    0.00 PKD
ROOT
HETATM    1  C   UNL     1      -7.987  10.867  66.110  1.00  0.00    -0.155 C  
HETATM    2  C   UNL     1      -9.287  11.407  66.644  1.00  0.00    -0.198 A  
HETATM    3  C   UNL     1      -9.505  12.793  66.452  1.00  0.00    -0.229 A  
HETATM    4  C   UNL     1     -10.705  13.393  66.825  1.00  0.00    -0.277 A  
HETATM    5  C   UNL     1     -11.704  12.623  67.389  1.00  0.00    -0.432 A  
HETATM    6  C   UNL     1     -11.485  11.260  67.614  1.00  0.00    -0.341 A  
HETATM    7  C   UNL     1     -10.273  10.619  67.286  1.00  0.00    -0.208 A  
ENDROOT
BRANCH   7   8
HETATM    8  N   UNL     1     -10.104   9.298  67.679  1.00  0.00    -0.200 NA 
HETATM    9  C   UNL     1     -10.608   8.194  66.861  1.00  0.00    -0.241 C  
HETATM   10  C   UNL     1      -9.692   6.961  66.985  1.00  0.00    -0.163 C  
HETATM   11  N   UNL     1      -9.468   6.498  68.375  1.00  0.00    -0.121 NA 
HETATM   12  C   UNL     1      -9.720   8.960  69.066  1.00  0.00    -0.171 C  
HETATM   13  C   UNL     1      -8.892   7.647  69.117  1.00  0.00    -0.139 C  
BRANCH  11  14
HETATM   14  C   UNL     1     -10.703   6.015  69.039  1.00  0.00    -0.324 C  
BRANCH  14  15
HETATM   15  C   UNL     1     -10.410   5.340  70.381  1.00  0.00    -0.345 C  
BRANCH  15  16
HETATM   16  C   UNL     1     -10.447   6.261  71.543  1.00  0.00    -0.223 A  
HETATM   17  N   UNL     1     -11.458   6.948  72.031  1.00  0.00    -0.263 NA 
HETATM   18  N   UNL     1     -11.004   7.675  73.114  1.00  0.00    -0.398 NA 
HETATM   19  C   UNL     1      -9.724   7.415  73.264  1.00  0.00    -0.251 A  
HETATM   20  C   UNL     1      -8.776   7.943  74.278  1.00  0.00    -0.191 C  
HETATM   21  C   UNL     1      -7.320   7.658  73.886  1.00  0.00    -0.141 C  
HETATM   22  C   UNL     1      -7.150   6.218  73.401  1.00  0.00    -0.083 C  
HETATM   23  C   UNL     1      -8.014   5.967  72.165  1.00  0.00    -0.106 C  
HETATM   24  N   UNL     1      -9.348   6.505  72.319  1.00  0.00    -0.139 NA 
ENDBRANCH  15  16
ENDBRANCH  14  15
ENDBRANCH  11  14
ENDBRANCH   7   8
TORSDOF 4
ENDMDL
MODEL      179
REMARK 921   NORMALIZED FREE ENERGY PREDICTED BY IDOCK:   -4.49 KCAL/MOL
REMARK 922        TOTAL FREE ENERGY PREDICTED BY IDOCK:   -5.79 KCAL/MOL
REMARK 923 INTER-LIGAND FREE ENERGY PREDICTED BY IDOCK:   -5.86 KCAL/MOL
REMARK 924 INTRA-LIGAND FREE ENERGY PREDICTED BY IDOCK:    0.07 KCAL/MOL
REMARK 927      BINDING AFFINITY PREDICTED BY RF-SCORE:    0.00 PKD
ROOT
HETATM    1  C   UNL     1     -10.088  10.250  64.365  1.00  0.00    -0.242 C  
HETATM    2  C   UNL     1     -10.856  11.514  64.645  1.00  0.00    -0.372 A  
HETATM    3  C   UNL     1     -11.176  12.305  63.515  1.00  0.00    -0.535 A  
HETATM    4  C   UNL     1     -11.957  13.452  63.635  1.00  0.00    -0.504 A  
HETATM    5  C   UNL     1     -12.434  13.823  64.878  1.00  0.00    -0.420 A  
HETATM    6  C   UNL     1     -12.095  13.067  66.004  1.00  0.00    -0.493 A  
HETATM    7  C   UNL     1     -11.277  11.921  65.934  1.00  0.00    -0.322 A  
ENDROOT
BRANCH   7   8
HETATM    8  N   UNL     1     -10.884  11.324  67.125  1.00  0.00    -0.256 NA 
HETATM    9  C   UNL     1      -9.595  10.641  67.241  1.00  0.00    -0.163 C  
HETATM   10  C   UNL     1      -9.025  10.788  68.664  1.00  0.00    -0.162 C  
HETATM   11  N   UNL     1      -9.935  10.333  69.742  1.00  0.00    -0.215 NA 
HETATM   12  C   UNL     1     -11.861  11.062  68.204  1.00  0.00    -0.118 C  
HETATM   13  C   UNL     1     -11.186  11.121  69.602  1.00  0.00    -0.264 C  
BRANCH  11  14
HETATM   14  C   UNL     1     -10.227   8.880  69.690  1.00  0.00    -0.206 C  
BRANCH  14  15
HETATM   15  C   UNL     1      -8.982   8.032  69.965  1.00  0.00    -0.144 C  
BRANCH  15  16
HETATM   16  C   UNL     1      -9.278   6.647  70.405  1.00  0.00    -0.156 A  
HETATM   17  N   UNL     1      -9.565   6.197  71.608  1.00  0.00    -0.152 NA 
HETATM   18  N   UNL     1      -9.750   4.832  71.525  1.00  0.00    -0.164 NA 
HETATM   19  C   UNL     1      -9.572   4.477  70.272  1.00  0.00    -0.193 A  
HETATM   20  C   UNL     1      -9.657   3.125  69.662  1.00  0.00    -0.115 C  
HETATM   21  C   UNL     1      -9.042   3.105  68.256  1.00  0.00    -0.215 C  
HETATM   22  C   UNL     1      -9.501   4.311  67.436  1.00  0.00    -0.213 C  
HETATM   23  C   UNL     1      -9.061   5.611  68.109  1.00  0.00    -0.110 C  
HETATM   24  N   UNL     1      -9.309   5.594  69.534  1.00  0.00    -0.131 NA 
ENDBRANCH  15  16
ENDBRANCH  14  15
ENDBRANCH  11  14
ENDBRANCH   7   8
TORSDOF 4
ENDMDL
MODEL      180
REMARK 921   NORMALIZED FREE ENERGY PREDICTED BY IDOCK:   -4.48 KCAL/MOL
REMARK 922        TOTAL FREE ENERGY PREDICTED BY IDOCK:   -5.79 KCAL/MOL
REMARK 923 INTER-LIGAND FREE ENERGY PREDICTED BY IDOCK:   -5.13 KCAL/MOL
REMARK 924 INTRA-LIGAND FREE ENERGY PREDICTED BY IDOCK:   -0.66 KCAL/MOL
REMARK 927      BINDING AFFINITY PREDICTED BY RF-SCORE:    0.00 PKD
ROOT
HETATM    1  C   UNL     1     -11.733  12.579  67.848  1.00  0.00    -0.416 C  
HETATM    2  C   UNL     1     -11.583  12.390  66.362  1.00  0.00    -0.442 A  
HETATM    3  C   UNL     1     -12.392  13.222  65.550  1.00  0.00    -0.533 A  
HETATM    4  C   UNL     1     -12.282  13.202  64.162  1.00  0.00    -0.465 A  
HETATM    5  C   UNL     1     -11.364  12.359  63.564  1.00  0.00    -0.553 A  
HETATM    6  C   UNL     1     -10.585  11.510  64.356  1.00  0.00    -0.392 A  
HETATM    7  C   UNL     1     -10.690  11.471  65.762  1.00  0.00    -0.271 A  
ENDROOT
BRANCH   7   8
HETATM    8  N   UNL     1      -9.976  10.494  66.443  1.00  0.00    -0.210 NA 
HETATM    9  C   UNL     1     -10.637   9.295  66.962  1.00  0.00    -0.193 C  
HETATM   10  C   UNL     1      -9.685   8.085  66.918  1.00  0.00    -0.225 C  
HETATM   11  N   UNL     1      -8.395   8.291  67.617  1.00  0.00    -0.126 NA 
HETATM   12  C   UNL     1      -8.618  10.766  66.962  1.00  0.00    -0.130 C  
HETATM   13  C   UNL     1      -7.756   9.474  66.988  1.00  0.00    -0.091 C  
BRANCH  11  14
HETATM   14  C   UNL     1      -8.545   8.495  69.078  1.00  0.00    -0.130 C  
BRANCH  14  15
HETATM   15  C   UNL     1      -8.718   7.172  69.829  1.00  0.00    -0.142 C  
BRANCH  15  16
HETATM   16  C   UNL     1      -7.734   6.129  69.454  1.00  0.00    -0.099 A  
HETATM   17  N   UNL     1      -6.430   6.109  69.630  1.00  0.00    -0.038 NA 
HETATM   18  N   UNL     1      -5.941   4.931  69.103  1.00  0.00    -0.020 NA 
HETATM   19  C   UNL     1      -6.957   4.256  68.615  1.00  0.00    -0.051 A  
HETATM   20  C   UNL     1      -6.963   2.932  67.941  1.00  0.00    -0.049 C  
HETATM   21  C   UNL     1      -8.295   2.674  67.223  1.00  0.00    -0.097 C  
HETATM   22  C   UNL     1      -9.482   3.052  68.111  1.00  0.00    -0.219 C  
HETATM   23  C   UNL     1      -9.432   4.539  68.462  1.00  0.00    -0.152 C  
HETATM   24  N   UNL     1      -8.103   4.959  68.849  1.00  0.00    -0.083 NA 
ENDBRANCH  15  16
ENDBRANCH  14  15
ENDBRANCH  11  14
ENDBRANCH   7   8
TORSDOF 4
ENDMDL
MODEL      181
REMARK 921   NORMALIZED FREE ENERGY PREDICTED BY IDOCK:   -4.47 KCAL/MOL
REMARK 922        TOTAL FREE ENERGY PREDICTED BY IDOCK:   -5.78 KCAL/MOL
REMARK 923 INTER-LIGAND FREE ENERGY PREDICTED BY IDOCK:   -5.64 KCAL/MOL
REMARK 924 INTRA-LIGAND FREE ENERGY PREDICTED BY IDOCK:   -0.14 KCAL/MOL
REMARK 927      BINDING AFFINITY PREDICTED BY RF-SCORE:    0.00 PKD
ROOT
HETATM    1  C   UNL     1      -7.648   6.903  64.321  1.00  0.00    -0.108 C  
HETATM    2  C   UNL     1      -8.397   5.951  65.214  1.00  0.00    -0.146 A  
HETATM    3  C   UNL     1      -8.532   4.627  64.730  1.00  0.00    -0.137 A  
HETATM    4  C   UNL     1      -9.129   3.634  65.503  1.00  0.00    -0.148 A  
HETATM    5  C   UNL     1      -9.593   3.943  66.767  1.00  0.00    -0.222 A  
HETATM    6  C   UNL     1      -9.494   5.255  67.241  1.00  0.00    -0.134 A  
HETATM    7  C   UNL     1      -8.931   6.299  66.478  1.00  0.00    -0.144 A  
ENDROOT
BRANCH   7   8
HETATM    8  N   UNL     1      -9.009   7.590  66.981  1.00  0.00    -0.126 NA 
HETATM    9  C   UNL     1     -10.034   8.525  66.514  1.00  0.00    -0.280 C  
HETATM   10  C   UNL     1     -10.464   9.476  67.648  1.00  0.00    -0.263 C  
HETATM   11  N   UNL     1      -9.350  10.223  68.279  1.00  0.00    -0.136 NA 
HETATM   12  C   UNL     1      -7.886   8.180  67.741  1.00  0.00    -0.118 C  
HETATM   13  C   UNL     1      -8.394   9.209  68.790  1.00  0.00    -0.121 C  
BRANCH  11  14
HETATM   14  C   UNL     1      -8.671  11.159  67.352  1.00  0.00    -0.133 C  
BRANCH  14  15
HETATM   15  C   UNL     1      -9.012  12.620  67.655  1.00  0.00    -0.186 C  
BRANCH  15  16
HETATM   16  C   UNL     1     -10.342  13.047  67.155  1.00  0.00    -0.243 A  
HETATM   17  N   UNL     1     -11.271  13.760  67.757  1.00  0.00    -0.278 NA 
HETATM   18  N   UNL     1     -12.342  13.889  66.896  1.00  0.00    -0.369 NA 
HETATM   19  C   UNL     1     -12.044  13.252  65.786  1.00  0.00    -0.441 A  
HETATM   20  C   UNL     1     -12.859  13.091  64.554  1.00  0.00    -0.225 C  
HETATM   21  C   UNL     1     -12.288  11.995  63.644  1.00  0.00    -0.648 C  
HETATM   22  C   UNL     1     -10.770  12.124  63.510  1.00  0.00    -0.509 C  
HETATM   23  C   UNL     1     -10.101  11.978  64.876  1.00  0.00    -0.260 C  
HETATM   24  N   UNL     1     -10.784  12.742  65.898  1.00  0.00    -0.267 NA 
ENDBRANCH  15  16
ENDBRANCH  14  15
ENDBRANCH  11  14
ENDBRANCH   7   8
TORSDOF 4
ENDMDL
MODEL      182
REMARK 921   NORMALIZED FREE ENERGY PREDICTED BY IDOCK:   -4.46 KCAL/MOL
REMARK 922        TOTAL FREE ENERGY PREDICTED BY IDOCK:   -5.76 KCAL/MOL
REMARK 923 INTER-LIGAND FREE ENERGY PREDICTED BY IDOCK:   -5.28 KCAL/MOL
REMARK 924 INTRA-LIGAND FREE ENERGY PREDICTED BY IDOCK:   -0.48 KCAL/MOL
REMARK 927      BINDING AFFINITY PREDICTED BY RF-SCORE:    0.00 PKD
ROOT
HETATM    1  C   UNL     1     -10.967   4.060  73.553  1.00  0.00    -0.354 C  
HETATM    2  C   UNL     1      -9.535   4.480  73.362  1.00  0.00    -0.131 A  
HETATM    3  C   UNL     1      -8.561   3.633  73.946  1.00  0.00    -0.086 A  
HETATM    4  C   UNL     1      -7.200   3.868  73.766  1.00  0.00    -0.061 A  
HETATM    5  C   UNL     1      -6.790   4.943  73.001  1.00  0.00    -0.072 A  
HETATM    6  C   UNL     1      -7.744   5.804  72.448  1.00  0.00    -0.102 A  
HETATM    7  C   UNL     1      -9.130   5.625  72.635  1.00  0.00    -0.131 A  
ENDROOT
BRANCH   7   8
HETATM    8  N   UNL     1      -9.986   6.612  72.166  1.00  0.00    -0.161 NA 
HETATM    9  C   UNL     1     -10.377   6.670  70.757  1.00  0.00    -0.202 C  
HETATM   10  C   UNL     1     -11.812   7.211  70.610  1.00  0.00    -0.291 C  
HETATM   11  N   UNL     1     -12.042   8.528  71.251  1.00  0.00    -0.292 NA 
HETATM   12  C   UNL     1     -10.268   7.821  72.971  1.00  0.00    -0.330 C  
HETATM   13  C   UNL     1     -11.693   8.368  72.685  1.00  0.00    -0.294 C  
BRANCH  11  14
HETATM   14  C   UNL     1     -11.249   9.623  70.641  1.00  0.00    -0.320 C  
BRANCH  14  15
HETATM   15  C   UNL     1     -12.110  10.540  69.768  1.00  0.00    -0.285 C  
BRANCH  15  16
HETATM   16  C   UNL     1     -11.331  11.472  68.917  1.00  0.00    -0.268 A  
HETATM   17  N   UNL     1     -11.058  12.746  69.107  1.00  0.00    -0.223 NA 
HETATM   18  N   UNL     1     -10.311  13.192  68.035  1.00  0.00    -0.231 NA 
HETATM   19  C   UNL     1     -10.144  12.180  67.213  1.00  0.00    -0.202 A  
HETATM   20  C   UNL     1      -9.418  12.139  65.918  1.00  0.00    -0.187 C  
HETATM   21  C   UNL     1      -9.760  10.871  65.123  1.00  0.00    -0.312 C  
HETATM   22  C   UNL     1      -9.732   9.634  66.021  1.00  0.00    -0.331 C  
HETATM   23  C   UNL     1     -10.765   9.765  67.140  1.00  0.00    -0.202 C  
HETATM   24  N   UNL     1     -10.739  11.076  67.750  1.00  0.00    -0.210 NA 
ENDBRANCH  15  16
ENDBRANCH  14  15
ENDBRANCH  11  14
ENDBRANCH   7   8
TORSDOF 4
ENDMDL
MODEL      183
REMARK 921   NORMALIZED FREE ENERGY PREDICTED BY IDOCK:   -4.45 KCAL/MOL
REMARK 922        TOTAL FREE ENERGY PREDICTED BY IDOCK:   -5.75 KCAL/MOL
REMARK 923 INTER-LIGAND FREE ENERGY PREDICTED BY IDOCK:   -5.91 KCAL/MOL
REMARK 924 INTRA-LIGAND FREE ENERGY PREDICTED BY IDOCK:    0.16 KCAL/MOL
REMARK 927      BINDING AFFINITY PREDICTED BY RF-SCORE:    0.00 PKD
ROOT
HETATM    1  C   UNL     1      -9.615   8.544  66.424  1.00  0.00    -0.314 C  
HETATM    2  C   UNL     1      -9.000   8.740  65.065  1.00  0.00    -0.113 A  
HETATM    3  C   UNL     1      -8.023   7.787  64.687  1.00  0.00    -0.136 A  
HETATM    4  C   UNL     1      -7.444   7.811  63.421  1.00  0.00    -0.115 A  
HETATM    5  C   UNL     1      -7.833   8.777  62.512  1.00  0.00    -0.137 A  
HETATM    6  C   UNL     1      -8.773   9.742  62.888  1.00  0.00    -0.229 A  
HETATM    7  C   UNL     1      -9.357   9.778  64.171  1.00  0.00    -0.175 A  
ENDROOT
BRANCH   7   8
HETATM    8  N   UNL     1     -10.169  10.858  64.489  1.00  0.00    -0.335 NA 
HETATM    9  C   UNL     1     -11.214  11.317  63.572  1.00  0.00    -0.086 C  
HETATM   10  C   UNL     1     -12.419  11.876  64.353  1.00  0.00    -0.114 C  
HETATM   11  N   UNL     1     -12.083  12.953  65.315  1.00  0.00    -0.425 NA 
HETATM   12  C   UNL     1      -9.810  11.784  65.585  1.00  0.00    -0.237 C  
HETATM   13  C   UNL     1     -11.077  12.389  66.250  1.00  0.00    -0.303 C  
BRANCH  11  14
HETATM   14  C   UNL     1     -11.558  14.178  64.664  1.00  0.00    -0.406 C  
BRANCH  14  15
HETATM   15  C   UNL     1     -10.235  14.637  65.282  1.00  0.00    -0.421 C  
BRANCH  15  16
HETATM   16  C   UNL     1     -10.226  16.058  65.708  1.00  0.00    -0.377 A  
HETATM   17  N   UNL     1     -10.112  17.148  64.979  1.00  0.00     0.089 NA 
HETATM   18  N   UNL     1     -10.145  18.238  65.824  1.00  0.00    -0.556 NA 
HETATM   19  C   UNL     1     -10.279  17.791  67.053  1.00  0.00    -0.346 A  
HETATM   20  C   UNL     1     -10.363  18.557  68.322  1.00  0.00    -0.380 C  
HETATM   21  C   UNL     1     -10.164  17.647  69.541  1.00  0.00     0.085 C  
HETATM   22  C   UNL     1     -10.975  16.358  69.406  1.00  0.00    -0.325 C  
HETATM   23  C   UNL     1     -10.528  15.575  68.172  1.00  0.00    -0.259 C  
HETATM   24  N   UNL     1     -10.369  16.430  67.016  1.00  0.00    -0.291 NA 
ENDBRANCH  15  16
ENDBRANCH  14  15
ENDBRANCH  11  14
ENDBRANCH   7   8
TORSDOF 4
ENDMDL
MODEL      184
REMARK 921   NORMALIZED FREE ENERGY PREDICTED BY IDOCK:   -4.44 KCAL/MOL
REMARK 922        TOTAL FREE ENERGY PREDICTED BY IDOCK:   -5.74 KCAL/MOL
REMARK 923 INTER-LIGAND FREE ENERGY PREDICTED BY IDOCK:   -5.45 KCAL/MOL
REMARK 924 INTRA-LIGAND FREE ENERGY PREDICTED BY IDOCK:   -0.29 KCAL/MOL
REMARK 927      BINDING AFFINITY PREDICTED BY RF-SCORE:    0.00 PKD
ROOT
HETATM    1  C   UNL     1     -10.856  10.966  65.949  1.00  0.00    -0.132 C  
HETATM    2  C   UNL     1     -11.186  12.076  66.909  1.00  0.00    -0.375 A  
HETATM    3  C   UNL     1     -11.618  13.291  66.324  1.00  0.00    -0.384 A  
HETATM    4  C   UNL     1     -12.033  14.363  67.109  1.00  0.00    -0.419 A  
HETATM    5  C   UNL     1     -12.030  14.240  68.485  1.00  0.00    -0.352 A  
HETATM    6  C   UNL     1     -11.574  13.056  69.074  1.00  0.00    -0.367 A  
HETATM    7  C   UNL     1     -11.110  11.960  68.318  1.00  0.00    -0.239 A  
ENDROOT
BRANCH   7   8
HETATM    8  N   UNL     1     -10.546  10.889  68.999  1.00  0.00    -0.205 NA 
HETATM    9  C   UNL     1     -11.249  10.240  70.107  1.00  0.00    -0.318 C  
HETATM   10  C   UNL     1     -10.919   8.736  70.158  1.00  0.00    -0.223 C  
HETATM   11  N   UNL     1      -9.471   8.426  70.228  1.00  0.00    -0.163 NA 
HETATM   12  C   UNL     1      -9.107  10.575  68.866  1.00  0.00    -0.177 C  
HETATM   13  C   UNL     1      -8.845   9.053  69.037  1.00  0.00    -0.136 C  
BRANCH  11  14
HETATM   14  C   UNL     1      -8.827   8.911  71.472  1.00  0.00    -0.183 C  
BRANCH  14  15
HETATM   15  C   UNL     1      -8.044   7.805  72.185  1.00  0.00    -0.136 C  
BRANCH  15  16
HETATM   16  C   UNL     1      -8.425   6.432  71.774  1.00  0.00    -0.124 A  
HETATM   17  N   UNL     1      -8.102   5.766  70.686  1.00  0.00    -0.115 NA 
HETATM   18  N   UNL     1      -8.707   4.527  70.742  1.00  0.00    -0.091 NA 
HETATM   19  C   UNL     1      -9.387   4.462  71.865  1.00  0.00    -0.137 A  
HETATM   20  C   UNL     1     -10.212   3.346  72.395  1.00  0.00    -0.199 C  
HETATM   21  C   UNL     1     -11.104   3.810  73.554  1.00  0.00    -0.328 C  
HETATM   22  C   UNL     1     -10.322   4.678  74.540  1.00  0.00    -0.318 C  
HETATM   23  C   UNL     1      -9.792   5.930  73.842  1.00  0.00    -0.189 C  
HETATM   24  N   UNL     1      -9.205   5.625  72.555  1.00  0.00    -0.143 NA 
ENDBRANCH  15  16
ENDBRANCH  14  15
ENDBRANCH  11  14
ENDBRANCH   7   8
TORSDOF 4
ENDMDL
MODEL      185
REMARK 921   NORMALIZED FREE ENERGY PREDICTED BY IDOCK:   -4.42 KCAL/MOL
REMARK 922        TOTAL FREE ENERGY PREDICTED BY IDOCK:   -5.72 KCAL/MOL
REMARK 923 INTER-LIGAND FREE ENERGY PREDICTED BY IDOCK:   -5.39 KCAL/MOL
REMARK 924 INTRA-LIGAND FREE ENERGY PREDICTED BY IDOCK:   -0.33 KCAL/MOL
REMARK 927      BINDING AFFINITY PREDICTED BY RF-SCORE:    0.00 PKD
ROOT
HETATM    1  C   UNL     1      -9.072  14.509  68.732  1.00  0.00    -0.158 C  
HETATM    2  C   UNL     1      -9.647  14.251  67.365  1.00  0.00    -0.214 A  
HETATM    3  C   UNL     1      -9.837  15.392  66.549  1.00  0.00    -0.288 A  
HETATM    4  C   UNL     1     -10.280  15.274  65.234  1.00  0.00    -0.397 A  
HETATM    5  C   UNL     1     -10.535  14.020  64.713  1.00  0.00    -0.445 A  
HETATM    6  C   UNL     1     -10.383  12.889  65.521  1.00  0.00    -0.304 A  
HETATM    7  C   UNL     1      -9.972  12.965  66.868  1.00  0.00    -0.238 A  
ENDROOT
BRANCH   7   8
HETATM    8  N   UNL     1      -9.988  11.801  67.623  1.00  0.00    -0.191 NA 
HETATM    9  C   UNL     1      -8.785  10.984  67.784  1.00  0.00    -0.130 C  
HETATM   10  C   UNL     1      -8.763  10.310  69.169  1.00  0.00    -0.172 C  
HETATM   11  N   UNL     1      -9.966   9.501  69.479  1.00  0.00    -0.182 NA 
HETATM   12  C   UNL     1     -11.266  11.164  68.012  1.00  0.00    -0.296 C  
HETATM   13  C   UNL     1     -11.132  10.414  69.366  1.00  0.00    -0.254 C  
BRANCH  11  14
HETATM   14  C   UNL     1     -10.133   8.331  68.584  1.00  0.00    -0.197 C  
BRANCH  14  15
HETATM   15  C   UNL     1     -11.120   7.308  69.152  1.00  0.00    -0.023 C  
BRANCH  15  16
HETATM   16  C   UNL     1     -10.555   5.945  69.312  1.00  0.00    -0.308 A  
HETATM   17  N   UNL     1     -10.320   5.263  70.413  1.00  0.00    -0.275 NA 
HETATM   18  N   UNL     1      -9.777   4.045  70.058  1.00  0.00    -0.207 NA 
HETATM   19  C   UNL     1      -9.693   4.008  68.747  1.00  0.00    -0.073 A  
HETATM   20  C   UNL     1      -9.178   2.923  67.873  1.00  0.00    -0.253 C  
HETATM   21  C   UNL     1      -8.937   3.422  66.442  1.00  0.00    -0.153 C  
HETATM   22  C   UNL     1     -10.109   4.269  65.948  1.00  0.00    -0.223 C  
HETATM   23  C   UNL     1     -10.289   5.500  66.837  1.00  0.00    -0.265 C  
HETATM   24  N   UNL     1     -10.205   5.169  68.243  1.00  0.00    -0.143 NA 
ENDBRANCH  15  16
ENDBRANCH  14  15
ENDBRANCH  11  14
ENDBRANCH   7   8
TORSDOF 4
ENDMDL
MODEL      186
REMARK 921   NORMALIZED FREE ENERGY PREDICTED BY IDOCK:   -4.42 KCAL/MOL
REMARK 922        TOTAL FREE ENERGY PREDICTED BY IDOCK:   -5.71 KCAL/MOL
REMARK 923 INTER-LIGAND FREE ENERGY PREDICTED BY IDOCK:   -5.54 KCAL/MOL
REMARK 924 INTRA-LIGAND FREE ENERGY PREDICTED BY IDOCK:   -0.18 KCAL/MOL
REMARK 927      BINDING AFFINITY PREDICTED BY RF-SCORE:    0.00 PKD
ROOT
HETATM    1  C   UNL     1     -10.161  13.812  66.261  1.00  0.00    -0.298 C  
HETATM    2  C   UNL     1     -10.797  13.791  67.626  1.00  0.00    -0.264 A  
HETATM    3  C   UNL     1     -11.137  15.054  68.167  1.00  0.00    -0.296 A  
HETATM    4  C   UNL     1     -11.808  15.161  69.383  1.00  0.00    -0.357 A  
HETATM    5  C   UNL     1     -12.153  14.013  70.073  1.00  0.00    -0.412 A  
HETATM    6  C   UNL     1     -11.792  12.763  69.562  1.00  0.00    -0.379 A  
HETATM    7  C   UNL     1     -11.081  12.610  68.354  1.00  0.00    -0.265 A  
ENDROOT
BRANCH   7   8
HETATM    8  N   UNL     1     -10.647  11.338  68.007  1.00  0.00    -0.186 NA 
HETATM    9  C   UNL     1     -11.121  10.681  66.788  1.00  0.00    -0.030 C  
HETATM   10  C   UNL     1     -10.024   9.778  66.192  1.00  0.00    -0.268 C  
HETATM   11  N   UNL     1      -9.482   8.767  67.130  1.00  0.00    -0.155 NA 
HETATM   12  C   UNL     1      -9.968  10.470  68.994  1.00  0.00    -0.211 C  
HETATM   13  C   UNL     1      -8.957   9.514  68.302  1.00  0.00    -0.124 C  
BRANCH  11  14
HETATM   14  C   UNL     1     -10.487   7.766  67.559  1.00  0.00    -0.268 C  
BRANCH  14  15
HETATM   15  C   UNL     1      -9.869   6.380  67.764  1.00  0.00    -0.136 C  
BRANCH  15  16
HETATM   16  C   UNL     1      -9.346   6.146  69.132  1.00  0.00    -0.126 A  
HETATM   17  N   UNL     1      -8.105   5.961  69.531  1.00  0.00    -0.104 NA 
HETATM   18  N   UNL     1      -8.115   5.771  70.898  1.00  0.00    -0.117 NA 
HETATM   19  C   UNL     1      -9.363   5.845  71.305  1.00  0.00    -0.156 A  
HETATM   20  C   UNL     1      -9.907   5.708  72.681  1.00  0.00    -0.182 C  
HETATM   21  C   UNL     1     -11.429   5.514  72.665  1.00  0.00    -0.331 C  
HETATM   22  C   UNL     1     -12.100   6.495  71.704  1.00  0.00    -0.381 C  
HETATM   23  C   UNL     1     -11.597   6.273  70.278  1.00  0.00    -0.309 C  
HETATM   24  N   UNL     1     -10.159   6.114  70.230  1.00  0.00    -0.182 NA 
ENDBRANCH  15  16
ENDBRANCH  14  15
ENDBRANCH  11  14
ENDBRANCH   7   8
TORSDOF 4
ENDMDL
MODEL      187
REMARK 921   NORMALIZED FREE ENERGY PREDICTED BY IDOCK:   -4.38 KCAL/MOL
REMARK 922        TOTAL FREE ENERGY PREDICTED BY IDOCK:   -5.66 KCAL/MOL
REMARK 923 INTER-LIGAND FREE ENERGY PREDICTED BY IDOCK:   -5.31 KCAL/MOL
REMARK 924 INTRA-LIGAND FREE ENERGY PREDICTED BY IDOCK:   -0.36 KCAL/MOL
REMARK 927      BINDING AFFINITY PREDICTED BY RF-SCORE:    0.00 PKD
ROOT
HETATM    1  C   UNL     1     -10.731   7.519  70.107  1.00  0.00    -0.248 C  
HETATM    2  C   UNL     1      -9.757   6.674  69.330  1.00  0.00    -0.151 A  
HETATM    3  C   UNL     1      -9.462   5.405  69.884  1.00  0.00    -0.210 A  
HETATM    4  C   UNL     1      -8.643   4.499  69.216  1.00  0.00    -0.101 A  
HETATM    5  C   UNL     1      -8.111   4.840  67.986  1.00  0.00    -0.089 A  
HETATM    6  C   UNL     1      -8.370   6.104  67.447  1.00  0.00    -0.108 A  
HETATM    7  C   UNL     1      -9.163   7.066  68.106  1.00  0.00    -0.130 A  
ENDROOT
BRANCH   7   8
HETATM    8  N   UNL     1      -9.241   8.338  67.554  1.00  0.00    -0.136 NA 
HETATM    9  C   UNL     1      -8.588   9.482  68.192  1.00  0.00    -0.120 C  
HETATM   10  C   UNL     1      -8.105  10.494  67.135  1.00  0.00    -0.120 C  
HETATM   11  N   UNL     1      -9.160  10.967  66.208  1.00  0.00    -0.176 NA 
HETATM   12  C   UNL     1     -10.240   8.655  66.511  1.00  0.00    -0.225 C  
HETATM   13  C   UNL     1      -9.721   9.760  65.551  1.00  0.00    -0.312 C  
BRANCH  11  14
HETATM   14  C   UNL     1     -10.233  11.737  66.885  1.00  0.00    -0.209 C  
BRANCH  14  15
HETATM   15  C   UNL     1      -9.698  12.556  68.062  1.00  0.00    -0.215 C  
BRANCH  15  16
HETATM   16  C   UNL     1     -10.692  13.486  68.653  1.00  0.00    -0.253 A  
HETATM   17  N   UNL     1     -10.932  14.747  68.361  1.00  0.00    -0.244 NA 
HETATM   18  N   UNL     1     -11.941  15.197  69.187  1.00  0.00    -0.297 NA 
HETATM   19  C   UNL     1     -12.297  14.201  69.967  1.00  0.00    -0.344 A  
HETATM   20  C   UNL     1     -13.335  14.170  71.029  1.00  0.00    -0.288 C  
HETATM   21  C   UNL     1     -13.187  12.931  71.922  1.00  0.00    -0.521 C  
HETATM   22  C   UNL     1     -12.953  11.672  71.086  1.00  0.00    -0.308 C  
HETATM   23  C   UNL     1     -11.667  11.805  70.271  1.00  0.00    -0.228 C  
HETATM   24  N   UNL     1     -11.560  13.101  69.637  1.00  0.00    -0.276 NA 
ENDBRANCH  15  16
ENDBRANCH  14  15
ENDBRANCH  11  14
ENDBRANCH   7   8
TORSDOF 4
ENDMDL
MODEL      188
REMARK 921   NORMALIZED FREE ENERGY PREDICTED BY IDOCK:   -4.38 KCAL/MOL
REMARK 922        TOTAL FREE ENERGY PREDICTED BY IDOCK:   -5.66 KCAL/MOL
REMARK 923 INTER-LIGAND FREE ENERGY PREDICTED BY IDOCK:   -5.58 KCAL/MOL
REMARK 924 INTRA-LIGAND FREE ENERGY PREDICTED BY IDOCK:   -0.08 KCAL/MOL
REMARK 927      BINDING AFFINITY PREDICTED BY RF-SCORE:    0.00 PKD
ROOT
HETATM    1  C   UNL     1      -7.604  18.503  66.615  1.00  0.00    -0.259 C  
HETATM    2  C   UNL     1      -7.104  17.554  67.670  1.00  0.00    -0.180 A  
HETATM    3  C   UNL     1      -5.887  17.915  68.298  1.00  0.00    -0.168 A  
HETATM    4  C   UNL     1      -5.367  17.164  69.349  1.00  0.00    -0.165 A  
HETATM    5  C   UNL     1      -6.051  16.047  69.791  1.00  0.00    -0.173 A  
HETATM    6  C   UNL     1      -7.235  15.663  69.154  1.00  0.00    -0.178 A  
HETATM    7  C   UNL     1      -7.779  16.373  68.064  1.00  0.00    -0.153 A  
ENDROOT
BRANCH   7   8
HETATM    8  N   UNL     1      -8.878  15.831  67.413  1.00  0.00    -0.182 NA 
HETATM    9  C   UNL     1      -9.629  14.716  67.993  1.00  0.00    -0.212 C  
HETATM   10  C   UNL     1     -11.121  14.810  67.622  1.00  0.00    -0.306 C  
HETATM   11  N   UNL     1     -11.389  14.896  66.167  1.00  0.00    -0.335 NA 
HETATM   12  C   UNL     1      -9.136  16.118  65.985  1.00  0.00    -0.318 C  
HETATM   13  C   UNL     1     -10.657  16.087  65.669  1.00  0.00    -0.377 C  
BRANCH  11  14
HETATM   14  C   UNL     1     -10.977  13.682  65.422  1.00  0.00    -0.298 C  
BRANCH  14  15
HETATM   15  C   UNL     1     -11.707  12.429  65.912  1.00  0.00    -0.476 C  
BRANCH  15  16
HETATM   16  C   UNL     1     -10.874  11.202  65.908  1.00  0.00    -0.157 A  
HETATM   17  N   UNL     1     -10.441  10.490  64.889  1.00  0.00    -0.242 NA 
HETATM   18  N   UNL     1      -9.711   9.428  65.384  1.00  0.00    -0.249 NA 
HETATM   19  C   UNL     1      -9.714   9.514  66.696  1.00  0.00    -0.211 A  
HETATM   20  C   UNL     1      -9.075   8.617  67.693  1.00  0.00    -0.145 C  
HETATM   21  C   UNL     1      -9.612   8.878  69.107  1.00  0.00    -0.162 C  
HETATM   22  C   UNL     1      -9.680  10.376  69.403  1.00  0.00    -0.222 C  
HETATM   23  C   UNL     1     -10.622  11.072  68.421  1.00  0.00    -0.193 C  
HETATM   24  N   UNL     1     -10.404  10.634  67.060  1.00  0.00    -0.220 NA 
ENDBRANCH  15  16
ENDBRANCH  14  15
ENDBRANCH  11  14
ENDBRANCH   7   8
TORSDOF 4
ENDMDL
MODEL      189
REMARK 921   NORMALIZED FREE ENERGY PREDICTED BY IDOCK:   -4.38 KCAL/MOL
REMARK 922        TOTAL FREE ENERGY PREDICTED BY IDOCK:   -5.66 KCAL/MOL
REMARK 923 INTER-LIGAND FREE ENERGY PREDICTED BY IDOCK:   -5.96 KCAL/MOL
REMARK 924 INTRA-LIGAND FREE ENERGY PREDICTED BY IDOCK:    0.30 KCAL/MOL
REMARK 927      BINDING AFFINITY PREDICTED BY RF-SCORE:    0.00 PKD
ROOT
HETATM    1  C   UNL     1      -9.806  10.052  65.654  1.00  0.00    -0.363 C  
HETATM    2  C   UNL     1     -10.509  11.280  66.169  1.00  0.00    -0.305 A  
HETATM    3  C   UNL     1     -10.593  12.367  65.266  1.00  0.00    -0.322 A  
HETATM    4  C   UNL     1     -11.293  13.525  65.594  1.00  0.00    -0.312 A  
HETATM    5  C   UNL     1     -11.921  13.615  66.822  1.00  0.00    -0.458 A  
HETATM    6  C   UNL     1     -11.815  12.560  67.734  1.00  0.00    -0.375 A  
HETATM    7  C   UNL     1     -11.087  11.385  67.457  1.00  0.00    -0.281 A  
ENDROOT
BRANCH   7   8
HETATM    8  N   UNL     1     -10.924  10.461  68.480  1.00  0.00    -0.238 NA 
HETATM    9  C   UNL     1     -11.300  10.780  69.858  1.00  0.00    -0.311 C  
HETATM   10  C   UNL     1     -11.805   9.524  70.592  1.00  0.00    -0.233 C  
HETATM   11  N   UNL     1     -10.859   8.382  70.580  1.00  0.00    -0.229 NA 
HETATM   12  C   UNL     1     -10.075   9.264  68.297  1.00  0.00    -0.185 C  
HETATM   13  C   UNL     1     -10.586   8.073  69.154  1.00  0.00    -0.169 C  
BRANCH  11  14
HETATM   14  C   UNL     1      -9.595   8.660  71.304  1.00  0.00    -0.225 C  
BRANCH  14  15
HETATM   15  C   UNL     1      -8.854   7.375  71.683  1.00  0.00    -0.125 C  
BRANCH  15  16
HETATM   16  C   UNL     1      -9.581   6.521  72.654  1.00  0.00    -0.150 A  
HETATM   17  N   UNL     1     -10.180   6.857  73.777  1.00  0.00    -0.332 NA 
HETATM   18  N   UNL     1     -10.707   5.714  74.344  1.00  0.00    -0.182 NA 
HETATM   19  C   UNL     1     -10.417   4.703  73.556  1.00  0.00    -0.216 A  
HETATM   20  C   UNL     1     -10.753   3.266  73.718  1.00  0.00    -0.298 C  
HETATM   21  C   UNL     1      -9.934   2.387  72.763  1.00  0.00    -0.201 C  
HETATM   22  C   UNL     1      -9.906   2.981  71.354  1.00  0.00    -0.173 C  
HETATM   23  C   UNL     1      -9.257   4.365  71.373  1.00  0.00    -0.133 C  
HETATM   24  N   UNL     1      -9.742   5.176  72.468  1.00  0.00    -0.149 NA 
ENDBRANCH  15  16
ENDBRANCH  14  15
ENDBRANCH  11  14
ENDBRANCH   7   8
TORSDOF 4
ENDMDL
MODEL      190
REMARK 921   NORMALIZED FREE ENERGY PREDICTED BY IDOCK:   -4.37 KCAL/MOL
REMARK 922        TOTAL FREE ENERGY PREDICTED BY IDOCK:   -5.65 KCAL/MOL
REMARK 923 INTER-LIGAND FREE ENERGY PREDICTED BY IDOCK:   -5.73 KCAL/MOL
REMARK 924 INTRA-LIGAND FREE ENERGY PREDICTED BY IDOCK:    0.08 KCAL/MOL
REMARK 927      BINDING AFFINITY PREDICTED BY RF-SCORE:    0.00 PKD
ROOT
HETATM    1  C   UNL     1      -7.143  17.433  66.111  1.00  0.00    -0.320 C  
HETATM    2  C   UNL     1      -6.771  16.952  67.488  1.00  0.00    -0.173 A  
HETATM    3  C   UNL     1      -5.600  17.522  68.045  1.00  0.00    -0.134 A  
HETATM    4  C   UNL     1      -5.199  17.222  69.344  1.00  0.00    -0.162 A  
HETATM    5  C   UNL     1      -5.960  16.358  70.109  1.00  0.00    -0.134 A  
HETATM    6  C   UNL     1      -7.100  15.764  69.556  1.00  0.00    -0.190 A  
HETATM    7  C   UNL     1      -7.521  16.011  68.233  1.00  0.00    -0.136 A  
ENDROOT
BRANCH   7   8
HETATM    8  N   UNL     1      -8.580  15.265  67.735  1.00  0.00    -0.154 NA 
HETATM    9  C   UNL     1      -9.313  14.326  68.586  1.00  0.00    -0.172 C  
HETATM   10  C   UNL     1     -10.795  14.254  68.170  1.00  0.00    -0.244 C  
HETATM   11  N   UNL     1     -11.018  13.920  66.743  1.00  0.00    -0.296 NA 
HETATM   12  C   UNL     1      -8.800  15.133  66.278  1.00  0.00    -0.176 C  
HETATM   13  C   UNL     1     -10.308  14.955  65.950  1.00  0.00    -0.314 C  
BRANCH  11  14
HETATM   14  C   UNL     1     -10.542  12.565  66.376  1.00  0.00    -0.247 C  
BRANCH  14  15
HETATM   15  C   UNL     1     -11.399  11.463  67.006  1.00  0.00    -0.309 C  
BRANCH  15  16
HETATM   16  C   UNL     1     -10.679  10.632  68.002  1.00  0.00    -0.233 A  
HETATM   17  N   UNL     1      -9.540   9.985  67.882  1.00  0.00    -0.144 NA 
HETATM   18  N   UNL     1      -9.281   9.341  69.075  1.00  0.00    -0.142 NA 
HETATM   19  C   UNL     1     -10.269   9.608  69.899  1.00  0.00    -0.245 A  
HETATM   20  C   UNL     1     -10.467   9.156  71.300  1.00  0.00    -0.398 C  
HETATM   21  C   UNL     1     -11.904   9.407  71.773  1.00  0.00    -0.452 C  
HETATM   22  C   UNL     1     -12.378  10.807  71.380  1.00  0.00    -0.433 C  
HETATM   23  C   UNL     1     -12.362  10.966  69.860  1.00  0.00    -0.285 C  
HETATM   24  N   UNL     1     -11.147  10.445  69.273  1.00  0.00    -0.238 NA 
ENDBRANCH  15  16
ENDBRANCH  14  15
ENDBRANCH  11  14
ENDBRANCH   7   8
TORSDOF 4
ENDMDL
MODEL      191
REMARK 921   NORMALIZED FREE ENERGY PREDICTED BY IDOCK:   -4.37 KCAL/MOL
REMARK 922        TOTAL FREE ENERGY PREDICTED BY IDOCK:   -5.65 KCAL/MOL
REMARK 923 INTER-LIGAND FREE ENERGY PREDICTED BY IDOCK:   -5.19 KCAL/MOL
REMARK 924 INTRA-LIGAND FREE ENERGY PREDICTED BY IDOCK:   -0.46 KCAL/MOL
REMARK 927      BINDING AFFINITY PREDICTED BY RF-SCORE:    0.00 PKD
ROOT
HETATM    1  C   UNL     1     -11.986  14.372  66.215  1.00  0.00    -0.391 C  
HETATM    2  C   UNL     1     -11.056  15.066  67.173  1.00  0.00    -0.332 A  
HETATM    3  C   UNL     1     -10.653  16.373  66.806  1.00  0.00    -0.238 A  
HETATM    4  C   UNL     1      -9.863  17.149  67.650  1.00  0.00    -0.270 A  
HETATM    5  C   UNL     1      -9.469  16.638  68.873  1.00  0.00    -0.251 A  
HETATM    6  C   UNL     1      -9.834  15.336  69.230  1.00  0.00    -0.255 A  
HETATM    7  C   UNL     1     -10.601  14.503  68.390  1.00  0.00    -0.244 A  
ENDROOT
BRANCH   7   8
HETATM    8  N   UNL     1     -10.788  13.182  68.775  1.00  0.00    -0.255 NA 
HETATM    9  C   UNL     1     -11.852  12.808  69.708  1.00  0.00    -0.310 C  
HETATM   10  C   UNL     1     -12.396  11.403  69.382  1.00  0.00    -0.118 C  
HETATM   11  N   UNL     1     -11.365  10.339  69.340  1.00  0.00    -0.237 NA 
HETATM   12  C   UNL     1      -9.743  12.164  68.535  1.00  0.00    -0.149 C  
HETATM   13  C   UNL     1     -10.366  10.756  68.323  1.00  0.00    -0.173 C  
BRANCH  11  14
HETATM   14  C   UNL     1     -10.709  10.105  70.649  1.00  0.00    -0.173 C  
BRANCH  14  15
HETATM   15  C   UNL     1      -9.574   9.083  70.550  1.00  0.00    -0.264 C  
BRANCH  15  16
HETATM   16  C   UNL     1      -9.953   7.820  69.871  1.00  0.00    -0.191 A  
HETATM   17  N   UNL     1     -11.036   7.086  70.018  1.00  0.00    -0.275 NA 
HETATM   18  N   UNL     1     -10.935   5.994  69.180  1.00  0.00    -0.357 NA 
HETATM   19  C   UNL     1      -9.791   6.085  68.538  1.00  0.00    -0.130 A  
HETATM   20  C   UNL     1      -9.211   5.164  67.528  1.00  0.00    -0.124 C  
HETATM   21  C   UNL     1      -7.722   5.453  67.294  1.00  0.00    -0.096 C  
HETATM   22  C   UNL     1      -7.468   6.954  67.152  1.00  0.00    -0.095 C  
HETATM   23  C   UNL     1      -7.881   7.687  68.428  1.00  0.00    -0.121 C  
HETATM   24  N   UNL     1      -9.165   7.236  68.919  1.00  0.00    -0.142 NA 
ENDBRANCH  15  16
ENDBRANCH  14  15
ENDBRANCH  11  14
ENDBRANCH   7   8
TORSDOF 4
ENDMDL
MODEL      192
REMARK 921   NORMALIZED FREE ENERGY PREDICTED BY IDOCK:   -4.35 KCAL/MOL
REMARK 922        TOTAL FREE ENERGY PREDICTED BY IDOCK:   -5.62 KCAL/MOL
REMARK 923 INTER-LIGAND FREE ENERGY PREDICTED BY IDOCK:   -5.13 KCAL/MOL
REMARK 924 INTRA-LIGAND FREE ENERGY PREDICTED BY IDOCK:   -0.49 KCAL/MOL
REMARK 927      BINDING AFFINITY PREDICTED BY RF-SCORE:    0.00 PKD
ROOT
HETATM    1  C   UNL     1     -11.946   7.207  71.833  1.00  0.00    -0.343 C  
HETATM    2  C   UNL     1     -11.166   5.921  71.887  1.00  0.00    -0.323 A  
HETATM    3  C   UNL     1     -11.187   5.239  73.128  1.00  0.00    -0.382 A  
HETATM    4  C   UNL     1     -10.575   3.997  73.280  1.00  0.00    -0.270 A  
HETATM    5  C   UNL     1      -9.939   3.416  72.199  1.00  0.00    -0.230 A  
HETATM    6  C   UNL     1      -9.884   4.097  70.979  1.00  0.00    -0.247 A  
HETATM    7  C   UNL     1     -10.458   5.372  70.791  1.00  0.00    -0.247 A  
ENDROOT
BRANCH   7   8
HETATM    8  N   UNL     1     -10.226   6.023  69.588  1.00  0.00    -0.191 NA 
HETATM    9  C   UNL     1      -9.399   7.229  69.525  1.00  0.00    -0.152 C  
HETATM   10  C   UNL     1      -8.635   7.299  68.189  1.00  0.00    -0.122 C  
HETATM   11  N   UNL     1      -9.493   7.213  66.984  1.00  0.00    -0.147 NA 
HETATM   12  C   UNL     1     -11.053   5.736  68.395  1.00  0.00     0.067 C  
HETATM   13  C   UNL     1     -10.241   5.935  67.086  1.00  0.00    -0.203 C  
BRANCH  11  14
HETATM   14  C   UNL     1     -10.429   8.355  66.848  1.00  0.00    -0.289 C  
BRANCH  14  15
HETATM   15  C   UNL     1      -9.693   9.691  66.717  1.00  0.00    -0.252 C  
BRANCH  15  16
HETATM   16  C   UNL     1      -9.583  10.188  65.324  1.00  0.00    -0.277 A  
HETATM   17  N   UNL     1     -10.505  10.727  64.555  1.00  0.00    -0.339 NA 
HETATM   18  N   UNL     1      -9.931  11.020  63.334  1.00  0.00    -0.348 NA 
HETATM   19  C   UNL     1      -8.670  10.654  63.384  1.00  0.00    -0.164 A  
HETATM   20  C   UNL     1      -7.625  10.753  62.333  1.00  0.00    -0.153 C  
HETATM   21  C   UNL     1      -6.397   9.902  62.680  1.00  0.00    -0.114 C  
HETATM   22  C   UNL     1      -5.989  10.092  64.141  1.00  0.00    -0.130 C  
HETATM   23  C   UNL     1      -7.123   9.660  65.071  1.00  0.00    -0.116 C  
HETATM   24  N   UNL     1      -8.406  10.161  64.629  1.00  0.00    -0.160 NA 
ENDBRANCH  15  16
ENDBRANCH  14  15
ENDBRANCH  11  14
ENDBRANCH   7   8
TORSDOF 4
ENDMDL
MODEL      193
REMARK 921   NORMALIZED FREE ENERGY PREDICTED BY IDOCK:   -4.34 KCAL/MOL
REMARK 922        TOTAL FREE ENERGY PREDICTED BY IDOCK:   -5.62 KCAL/MOL
REMARK 923 INTER-LIGAND FREE ENERGY PREDICTED BY IDOCK:   -5.33 KCAL/MOL
REMARK 924 INTRA-LIGAND FREE ENERGY PREDICTED BY IDOCK:   -0.29 KCAL/MOL
REMARK 927      BINDING AFFINITY PREDICTED BY RF-SCORE:    0.00 PKD
ROOT
HETATM    1  C   UNL     1      -9.080   4.990  68.386  1.00  0.00    -0.137 C  
HETATM    2  C   UNL     1      -9.752   5.725  69.515  1.00  0.00    -0.199 A  
HETATM    3  C   UNL     1     -10.208   4.922  70.589  1.00  0.00    -0.282 A  
HETATM    4  C   UNL     1     -10.768   5.493  71.729  1.00  0.00    -0.289 A  
HETATM    5  C   UNL     1     -10.877   6.868  71.819  1.00  0.00    -0.253 A  
HETATM    6  C   UNL     1     -10.460   7.667  70.749  1.00  0.00    -0.211 A  
HETATM    7  C   UNL     1      -9.922   7.130  69.562  1.00  0.00    -0.164 A  
ENDROOT
BRANCH   7   8
HETATM    8  N   UNL     1      -9.672   7.997  68.507  1.00  0.00    -0.155 NA 
HETATM    9  C   UNL     1      -8.912   9.232  68.704  1.00  0.00    -0.132 C  
HETATM   10  C   UNL     1      -8.093   9.577  67.445  1.00  0.00    -0.110 C  
HETATM   11  N   UNL     1      -8.890   9.669  66.199  1.00  0.00    -0.145 NA 
HETATM   12  C   UNL     1     -10.427   7.891  67.239  1.00  0.00    -0.320 C  
HETATM   13  C   UNL     1      -9.569   8.359  66.032  1.00  0.00    -0.126 C  
BRANCH  11  14
HETATM   14  C   UNL     1      -9.882  10.771  66.216  1.00  0.00    -0.215 C  
BRANCH  14  15
HETATM   15  C   UNL     1      -9.289  12.071  66.767  1.00  0.00    -0.206 C  
BRANCH  15  16
HETATM   16  C   UNL     1     -10.231  13.216  66.763  1.00  0.00    -0.252 A  
HETATM   17  N   UNL     1     -11.315  13.402  66.040  1.00  0.00    -0.304 NA 
HETATM   18  N   UNL     1     -11.855  14.626  66.379  1.00  0.00    -0.338 NA 
HETATM   19  C   UNL     1     -11.089  15.162  67.302  1.00  0.00    -0.332 A  
HETATM   20  C   UNL     1     -11.234  16.468  67.995  1.00  0.00    -0.202 C  
HETATM   21  C   UNL     1      -9.947  16.856  68.736  1.00  0.00    -0.276 C  
HETATM   22  C   UNL     1      -9.382  15.669  69.517  1.00  0.00    -0.263 C  
HETATM   23  C   UNL     1      -9.035  14.523  68.566  1.00  0.00    -0.188 C  
HETATM   24  N   UNL     1     -10.080  14.291  67.594  1.00  0.00    -0.228 NA 
ENDBRANCH  15  16
ENDBRANCH  14  15
ENDBRANCH  11  14
ENDBRANCH   7   8
TORSDOF 4
ENDMDL
MODEL      194
REMARK 921   NORMALIZED FREE ENERGY PREDICTED BY IDOCK:   -4.33 KCAL/MOL
REMARK 922        TOTAL FREE ENERGY PREDICTED BY IDOCK:   -5.60 KCAL/MOL
REMARK 923 INTER-LIGAND FREE ENERGY PREDICTED BY IDOCK:   -4.99 KCAL/MOL
REMARK 924 INTRA-LIGAND FREE ENERGY PREDICTED BY IDOCK:   -0.61 KCAL/MOL
REMARK 927      BINDING AFFINITY PREDICTED BY RF-SCORE:    0.00 PKD
ROOT
HETATM    1  C   UNL     1      -9.224   9.053  65.455  1.00  0.00    -0.262 C  
HETATM    2  C   UNL     1      -8.280   8.099  64.774  1.00  0.00    -0.137 A  
HETATM    3  C   UNL     1      -7.720   8.550  63.554  1.00  0.00    -0.142 A  
HETATM    4  C   UNL     1      -6.768   7.795  62.874  1.00  0.00    -0.075 A  
HETATM    5  C   UNL     1      -6.357   6.585  63.400  1.00  0.00    -0.037 A  
HETATM    6  C   UNL     1      -6.929   6.115  64.587  1.00  0.00    -0.051 A  
HETATM    7  C   UNL     1      -7.921   6.830  65.289  1.00  0.00    -0.127 A  
ENDROOT
BRANCH   7   8
HETATM    8  N   UNL     1      -8.525   6.213  66.376  1.00  0.00    -0.119 NA 
HETATM    9  C   UNL     1      -9.734   5.403  66.214  1.00  0.00    -0.162 C  
HETATM   10  C   UNL     1      -9.755   4.244  67.229  1.00  0.00    -0.175 C  
HETATM   11  N   UNL     1      -9.615   4.663  68.644  1.00  0.00    -0.155 NA 
HETATM   12  C   UNL     1      -8.185   6.608  67.761  1.00  0.00    -0.119 C  
HETATM   13  C   UNL     1      -8.336   5.412  68.741  1.00  0.00    -0.097 C  
BRANCH  11  14
HETATM   14  C   UNL     1     -10.743   5.496  69.124  1.00  0.00    -0.190 C  
BRANCH  14  15
HETATM   15  C   UNL     1     -10.533   5.978  70.562  1.00  0.00    -0.303 C  
BRANCH  15  16
HETATM   16  C   UNL     1     -11.502   7.010  71.003  1.00  0.00    -0.303 A  
HETATM   17  N   UNL     1     -12.558   6.888  71.780  1.00  0.00    -0.359 NA 
HETATM   18  N   UNL     1     -13.157   8.126  71.893  1.00  0.00    -0.331 NA 
HETATM   19  C   UNL     1     -12.454   8.979  71.182  1.00  0.00    -0.231 A  
HETATM   20  C   UNL     1     -12.681  10.433  70.975  1.00  0.00    -0.490 C  
HETATM   21  C   UNL     1     -11.841  10.971  69.809  1.00  0.00    -0.421 C  
HETATM   22  C   UNL     1     -10.404  10.454  69.880  1.00  0.00    -0.231 C  
HETATM   23  C   UNL     1     -10.382   8.928  69.793  1.00  0.00    -0.207 C  
HETATM   24  N   UNL     1     -11.389   8.323  70.638  1.00  0.00    -0.262 NA 
ENDBRANCH  15  16
ENDBRANCH  14  15
ENDBRANCH  11  14
ENDBRANCH   7   8
TORSDOF 4
ENDMDL
MODEL      195
REMARK 921   NORMALIZED FREE ENERGY PREDICTED BY IDOCK:   -4.32 KCAL/MOL
REMARK 922        TOTAL FREE ENERGY PREDICTED BY IDOCK:   -5.59 KCAL/MOL
REMARK 923 INTER-LIGAND FREE ENERGY PREDICTED BY IDOCK:   -5.17 KCAL/MOL
REMARK 924 INTRA-LIGAND FREE ENERGY PREDICTED BY IDOCK:   -0.42 KCAL/MOL
REMARK 927      BINDING AFFINITY PREDICTED BY RF-SCORE:    0.00 PKD
ROOT
HETATM    1  C   UNL     1      -5.344   4.839  64.821  1.00  0.00    -0.013 C  
HETATM    2  C   UNL     1      -6.607   4.294  64.209  1.00  0.00    -0.043 A  
HETATM    3  C   UNL     1      -6.517   2.988  63.668  1.00  0.00    -0.030 A  
HETATM    4  C   UNL     1      -7.637   2.342  63.152  1.00  0.00    -0.058 A  
HETATM    5  C   UNL     1      -8.861   2.984  63.171  1.00  0.00    -0.092 A  
HETATM    6  C   UNL     1      -8.953   4.286  63.672  1.00  0.00    -0.138 A  
HETATM    7  C   UNL     1      -7.838   4.991  64.170  1.00  0.00    -0.095 A  
ENDROOT
BRANCH   7   8
HETATM    8  N   UNL     1      -8.008   6.326  64.512  1.00  0.00    -0.121 NA 
HETATM    9  C   UNL     1      -8.541   6.712  65.819  1.00  0.00    -0.140 C  
HETATM   10  C   UNL     1      -7.923   8.042  66.290  1.00  0.00    -0.105 C  
HETATM   11  N   UNL     1      -8.073   9.164  65.333  1.00  0.00    -0.119 NA 
HETATM   12  C   UNL     1      -7.979   7.385  63.480  1.00  0.00    -0.071 C  
HETATM   13  C   UNL     1      -7.445   8.723  64.061  1.00  0.00    -0.116 C  
BRANCH  11  14
HETATM   14  C   UNL     1      -9.484   9.559  65.108  1.00  0.00    -0.236 C  
BRANCH  14  15
HETATM   15  C   UNL     1      -9.609  10.698  64.093  1.00  0.00    -0.353 C  
BRANCH  15  16
HETATM   16  C   UNL     1     -10.795  11.564  64.298  1.00  0.00    -0.359 A  
HETATM   17  N   UNL     1     -11.900  11.649  63.587  1.00  0.00    -0.375 NA 
HETATM   18  N   UNL     1     -12.711  12.607  64.162  1.00  0.00    -0.712 NA 
HETATM   19  C   UNL     1     -12.084  13.087  65.213  1.00  0.00    -0.441 A  
HETATM   20  C   UNL     1     -12.527  14.135  66.167  1.00  0.00    -0.426 C  
HETATM   21  C   UNL     1     -11.361  14.636  67.031  1.00  0.00    -0.362 C  
HETATM   22  C   UNL     1     -10.524  13.470  67.556  1.00  0.00    -0.237 C  
HETATM   23  C   UNL     1      -9.925  12.678  66.394  1.00  0.00    -0.255 C  
HETATM   24  N   UNL     1     -10.895  12.432  65.350  1.00  0.00    -0.277 NA 
ENDBRANCH  15  16
ENDBRANCH  14  15
ENDBRANCH  11  14
ENDBRANCH   7   8
TORSDOF 4
ENDMDL
MODEL      196
REMARK 921   NORMALIZED FREE ENERGY PREDICTED BY IDOCK:   -4.32 KCAL/MOL
REMARK 922        TOTAL FREE ENERGY PREDICTED BY IDOCK:   -5.58 KCAL/MOL
REMARK 923 INTER-LIGAND FREE ENERGY PREDICTED BY IDOCK:   -4.95 KCAL/MOL
REMARK 924 INTRA-LIGAND FREE ENERGY PREDICTED BY IDOCK:   -0.63 KCAL/MOL
REMARK 927      BINDING AFFINITY PREDICTED BY RF-SCORE:    0.00 PKD
ROOT
HETATM    1  C   UNL     1      -9.314  16.253  68.863  1.00  0.00    -0.248 C  
HETATM    2  C   UNL     1      -9.912  16.281  67.483  1.00  0.00    -0.248 A  
HETATM    3  C   UNL     1     -10.016  17.558  66.881  1.00  0.00    -0.313 A  
HETATM    4  C   UNL     1     -10.474  17.706  65.574  1.00  0.00    -0.048 A  
HETATM    5  C   UNL     1     -10.828  16.585  64.847  1.00  0.00    -0.222 A  
HETATM    6  C   UNL     1     -10.761  15.322  65.444  1.00  0.00    -0.407 A  
HETATM    7  C   UNL     1     -10.339  15.131  66.776  1.00  0.00    -0.273 A  
ENDROOT
BRANCH   7   8
HETATM    8  N   UNL     1     -10.443  13.857  67.318  1.00  0.00    -0.270 NA 
HETATM    9  C   UNL     1      -9.500  12.798  66.955  1.00  0.00    -0.235 C  
HETATM   10  C   UNL     1      -9.262  11.847  68.143  1.00  0.00    -0.187 C  
HETATM   11  N   UNL     1     -10.494  11.250  68.710  1.00  0.00    -0.202 NA 
HETATM   12  C   UNL     1     -11.677  13.422  68.008  1.00  0.00    -0.356 C  
HETATM   13  C   UNL     1     -11.364  12.382  69.119  1.00  0.00    -0.269 C  
BRANCH  11  14
HETATM   14  C   UNL     1     -11.207  10.363  67.760  1.00  0.00    -0.237 C  
BRANCH  14  15
HETATM   15  C   UNL     1     -10.593   8.962  67.707  1.00  0.00    -0.266 C  
BRANCH  15  16
HETATM   16  C   UNL     1      -9.813   8.688  66.475  1.00  0.00    -0.278 A  
HETATM   17  N   UNL     1      -9.727   9.394  65.368  1.00  0.00    -0.249 NA 
HETATM   18  N   UNL     1      -8.888   8.730  64.496  1.00  0.00    -0.049 NA 
HETATM   19  C   UNL     1      -8.479   7.631  65.091  1.00  0.00    -0.043 A  
HETATM   20  C   UNL     1      -7.569   6.575  64.579  1.00  0.00    -0.101 C  
HETATM   21  C   UNL     1      -7.633   5.311  65.446  1.00  0.00    -0.082 C  
HETATM   22  C   UNL     1      -7.591   5.659  66.934  1.00  0.00    -0.096 C  
HETATM   23  C   UNL     1      -8.787   6.533  67.310  1.00  0.00    -0.112 C  
HETATM   24  N   UNL     1      -9.010   7.589  66.347  1.00  0.00    -0.161 NA 
ENDBRANCH  15  16
ENDBRANCH  14  15
ENDBRANCH  11  14
ENDBRANCH   7   8
TORSDOF 4
ENDMDL
MODEL      197
REMARK 921   NORMALIZED FREE ENERGY PREDICTED BY IDOCK:   -4.31 KCAL/MOL
REMARK 922        TOTAL FREE ENERGY PREDICTED BY IDOCK:   -5.57 KCAL/MOL
REMARK 923 INTER-LIGAND FREE ENERGY PREDICTED BY IDOCK:   -4.94 KCAL/MOL
REMARK 924 INTRA-LIGAND FREE ENERGY PREDICTED BY IDOCK:   -0.64 KCAL/MOL
REMARK 927      BINDING AFFINITY PREDICTED BY RF-SCORE:    0.00 PKD
ROOT
HETATM    1  C   UNL     1      -9.476  13.852  67.386  1.00  0.00    -0.226 C  
HETATM    2  C   UNL     1     -10.465  13.544  66.293  1.00  0.00    -0.290 A  
HETATM    3  C   UNL     1     -11.011  14.665  65.621  1.00  0.00    -0.336 A  
HETATM    4  C   UNL     1     -11.870  14.508  64.537  1.00  0.00    -0.459 A  
HETATM    5  C   UNL     1     -12.193  13.236  64.103  1.00  0.00    -0.465 A  
HETATM    6  C   UNL     1     -11.686  12.123  64.782  1.00  0.00    -0.390 A  
HETATM    7  C   UNL     1     -10.843  12.236  65.907  1.00  0.00    -0.271 A  
ENDROOT
BRANCH   7   8
HETATM    8  N   UNL     1     -10.510  11.076  66.593  1.00  0.00    -0.247 NA 
HETATM    9  C   UNL     1      -9.492  10.157  66.081  1.00  0.00    -0.188 C  
HETATM   10  C   UNL     1      -8.734   9.482  67.239  1.00  0.00    -0.128 C  
HETATM   11  N   UNL     1      -9.600   8.780  68.215  1.00  0.00    -0.145 NA 
HETATM   12  C   UNL     1     -11.380  10.552  67.669  1.00  0.00    -0.154 C  
HETATM   13  C   UNL     1     -10.552   9.791  68.741  1.00  0.00    -0.219 C  
BRANCH  11  14
HETATM   14  C   UNL     1     -10.331   7.630  67.631  1.00  0.00    -0.237 C  
BRANCH  14  15
HETATM   15  C   UNL     1      -9.548   6.321  67.765  1.00  0.00    -0.118 C  
BRANCH  15  16
HETATM   16  C   UNL     1      -9.471   5.531  66.512  1.00  0.00    -0.151 A  
HETATM   17  N   UNL     1     -10.379   4.758  65.955  1.00  0.00    -0.285 NA 
HETATM   18  N   UNL     1      -9.842   4.222  64.802  1.00  0.00    -0.176 NA 
HETATM   19  C   UNL     1      -8.616   4.680  64.679  1.00  0.00    -0.144 A  
HETATM   20  C   UNL     1      -7.618   4.405  63.614  1.00  0.00    -0.066 C  
HETATM   21  C   UNL     1      -6.212   4.856  64.032  1.00  0.00    -0.022 C  
HETATM   22  C   UNL     1      -6.246   6.247  64.666  1.00  0.00    -0.030 C  
HETATM   23  C   UNL     1      -7.116   6.239  65.922  1.00  0.00    -0.066 C  
HETATM   24  N   UNL     1      -8.361   5.532  65.714  1.00  0.00    -0.123 NA 
ENDBRANCH  15  16
ENDBRANCH  14  15
ENDBRANCH  11  14
ENDBRANCH   7   8
TORSDOF 4
ENDMDL
MODEL      198
REMARK 921   NORMALIZED FREE ENERGY PREDICTED BY IDOCK:   -4.31 KCAL/MOL
REMARK 922        TOTAL FREE ENERGY PREDICTED BY IDOCK:   -5.57 KCAL/MOL
REMARK 923 INTER-LIGAND FREE ENERGY PREDICTED BY IDOCK:   -5.05 KCAL/MOL
REMARK 924 INTRA-LIGAND FREE ENERGY PREDICTED BY IDOCK:   -0.52 KCAL/MOL
REMARK 927      BINDING AFFINITY PREDICTED BY RF-SCORE:    0.00 PKD
ROOT
HETATM    1  C   UNL     1     -11.945  13.044  65.271  1.00  0.00    -0.446 C  
HETATM    2  C   UNL     1     -10.881  12.071  64.842  1.00  0.00    -0.349 A  
HETATM    3  C   UNL     1     -10.619  12.015  63.452  1.00  0.00    -0.478 A  
HETATM    4  C   UNL     1      -9.598  11.218  62.941  1.00  0.00    -0.377 A  
HETATM    5  C   UNL     1      -8.822  10.469  63.806  1.00  0.00    -0.208 A  
HETATM    6  C   UNL     1      -9.095  10.491  65.177  1.00  0.00    -0.227 A  
HETATM    7  C   UNL     1     -10.142  11.255  65.733  1.00  0.00    -0.247 A  
ENDROOT
BRANCH   7   8
HETATM    8  N   UNL     1     -10.420  11.098  67.084  1.00  0.00    -0.219 NA 
HETATM    9  C   UNL     1      -9.840  11.993  68.087  1.00  0.00    -0.201 C  
HETATM   10  C   UNL     1     -10.811  12.195  69.266  1.00  0.00    -0.051 C  
HETATM   11  N   UNL     1     -11.263  10.940  69.912  1.00  0.00    -0.285 NA 
HETATM   12  C   UNL     1     -11.025   9.850  67.596  1.00  0.00    -0.200 C  
HETATM   13  C   UNL     1     -11.902  10.122  68.850  1.00  0.00     0.236 C  
BRANCH  11  14
HETATM   14  C   UNL     1     -10.164  10.184  70.560  1.00  0.00     0.035 C  
BRANCH  14  15
HETATM   15  C   UNL     1     -10.665   8.904  71.234  1.00  0.00    -0.357 C  
BRANCH  15  16
HETATM   16  C   UNL     1      -9.617   8.160  71.975  1.00  0.00    -0.219 A  
HETATM   17  N   UNL     1      -8.585   8.621  72.649  1.00  0.00    -0.407 NA 
HETATM   18  N   UNL     1      -7.884   7.545  73.156  1.00  0.00    -0.096 NA 
HETATM   19  C   UNL     1      -8.504   6.449  72.780  1.00  0.00    -0.121 A  
HETATM   20  C   UNL     1      -8.154   5.033  73.062  1.00  0.00    -0.105 C  
HETATM   21  C   UNL     1      -8.932   4.071  72.154  1.00  0.00    -0.145 C  
HETATM   22  C   UNL     1     -10.408   4.460  72.074  1.00  0.00    -0.189 C  
HETATM   23  C   UNL     1     -10.557   5.864  71.488  1.00  0.00    -0.245 C  
HETATM   24  N   UNL     1      -9.615   6.796  72.068  1.00  0.00    -0.148 NA 
ENDBRANCH  15  16
ENDBRANCH  14  15
ENDBRANCH  11  14
ENDBRANCH   7   8
TORSDOF 4
ENDMDL
MODEL      199
REMARK 921   NORMALIZED FREE ENERGY PREDICTED BY IDOCK:   -4.30 KCAL/MOL
REMARK 922        TOTAL FREE ENERGY PREDICTED BY IDOCK:   -5.57 KCAL/MOL
REMARK 923 INTER-LIGAND FREE ENERGY PREDICTED BY IDOCK:   -5.54 KCAL/MOL
REMARK 924 INTRA-LIGAND FREE ENERGY PREDICTED BY IDOCK:   -0.02 KCAL/MOL
REMARK 927      BINDING AFFINITY PREDICTED BY RF-SCORE:    0.00 PKD
ROOT
HETATM    1  C   UNL     1      -8.448   7.338  65.350  1.00  0.00    -0.096 C  
HETATM    2  C   UNL     1      -8.720   5.938  65.831  1.00  0.00    -0.152 A  
HETATM    3  C   UNL     1      -8.467   4.905  64.896  1.00  0.00    -0.144 A  
HETATM    4  C   UNL     1      -8.598   3.564  65.250  1.00  0.00    -0.112 A  
HETATM    5  C   UNL     1      -8.976   3.234  66.538  1.00  0.00    -0.161 A  
HETATM    6  C   UNL     1      -9.261   4.248  67.458  1.00  0.00    -0.174 A  
HETATM    7  C   UNL     1      -9.177   5.617  67.132  1.00  0.00    -0.114 A  
ENDROOT
BRANCH   7   8
HETATM    8  N   UNL     1      -9.617   6.541  68.071  1.00  0.00    -0.120 NA 
HETATM    9  C   UNL     1     -10.992   6.516  68.572  1.00  0.00    -0.286 C  
HETATM   10  C   UNL     1     -11.047   6.981  70.040  1.00  0.00    -0.278 C  
HETATM   11  N   UNL     1     -10.444   8.312  70.287  1.00  0.00    -0.214 NA 
HETATM   12  C   UNL     1      -8.842   7.769  68.352  1.00  0.00    -0.130 C  
HETATM   13  C   UNL     1      -9.037   8.234  69.821  1.00  0.00    -0.147 C  
BRANCH  11  14
HETATM   14  C   UNL     1     -11.159   9.416  69.601  1.00  0.00    -0.142 C  
BRANCH  14  15
HETATM   15  C   UNL     1     -10.322  10.697  69.546  1.00  0.00    -0.214 C  
BRANCH  15  16
HETATM   16  C   UNL     1     -11.042  11.867  68.986  1.00  0.00    -0.246 A  
HETATM   17  N   UNL     1     -11.586  12.890  69.612  1.00  0.00    -0.274 NA 
HETATM   18  N   UNL     1     -12.154  13.720  68.667  1.00  0.00    -0.355 NA 
HETATM   19  C   UNL     1     -11.945  13.187  67.484  1.00  0.00    -0.317 A  
HETATM   20  C   UNL     1     -12.357  13.687  66.148  1.00  0.00    -0.476 C  
HETATM   21  C   UNL     1     -12.221  12.598  65.075  1.00  0.00    -0.535 C  
HETATM   22  C   UNL     1     -10.888  11.860  65.205  1.00  0.00    -0.350 C  
HETATM   23  C   UNL     1     -10.789  11.174  66.567  1.00  0.00    -0.245 C  
HETATM   24  N   UNL     1     -11.220  12.042  67.642  1.00  0.00    -0.262 NA 
ENDBRANCH  15  16
ENDBRANCH  14  15
ENDBRANCH  11  14
ENDBRANCH   7   8
TORSDOF 4
ENDMDL
MODEL      200
REMARK 921   NORMALIZED FREE ENERGY PREDICTED BY IDOCK:   -4.29 KCAL/MOL
REMARK 922        TOTAL FREE ENERGY PREDICTED BY IDOCK:   -5.56 KCAL/MOL
REMARK 923 INTER-LIGAND FREE ENERGY PREDICTED BY IDOCK:   -5.28 KCAL/MOL
REMARK 924 INTRA-LIGAND FREE ENERGY PREDICTED BY IDOCK:   -0.27 KCAL/MOL
REMARK 927      BINDING AFFINITY PREDICTED BY RF-SCORE:    0.00 PKD
ROOT
HETATM    1  C   UNL     1      -9.154   4.501  70.056  1.00  0.00    -0.161 C  
HETATM    2  C   UNL     1      -9.910   4.592  71.355  1.00  0.00    -0.264 A  
HETATM    3  C   UNL     1     -10.193   3.360  71.991  1.00  0.00    -0.116 A  
HETATM    4  C   UNL     1     -10.811   3.317  73.239  1.00  0.00    -0.283 A  
HETATM    5  C   UNL     1     -11.149   4.499  73.871  1.00  0.00    -0.267 A  
HETATM    6  C   UNL     1     -10.904   5.720  73.235  1.00  0.00    -0.306 A  
HETATM    7  C   UNL     1     -10.315   5.808  71.957  1.00  0.00    -0.208 A  
ENDROOT
BRANCH   7   8
HETATM    8  N   UNL     1     -10.245   7.057  71.355  1.00  0.00    -0.197 NA 
HETATM    9  C   UNL     1     -11.437   7.700  70.801  1.00  0.00    -0.277 C  
HETATM   10  C   UNL     1     -11.349   9.231  70.946  1.00  0.00    -0.308 C  
HETATM   11  N   UNL     1     -10.131   9.836  70.356  1.00  0.00    -0.270 NA 
HETATM   12  C   UNL     1      -8.945   7.634  70.949  1.00  0.00    -0.148 C  
HETATM   13  C   UNL     1      -8.972   9.186  71.018  1.00  0.00    -0.214 C  
BRANCH  11  14
HETATM   14  C   UNL     1     -10.049   9.673  68.884  1.00  0.00    -0.187 C  
BRANCH  14  15
HETATM   15  C   UNL     1      -9.297  10.829  68.218  1.00  0.00    -0.161 C  
BRANCH  15  16
HETATM   16  C   UNL     1      -9.727  11.108  66.826  1.00  0.00    -0.193 A  
HETATM   17  N   UNL     1     -10.727  11.847  66.394  1.00  0.00    -0.256 NA 
HETATM   18  N   UNL     1     -10.737  11.795  65.015  1.00  0.00    -0.283 NA 
HETATM   19  C   UNL     1      -9.742  11.025  64.634  1.00  0.00    -0.266 A  
HETATM   20  C   UNL     1      -9.325  10.648  63.259  1.00  0.00    -0.329 C  
HETATM   21  C   UNL     1      -8.345   9.468  63.274  1.00  0.00    -0.181 C  
HETATM   22  C   UNL     1      -7.267   9.659  64.342  1.00  0.00    -0.122 C  
HETATM   23  C   UNL     1      -7.902   9.744  65.730  1.00  0.00    -0.110 C  
HETATM   24  N   UNL     1      -9.064  10.605  65.741  1.00  0.00    -0.179 NA 
ENDBRANCH  15  16
ENDBRANCH  14  15
ENDBRANCH  11  14
ENDBRANCH   7   8
TORSDOF 4
ENDMDL
MODEL      201
REMARK 921   NORMALIZED FREE ENERGY PREDICTED BY IDOCK:   -4.29 KCAL/MOL
REMARK 922        TOTAL FREE ENERGY PREDICTED BY IDOCK:   -5.55 KCAL/MOL
REMARK 923 INTER-LIGAND FREE ENERGY PREDICTED BY IDOCK:   -5.03 KCAL/MOL
REMARK 924 INTRA-LIGAND FREE ENERGY PREDICTED BY IDOCK:   -0.51 KCAL/MOL
REMARK 927      BINDING AFFINITY PREDICTED BY RF-SCORE:    0.00 PKD
ROOT
HETATM    1  C   UNL     1      -9.601  12.184  65.763  1.00  0.00    -0.209 C  
HETATM    2  C   UNL     1     -10.382  12.761  66.913  1.00  0.00    -0.245 A  
HETATM    3  C   UNL     1     -10.742  14.125  66.791  1.00  0.00    -0.286 A  
HETATM    4  C   UNL     1     -11.538  14.750  67.748  1.00  0.00    -0.378 A  
HETATM    5  C   UNL     1     -11.989  14.026  68.835  1.00  0.00    -0.387 A  
HETATM    6  C   UNL     1     -11.610  12.687  68.982  1.00  0.00    -0.367 A  
HETATM    7  C   UNL     1     -10.777  12.026  68.057  1.00  0.00    -0.212 A  
ENDROOT
BRANCH   7   8
HETATM    8  N   UNL     1     -10.345  10.744  68.366  1.00  0.00    -0.171 NA 
HETATM    9  C   UNL     1     -10.821   9.581  67.615  1.00  0.00    -0.187 C  
HETATM   10  C   UNL     1      -9.725   8.501  67.528  1.00  0.00    -0.162 C  
HETATM   11  N   UNL     1      -9.183   8.068  68.837  1.00  0.00    -0.147 NA 
HETATM   12  C   UNL     1      -9.666  10.458  69.649  1.00  0.00    -0.124 C  
HETATM   13  C   UNL     1      -8.657   9.286  69.503  1.00  0.00    -0.147 C  
BRANCH  11  14
HETATM   14  C   UNL     1     -10.189   7.398  69.696  1.00  0.00    -0.210 C  
BRANCH  14  15
HETATM   15  C   UNL     1     -10.909   6.263  68.963  1.00  0.00    -0.400 C  
BRANCH  15  16
HETATM   16  C   UNL     1     -10.126   5.007  68.873  1.00  0.00    -0.144 A  
HETATM   17  N   UNL     1      -9.652   4.248  69.838  1.00  0.00    -0.194 NA 
HETATM   18  N   UNL     1      -8.977   3.190  69.263  1.00  0.00    -0.103 NA 
HETATM   19  C   UNL     1      -9.052   3.326  67.958  1.00  0.00    -0.167 A  
HETATM   20  C   UNL     1      -8.490   2.457  66.893  1.00  0.00    -0.104 C  
HETATM   21  C   UNL     1      -8.509   3.157  65.528  1.00  0.00    -0.103 C  
HETATM   22  C   UNL     1      -9.851   3.847  65.281  1.00  0.00    -0.178 C  
HETATM   23  C   UNL     1     -10.106   4.913  66.346  1.00  0.00    -0.258 C  
HETATM   24  N   UNL     1      -9.796   4.435  67.676  1.00  0.00    -0.149 NA 
ENDBRANCH  15  16
ENDBRANCH  14  15
ENDBRANCH  11  14
ENDBRANCH   7   8
TORSDOF 4
ENDMDL
MODEL      202
REMARK 921   NORMALIZED FREE ENERGY PREDICTED BY IDOCK:   -4.28 KCAL/MOL
REMARK 922        TOTAL FREE ENERGY PREDICTED BY IDOCK:   -5.54 KCAL/MOL
REMARK 923 INTER-LIGAND FREE ENERGY PREDICTED BY IDOCK:   -4.91 KCAL/MOL
REMARK 924 INTRA-LIGAND FREE ENERGY PREDICTED BY IDOCK:   -0.63 KCAL/MOL
REMARK 927      BINDING AFFINITY PREDICTED BY RF-SCORE:    0.00 PKD
ROOT
HETATM    1  C   UNL     1      -8.404   9.536  68.731  1.00  0.00    -0.117 C  
HETATM    2  C   UNL     1      -9.583  10.433  68.996  1.00  0.00    -0.212 A  
HETATM    3  C   UNL     1      -9.520  11.722  68.413  1.00  0.00    -0.188 A  
HETATM    4  C   UNL     1     -10.586  12.613  68.514  1.00  0.00    -0.262 A  
HETATM    5  C   UNL     1     -11.729  12.231  69.191  1.00  0.00    -0.377 A  
HETATM    6  C   UNL     1     -11.787  10.973  69.798  1.00  0.00    -0.421 A  
HETATM    7  C   UNL     1     -10.718  10.055  69.752  1.00  0.00    -0.271 A  
ENDROOT
BRANCH   7   8
HETATM    8  N   UNL     1     -10.821   8.893  70.505  1.00  0.00    -0.228 NA 
HETATM    9  C   UNL     1     -10.452   8.873  71.922  1.00  0.00    -0.345 C  
HETATM   10  C   UNL     1     -11.335   7.880  72.702  1.00  0.00    -0.408 C  
HETATM   11  N   UNL     1     -11.336   6.500  72.161  1.00  0.00    -0.268 NA 
HETATM   12  C   UNL     1     -10.980   7.575  69.854  1.00  0.00    -0.211 C  
HETATM   13  C   UNL     1     -11.789   6.597  70.751  1.00  0.00    -0.383 C  
BRANCH  11  14
HETATM   14  C   UNL     1     -10.011   5.839  72.239  1.00  0.00    -0.170 C  
BRANCH  14  15
HETATM   15  C   UNL     1     -10.091   4.347  71.907  1.00  0.00    -0.245 C  
BRANCH  15  16
HETATM   16  C   UNL     1      -8.866   3.801  71.273  1.00  0.00    -0.096 A  
HETATM   17  N   UNL     1      -7.790   3.292  71.836  1.00  0.00    -0.054 NA 
HETATM   18  N   UNL     1      -6.911   2.928  70.836  1.00  0.00    -0.033 NA 
HETATM   19  C   UNL     1      -7.470   3.222  69.683  1.00  0.00    -0.044 A  
HETATM   20  C   UNL     1      -6.936   3.030  68.310  1.00  0.00    -0.049 C  
HETATM   21  C   UNL     1      -7.749   3.821  67.276  1.00  0.00    -0.079 C  
HETATM   22  C   UNL     1      -9.251   3.653  67.511  1.00  0.00    -0.224 C  
HETATM   23  C   UNL     1      -9.635   4.178  68.894  1.00  0.00    -0.152 C  
HETATM   24  N   UNL     1      -8.711   3.738  69.916  1.00  0.00    -0.072 NA 
ENDBRANCH  15  16
ENDBRANCH  14  15
ENDBRANCH  11  14
ENDBRANCH   7   8
TORSDOF 4
ENDMDL
MODEL      203
REMARK 921   NORMALIZED FREE ENERGY PREDICTED BY IDOCK:   -4.26 KCAL/MOL
REMARK 922        TOTAL FREE ENERGY PREDICTED BY IDOCK:   -5.52 KCAL/MOL
REMARK 923 INTER-LIGAND FREE ENERGY PREDICTED BY IDOCK:   -5.00 KCAL/MOL
REMARK 924 INTRA-LIGAND FREE ENERGY PREDICTED BY IDOCK:   -0.52 KCAL/MOL
REMARK 927      BINDING AFFINITY PREDICTED BY RF-SCORE:    0.00 PKD
ROOT
HETATM    1  C   UNL     1     -11.516  11.621  67.754  1.00  0.00    -0.373 C  
HETATM    2  C   UNL     1     -11.459  12.604  66.616  1.00  0.00    -0.409 A  
HETATM    3  C   UNL     1     -12.503  13.559  66.572  1.00  0.00    -0.309 A  
HETATM    4  C   UNL     1     -12.515  14.573  65.618  1.00  0.00    -0.238 A  
HETATM    5  C   UNL     1     -11.485  14.655  64.700  1.00  0.00    -0.389 A  
HETATM    6  C   UNL     1     -10.466  13.696  64.714  1.00  0.00    -0.436 A  
HETATM    7  C   UNL     1     -10.435  12.632  65.638  1.00  0.00    -0.275 A  
ENDROOT
BRANCH   7   8
HETATM    8  N   UNL     1      -9.461  11.656  65.478  1.00  0.00    -0.221 NA 
HETATM    9  C   UNL     1      -9.595  10.610  64.462  1.00  0.00    -0.286 C  
HETATM   10  C   UNL     1      -8.214  10.202  63.913  1.00  0.00    -0.164 C  
HETATM   11  N   UNL     1      -7.242   9.777  64.949  1.00  0.00    -0.122 NA 
HETATM   12  C   UNL     1      -8.435  11.427  66.518  1.00  0.00    -0.170 C  
HETATM   13  C   UNL     1      -7.107  10.913  65.895  1.00  0.00    -0.029 C  
BRANCH  11  14
HETATM   14  C   UNL     1      -7.650   8.546  65.667  1.00  0.00    -0.090 C  
BRANCH  14  15
HETATM   15  C   UNL     1      -6.885   8.366  66.982  1.00  0.00    -0.070 C  
BRANCH  15  16
HETATM   16  C   UNL     1      -7.513   7.404  67.920  1.00  0.00    -0.101 A  
HETATM   17  N   UNL     1      -7.360   6.100  68.006  1.00  0.00    -0.086 NA 
HETATM   18  N   UNL     1      -8.162   5.637  69.029  1.00  0.00    -0.100 NA 
HETATM   19  C   UNL     1      -8.789   6.669  69.547  1.00  0.00    -0.139 A  
HETATM   20  C   UNL     1      -9.765   6.705  70.666  1.00  0.00    -0.183 C  
HETATM   21  C   UNL     1     -10.510   8.045  70.719  1.00  0.00    -0.221 C  
HETATM   22  C   UNL     1      -9.546   9.219  70.547  1.00  0.00    -0.317 C  
HETATM   23  C   UNL     1      -8.845   9.138  69.191  1.00  0.00    -0.146 C  
HETATM   24  N   UNL     1      -8.380   7.799  68.901  1.00  0.00    -0.127 NA 
ENDBRANCH  15  16
ENDBRANCH  14  15
ENDBRANCH  11  14
ENDBRANCH   7   8
TORSDOF 4
ENDMDL
MODEL      204
REMARK 921   NORMALIZED FREE ENERGY PREDICTED BY IDOCK:   -4.26 KCAL/MOL
REMARK 922        TOTAL FREE ENERGY PREDICTED BY IDOCK:   -5.52 KCAL/MOL
REMARK 923 INTER-LIGAND FREE ENERGY PREDICTED BY IDOCK:   -5.02 KCAL/MOL
REMARK 924 INTRA-LIGAND FREE ENERGY PREDICTED BY IDOCK:   -0.50 KCAL/MOL
REMARK 927      BINDING AFFINITY PREDICTED BY RF-SCORE:    0.00 PKD
ROOT
HETATM    1  C   UNL     1     -11.784  12.756  67.270  1.00  0.00    -0.440 C  
HETATM    2  C   UNL     1     -11.525  12.350  65.844  1.00  0.00    -0.422 A  
HETATM    3  C   UNL     1     -12.349  12.963  64.869  1.00  0.00    -0.532 A  
HETATM    4  C   UNL     1     -12.151  12.735  63.510  1.00  0.00    -0.642 A  
HETATM    5  C   UNL     1     -11.128  11.899  63.103  1.00  0.00    -0.267 A  
HETATM    6  C   UNL     1     -10.331  11.263  64.060  1.00  0.00    -0.430 A  
HETATM    7  C   UNL     1     -10.520  11.437  65.446  1.00  0.00    -0.280 A  
ENDROOT
BRANCH   7   8
HETATM    8  N   UNL     1      -9.770  10.652  66.311  1.00  0.00    -0.192 NA 
HETATM    9  C   UNL     1     -10.321   9.429  66.897  1.00  0.00    -0.238 C  
HETATM   10  C   UNL     1      -9.217   8.374  67.099  1.00  0.00    -0.143 C  
HETATM   11  N   UNL     1      -8.060   8.840  67.901  1.00  0.00    -0.107 NA 
HETATM   12  C   UNL     1      -8.534  11.174  66.934  1.00  0.00    -0.147 C  
HETATM   13  C   UNL     1      -7.515  10.033  67.206  1.00  0.00    -0.091 C  
BRANCH  11  14
HETATM   14  C   UNL     1      -8.413   9.170  69.303  1.00  0.00    -0.132 C  
BRANCH  14  15
HETATM   15  C   UNL     1      -7.213   9.042  70.245  1.00  0.00    -0.058 C  
BRANCH  15  16
HETATM   16  C   UNL     1      -7.045   7.690  70.831  1.00  0.00    -0.054 A  
HETATM   17  N   UNL     1      -6.549   6.599  70.287  1.00  0.00    -0.043 NA 
HETATM   18  N   UNL     1      -6.611   5.584  71.220  1.00  0.00    -0.039 NA 
HETATM   19  C   UNL     1      -7.145   6.077  72.315  1.00  0.00    -0.084 A  
HETATM   20  C   UNL     1      -7.430   5.395  73.604  1.00  0.00    -0.091 C  
HETATM   21  C   UNL     1      -8.365   6.233  74.486  1.00  0.00    -0.131 C  
HETATM   22  C   UNL     1      -7.933   7.700  74.510  1.00  0.00    -0.246 C  
HETATM   23  C   UNL     1      -7.981   8.292  73.102  1.00  0.00    -0.140 C  
HETATM   24  N   UNL     1      -7.397   7.404  72.121  1.00  0.00    -0.071 NA 
ENDBRANCH  15  16
ENDBRANCH  14  15
ENDBRANCH  11  14
ENDBRANCH   7   8
TORSDOF 4
ENDMDL
MODEL      205
REMARK 921   NORMALIZED FREE ENERGY PREDICTED BY IDOCK:   -4.26 KCAL/MOL
REMARK 922        TOTAL FREE ENERGY PREDICTED BY IDOCK:   -5.52 KCAL/MOL
REMARK 923 INTER-LIGAND FREE ENERGY PREDICTED BY IDOCK:   -4.97 KCAL/MOL
REMARK 924 INTRA-LIGAND FREE ENERGY PREDICTED BY IDOCK:   -0.55 KCAL/MOL
REMARK 927      BINDING AFFINITY PREDICTED BY RF-SCORE:    0.00 PKD
ROOT
HETATM    1  C   UNL     1     -12.891  12.642  64.894  1.00  0.00    -0.312 C  
HETATM    2  C   UNL     1     -11.899  13.692  65.318  1.00  0.00    -0.365 A  
HETATM    3  C   UNL     1     -11.794  14.820  64.467  1.00  0.00    -0.428 A  
HETATM    4  C   UNL     1     -10.976  15.897  64.795  1.00  0.00    -0.392 A  
HETATM    5  C   UNL     1     -10.256  15.871  65.975  1.00  0.00    -0.353 A  
HETATM    6  C   UNL     1     -10.328  14.747  66.805  1.00  0.00    -0.268 A  
HETATM    7  C   UNL     1     -11.114  13.619  66.493  1.00  0.00    -0.305 A  
ENDROOT
BRANCH   7   8
HETATM    8  N   UNL     1     -11.006  12.501  67.309  1.00  0.00    -0.252 NA 
HETATM    9  C   UNL     1     -11.398  12.549  68.718  1.00  0.00    -0.293 C  
HETATM   10  C   UNL     1     -11.962  11.191  69.176  1.00  0.00    -0.343 C  
HETATM   11  N   UNL     1     -11.057  10.040  68.944  1.00  0.00    -0.208 NA 
HETATM   12  C   UNL     1     -10.195  11.334  66.898  1.00  0.00    -0.219 C  
HETATM   13  C   UNL     1     -10.765  10.015  67.488  1.00  0.00    -0.281 C  
BRANCH  11  14
HETATM   14  C   UNL     1      -9.799  10.115  69.725  1.00  0.00    -0.208 C  
BRANCH  14  15
HETATM   15  C   UNL     1      -9.043   8.784  69.731  1.00  0.00    -0.151 C  
BRANCH  15  16
HETATM   16  C   UNL     1      -7.851   8.761  68.848  1.00  0.00    -0.104 A  
HETATM   17  N   UNL     1      -7.106   9.760  68.425  1.00  0.00    -0.072 NA 
HETATM   18  N   UNL     1      -6.115   9.246  67.613  1.00  0.00    -0.053 NA 
HETATM   19  C   UNL     1      -6.277   7.943  67.556  1.00  0.00    -0.051 A  
HETATM   20  C   UNL     1      -5.477   6.933  66.817  1.00  0.00    -0.018 C  
HETATM   21  C   UNL     1      -6.207   5.586  66.741  1.00  0.00    -0.035 C  
HETATM   22  C   UNL     1      -6.801   5.203  68.097  1.00  0.00    -0.060 C  
HETATM   23  C   UNL     1      -7.820   6.250  68.547  1.00  0.00    -0.105 C  
HETATM   24  N   UNL     1      -7.334   7.598  68.348  1.00  0.00    -0.093 NA 
ENDBRANCH  15  16
ENDBRANCH  14  15
ENDBRANCH  11  14
ENDBRANCH   7   8
TORSDOF 4
ENDMDL
MODEL      206
REMARK 921   NORMALIZED FREE ENERGY PREDICTED BY IDOCK:   -4.26 KCAL/MOL
REMARK 922        TOTAL FREE ENERGY PREDICTED BY IDOCK:   -5.51 KCAL/MOL
REMARK 923 INTER-LIGAND FREE ENERGY PREDICTED BY IDOCK:   -4.99 KCAL/MOL
REMARK 924 INTRA-LIGAND FREE ENERGY PREDICTED BY IDOCK:   -0.52 KCAL/MOL
REMARK 927      BINDING AFFINITY PREDICTED BY RF-SCORE:    0.00 PKD
ROOT
HETATM    1  C   UNL     1     -10.249  10.406  69.082  1.00  0.00    -0.239 C  
HETATM    2  C   UNL     1     -11.231  10.209  70.206  1.00  0.00    -0.387 A  
HETATM    3  C   UNL     1     -12.017  11.338  70.543  1.00  0.00    -0.467 A  
HETATM    4  C   UNL     1     -13.020  11.257  71.506  1.00  0.00    -0.520 A  
HETATM    5  C   UNL     1     -13.258  10.053  72.141  1.00  0.00    -0.489 A  
HETATM    6  C   UNL     1     -12.465   8.941  71.839  1.00  0.00    -0.445 A  
HETATM    7  C   UNL     1     -11.415   8.988  70.898  1.00  0.00    -0.291 A  
ENDROOT
BRANCH   7   8
HETATM    8  N   UNL     1     -10.599   7.872  70.774  1.00  0.00    -0.211 NA 
HETATM    9  C   UNL     1      -9.267   7.836  71.382  1.00  0.00    -0.134 C  
HETATM   10  C   UNL     1      -8.911   6.406  71.831  1.00  0.00    -0.138 C  
HETATM   11  N   UNL     1      -9.005   5.384  70.762  1.00  0.00    -0.135 NA 
HETATM   12  C   UNL     1     -10.885   6.827  69.768  1.00  0.00    -0.272 C  
HETATM   13  C   UNL     1     -10.397   5.433  70.249  1.00  0.00    -0.287 C  
BRANCH  11  14
HETATM   14  C   UNL     1      -8.036   5.597  69.659  1.00  0.00    -0.102 C  
BRANCH  14  15
HETATM   15  C   UNL     1      -7.681   4.291  68.943  1.00  0.00    -0.058 C  
BRANCH  15  16
HETATM   16  C   UNL     1      -8.438   4.064  67.688  1.00  0.00    -0.098 A  
HETATM   17  N   UNL     1      -9.514   3.334  67.482  1.00  0.00    -0.203 NA 
HETATM   18  N   UNL     1      -9.845   3.421  66.145  1.00  0.00     0.039 NA 
HETATM   19  C   UNL     1      -8.964   4.203  65.562  1.00  0.00    -0.131 A  
HETATM   20  C   UNL     1      -8.876   4.613  64.137  1.00  0.00    -0.140 C  
HETATM   21  C   UNL     1      -7.512   5.239  63.817  1.00  0.00    -0.059 C  
HETATM   22  C   UNL     1      -7.098   6.240  64.896  1.00  0.00    -0.060 C  
HETATM   23  C   UNL     1      -6.974   5.541  66.250  1.00  0.00    -0.060 C  
HETATM   24  N   UNL     1      -8.087   4.653  66.505  1.00  0.00    -0.103 NA 
ENDBRANCH  15  16
ENDBRANCH  14  15
ENDBRANCH  11  14
ENDBRANCH   7   8
TORSDOF 4
ENDMDL
MODEL      207
REMARK 921   NORMALIZED FREE ENERGY PREDICTED BY IDOCK:   -4.26 KCAL/MOL
REMARK 922        TOTAL FREE ENERGY PREDICTED BY IDOCK:   -5.51 KCAL/MOL
REMARK 923 INTER-LIGAND FREE ENERGY PREDICTED BY IDOCK:   -5.09 KCAL/MOL
REMARK 924 INTRA-LIGAND FREE ENERGY PREDICTED BY IDOCK:   -0.42 KCAL/MOL
REMARK 927      BINDING AFFINITY PREDICTED BY RF-SCORE:    0.00 PKD
ROOT
HETATM    1  C   UNL     1     -11.594   9.398  71.598  1.00  0.00    -0.466 C  
HETATM    2  C   UNL     1     -11.231   7.938  71.555  1.00  0.00    -0.286 A  
HETATM    3  C   UNL     1     -11.724   7.148  72.621  1.00  0.00    -0.171 A  
HETATM    4  C   UNL     1     -11.529   5.769  72.648  1.00  0.00    -0.337 A  
HETATM    5  C   UNL     1     -10.846   5.159  71.613  1.00  0.00    -0.124 A  
HETATM    6  C   UNL     1     -10.326   5.935  70.573  1.00  0.00    -0.297 A  
HETATM    7  C   UNL     1     -10.469   7.337  70.524  1.00  0.00    -0.217 A  
ENDROOT
BRANCH   7   8
HETATM    8  N   UNL     1      -9.796   8.029  69.526  1.00  0.00    -0.178 NA 
HETATM    9  C   UNL     1      -8.349   8.240  69.594  1.00  0.00    -0.123 C  
HETATM   10  C   UNL     1      -7.732   8.250  68.182  1.00  0.00    -0.106 C  
HETATM   11  N   UNL     1      -8.341   9.229  67.251  1.00  0.00    -0.124 NA 
HETATM   12  C   UNL     1     -10.530   8.856  68.545  1.00  0.00    -0.182 C  
HETATM   13  C   UNL     1      -9.788   8.904  67.181  1.00  0.00    -0.207 C  
BRANCH  11  14
HETATM   14  C   UNL     1      -8.144  10.638  67.670  1.00  0.00    -0.107 C  
BRANCH  14  15
HETATM   15  C   UNL     1      -8.979  11.610  66.833  1.00  0.00    -0.191 C  
BRANCH  15  16
HETATM   16  C   UNL     1      -9.708  12.626  67.632  1.00  0.00    -0.197 A  
HETATM   17  N   UNL     1     -10.278  12.507  68.812  1.00  0.00    -0.145 NA 
HETATM   18  N   UNL     1     -10.842  13.723  69.143  1.00  0.00    -0.212 NA 
HETATM   19  C   UNL     1     -10.605  14.558  68.156  1.00  0.00    -0.238 A  
HETATM   20  C   UNL     1     -11.001  15.984  68.023  1.00  0.00    -0.341 C  
HETATM   21  C   UNL     1     -10.828  16.481  66.581  1.00  0.00    -0.053 C  
HETATM   22  C   UNL     1      -9.487  16.033  66.000  1.00  0.00    -0.384 C  
HETATM   23  C   UNL     1      -9.402  14.508  65.971  1.00  0.00    -0.160 C  
HETATM   24  N   UNL     1      -9.864  13.916  67.207  1.00  0.00    -0.239 NA 
ENDBRANCH  15  16
ENDBRANCH  14  15
ENDBRANCH  11  14
ENDBRANCH   7   8
TORSDOF 4
ENDMDL
MODEL      208
REMARK 921   NORMALIZED FREE ENERGY PREDICTED BY IDOCK:   -4.25 KCAL/MOL
REMARK 922        TOTAL FREE ENERGY PREDICTED BY IDOCK:   -5.50 KCAL/MOL
REMARK 923 INTER-LIGAND FREE ENERGY PREDICTED BY IDOCK:   -5.01 KCAL/MOL
REMARK 924 INTRA-LIGAND FREE ENERGY PREDICTED BY IDOCK:   -0.49 KCAL/MOL
REMARK 927      BINDING AFFINITY PREDICTED BY RF-SCORE:    0.00 PKD
ROOT
HETATM    1  C   UNL     1     -10.673  14.718  64.832  1.00  0.00    -0.438 C  
HETATM    2  C   UNL     1     -10.455  15.539  66.075  1.00  0.00    -0.335 A  
HETATM    3  C   UNL     1     -10.335  16.936  65.877  1.00  0.00    -0.327 A  
HETATM    4  C   UNL     1     -10.217  17.810  66.955  1.00  0.00    -0.346 A  
HETATM    5  C   UNL     1     -10.223  17.307  68.243  1.00  0.00    -0.348 A  
HETATM    6  C   UNL     1     -10.308  15.926  68.446  1.00  0.00    -0.240 A  
HETATM    7  C   UNL     1     -10.391  15.003  67.383  1.00  0.00    -0.238 A  
ENDROOT
BRANCH   7   8
HETATM    8  N   UNL     1     -10.328  13.650  67.686  1.00  0.00    -0.237 NA 
HETATM    9  C   UNL     1      -9.127  12.864  67.398  1.00  0.00    -0.197 C  
HETATM   10  C   UNL     1      -8.934  11.755  68.450  1.00  0.00    -0.168 C  
HETATM   11  N   UNL     1     -10.099  10.854  68.615  1.00  0.00    -0.183 NA 
HETATM   12  C   UNL     1     -11.553  12.880  67.994  1.00  0.00    -0.342 C  
HETATM   13  C   UNL     1     -11.254  11.714  68.976  1.00  0.00    -0.262 C  
BRANCH  11  14
HETATM   14  C   UNL     1     -10.402  10.058  67.401  1.00  0.00    -0.238 C  
BRANCH  14  15
HETATM   15  C   UNL     1     -10.549   8.566  67.711  1.00  0.00    -0.242 C  
BRANCH  15  16
HETATM   16  C   UNL     1      -9.330   7.943  68.283  1.00  0.00    -0.143 A  
HETATM   17  N   UNL     1      -9.038   7.679  69.539  1.00  0.00    -0.147 NA 
HETATM   18  N   UNL     1      -7.782   7.108  69.579  1.00  0.00    -0.111 NA 
HETATM   19  C   UNL     1      -7.334   7.035  68.346  1.00  0.00    -0.100 A  
HETATM   20  C   UNL     1      -6.037   6.504  67.853  1.00  0.00    -0.027 C  
HETATM   21  C   UNL     1      -5.775   6.925  66.400  1.00  0.00    -0.029 C  
HETATM   22  C   UNL     1      -7.022   6.735  65.537  1.00  0.00    -0.063 C  
HETATM   23  C   UNL     1      -8.170   7.597  66.063  1.00  0.00    -0.128 C  
HETATM   24  N   UNL     1      -8.292   7.517  67.502  1.00  0.00    -0.116 NA 
ENDBRANCH  15  16
ENDBRANCH  14  15
ENDBRANCH  11  14
ENDBRANCH   7   8
TORSDOF 4
ENDMDL
MODEL      209
REMARK 921   NORMALIZED FREE ENERGY PREDICTED BY IDOCK:   -4.24 KCAL/MOL
REMARK 922        TOTAL FREE ENERGY PREDICTED BY IDOCK:   -5.49 KCAL/MOL
REMARK 923 INTER-LIGAND FREE ENERGY PREDICTED BY IDOCK:   -5.51 KCAL/MOL
REMARK 924 INTRA-LIGAND FREE ENERGY PREDICTED BY IDOCK:    0.02 KCAL/MOL
REMARK 927      BINDING AFFINITY PREDICTED BY RF-SCORE:    0.00 PKD
ROOT
HETATM    1  C   UNL     1      -9.879  10.815  64.214  1.00  0.00    -0.384 C  
HETATM    2  C   UNL     1     -10.751  11.908  64.771  1.00  0.00    -0.356 A  
HETATM    3  C   UNL     1     -11.190  12.881  63.841  1.00  0.00    -0.471 A  
HETATM    4  C   UNL     1     -12.071  13.892  64.216  1.00  0.00    -0.477 A  
HETATM    5  C   UNL     1     -12.530  13.946  65.519  1.00  0.00    -0.541 A  
HETATM    6  C   UNL     1     -12.076  13.009  66.453  1.00  0.00    -0.428 A  
HETATM    7  C   UNL     1     -11.156  11.992  66.125  1.00  0.00    -0.322 A  
ENDROOT
BRANCH   7   8
HETATM    8  N   UNL     1     -10.660  11.203  67.154  1.00  0.00    -0.231 NA 
HETATM    9  C   UNL     1      -9.373  10.517  67.031  1.00  0.00    -0.155 C  
HETATM   10  C   UNL     1      -8.672  10.422  68.400  1.00  0.00    -0.129 C  
HETATM   11  N   UNL     1      -9.483   9.784  69.464  1.00  0.00    -0.198 NA 
HETATM   12  C   UNL     1     -11.536  10.754  68.259  1.00  0.00    -0.280 C  
HETATM   13  C   UNL     1     -10.733  10.577  69.577  1.00  0.00    -0.255 C  
BRANCH  11  14
HETATM   14  C   UNL     1      -9.792   8.360  69.191  1.00  0.00    -0.183 C  
BRANCH  14  15
HETATM   15  C   UNL     1      -8.534   7.488  69.183  1.00  0.00    -0.136 C  
BRANCH  15  16
HETATM   16  C   UNL     1      -8.722   6.159  68.554  1.00  0.00    -0.111 A  
HETATM   17  N   UNL     1      -9.159   5.037  69.086  1.00  0.00    -0.097 NA 
HETATM   18  N   UNL     1      -9.149   4.062  68.109  1.00  0.00    -0.126 NA 
HETATM   19  C   UNL     1      -8.705   4.610  67.000  1.00  0.00    -0.104 A  
HETATM   20  C   UNL     1      -8.504   3.987  65.666  1.00  0.00    -0.109 C  
HETATM   21  C   UNL     1      -7.650   4.879  64.754  1.00  0.00    -0.077 C  
HETATM   22  C   UNL     1      -8.106   6.336  64.824  1.00  0.00    -0.127 C  
HETATM   23  C   UNL     1      -7.965   6.871  66.248  1.00  0.00    -0.108 C  
HETATM   24  N   UNL     1      -8.461   5.932  67.231  1.00  0.00    -0.105 NA 
ENDBRANCH  15  16
ENDBRANCH  14  15
ENDBRANCH  11  14
ENDBRANCH   7   8
TORSDOF 4
ENDMDL
MODEL      210
REMARK 921   NORMALIZED FREE ENERGY PREDICTED BY IDOCK:   -4.23 KCAL/MOL
REMARK 922        TOTAL FREE ENERGY PREDICTED BY IDOCK:   -5.48 KCAL/MOL
REMARK 923 INTER-LIGAND FREE ENERGY PREDICTED BY IDOCK:   -5.43 KCAL/MOL
REMARK 924 INTRA-LIGAND FREE ENERGY PREDICTED BY IDOCK:   -0.05 KCAL/MOL
REMARK 927      BINDING AFFINITY PREDICTED BY RF-SCORE:    0.00 PKD
ROOT
HETATM    1  C   UNL     1      -9.242   8.866  66.260  1.00  0.00    -0.261 C  
HETATM    2  C   UNL     1      -8.692   8.956  67.658  1.00  0.00    -0.124 A  
HETATM    3  C   UNL     1      -8.110   7.771  68.170  1.00  0.00    -0.123 A  
HETATM    4  C   UNL     1      -7.490   7.752  69.417  1.00  0.00    -0.088 A  
HETATM    5  C   UNL     1      -7.437   8.911  70.168  1.00  0.00    -0.065 A  
HETATM    6  C   UNL     1      -8.038  10.077  69.686  1.00  0.00    -0.180 A  
HETATM    7  C   UNL     1      -8.708  10.132  68.446  1.00  0.00    -0.123 A  
ENDROOT
BRANCH   7   8
HETATM    8  N   UNL     1      -9.392  11.297  68.124  1.00  0.00    -0.174 NA 
HETATM    9  C   UNL     1      -8.680  12.497  67.683  1.00  0.00    -0.177 C  
HETATM   10  C   UNL     1      -9.525  13.293  66.671  1.00  0.00    -0.260 C  
HETATM   11  N   UNL     1     -10.879  13.658  67.151  1.00  0.00    -0.283 NA 
HETATM   12  C   UNL     1     -10.804  11.484  68.522  1.00  0.00    -0.215 C  
HETATM   13  C   UNL     1     -11.560  12.387  67.507  1.00  0.00    -0.365 C  
BRANCH  11  14
HETATM   14  C   UNL     1     -10.862  14.582  68.311  1.00  0.00    -0.241 C  
BRANCH  14  15
HETATM   15  C   UNL     1      -9.478  15.197  68.535  1.00  0.00    -0.203 C  
BRANCH  15  16
HETATM   16  C   UNL     1      -9.433  16.669  68.353  1.00  0.00    -0.231 A  
HETATM   17  N   UNL     1     -10.205  17.599  68.874  1.00  0.00    -0.371 NA 
HETATM   18  N   UNL     1      -9.784  18.825  68.400  1.00  0.00    -0.354 NA 
HETATM   19  C   UNL     1      -8.763  18.617  67.598  1.00  0.00    -0.272 A  
HETATM   20  C   UNL     1      -7.958  19.605  66.836  1.00  0.00    -0.310 C  
HETATM   21  C   UNL     1      -7.098  18.921  65.764  1.00  0.00    -0.274 C  
HETATM   22  C   UNL     1      -6.402  17.681  66.325  1.00  0.00    -0.279 C  
HETATM   23  C   UNL     1      -7.434  16.660  66.803  1.00  0.00    -0.254 C  
HETATM   24  N   UNL     1      -8.492  17.280  67.571  1.00  0.00    -0.202 NA 
ENDBRANCH  15  16
ENDBRANCH  14  15
ENDBRANCH  11  14
ENDBRANCH   7   8
TORSDOF 4
ENDMDL
MODEL      211
REMARK 921   NORMALIZED FREE ENERGY PREDICTED BY IDOCK:   -4.22 KCAL/MOL
REMARK 922        TOTAL FREE ENERGY PREDICTED BY IDOCK:   -5.47 KCAL/MOL
REMARK 923 INTER-LIGAND FREE ENERGY PREDICTED BY IDOCK:   -4.94 KCAL/MOL
REMARK 924 INTRA-LIGAND FREE ENERGY PREDICTED BY IDOCK:   -0.53 KCAL/MOL
REMARK 927      BINDING AFFINITY PREDICTED BY RF-SCORE:    0.00 PKD
ROOT
HETATM    1  C   UNL     1     -10.226   5.107  72.583  1.00  0.00    -0.232 C  
HETATM    2  C   UNL     1      -8.791   5.539  72.443  1.00  0.00    -0.135 A  
HETATM    3  C   UNL     1      -7.837   4.739  73.117  1.00  0.00    -0.096 A  
HETATM    4  C   UNL     1      -6.472   4.984  72.994  1.00  0.00    -0.059 A  
HETATM    5  C   UNL     1      -6.038   6.025  72.194  1.00  0.00    -0.041 A  
HETATM    6  C   UNL     1      -6.973   6.842  71.552  1.00  0.00    -0.066 A  
HETATM    7  C   UNL     1      -8.365   6.652  71.678  1.00  0.00    -0.115 A  
ENDROOT
BRANCH   7   8
HETATM    8  N   UNL     1      -9.208   7.601  71.116  1.00  0.00    -0.146 NA 
HETATM    9  C   UNL     1      -9.414   7.670  69.669  1.00  0.00    -0.156 C  
HETATM   10  C   UNL     1     -10.847   8.134  69.342  1.00  0.00    -0.086 C  
HETATM   11  N   UNL     1     -11.235   9.419  69.969  1.00  0.00    -0.223 NA 
HETATM   12  C   UNL     1      -9.663   8.772  71.897  1.00  0.00    -0.316 C  
HETATM   13  C   UNL     1     -11.069   9.245  71.434  1.00  0.00    -0.367 C  
BRANCH  11  14
HETATM   14  C   UNL     1     -10.436  10.572  69.488  1.00  0.00    -0.235 C  
BRANCH  14  15
HETATM   15  C   UNL     1     -11.282  11.567  68.689  1.00  0.00    -0.307 C  
BRANCH  15  16
HETATM   16  C   UNL     1     -11.372  12.914  69.303  1.00  0.00    -0.243 A  
HETATM   17  N   UNL     1     -12.074  13.314  70.342  1.00  0.00    -0.352 NA 
HETATM   18  N   UNL     1     -11.843  14.662  70.527  1.00  0.00    -0.288 NA 
HETATM   19  C   UNL     1     -11.004  15.058  69.596  1.00  0.00    -0.279 A  
HETATM   20  C   UNL     1     -10.443  16.412  69.359  1.00  0.00    -0.309 C  
HETATM   21  C   UNL     1      -9.786  16.513  67.975  1.00  0.00    -0.240 C  
HETATM   22  C   UNL     1      -8.909  15.293  67.691  1.00  0.00    -0.180 C  
HETATM   23  C   UNL     1      -9.749  14.017  67.707  1.00  0.00    -0.228 C  
HETATM   24  N   UNL     1     -10.658  13.981  68.832  1.00  0.00    -0.245 NA 
ENDBRANCH  15  16
ENDBRANCH  14  15
ENDBRANCH  11  14
ENDBRANCH   7   8
TORSDOF 4
ENDMDL
MODEL      212
REMARK 921   NORMALIZED FREE ENERGY PREDICTED BY IDOCK:   -4.20 KCAL/MOL
REMARK 922        TOTAL FREE ENERGY PREDICTED BY IDOCK:   -5.44 KCAL/MOL
REMARK 923 INTER-LIGAND FREE ENERGY PREDICTED BY IDOCK:   -4.75 KCAL/MOL
REMARK 924 INTRA-LIGAND FREE ENERGY PREDICTED BY IDOCK:   -0.69 KCAL/MOL
REMARK 927      BINDING AFFINITY PREDICTED BY RF-SCORE:    0.00 PKD
ROOT
HETATM    1  C   UNL     1      -9.642  14.758  68.702  1.00  0.00    -0.218 C  
HETATM    2  C   UNL     1     -10.377  14.407  67.436  1.00  0.00    -0.252 A  
HETATM    3  C   UNL     1     -10.633  15.483  66.553  1.00  0.00    -0.307 A  
HETATM    4  C   UNL     1     -11.229  15.273  65.312  1.00  0.00    -0.338 A  
HETATM    5  C   UNL     1     -11.573  13.989  64.932  1.00  0.00    -0.369 A  
HETATM    6  C   UNL     1     -11.355  12.924  65.811  1.00  0.00    -0.349 A  
HETATM    7  C   UNL     1     -10.788  13.097  67.091  1.00  0.00    -0.257 A  
ENDROOT
BRANCH   7   8
HETATM    8  N   UNL     1     -10.745  12.000  67.940  1.00  0.00    -0.203 NA 
HETATM    9  C   UNL     1      -9.709  10.975  67.804  1.00  0.00    -0.170 C  
HETATM   10  C   UNL     1      -9.340  10.385  69.178  1.00  0.00    -0.199 C  
HETATM   11  N   UNL     1     -10.488   9.841  69.942  1.00  0.00    -0.241 NA 
HETATM   12  C   UNL     1     -11.907  11.643  68.783  1.00  0.00    -0.325 C  
HETATM   13  C   UNL     1     -11.457  10.955  70.101  1.00  0.00    -0.319 C  
BRANCH  11  14
HETATM   14  C   UNL     1     -11.133   8.679  69.285  1.00  0.00     0.138 C  
BRANCH  14  15
HETATM   15  C   UNL     1     -10.399   7.369  69.583  1.00  0.00    -0.226 C  
BRANCH  15  16
HETATM   16  C   UNL     1     -10.133   6.537  68.384  1.00  0.00    -0.160 A  
HETATM   17  N   UNL     1     -10.961   5.785  67.689  1.00  0.00    -0.169 NA 
HETATM   18  N   UNL     1     -10.250   5.193  66.665  1.00  0.00    -0.233 NA 
HETATM   19  C   UNL     1      -9.002   5.596  66.756  1.00  0.00    -0.116 A  
HETATM   20  C   UNL     1      -7.842   5.247  65.897  1.00  0.00    -0.103 C  
HETATM   21  C   UNL     1      -6.515   5.653  66.553  1.00  0.00    -0.050 C  
HETATM   22  C   UNL     1      -6.598   7.063  67.138  1.00  0.00    -0.055 C  
HETATM   23  C   UNL     1      -7.681   7.130  68.215  1.00  0.00    -0.120 C  
HETATM   24  N   UNL     1      -8.899   6.469  67.800  1.00  0.00    -0.114 NA 
ENDBRANCH  15  16
ENDBRANCH  14  15
ENDBRANCH  11  14
ENDBRANCH   7   8
TORSDOF 4
ENDMDL
MODEL      213
REMARK 921   NORMALIZED FREE ENERGY PREDICTED BY IDOCK:   -4.20 KCAL/MOL
REMARK 922        TOTAL FREE ENERGY PREDICTED BY IDOCK:   -5.44 KCAL/MOL
REMARK 923 INTER-LIGAND FREE ENERGY PREDICTED BY IDOCK:   -5.25 KCAL/MOL
REMARK 924 INTRA-LIGAND FREE ENERGY PREDICTED BY IDOCK:   -0.19 KCAL/MOL
REMARK 927      BINDING AFFINITY PREDICTED BY RF-SCORE:    0.00 PKD
ROOT
HETATM    1  C   UNL     1      -6.447   6.787  65.871  1.00  0.00    -0.050 C  
HETATM    2  C   UNL     1      -7.768   6.182  66.264  1.00  0.00    -0.099 A  
HETATM    3  C   UNL     1      -7.794   4.769  66.362  1.00  0.00    -0.099 A  
HETATM    4  C   UNL     1      -8.932   4.097  66.800  1.00  0.00    -0.131 A  
HETATM    5  C   UNL     1     -10.057   4.821  67.151  1.00  0.00    -0.210 A  
HETATM    6  C   UNL     1     -10.052   6.213  67.025  1.00  0.00    -0.222 A  
HETATM    7  C   UNL     1      -8.934   6.931  66.551  1.00  0.00    -0.150 A  
ENDROOT
BRANCH   7   8
HETATM    8  N   UNL     1      -9.079   8.294  66.330  1.00  0.00    -0.177 NA 
HETATM    9  C   UNL     1      -9.847   9.135  67.249  1.00  0.00    -0.189 C  
HETATM   10  C   UNL     1      -9.251  10.553  67.320  1.00  0.00    -0.143 C  
HETATM   11  N   UNL     1      -9.118  11.231  66.009  1.00  0.00    -0.206 NA 
HETATM   12  C   UNL     1      -8.760   8.889  65.013  1.00  0.00    -0.166 C  
HETATM   13  C   UNL     1      -8.269  10.355  65.162  1.00  0.00    -0.158 C  
BRANCH  11  14
HETATM   14  C   UNL     1     -10.419  11.492  65.348  1.00  0.00    -0.281 C  
BRANCH  14  15
HETATM   15  C   UNL     1     -11.252  12.530  66.105  1.00  0.00    -0.362 C  
BRANCH  15  16
HETATM   16  C   UNL     1     -10.987  13.931  65.699  1.00  0.00    -0.290 A  
HETATM   17  N   UNL     1     -11.627  14.684  64.829  1.00  0.00    -0.405 NA 
HETATM   18  N   UNL     1     -11.003  15.914  64.781  1.00  0.00    -0.552 NA 
HETATM   19  C   UNL     1      -9.995  15.887  65.624  1.00  0.00    -0.334 A  
HETATM   20  C   UNL     1      -9.014  16.956  65.943  1.00  0.00    -0.075 C  
HETATM   21  C   UNL     1      -7.807  16.399  66.710  1.00  0.00    -0.301 C  
HETATM   22  C   UNL     1      -8.252  15.454  67.826  1.00  0.00    -0.159 C  
HETATM   23  C   UNL     1      -9.013  14.263  67.244  1.00  0.00    -0.213 C  
HETATM   24  N   UNL     1      -9.975  14.672  66.245  1.00  0.00    -0.276 NA 
ENDBRANCH  15  16
ENDBRANCH  14  15
ENDBRANCH  11  14
ENDBRANCH   7   8
TORSDOF 4
ENDMDL
MODEL      214
REMARK 921   NORMALIZED FREE ENERGY PREDICTED BY IDOCK:   -4.19 KCAL/MOL
REMARK 922        TOTAL FREE ENERGY PREDICTED BY IDOCK:   -5.43 KCAL/MOL
REMARK 923 INTER-LIGAND FREE ENERGY PREDICTED BY IDOCK:   -5.62 KCAL/MOL
REMARK 924 INTRA-LIGAND FREE ENERGY PREDICTED BY IDOCK:    0.18 KCAL/MOL
REMARK 927      BINDING AFFINITY PREDICTED BY RF-SCORE:    0.00 PKD
ROOT
HETATM    1  C   UNL     1     -10.440  11.580  66.309  1.00  0.00    -0.294 C  
HETATM    2  C   UNL     1      -9.915  11.009  65.019  1.00  0.00    -0.340 A  
HETATM    3  C   UNL     1     -10.097  11.814  63.869  1.00  0.00    -0.399 A  
HETATM    4  C   UNL     1      -9.579  11.434  62.633  1.00  0.00    -0.173 A  
HETATM    5  C   UNL     1      -8.870  10.253  62.527  1.00  0.00    -0.258 A  
HETATM    6  C   UNL     1      -8.715   9.435  63.650  1.00  0.00    -0.222 A  
HETATM    7  C   UNL     1      -9.253   9.762  64.911  1.00  0.00    -0.257 A  
ENDROOT
BRANCH   7   8
HETATM    8  N   UNL     1      -9.165   8.818  65.925  1.00  0.00    -0.218 NA 
HETATM    9  C   UNL     1      -8.150   7.764  65.893  1.00  0.00    -0.121 C  
HETATM   10  C   UNL     1      -7.697   7.398  67.320  1.00  0.00    -0.116 C  
HETATM   11  N   UNL     1      -8.798   7.011  68.234  1.00  0.00    -0.127 NA 
HETATM   12  C   UNL     1     -10.272   8.628  66.887  1.00  0.00    -0.296 C  
HETATM   13  C   UNL     1      -9.743   8.155  68.269  1.00  0.00    -0.161 C  
BRANCH  11  14
HETATM   14  C   UNL     1      -9.496   5.770  67.820  1.00  0.00    -0.112 C  
BRANCH  14  15
HETATM   15  C   UNL     1      -9.968   4.946  69.020  1.00  0.00    -0.237 C  
BRANCH  15  16
HETATM   16  C   UNL     1     -10.677   5.736  70.056  1.00  0.00    -0.330 A  
HETATM   17  N   UNL     1     -11.895   6.234  70.039  1.00  0.00    -0.217 NA 
HETATM   18  N   UNL     1     -12.104   6.904  71.227  1.00  0.00    -0.355 NA 
HETATM   19  C   UNL     1     -11.009   6.801  71.946  1.00  0.00    -0.239 A  
HETATM   20  C   UNL     1     -10.723   7.347  73.297  1.00  0.00    -0.441 C  
HETATM   21  C   UNL     1      -9.223   7.295  73.617  1.00  0.00    -0.262 C  
HETATM   22  C   UNL     1      -8.622   5.944  73.228  1.00  0.00    -0.118 C  
HETATM   23  C   UNL     1      -8.778   5.704  71.727  1.00  0.00    -0.136 C  
HETATM   24  N   UNL     1     -10.104   6.044  71.259  1.00  0.00    -0.188 NA 
ENDBRANCH  15  16
ENDBRANCH  14  15
ENDBRANCH  11  14
ENDBRANCH   7   8
TORSDOF 4
ENDMDL
MODEL      215
REMARK 921   NORMALIZED FREE ENERGY PREDICTED BY IDOCK:   -4.19 KCAL/MOL
REMARK 922        TOTAL FREE ENERGY PREDICTED BY IDOCK:   -5.43 KCAL/MOL
REMARK 923 INTER-LIGAND FREE ENERGY PREDICTED BY IDOCK:   -5.31 KCAL/MOL
REMARK 924 INTRA-LIGAND FREE ENERGY PREDICTED BY IDOCK:   -0.12 KCAL/MOL
REMARK 927      BINDING AFFINITY PREDICTED BY RF-SCORE:    0.00 PKD
ROOT
HETATM    1  C   UNL     1     -10.242   7.479  70.023  1.00  0.00    -0.215 C  
HETATM    2  C   UNL     1      -9.557   6.156  69.808  1.00  0.00    -0.174 A  
HETATM    3  C   UNL     1      -9.747   5.190  70.826  1.00  0.00    -0.255 A  
HETATM    4  C   UNL     1      -9.236   3.901  70.702  1.00  0.00    -0.197 A  
HETATM    5  C   UNL     1      -8.535   3.554  69.562  1.00  0.00    -0.095 A  
HETATM    6  C   UNL     1      -8.313   4.511  68.566  1.00  0.00    -0.089 A  
HETATM    7  C   UNL     1      -8.781   5.838  68.668  1.00  0.00    -0.108 A  
ENDROOT
BRANCH   7   8
HETATM    8  N   UNL     1      -8.387   6.745  67.694  1.00  0.00    -0.122 NA 
HETATM    9  C   UNL     1      -7.337   7.731  67.957  1.00  0.00    -0.102 C  
HETATM   10  C   UNL     1      -6.532   8.026  66.676  1.00  0.00    -0.055 C  
HETATM   11  N   UNL     1      -7.353   8.459  65.520  1.00  0.00    -0.082 NA 
HETATM   12  C   UNL     1      -9.217   6.981  66.493  1.00  0.00    -0.164 C  
HETATM   13  C   UNL     1      -8.342   7.380  65.273  1.00  0.00    -0.104 C  
BRANCH  11  14
HETATM   14  C   UNL     1      -8.040   9.754  65.742  1.00  0.00    -0.119 C  
BRANCH  14  15
HETATM   15  C   UNL     1      -9.522   9.693  65.360  1.00  0.00    -0.343 C  
BRANCH  15  16
HETATM   16  C   UNL     1     -10.402  10.531  66.211  1.00  0.00    -0.212 A  
HETATM   17  N   UNL     1     -11.055  10.209  67.308  1.00  0.00    -0.191 NA 
HETATM   18  N   UNL     1     -11.751  11.321  67.737  1.00  0.00    -0.599 NA 
HETATM   19  C   UNL     1     -11.508  12.298  66.893  1.00  0.00    -0.356 A  
HETATM   20  C   UNL     1     -12.018  13.694  66.907  1.00  0.00    -0.454 C  
HETATM   21  C   UNL     1     -11.773  14.394  65.564  1.00  0.00    -0.352 C  
HETATM   22  C   UNL     1     -10.353  14.135  65.058  1.00  0.00    -0.443 C  
HETATM   23  C   UNL     1     -10.129  12.639  64.841  1.00  0.00    -0.222 C  
HETATM   24  N   UNL     1     -10.638  11.850  65.942  1.00  0.00    -0.257 NA 
ENDBRANCH  15  16
ENDBRANCH  14  15
ENDBRANCH  11  14
ENDBRANCH   7   8
TORSDOF 4
ENDMDL
MODEL      216
REMARK 921   NORMALIZED FREE ENERGY PREDICTED BY IDOCK:   -4.18 KCAL/MOL
REMARK 922        TOTAL FREE ENERGY PREDICTED BY IDOCK:   -5.42 KCAL/MOL
REMARK 923 INTER-LIGAND FREE ENERGY PREDICTED BY IDOCK:   -4.87 KCAL/MOL
REMARK 924 INTRA-LIGAND FREE ENERGY PREDICTED BY IDOCK:   -0.55 KCAL/MOL
REMARK 927      BINDING AFFINITY PREDICTED BY RF-SCORE:    0.00 PKD
ROOT
HETATM    1  C   UNL     1      -7.038   5.998  64.338  1.00  0.00    -0.053 C  
HETATM    2  C   UNL     1      -8.288   5.186  64.127  1.00  0.00    -0.137 A  
HETATM    3  C   UNL     1      -8.474   4.668  62.822  1.00  0.00    -0.105 A  
HETATM    4  C   UNL     1      -9.546   3.831  62.524  1.00  0.00    -0.113 A  
HETATM    5  C   UNL     1     -10.443   3.493  63.520  1.00  0.00    -0.252 A  
HETATM    6  C   UNL     1     -10.286   4.026  64.804  1.00  0.00    -0.223 A  
HETATM    7  C   UNL     1      -9.237   4.906  65.139  1.00  0.00    -0.123 A  
ENDROOT
BRANCH   7   8
HETATM    8  N   UNL     1      -9.251   5.490  66.399  1.00  0.00    -0.145 NA 
HETATM    9  C   UNL     1      -9.928   6.767  66.635  1.00  0.00    -0.142 C  
HETATM   10  C   UNL     1     -10.516   6.818  68.058  1.00  0.00    -0.211 C  
HETATM   11  N   UNL     1      -9.534   6.560  69.139  1.00  0.00    -0.136 NA 
HETATM   12  C   UNL     1      -8.324   5.038  67.459  1.00  0.00    -0.105 C  
HETATM   13  C   UNL     1      -8.948   5.223  68.870  1.00  0.00    -0.103 C  
BRANCH  11  14
HETATM   14  C   UNL     1      -8.469   7.589  69.222  1.00  0.00    -0.136 C  
BRANCH  14  15
HETATM   15  C   UNL     1      -8.670   8.532  70.412  1.00  0.00    -0.153 C  
BRANCH  15  16
HETATM   16  C   UNL     1      -9.716   9.561  70.198  1.00  0.00    -0.246 A  
HETATM   17  N   UNL     1      -9.745  10.557  69.337  1.00  0.00    -0.199 NA 
HETATM   18  N   UNL     1     -10.921  11.255  69.523  1.00  0.00    -0.222 NA 
HETATM   19  C   UNL     1     -11.586  10.670  70.495  1.00  0.00    -0.350 A  
HETATM   20  C   UNL     1     -12.904  11.034  71.076  1.00  0.00    -0.442 C  
HETATM   21  C   UNL     1     -13.149  10.312  72.407  1.00  0.00    -0.135 C  
HETATM   22  C   UNL     1     -12.772   8.833  72.310  1.00  0.00    -0.466 C  
HETATM   23  C   UNL     1     -11.288   8.683  71.974  1.00  0.00    -0.362 C  
HETATM   24  N   UNL     1     -10.878   9.584  70.919  1.00  0.00    -0.311 NA 
ENDBRANCH  15  16
ENDBRANCH  14  15
ENDBRANCH  11  14
ENDBRANCH   7   8
TORSDOF 4
ENDMDL
MODEL      217
REMARK 921   NORMALIZED FREE ENERGY PREDICTED BY IDOCK:   -4.18 KCAL/MOL
REMARK 922        TOTAL FREE ENERGY PREDICTED BY IDOCK:   -5.42 KCAL/MOL
REMARK 923 INTER-LIGAND FREE ENERGY PREDICTED BY IDOCK:   -4.96 KCAL/MOL
REMARK 924 INTRA-LIGAND FREE ENERGY PREDICTED BY IDOCK:   -0.46 KCAL/MOL
REMARK 927      BINDING AFFINITY PREDICTED BY RF-SCORE:    0.00 PKD
ROOT
HETATM    1  C   UNL     1      -9.986   4.227  64.559  1.00  0.00    -0.118 C  
HETATM    2  C   UNL     1      -9.271   3.867  65.833  1.00  0.00    -0.155 A  
HETATM    3  C   UNL     1      -9.148   2.482  66.100  1.00  0.00    -0.102 A  
HETATM    4  C   UNL     1      -8.432   2.020  67.203  1.00  0.00    -0.099 A  
HETATM    5  C   UNL     1      -7.827   2.929  68.050  1.00  0.00    -0.059 A  
HETATM    6  C   UNL     1      -7.972   4.300  67.813  1.00  0.00    -0.087 A  
HETATM    7  C   UNL     1      -8.717   4.811  66.731  1.00  0.00    -0.107 A  
ENDROOT
BRANCH   7   8
HETATM    8  N   UNL     1      -8.918   6.183  66.666  1.00  0.00    -0.126 NA 
HETATM    9  C   UNL     1     -10.060   6.815  67.328  1.00  0.00    -0.182 C  
HETATM   10  C   UNL     1      -9.692   8.227  67.823  1.00  0.00    -0.158 C  
HETATM   11  N   UNL     1      -9.157   9.127  66.774  1.00  0.00    -0.140 NA 
HETATM   12  C   UNL     1      -8.201   7.011  65.672  1.00  0.00    -0.134 C  
HETATM   13  C   UNL     1      -7.964   8.452  66.204  1.00  0.00    -0.100 C  
BRANCH  11  14
HETATM   14  C   UNL     1     -10.141   9.435  65.708  1.00  0.00    -0.096 C  
BRANCH  14  15
HETATM   15  C   UNL     1     -10.236  10.937  65.428  1.00  0.00    -0.339 C  
BRANCH  15  16
HETATM   16  C   UNL     1     -10.913  11.710  66.498  1.00  0.00    -0.299 A  
HETATM   17  N   UNL     1     -11.753  11.296  67.423  1.00  0.00    -0.584 NA 
HETATM   18  N   UNL     1     -12.127  12.384  68.185  1.00  0.00    -0.346 NA 
HETATM   19  C   UNL     1     -11.507  13.441  67.709  1.00  0.00    -0.316 A  
HETATM   20  C   UNL     1     -11.571  14.850  68.173  1.00  0.00    -0.356 C  
HETATM   21  C   UNL     1     -10.975  15.810  67.135  1.00  0.00    -0.244 C  
HETATM   22  C   UNL     1      -9.652  15.277  66.586  1.00  0.00    -0.276 C  
HETATM   23  C   UNL     1      -9.866  13.931  65.894  1.00  0.00    -0.267 C  
HETATM   24  N   UNL     1     -10.709  13.051  66.673  1.00  0.00    -0.272 NA 
ENDBRANCH  15  16
ENDBRANCH  14  15
ENDBRANCH  11  14
ENDBRANCH   7   8
TORSDOF 4
ENDMDL
MODEL      218
REMARK 921   NORMALIZED FREE ENERGY PREDICTED BY IDOCK:   -4.15 KCAL/MOL
REMARK 922        TOTAL FREE ENERGY PREDICTED BY IDOCK:   -5.38 KCAL/MOL
REMARK 923 INTER-LIGAND FREE ENERGY PREDICTED BY IDOCK:   -5.86 KCAL/MOL
REMARK 924 INTRA-LIGAND FREE ENERGY PREDICTED BY IDOCK:    0.48 KCAL/MOL
REMARK 927      BINDING AFFINITY PREDICTED BY RF-SCORE:    0.00 PKD
ROOT
HETATM    1  C   UNL     1      -5.218  15.220  70.525  1.00  0.00    -0.135 C  
HETATM    2  C   UNL     1      -5.866  14.040  69.853  1.00  0.00    -0.122 A  
HETATM    3  C   UNL     1      -5.341  12.770  70.196  1.00  0.00    -0.114 A  
HETATM    4  C   UNL     1      -5.911  11.597  69.707  1.00  0.00    -0.123 A  
HETATM    5  C   UNL     1      -7.013  11.672  68.875  1.00  0.00    -0.109 A  
HETATM    6  C   UNL     1      -7.517  12.922  68.503  1.00  0.00    -0.123 A  
HETATM    7  C   UNL     1      -6.948  14.135  68.945  1.00  0.00    -0.109 A  
ENDROOT
BRANCH   7   8
HETATM    8  N   UNL     1      -7.433  15.319  68.407  1.00  0.00    -0.108 NA 
HETATM    9  C   UNL     1      -7.843  16.431  69.266  1.00  0.00    -0.153 C  
HETATM   10  C   UNL     1      -7.561  17.782  68.583  1.00  0.00    -0.276 C  
HETATM   11  N   UNL     1      -8.170  17.932  67.240  1.00  0.00    -0.214 NA 
HETATM   12  C   UNL     1      -7.867  15.391  66.995  1.00  0.00    -0.209 C  
HETATM   13  C   UNL     1      -7.650  16.815  66.411  1.00  0.00    -0.290 C  
BRANCH  11  14
HETATM   14  C   UNL     1      -9.652  17.918  67.263  1.00  0.00    -0.273 C  
BRANCH  14  15
HETATM   15  C   UNL     1     -10.236  17.004  66.182  1.00  0.00    -0.346 C  
BRANCH  15  16
HETATM   16  C   UNL     1     -10.908  15.792  66.711  1.00  0.00    -0.254 A  
HETATM   17  N   UNL     1     -11.439  15.583  67.897  1.00  0.00    -0.311 NA 
HETATM   18  N   UNL     1     -11.936  14.296  67.927  1.00  0.00    -0.352 NA 
HETATM   19  C   UNL     1     -11.698  13.746  66.757  1.00  0.00    -0.391 A  
HETATM   20  C   UNL     1     -12.030  12.378  66.282  1.00  0.00    -0.369 C  
HETATM   21  C   UNL     1     -11.272  12.032  64.993  1.00  0.00    -0.374 C  
HETATM   22  C   UNL     1     -11.324  13.190  63.995  1.00  0.00    -0.437 C  
HETATM   23  C   UNL     1     -10.669  14.436  64.591  1.00  0.00    -0.336 C  
HETATM   24  N   UNL     1     -11.086  14.666  65.956  1.00  0.00    -0.327 NA 
ENDBRANCH  15  16
ENDBRANCH  14  15
ENDBRANCH  11  14
ENDBRANCH   7   8
TORSDOF 4
ENDMDL
MODEL      219
REMARK 921   NORMALIZED FREE ENERGY PREDICTED BY IDOCK:   -4.13 KCAL/MOL
REMARK 922        TOTAL FREE ENERGY PREDICTED BY IDOCK:   -5.36 KCAL/MOL
REMARK 923 INTER-LIGAND FREE ENERGY PREDICTED BY IDOCK:   -4.87 KCAL/MOL
REMARK 924 INTRA-LIGAND FREE ENERGY PREDICTED BY IDOCK:   -0.49 KCAL/MOL
REMARK 927      BINDING AFFINITY PREDICTED BY RF-SCORE:    0.00 PKD
ROOT
HETATM    1  C   UNL     1      -7.966   5.012  64.227  1.00  0.00    -0.104 C  
HETATM    2  C   UNL     1      -8.399   4.130  65.368  1.00  0.00    -0.109 A  
HETATM    3  C   UNL     1      -8.668   2.780  65.037  1.00  0.00    -0.116 A  
HETATM    4  C   UNL     1      -8.992   1.847  66.018  1.00  0.00    -0.097 A  
HETATM    5  C   UNL     1      -9.049   2.243  67.341  1.00  0.00    -0.182 A  
HETATM    6  C   UNL     1      -8.818   3.582  67.674  1.00  0.00    -0.148 A  
HETATM    7  C   UNL     1      -8.523   4.567  66.709  1.00  0.00    -0.105 A  
ENDROOT
BRANCH   7   8
HETATM    8  N   UNL     1      -8.452   5.889  67.125  1.00  0.00    -0.108 NA 
HETATM    9  C   UNL     1      -7.173   6.599  67.179  1.00  0.00    -0.081 C  
HETATM   10  C   UNL     1      -7.364   8.094  66.861  1.00  0.00    -0.087 C  
HETATM   11  N   UNL     1      -8.360   8.783  67.716  1.00  0.00    -0.117 NA 
HETATM   12  C   UNL     1      -9.582   6.525  67.837  1.00  0.00    -0.118 C  
HETATM   13  C   UNL     1      -9.641   8.051  67.550  1.00  0.00    -0.153 C  
BRANCH  11  14
HETATM   14  C   UNL     1      -7.970   8.834  69.146  1.00  0.00    -0.109 C  
BRANCH  14  15
HETATM   15  C   UNL     1      -8.872   9.769  69.956  1.00  0.00    -0.245 C  
BRANCH  15  16
HETATM   16  C   UNL     1      -9.730   9.075  70.947  1.00  0.00    -0.264 A  
HETATM   17  N   UNL     1      -9.464   8.020  71.688  1.00  0.00    -0.155 NA 
HETATM   18  N   UNL     1     -10.580   7.735  72.449  1.00  0.00    -0.254 NA 
HETATM   19  C   UNL     1     -11.504   8.623  72.157  1.00  0.00    -0.373 A  
HETATM   20  C   UNL     1     -12.881   8.752  72.699  1.00  0.00    -0.294 C  
HETATM   21  C   UNL     1     -13.734   9.698  71.844  1.00  0.00    -0.376 C  
HETATM   22  C   UNL     1     -12.962  10.969  71.489  1.00  0.00    -0.553 C  
HETATM   23  C   UNL     1     -11.711  10.624  70.681  1.00  0.00    -0.356 C  
HETATM   24  N   UNL     1     -10.995   9.501  71.245  1.00  0.00    -0.363 NA 
ENDBRANCH  15  16
ENDBRANCH  14  15
ENDBRANCH  11  14
ENDBRANCH   7   8
TORSDOF 4
ENDMDL
MODEL      220
REMARK 921   NORMALIZED FREE ENERGY PREDICTED BY IDOCK:   -4.12 KCAL/MOL
REMARK 922        TOTAL FREE ENERGY PREDICTED BY IDOCK:   -5.35 KCAL/MOL
REMARK 923 INTER-LIGAND FREE ENERGY PREDICTED BY IDOCK:   -4.74 KCAL/MOL
REMARK 924 INTRA-LIGAND FREE ENERGY PREDICTED BY IDOCK:   -0.60 KCAL/MOL
REMARK 927      BINDING AFFINITY PREDICTED BY RF-SCORE:    0.00 PKD
ROOT
HETATM    1  C   UNL     1     -10.496  10.397  69.388  1.00  0.00    -0.261 C  
HETATM    2  C   UNL     1     -11.398   9.975  70.517  1.00  0.00    -0.409 A  
HETATM    3  C   UNL     1     -12.489  10.835  70.789  1.00  0.00    -0.481 A  
HETATM    4  C   UNL     1     -13.442  10.509  71.751  1.00  0.00    -0.345 A  
HETATM    5  C   UNL     1     -13.324   9.323  72.451  1.00  0.00    -0.521 A  
HETATM    6  C   UNL     1     -12.231   8.484  72.213  1.00  0.00    -0.454 A  
HETATM    7  C   UNL     1     -11.225   8.791  71.275  1.00  0.00    -0.284 A  
ENDROOT
BRANCH   7   8
HETATM    8  N   UNL     1     -10.111   7.964  71.216  1.00  0.00    -0.179 NA 
HETATM    9  C   UNL     1      -8.879   8.300  71.930  1.00  0.00    -0.177 C  
HETATM   10  C   UNL     1      -8.157   7.024  72.403  1.00  0.00    -0.102 C  
HETATM   11  N   UNL     1      -7.866   6.047  71.328  1.00  0.00    -0.110 NA 
HETATM   12  C   UNL     1     -10.002   6.908  70.186  1.00  0.00    -0.178 C  
HETATM   13  C   UNL     1      -9.168   5.703  70.703  1.00  0.00    -0.151 C  
BRANCH  11  14
HETATM   14  C   UNL     1      -6.919   6.561  70.309  1.00  0.00    -0.066 C  
BRANCH  14  15
HETATM   15  C   UNL     1      -6.459   5.464  69.344  1.00  0.00    -0.038 C  
BRANCH  15  16
HETATM   16  C   UNL     1      -6.790   5.730  67.923  1.00  0.00    -0.060 A  
HETATM   17  N   UNL     1      -6.218   6.557  67.073  1.00  0.00    -0.038 NA 
HETATM   18  N   UNL     1      -6.884   6.466  65.868  1.00  0.00    -0.055 NA 
HETATM   19  C   UNL     1      -7.849   5.584  66.007  1.00  0.00    -0.104 A  
HETATM   20  C   UNL     1      -8.849   5.128  65.008  1.00  0.00    -0.134 C  
HETATM   21  C   UNL     1      -9.998   4.361  65.675  1.00  0.00    -0.247 C  
HETATM   22  C   UNL     1      -9.470   3.355  66.698  1.00  0.00    -0.151 C  
HETATM   23  C   UNL     1      -8.698   4.075  67.803  1.00  0.00    -0.104 C  
HETATM   24  N   UNL     1      -7.799   5.075  67.272  1.00  0.00    -0.095 NA 
ENDBRANCH  15  16
ENDBRANCH  14  15
ENDBRANCH  11  14
ENDBRANCH   7   8
TORSDOF 4
ENDMDL
MODEL      221
REMARK 921   NORMALIZED FREE ENERGY PREDICTED BY IDOCK:   -4.10 KCAL/MOL
REMARK 922        TOTAL FREE ENERGY PREDICTED BY IDOCK:   -5.32 KCAL/MOL
REMARK 923 INTER-LIGAND FREE ENERGY PREDICTED BY IDOCK:   -4.99 KCAL/MOL
REMARK 924 INTRA-LIGAND FREE ENERGY PREDICTED BY IDOCK:   -0.33 KCAL/MOL
REMARK 927      BINDING AFFINITY PREDICTED BY RF-SCORE:    0.00 PKD
ROOT
HETATM    1  C   UNL     1      -9.263  19.562  66.411  1.00  0.00    -0.426 C  
HETATM    2  C   UNL     1      -8.062  19.495  67.316  1.00  0.00    -0.307 A  
HETATM    3  C   UNL     1      -7.280  20.673  67.391  1.00  0.00    -0.391 A  
HETATM    4  C   UNL     1      -6.194  20.764  68.259  1.00  0.00    -0.373 A  
HETATM    5  C   UNL     1      -5.876  19.687  69.066  1.00  0.00    -0.261 A  
HETATM    6  C   UNL     1      -6.623  18.508  68.974  1.00  0.00    -0.277 A  
HETATM    7  C   UNL     1      -7.706  18.360  68.084  1.00  0.00    -0.290 A  
ENDROOT
BRANCH   7   8
HETATM    8  N   UNL     1      -8.290  17.106  67.968  1.00  0.00    -0.212 NA 
HETATM    9  C   UNL     1      -8.682  16.339  69.152  1.00  0.00    -0.212 C  
HETATM   10  C   UNL     1      -9.934  15.489  68.862  1.00  0.00    -0.218 C  
HETATM   11  N   UNL     1      -9.806  14.584  67.695  1.00  0.00    -0.221 NA 
HETATM   12  C   UNL     1      -8.238  16.357  66.694  1.00  0.00    -0.278 C  
HETATM   13  C   UNL     1      -9.481  15.441  66.527  1.00  0.00    -0.273 C  
BRANCH  11  14
HETATM   14  C   UNL     1      -8.772  13.536  67.876  1.00  0.00    -0.183 C  
BRANCH  14  15
HETATM   15  C   UNL     1      -9.339  12.128  67.675  1.00  0.00    -0.187 C  
BRANCH  15  16
HETATM   16  C   UNL     1      -8.328  11.121  67.269  1.00  0.00    -0.135 A  
HETATM   17  N   UNL     1      -7.906  10.801  66.064  1.00  0.00    -0.159 NA 
HETATM   18  N   UNL     1      -6.966   9.798  66.188  1.00  0.00    -0.092 NA 
HETATM   19  C   UNL     1      -6.833   9.527  67.467  1.00  0.00    -0.083 A  
HETATM   20  C   UNL     1      -5.952   8.528  68.125  1.00  0.00    -0.046 C  
HETATM   21  C   UNL     1      -6.359   8.297  69.586  1.00  0.00    -0.036 C  
HETATM   22  C   UNL     1      -6.628   9.622  70.300  1.00  0.00    -0.091 C  
HETATM   23  C   UNL     1      -7.774  10.370  69.619  1.00  0.00    -0.144 C  
HETATM   24  N   UNL     1      -7.646  10.362  68.178  1.00  0.00    -0.090 NA 
ENDBRANCH  15  16
ENDBRANCH  14  15
ENDBRANCH  11  14
ENDBRANCH   7   8
TORSDOF 4
ENDMDL
MODEL      222
REMARK 921   NORMALIZED FREE ENERGY PREDICTED BY IDOCK:   -4.08 KCAL/MOL
REMARK 922        TOTAL FREE ENERGY PREDICTED BY IDOCK:   -5.29 KCAL/MOL
REMARK 923 INTER-LIGAND FREE ENERGY PREDICTED BY IDOCK:   -4.74 KCAL/MOL
REMARK 924 INTRA-LIGAND FREE ENERGY PREDICTED BY IDOCK:   -0.55 KCAL/MOL
REMARK 927      BINDING AFFINITY PREDICTED BY RF-SCORE:    0.00 PKD
ROOT
HETATM    1  C   UNL     1      -8.077   6.595  64.037  1.00  0.00    -0.020 C  
HETATM    2  C   UNL     1      -7.639   6.424  65.467  1.00  0.00    -0.087 A  
HETATM    3  C   UNL     1      -7.279   5.109  65.848  1.00  0.00    -0.073 A  
HETATM    4  C   UNL     1      -6.776   4.838  67.119  1.00  0.00    -0.055 A  
HETATM    5  C   UNL     1      -6.621   5.871  68.023  1.00  0.00    -0.052 A  
HETATM    6  C   UNL     1      -7.007   7.168  67.667  1.00  0.00    -0.079 A  
HETATM    7  C   UNL     1      -7.554   7.480  66.406  1.00  0.00    -0.088 A  
ENDROOT
BRANCH   7   8
HETATM    8  N   UNL     1      -8.035   8.766  66.202  1.00  0.00    -0.101 NA 
HETATM    9  C   UNL     1      -7.124   9.907  66.087  1.00  0.00    -0.103 C  
HETATM   10  C   UNL     1      -7.694  10.965  65.123  1.00  0.00     0.207 C  
HETATM   11  N   UNL     1      -9.056  11.440  65.465  1.00  0.00    -0.180 NA 
HETATM   12  C   UNL     1      -9.461   9.090  66.424  1.00  0.00    -0.226 C  
HETATM   13  C   UNL     1      -9.929  10.240  65.490  1.00  0.00    -0.296 C  
BRANCH  11  14
HETATM   14  C   UNL     1      -9.119  12.157  66.761  1.00  0.00    -0.205 C  
BRANCH  14  15
HETATM   15  C   UNL     1     -10.444  12.902  66.943  1.00  0.00    -0.252 C  
BRANCH  15  16
HETATM   16  C   UNL     1     -10.431  14.295  66.431  1.00  0.00    -0.282 A  
HETATM   17  N   UNL     1     -10.456  14.728  65.189  1.00  0.00    -0.399 NA 
HETATM   18  N   UNL     1     -10.416  16.107  65.212  1.00  0.00    -0.572 NA 
HETATM   19  C   UNL     1     -10.368  16.488  66.469  1.00  0.00    -0.305 A  
HETATM   20  C   UNL     1     -10.311  17.863  67.028  1.00  0.00    -0.366 C  
HETATM   21  C   UNL     1      -9.917  17.849  68.511  1.00  0.00    -0.379 C  
HETATM   22  C   UNL     1     -10.691  16.776  69.277  1.00  0.00    -0.324 C  
HETATM   23  C   UNL     1     -10.383  15.390  68.710  1.00  0.00    -0.229 C  
HETATM   24  N   UNL     1     -10.412  15.379  67.264  1.00  0.00    -0.276 NA 
ENDBRANCH  15  16
ENDBRANCH  14  15
ENDBRANCH  11  14
ENDBRANCH   7   8
TORSDOF 4
ENDMDL
MODEL      223
REMARK 921   NORMALIZED FREE ENERGY PREDICTED BY IDOCK:   -4.07 KCAL/MOL
REMARK 922        TOTAL FREE ENERGY PREDICTED BY IDOCK:   -5.28 KCAL/MOL
REMARK 923 INTER-LIGAND FREE ENERGY PREDICTED BY IDOCK:   -4.71 KCAL/MOL
REMARK 924 INTRA-LIGAND FREE ENERGY PREDICTED BY IDOCK:   -0.57 KCAL/MOL
REMARK 927      BINDING AFFINITY PREDICTED BY RF-SCORE:    0.00 PKD
ROOT
HETATM    1  C   UNL     1     -12.462  11.671  70.899  1.00  0.00    -0.440 C  
HETATM    2  C   UNL     1     -12.155  13.081  70.471  1.00  0.00    -0.373 A  
HETATM    3  C   UNL     1     -12.737  14.105  71.256  1.00  0.00    -0.434 A  
HETATM    4  C   UNL     1     -12.459  15.448  71.013  1.00  0.00    -0.469 A  
HETATM    5  C   UNL     1     -11.593  15.789  69.990  1.00  0.00    -0.361 A  
HETATM    6  C   UNL     1     -11.040  14.786  69.188  1.00  0.00    -0.278 A  
HETATM    7  C   UNL     1     -11.323  13.417  69.376  1.00  0.00    -0.226 A  
ENDROOT
BRANCH   7   8
HETATM    8  N   UNL     1     -10.837  12.515  68.440  1.00  0.00    -0.233 NA 
HETATM    9  C   UNL     1      -9.599  11.769  68.677  1.00  0.00    -0.115 C  
HETATM   10  C   UNL     1      -9.670  10.373  68.030  1.00  0.00    -0.150 C  
HETATM   11  N   UNL     1      -9.984  10.381  66.581  1.00  0.00    -0.202 NA 
HETATM   12  C   UNL     1     -11.345  12.511  67.051  1.00  0.00    -0.328 C  
HETATM   13  C   UNL     1     -11.282  11.087  66.432  1.00  0.00     0.033 C  
BRANCH  11  14
HETATM   14  C   UNL     1      -8.938  11.035  65.758  1.00  0.00    -0.195 C  
BRANCH  14  15
HETATM   15  C   UNL     1      -7.617  10.263  65.786  1.00  0.00    -0.143 C  
BRANCH  15  16
HETATM   16  C   UNL     1      -7.766   8.800  65.591  1.00  0.00    -0.091 A  
HETATM   17  N   UNL     1      -8.198   8.137  64.539  1.00  0.00    -0.144 NA 
HETATM   18  N   UNL     1      -8.169   6.790  64.835  1.00  0.00    -0.117 NA 
HETATM   19  C   UNL     1      -7.719   6.657  66.063  1.00  0.00    -0.089 A  
HETATM   20  C   UNL     1      -7.502   5.417  66.851  1.00  0.00    -0.088 C  
HETATM   21  C   UNL     1      -7.303   5.726  68.341  1.00  0.00    -0.080 C  
HETATM   22  C   UNL     1      -6.340   6.898  68.537  1.00  0.00    -0.032 C  
HETATM   23  C   UNL     1      -6.897   8.160  67.878  1.00  0.00    -0.073 C  
HETATM   24  N   UNL     1      -7.422   7.895  66.557  1.00  0.00    -0.087 NA 
ENDBRANCH  15  16
ENDBRANCH  14  15
ENDBRANCH  11  14
ENDBRANCH   7   8
TORSDOF 4
ENDMDL
MODEL      224
REMARK 921   NORMALIZED FREE ENERGY PREDICTED BY IDOCK:   -4.06 KCAL/MOL
REMARK 922        TOTAL FREE ENERGY PREDICTED BY IDOCK:   -5.27 KCAL/MOL
REMARK 923 INTER-LIGAND FREE ENERGY PREDICTED BY IDOCK:   -4.75 KCAL/MOL
REMARK 924 INTRA-LIGAND FREE ENERGY PREDICTED BY IDOCK:   -0.53 KCAL/MOL
REMARK 927      BINDING AFFINITY PREDICTED BY RF-SCORE:    0.00 PKD
ROOT
HETATM    1  C   UNL     1     -10.074  10.703  64.562  1.00  0.00    -0.421 C  
HETATM    2  C   UNL     1     -10.671  11.966  65.123  1.00  0.00    -0.339 A  
HETATM    3  C   UNL     1     -10.943  12.990  64.184  1.00  0.00    -0.438 A  
HETATM    4  C   UNL     1     -11.574  14.171  64.566  1.00  0.00    -0.400 A  
HETATM    5  C   UNL     1     -11.947  14.347  65.885  1.00  0.00    -0.367 A  
HETATM    6  C   UNL     1     -11.653  13.355  66.826  1.00  0.00    -0.404 A  
HETATM    7  C   UNL     1     -10.983  12.161  66.490  1.00  0.00    -0.284 A  
ENDROOT
BRANCH   7   8
HETATM    8  N   UNL     1     -10.613  11.307  67.520  1.00  0.00    -0.207 NA 
HETATM    9  C   UNL     1     -11.210   9.977  67.654  1.00  0.00    -0.024 C  
HETATM   10  C   UNL     1     -10.193   8.978  68.238  1.00  0.00    -0.204 C  
HETATM   11  N   UNL     1      -9.593   9.394  69.528  1.00  0.00    -0.170 NA 
HETATM   12  C   UNL     1      -9.869  11.809  68.695  1.00  0.00    -0.144 C  
HETATM   13  C   UNL     1      -8.948  10.710  69.292  1.00  0.00    -0.082 C  
BRANCH  11  14
HETATM   14  C   UNL     1     -10.580   9.488  70.631  1.00  0.00    -0.308 C  
BRANCH  14  15
HETATM   15  C   UNL     1     -10.029   8.933  71.947  1.00  0.00    -0.384 C  
BRANCH  15  16
HETATM   16  C   UNL     1      -9.194   7.717  71.789  1.00  0.00    -0.141 A  
HETATM   17  N   UNL     1      -9.554   6.496  71.455  1.00  0.00    -0.161 NA 
HETATM   18  N   UNL     1      -8.426   5.700  71.450  1.00  0.00    -0.127 NA 
HETATM   19  C   UNL     1      -7.401   6.453  71.782  1.00  0.00    -0.088 A  
HETATM   20  C   UNL     1      -5.971   6.077  71.921  1.00  0.00    -0.039 C  
HETATM   21  C   UNL     1      -5.174   7.163  72.655  1.00  0.00    -0.037 C  
HETATM   22  C   UNL     1      -5.519   8.555  72.123  1.00  0.00    -0.045 C  
HETATM   23  C   UNL     1      -7.003   8.853  72.336  1.00  0.00     0.164 C  
HETATM   24  N   UNL     1      -7.839   7.732  71.967  1.00  0.00    -0.094 NA 
ENDBRANCH  15  16
ENDBRANCH  14  15
ENDBRANCH  11  14
ENDBRANCH   7   8
TORSDOF 4
ENDMDL
MODEL      225
REMARK 921   NORMALIZED FREE ENERGY PREDICTED BY IDOCK:   -4.04 KCAL/MOL
REMARK 922        TOTAL FREE ENERGY PREDICTED BY IDOCK:   -5.25 KCAL/MOL
REMARK 923 INTER-LIGAND FREE ENERGY PREDICTED BY IDOCK:   -4.90 KCAL/MOL
REMARK 924 INTRA-LIGAND FREE ENERGY PREDICTED BY IDOCK:   -0.35 KCAL/MOL
REMARK 927      BINDING AFFINITY PREDICTED BY RF-SCORE:    0.00 PKD
ROOT
HETATM    1  C   UNL     1      -7.765   4.086  65.673  1.00  0.00    -0.089 C  
HETATM    2  C   UNL     1      -8.462   3.900  66.994  1.00  0.00    -0.101 A  
HETATM    3  C   UNL     1      -8.863   2.576  67.298  1.00  0.00    -0.158 A  
HETATM    4  C   UNL     1      -9.440   2.262  68.526  1.00  0.00    -0.213 A  
HETATM    5  C   UNL     1      -9.619   3.257  69.468  1.00  0.00    -0.127 A  
HETATM    6  C   UNL     1      -9.257   4.573  69.164  1.00  0.00    -0.194 A  
HETATM    7  C   UNL     1      -8.705   4.942  67.920  1.00  0.00    -0.103 A  
ENDROOT
BRANCH   7   8
HETATM    8  N   UNL     1      -8.512   6.293  67.666  1.00  0.00    -0.116 NA 
HETATM    9  C   UNL     1      -7.452   7.048  68.336  1.00  0.00    -0.102 C  
HETATM   10  C   UNL     1      -6.899   8.151  67.413  1.00  0.00    -0.074 C  
HETATM   11  N   UNL     1      -7.924   9.082  66.885  1.00  0.00    -0.104 NA 
HETATM   12  C   UNL     1      -9.551   7.095  66.982  1.00  0.00    -0.159 C  
HETATM   13  C   UNL     1      -8.919   8.252  66.161  1.00  0.00    -0.181 C  
BRANCH  11  14
HETATM   14  C   UNL     1      -8.586   9.886  67.941  1.00  0.00    -0.125 C  
BRANCH  14  15
HETATM   15  C   UNL     1     -10.042  10.207  67.593  1.00  0.00    -0.231 C  
BRANCH  15  16
HETATM   16  C   UNL     1     -10.867  10.615  68.756  1.00  0.00    -0.229 A  
HETATM   17  N   UNL     1     -11.398  11.787  69.033  1.00  0.00    -0.255 NA 
HETATM   18  N   UNL     1     -12.071  11.683  70.234  1.00  0.00    -0.358 NA 
HETATM   19  C   UNL     1     -11.936  10.449  70.665  1.00  0.00    -0.351 A  
HETATM   20  C   UNL     1     -12.468   9.829  71.906  1.00  0.00    -0.451 C  
HETATM   21  C   UNL     1     -11.793   8.481  72.193  1.00  0.00    -0.448 C  
HETATM   22  C   UNL     1     -11.701   7.629  70.927  1.00  0.00    -0.291 C  
HETATM   23  C   UNL     1     -10.865   8.342  69.865  1.00  0.00    -0.207 C  
HETATM   24  N   UNL     1     -11.217   9.740  69.747  1.00  0.00    -0.228 NA 
ENDBRANCH  15  16
ENDBRANCH  14  15
ENDBRANCH  11  14
ENDBRANCH   7   8
TORSDOF 4
ENDMDL
MODEL      226
REMARK 921   NORMALIZED FREE ENERGY PREDICTED BY IDOCK:   -4.03 KCAL/MOL
REMARK 922        TOTAL FREE ENERGY PREDICTED BY IDOCK:   -5.23 KCAL/MOL
REMARK 923 INTER-LIGAND FREE ENERGY PREDICTED BY IDOCK:   -4.63 KCAL/MOL
REMARK 924 INTRA-LIGAND FREE ENERGY PREDICTED BY IDOCK:   -0.60 KCAL/MOL
REMARK 927      BINDING AFFINITY PREDICTED BY RF-SCORE:    0.00 PKD
ROOT
HETATM    1  C   UNL     1     -12.211  12.513  70.332  1.00  0.00    -0.368 C  
HETATM    2  C   UNL     1     -11.568  13.542  69.440  1.00  0.00    -0.369 A  
HETATM    3  C   UNL     1     -11.998  14.877  69.631  1.00  0.00    -0.360 A  
HETATM    4  C   UNL     1     -11.416  15.930  68.928  1.00  0.00    -0.386 A  
HETATM    5  C   UNL     1     -10.398  15.668  68.031  1.00  0.00    -0.246 A  
HETATM    6  C   UNL     1      -9.990  14.349  67.811  1.00  0.00    -0.226 A  
HETATM    7  C   UNL     1     -10.576  13.250  68.474  1.00  0.00    -0.256 A  
ENDROOT
BRANCH   7   8
HETATM    8  N   UNL     1     -10.199  11.973  68.081  1.00  0.00    -0.196 NA 
HETATM    9  C   UNL     1      -9.397  11.116  68.956  1.00  0.00    -0.049 C  
HETATM   10  C   UNL     1      -9.767   9.634  68.758  1.00  0.00    -0.163 C  
HETATM   11  N   UNL     1      -9.669   9.157  67.358  1.00  0.00    -0.154 NA 
HETATM   12  C   UNL     1     -10.296  11.552  66.666  1.00  0.00    -0.226 C  
HETATM   13  C   UNL     1     -10.562  10.026  66.550  1.00  0.00    -0.095 C  
BRANCH  11  14
HETATM   14  C   UNL     1      -8.286   9.190  66.823  1.00  0.00    -0.123 C  
BRANCH  14  15
HETATM   15  C   UNL     1      -7.405   8.099  67.436  1.00  0.00    -0.089 C  
BRANCH  15  16
HETATM   16  C   UNL     1      -7.977   6.734  67.340  1.00  0.00    -0.114 A  
HETATM   17  N   UNL     1      -8.198   5.994  66.274  1.00  0.00    -0.115 NA 
HETATM   18  N   UNL     1      -8.755   4.800  66.685  1.00  0.00    -0.111 NA 
HETATM   19  C   UNL     1      -8.863   4.836  67.994  1.00  0.00    -0.105 A  
HETATM   20  C   UNL     1      -9.400   3.803  68.917  1.00  0.00    -0.234 C  
HETATM   21  C   UNL     1      -9.663   4.381  70.314  1.00  0.00    -0.281 C  
HETATM   22  C   UNL     1      -8.493   5.246  70.782  1.00  0.00    -0.123 C  
HETATM   23  C   UNL     1      -8.289   6.425  69.830  1.00  0.00    -0.130 C  
HETATM   24  N   UNL     1      -8.351   6.018  68.443  1.00  0.00    -0.113 NA 
ENDBRANCH  15  16
ENDBRANCH  14  15
ENDBRANCH  11  14
ENDBRANCH   7   8
TORSDOF 4
ENDMDL
MODEL      227
REMARK 921   NORMALIZED FREE ENERGY PREDICTED BY IDOCK:   -4.02 KCAL/MOL
REMARK 922        TOTAL FREE ENERGY PREDICTED BY IDOCK:   -5.22 KCAL/MOL
REMARK 923 INTER-LIGAND FREE ENERGY PREDICTED BY IDOCK:   -4.58 KCAL/MOL
REMARK 924 INTRA-LIGAND FREE ENERGY PREDICTED BY IDOCK:   -0.64 KCAL/MOL
REMARK 927      BINDING AFFINITY PREDICTED BY RF-SCORE:    0.00 PKD
ROOT
HETATM    1  C   UNL     1      -6.456  12.419  68.417  1.00  0.00    -0.058 C  
HETATM    2  C   UNL     1      -6.647  11.023  68.946  1.00  0.00    -0.058 A  
HETATM    3  C   UNL     1      -5.664  10.569  69.858  1.00  0.00    -0.053 A  
HETATM    4  C   UNL     1      -5.776   9.330  70.483  1.00  0.00    -0.038 A  
HETATM    5  C   UNL     1      -6.870   8.529  70.213  1.00  0.00    -0.039 A  
HETATM    6  C   UNL     1      -7.828   8.954  69.288  1.00  0.00    -0.096 A  
HETATM    7  C   UNL     1      -7.735  10.184  68.605  1.00  0.00    -0.092 A  
ENDROOT
BRANCH   7   8
HETATM    8  N   UNL     1      -8.661  10.449  67.605  1.00  0.00    -0.118 NA 
HETATM    9  C   UNL     1      -8.269  10.466  66.195  1.00  0.00    -0.144 C  
HETATM   10  C   UNL     1      -9.423   9.973  65.301  1.00  0.00    -0.263 C  
HETATM   11  N   UNL     1     -10.698  10.708  65.480  1.00  0.00    -0.107 NA 
HETATM   12  C   UNL     1      -9.977  11.043  67.924  1.00  0.00    -0.174 C  
HETATM   13  C   UNL     1     -11.063  10.582  66.913  1.00  0.00    -0.050 C  
BRANCH  11  14
HETATM   14  C   UNL     1     -10.611  12.135  65.088  1.00  0.00    -0.286 C  
BRANCH  14  15
HETATM   15  C   UNL     1     -11.750  12.967  65.685  1.00  0.00    -0.430 C  
BRANCH  15  16
HETATM   16  C   UNL     1     -11.321  14.278  66.230  1.00  0.00    -0.346 A  
HETATM   17  N   UNL     1     -10.687  15.264  65.631  1.00  0.00    -0.344 NA 
HETATM   18  N   UNL     1     -10.495  16.275  66.551  1.00  0.00    -0.303 NA 
HETATM   19  C   UNL     1     -11.016  15.885  67.693  1.00  0.00    -0.298 A  
HETATM   20  C   UNL     1     -11.069  16.605  68.991  1.00  0.00    -0.234 C  
HETATM   21  C   UNL     1     -11.447  15.662  70.141  1.00  0.00    -0.358 C  
HETATM   22  C   UNL     1     -12.620  14.762  69.752  1.00  0.00    -0.158 C  
HETATM   23  C   UNL     1     -12.249  13.892  68.551  1.00  0.00    -0.166 C  
HETATM   24  N   UNL     1     -11.574  14.652  67.521  1.00  0.00    -0.364 NA 
ENDBRANCH  15  16
ENDBRANCH  14  15
ENDBRANCH  11  14
ENDBRANCH   7   8
TORSDOF 4
ENDMDL
MODEL      228
REMARK 921   NORMALIZED FREE ENERGY PREDICTED BY IDOCK:   -4.02 KCAL/MOL
REMARK 922        TOTAL FREE ENERGY PREDICTED BY IDOCK:   -5.22 KCAL/MOL
REMARK 923 INTER-LIGAND FREE ENERGY PREDICTED BY IDOCK:   -4.73 KCAL/MOL
REMARK 924 INTRA-LIGAND FREE ENERGY PREDICTED BY IDOCK:   -0.48 KCAL/MOL
REMARK 927      BINDING AFFINITY PREDICTED BY RF-SCORE:    0.00 PKD
ROOT
HETATM    1  C   UNL     1      -7.503   3.601  65.241  1.00  0.00    -0.077 C  
HETATM    2  C   UNL     1      -8.221   3.601  66.564  1.00  0.00    -0.100 A  
HETATM    3  C   UNL     1      -8.738   2.351  66.984  1.00  0.00    -0.138 A  
HETATM    4  C   UNL     1      -9.348   2.204  68.228  1.00  0.00    -0.260 A  
HETATM    5  C   UNL     1      -9.446   3.296  69.070  1.00  0.00    -0.187 A  
HETATM    6  C   UNL     1      -8.969   4.541  68.650  1.00  0.00    -0.147 A  
HETATM    7  C   UNL     1      -8.379   4.743  67.385  1.00  0.00    -0.105 A  
ENDROOT
BRANCH   7   8
HETATM    8  N   UNL     1      -8.068   6.042  67.009  1.00  0.00    -0.105 NA 
HETATM    9  C   UNL     1      -7.009   6.795  67.684  1.00  0.00    -0.083 C  
HETATM   10  C   UNL     1      -6.307   7.751  66.702  1.00  0.00    -0.050 C  
HETATM   11  N   UNL     1      -7.216   8.684  65.995  1.00  0.00    -0.083 NA 
HETATM   12  C   UNL     1      -8.988   6.830  66.160  1.00  0.00    -0.136 C  
HETATM   13  C   UNL     1      -8.211   7.847  65.279  1.00  0.00    -0.145 C  
BRANCH  11  14
HETATM   14  C   UNL     1      -7.897   9.640  66.901  1.00  0.00    -0.102 C  
BRANCH  14  15
HETATM   15  C   UNL     1      -8.214  10.967  66.206  1.00  0.00    -0.164 C  
BRANCH  15  16
HETATM   16  C   UNL     1      -9.199  11.809  66.929  1.00  0.00    -0.189 A  
HETATM   17  N   UNL     1      -9.311  12.040  68.220  1.00  0.00    -0.198 NA 
HETATM   18  N   UNL     1     -10.390  12.879  68.416  1.00  0.00    -0.242 NA 
HETATM   19  C   UNL     1     -10.914  13.142  67.239  1.00  0.00    -0.268 A  
HETATM   20  C   UNL     1     -12.087  13.990  66.907  1.00  0.00    -0.465 C  
HETATM   21  C   UNL     1     -12.565  13.747  65.469  1.00  0.00    -0.551 C  
HETATM   22  C   UNL     1     -11.387  13.709  64.495  1.00  0.00    -0.393 C  
HETATM   23  C   UNL     1     -10.433  12.571  64.858  1.00  0.00    -0.303 C  
HETATM   24  N   UNL     1     -10.172  12.517  66.280  1.00  0.00    -0.243 NA 
ENDBRANCH  15  16
ENDBRANCH  14  15
ENDBRANCH  11  14
ENDBRANCH   7   8
TORSDOF 4
ENDMDL
MODEL      229
REMARK 921   NORMALIZED FREE ENERGY PREDICTED BY IDOCK:   -4.00 KCAL/MOL
REMARK 922        TOTAL FREE ENERGY PREDICTED BY IDOCK:   -5.19 KCAL/MOL
REMARK 923 INTER-LIGAND FREE ENERGY PREDICTED BY IDOCK:   -5.03 KCAL/MOL
REMARK 924 INTRA-LIGAND FREE ENERGY PREDICTED BY IDOCK:   -0.16 KCAL/MOL
REMARK 927      BINDING AFFINITY PREDICTED BY RF-SCORE:    0.00 PKD
ROOT
HETATM    1  C   UNL     1      -7.178   6.932  64.088  1.00  0.00    -0.068 C  
HETATM    2  C   UNL     1      -7.517   5.479  63.892  1.00  0.00    -0.062 A  
HETATM    3  C   UNL     1      -7.184   4.933  62.628  1.00  0.00    -0.042 A  
HETATM    4  C   UNL     1      -7.369   3.580  62.355  1.00  0.00    -0.044 A  
HETATM    5  C   UNL     1      -7.881   2.752  63.337  1.00  0.00    -0.072 A  
HETATM    6  C   UNL     1      -8.243   3.288  64.576  1.00  0.00    -0.090 A  
HETATM    7  C   UNL     1      -8.108   4.658  64.882  1.00  0.00    -0.102 A  
ENDROOT
BRANCH   7   8
HETATM    8  N   UNL     1      -8.628   5.113  66.086  1.00  0.00    -0.115 NA 
HETATM    9  C   UNL     1      -7.769   5.733  67.097  1.00  0.00    -0.101 C  
HETATM   10  C   UNL     1      -8.537   6.818  67.876  1.00  0.00    -0.122 C  
HETATM   11  N   UNL     1      -9.796   6.350  68.503  1.00  0.00    -0.135 NA 
HETATM   12  C   UNL     1      -9.975   4.702  66.538  1.00  0.00    -0.242 C  
HETATM   13  C   UNL     1     -10.638   5.805  67.408  1.00  0.00    -0.265 C  
BRANCH  11  14
HETATM   14  C   UNL     1      -9.584   5.326  69.554  1.00  0.00    -0.152 C  
BRANCH  14  15
HETATM   15  C   UNL     1     -10.243   5.716  70.880  1.00  0.00    -0.286 C  
BRANCH  15  16
HETATM   16  C   UNL     1     -10.402   7.179  71.070  1.00  0.00    -0.196 A  
HETATM   17  N   UNL     1      -9.499   8.134  70.994  1.00  0.00    -0.153 NA 
HETATM   18  N   UNL     1     -10.120   9.337  71.261  1.00  0.00    -0.307 NA 
HETATM   19  C   UNL     1     -11.390   9.092  71.494  1.00  0.00    -0.346 A  
HETATM   20  C   UNL     1     -12.480  10.044  71.830  1.00  0.00    -0.475 C  
HETATM   21  C   UNL     1     -13.720   9.312  72.360  1.00  0.00    -0.517 C  
HETATM   22  C   UNL     1     -14.050   8.091  71.500  1.00  0.00    -0.475 C  
HETATM   23  C   UNL     1     -12.889   7.097  71.519  1.00  0.00    -0.391 C  
HETATM   24  N   UNL     1     -11.611   7.753  71.348  1.00  0.00    -0.270 NA 
ENDBRANCH  15  16
ENDBRANCH  14  15
ENDBRANCH  11  14
ENDBRANCH   7   8
TORSDOF 4
ENDMDL
MODEL      230
REMARK 921   NORMALIZED FREE ENERGY PREDICTED BY IDOCK:   -3.99 KCAL/MOL
REMARK 922        TOTAL FREE ENERGY PREDICTED BY IDOCK:   -5.18 KCAL/MOL
REMARK 923 INTER-LIGAND FREE ENERGY PREDICTED BY IDOCK:   -7.12 KCAL/MOL
REMARK 924 INTRA-LIGAND FREE ENERGY PREDICTED BY IDOCK:    1.94 KCAL/MOL
REMARK 927      BINDING AFFINITY PREDICTED BY RF-SCORE:    0.00 PKD
ROOT
HETATM    1  C   UNL     1     -12.626  14.547  71.012  1.00  0.00    -0.410 C  
HETATM    2  C   UNL     1     -12.498  13.056  70.852  1.00  0.00    -0.396 A  
HETATM    3  C   UNL     1     -13.001  12.276  71.921  1.00  0.00    -0.411 A  
HETATM    4  C   UNL     1     -13.019  10.885  71.854  1.00  0.00    -0.502 A  
HETATM    5  C   UNL     1     -12.541  10.253  70.721  1.00  0.00    -0.442 A  
HETATM    6  C   UNL     1     -12.010  11.014  69.674  1.00  0.00    -0.424 A  
HETATM    7  C   UNL     1     -11.940  12.421  69.716  1.00  0.00    -0.289 A  
ENDROOT
BRANCH   7   8
HETATM    8  N   UNL     1     -11.267  13.073  68.691  1.00  0.00    -0.260 NA 
HETATM    9  C   UNL     1      -9.818  12.945  68.533  1.00  0.00    -0.144 C  
HETATM   10  C   UNL     1      -9.423  13.006  67.046  1.00  0.00    -0.237 C  
HETATM   11  N   UNL     1      -9.903  14.213  66.331  1.00  0.00    -0.286 NA 
HETATM   12  C   UNL     1     -11.912  14.167  67.933  1.00  0.00    -0.343 C  
HETATM   13  C   UNL     1     -11.380  14.232  66.475  1.00  0.00    -0.346 C  
BRANCH  11  14
HETATM   14  C   UNL     1      -9.314  15.473  66.845  1.00  0.00    -0.233 C  
BRANCH  14  15
HETATM   15  C   UNL     1      -9.101  15.433  68.361  1.00  0.00    -0.191 C  
BRANCH  15  16
HETATM   16  C   UNL     1      -7.918  16.197  68.827  1.00  0.00    -0.216 A  
HETATM   17  N   UNL     1      -6.961  15.831  69.653  1.00  0.00    -0.185 NA 
HETATM   18  N   UNL     1      -6.083  16.888  69.791  1.00  0.00    -0.231 NA 
HETATM   19  C   UNL     1      -6.524  17.877  69.046  1.00  0.00    -0.236 A  
HETATM   20  C   UNL     1      -5.943  19.229  68.850  1.00  0.00    -0.252 C  
HETATM   21  C   UNL     1      -6.947  20.180  68.184  1.00  0.00    -0.326 C  
HETATM   22  C   UNL     1      -7.649  19.504  67.006  1.00  0.00    -0.266 C  
HETATM   23  C   UNL     1      -8.427  18.277  67.483  1.00  0.00    -0.249 C  
HETATM   24  N   UNL     1      -7.653  17.468  68.398  1.00  0.00    -0.244 NA 
ENDBRANCH  15  16
ENDBRANCH  14  15
ENDBRANCH  11  14
ENDBRANCH   7   8
TORSDOF 4
ENDMDL
MODEL      231
REMARK 921   NORMALIZED FREE ENERGY PREDICTED BY IDOCK:   -3.97 KCAL/MOL
REMARK 922        TOTAL FREE ENERGY PREDICTED BY IDOCK:   -5.16 KCAL/MOL
REMARK 923 INTER-LIGAND FREE ENERGY PREDICTED BY IDOCK:   -4.77 KCAL/MOL
REMARK 924 INTRA-LIGAND FREE ENERGY PREDICTED BY IDOCK:   -0.39 KCAL/MOL
REMARK 927      BINDING AFFINITY PREDICTED BY RF-SCORE:    0.00 PKD
ROOT
HETATM    1  C   UNL     1      -6.112   5.039  68.648  1.00  0.00    -0.030 C  
HETATM    2  C   UNL     1      -6.889   3.992  67.897  1.00  0.00    -0.047 A  
HETATM    3  C   UNL     1      -6.157   2.847  67.498  1.00  0.00    -0.028 A  
HETATM    4  C   UNL     1      -6.782   1.772  66.872  1.00  0.00    -0.038 A  
HETATM    5  C   UNL     1      -8.144   1.818  66.641  1.00  0.00    -0.075 A  
HETATM    6  C   UNL     1      -8.870   2.958  67.001  1.00  0.00    -0.160 A  
HETATM    7  C   UNL     1      -8.271   4.083  67.602  1.00  0.00    -0.094 A  
ENDROOT
BRANCH   7   8
HETATM    8  N   UNL     1      -9.051   5.217  67.790  1.00  0.00    -0.110 NA 
HETATM    9  C   UNL     1      -9.169   6.237  66.747  1.00  0.00    -0.137 C  
HETATM   10  C   UNL     1     -10.565   6.888  66.775  1.00  0.00    -0.234 C  
HETATM   11  N   UNL     1     -10.951   7.460  68.087  1.00  0.00    -0.023 NA 
HETATM   12  C   UNL     1      -9.516   5.605  69.139  1.00  0.00    -0.126 C  
HETATM   13  C   UNL     1     -10.877   6.352  69.072  1.00  0.00    -0.327 C  
BRANCH  11  14
HETATM   14  C   UNL     1     -10.090   8.591  68.510  1.00  0.00    -0.194 C  
BRANCH  14  15
HETATM   15  C   UNL     1      -9.985   9.671  67.429  1.00  0.00    -0.237 C  
BRANCH  15  16
HETATM   16  C   UNL     1     -10.688  10.933  67.764  1.00  0.00    -0.235 A  
HETATM   17  N   UNL     1     -10.979  11.439  68.944  1.00  0.00    -0.212 NA 
HETATM   18  N   UNL     1     -11.651  12.629  68.750  1.00  0.00    -0.291 NA 
HETATM   19  C   UNL     1     -11.755  12.825  67.455  1.00  0.00    -0.366 A  
HETATM   20  C   UNL     1     -12.392  13.954  66.729  1.00  0.00    -0.370 C  
HETATM   21  C   UNL     1     -12.598  13.621  65.245  1.00  0.00    -0.512 C  
HETATM   22  C   UNL     1     -11.350  12.973  64.646  1.00  0.00    -0.361 C  
HETATM   23  C   UNL     1     -11.031  11.664  65.368  1.00  0.00    -0.270 C  
HETATM   24  N   UNL     1     -11.131  11.800  66.805  1.00  0.00    -0.292 NA 
ENDBRANCH  15  16
ENDBRANCH  14  15
ENDBRANCH  11  14
ENDBRANCH   7   8
TORSDOF 4
ENDMDL
MODEL      232
REMARK 921   NORMALIZED FREE ENERGY PREDICTED BY IDOCK:   -3.96 KCAL/MOL
REMARK 922        TOTAL FREE ENERGY PREDICTED BY IDOCK:   -5.15 KCAL/MOL
REMARK 923 INTER-LIGAND FREE ENERGY PREDICTED BY IDOCK:   -4.56 KCAL/MOL
REMARK 924 INTRA-LIGAND FREE ENERGY PREDICTED BY IDOCK:   -0.58 KCAL/MOL
REMARK 927      BINDING AFFINITY PREDICTED BY RF-SCORE:    0.00 PKD
ROOT
HETATM    1  C   UNL     1      -6.665   6.506  64.165  1.00  0.00    -0.038 C  
HETATM    2  C   UNL     1      -8.004   5.843  64.341  1.00  0.00    -0.129 A  
HETATM    3  C   UNL     1      -8.332   4.852  63.384  1.00  0.00    -0.115 A  
HETATM    4  C   UNL     1      -9.505   4.107  63.490  1.00  0.00    -0.139 A  
HETATM    5  C   UNL     1     -10.362   4.335  64.550  1.00  0.00    -0.105 A  
HETATM    6  C   UNL     1     -10.063   5.335  65.481  1.00  0.00     0.137 A  
HETATM    7  C   UNL     1      -8.906   6.137  65.392  1.00  0.00    -0.004 A  
ENDROOT
BRANCH   7   8
HETATM    8  N   UNL     1      -8.774   7.193  66.282  1.00  0.00    -0.141 NA 
HETATM    9  C   UNL     1      -8.367   6.969  67.670  1.00  0.00    -0.117 C  
HETATM   10  C   UNL     1      -7.536   8.156  68.194  1.00  0.00    -0.097 C  
HETATM   11  N   UNL     1      -8.201   9.475  68.071  1.00  0.00    -0.113 NA 
HETATM   12  C   UNL     1      -9.348   8.522  65.977  1.00  0.00    -0.199 C  
HETATM   13  C   UNL     1      -8.515   9.659  66.632  1.00  0.00    -0.123 C  
BRANCH  11  14
HETATM   14  C   UNL     1      -9.431   9.591  68.891  1.00  0.00    -0.155 C  
BRANCH  14  15
HETATM   15  C   UNL     1      -9.229   9.055  70.311  1.00  0.00    -0.229 C  
BRANCH  15  16
HETATM   16  C   UNL     1     -10.224   8.035  70.721  1.00  0.00    -0.194 A  
HETATM   17  N   UNL     1     -10.095   6.727  70.803  1.00  0.00    -0.191 NA 
HETATM   18  N   UNL     1     -11.300   6.199  71.219  1.00  0.00    -0.291 NA 
HETATM   19  C   UNL     1     -12.141   7.196  71.383  1.00  0.00    -0.344 A  
HETATM   20  C   UNL     1     -13.561   7.159  71.817  1.00  0.00    -0.352 C  
HETATM   21  C   UNL     1     -14.267   8.493  71.541  1.00  0.00    -0.448 C  
HETATM   22  C   UNL     1     -13.398   9.676  71.970  1.00  0.00    -0.547 C  
HETATM   23  C   UNL     1     -12.084   9.683  71.188  1.00  0.00    -0.362 C  
HETATM   24  N   UNL     1     -11.491   8.366  71.114  1.00  0.00    -0.269 NA 
ENDBRANCH  15  16
ENDBRANCH  14  15
ENDBRANCH  11  14
ENDBRANCH   7   8
TORSDOF 4
ENDMDL
MODEL      233
REMARK 921   NORMALIZED FREE ENERGY PREDICTED BY IDOCK:   -3.93 KCAL/MOL
REMARK 922        TOTAL FREE ENERGY PREDICTED BY IDOCK:   -5.11 KCAL/MOL
REMARK 923 INTER-LIGAND FREE ENERGY PREDICTED BY IDOCK:   -5.04 KCAL/MOL
REMARK 924 INTRA-LIGAND FREE ENERGY PREDICTED BY IDOCK:   -0.07 KCAL/MOL
REMARK 927      BINDING AFFINITY PREDICTED BY RF-SCORE:    0.00 PKD
ROOT
HETATM    1  C   UNL     1     -11.877  12.769  66.987  1.00  0.00    -0.428 C  
HETATM    2  C   UNL     1     -10.760  13.750  66.753  1.00  0.00    -0.276 A  
HETATM    3  C   UNL     1     -11.156  15.076  66.453  1.00  0.00    -0.329 A  
HETATM    4  C   UNL     1     -10.217  16.093  66.301  1.00  0.00    -0.333 A  
HETATM    5  C   UNL     1      -8.873  15.806  66.451  1.00  0.00    -0.371 A  
HETATM    6  C   UNL     1      -8.470  14.493  66.714  1.00  0.00    -0.108 A  
HETATM    7  C   UNL     1      -9.384  13.427  66.839  1.00  0.00    -0.252 A  
ENDROOT
BRANCH   7   8
HETATM    8  N   UNL     1      -8.875  12.140  66.958  1.00  0.00    -0.197 NA 
HETATM    9  C   UNL     1      -8.782  11.251  65.799  1.00  0.00    -0.109 C  
HETATM   10  C   UNL     1      -7.559  10.322  65.920  1.00  0.00    -0.134 C  
HETATM   11  N   UNL     1      -7.511   9.528  67.170  1.00  0.00    -0.091 NA 
HETATM   12  C   UNL     1      -8.722  11.502  68.284  1.00  0.00    -0.162 C  
HETATM   13  C   UNL     1      -7.535  10.500  68.292  1.00  0.00    -0.090 C  
BRANCH  11  14
HETATM   14  C   UNL     1      -8.629   8.561  67.294  1.00  0.00    -0.123 C  
BRANCH  14  15
HETATM   15  C   UNL     1      -9.228   8.551  68.703  1.00  0.00    -0.142 C  
BRANCH  15  16
HETATM   16  C   UNL     1      -9.199   7.223  69.364  1.00  0.00    -0.148 A  
HETATM   17  N   UNL     1      -8.505   6.149  69.050  1.00  0.00    -0.118 NA 
HETATM   18  N   UNL     1      -8.821   5.153  69.952  1.00  0.00    -0.102 NA 
HETATM   19  C   UNL     1      -9.701   5.640  70.798  1.00  0.00    -0.177 A  
HETATM   20  C   UNL     1     -10.358   4.973  71.951  1.00  0.00    -0.270 C  
HETATM   21  C   UNL     1     -11.564   5.778  72.453  1.00  0.00    -0.320 C  
HETATM   22  C   UNL     1     -11.228   7.266  72.559  1.00  0.00    -0.342 C  
HETATM   23  C   UNL     1     -10.844   7.824  71.188  1.00  0.00    -0.235 C  
HETATM   24  N   UNL     1      -9.936   6.947  70.482  1.00  0.00    -0.183 NA 
ENDBRANCH  15  16
ENDBRANCH  14  15
ENDBRANCH  11  14
ENDBRANCH   7   8
TORSDOF 4
ENDMDL
MODEL      234
REMARK 921   NORMALIZED FREE ENERGY PREDICTED BY IDOCK:   -3.92 KCAL/MOL
REMARK 922        TOTAL FREE ENERGY PREDICTED BY IDOCK:   -5.10 KCAL/MOL
REMARK 923 INTER-LIGAND FREE ENERGY PREDICTED BY IDOCK:   -4.99 KCAL/MOL
REMARK 924 INTRA-LIGAND FREE ENERGY PREDICTED BY IDOCK:   -0.10 KCAL/MOL
REMARK 927      BINDING AFFINITY PREDICTED BY RF-SCORE:    0.00 PKD
ROOT
HETATM    1  C   UNL     1      -9.058   4.411  68.751  1.00  0.00    -0.173 C  
HETATM    2  C   UNL     1      -9.504   4.763  70.145  1.00  0.00    -0.246 A  
HETATM    3  C   UNL     1      -9.792   3.668  70.995  1.00  0.00    -0.186 A  
HETATM    4  C   UNL     1     -10.130   3.862  72.332  1.00  0.00    -0.237 A  
HETATM    5  C   UNL     1     -10.181   5.146  72.841  1.00  0.00    -0.220 A  
HETATM    6  C   UNL     1      -9.931   6.235  72.001  1.00  0.00    -0.187 A  
HETATM    7  C   UNL     1      -9.621   6.087  70.633  1.00  0.00    -0.173 A  
ENDROOT
BRANCH   7   8
HETATM    8  N   UNL     1      -9.531   7.233  69.855  1.00  0.00    -0.157 NA 
HETATM    9  C   UNL     1      -8.469   7.392  68.861  1.00  0.00    -0.129 C  
HETATM   10  C   UNL     1      -8.967   8.210  67.655  1.00  0.00    -0.132 C  
HETATM   11  N   UNL     1      -9.536   9.535  68.002  1.00  0.00    -0.133 NA 
HETATM   12  C   UNL     1     -10.277   8.458  70.215  1.00  0.00    -0.196 C  
HETATM   13  C   UNL     1     -10.649   9.283  68.952  1.00  0.00    -0.199 C  
BRANCH  11  14
HETATM   14  C   UNL     1      -8.543  10.462  68.597  1.00  0.00    -0.133 C  
BRANCH  14  15
HETATM   15  C   UNL     1      -9.183  11.775  69.055  1.00  0.00     0.220 C  
BRANCH  15  16
HETATM   16  C   UNL     1      -9.108  12.867  68.054  1.00  0.00    -0.211 A  
HETATM   17  N   UNL     1      -8.162  13.763  67.866  1.00  0.00    -0.151 NA 
HETATM   18  N   UNL     1      -8.544  14.581  66.822  1.00  0.00    -0.182 NA 
HETATM   19  C   UNL     1      -9.716  14.166  66.394  1.00  0.00    -0.298 A  
HETATM   20  C   UNL     1     -10.554  14.708  65.294  1.00  0.00    -0.409 C  
HETATM   21  C   UNL     1     -11.985  14.156  65.355  1.00  0.00    -0.382 C  
HETATM   22  C   UNL     1     -11.984  12.647  65.604  1.00  0.00    -0.507 C  
HETATM   23  C   UNL     1     -11.313  12.328  66.939  1.00  0.00    -0.333 C  
HETATM   24  N   UNL     1     -10.084  13.071  67.119  1.00  0.00    -0.241 NA 
ENDBRANCH  15  16
ENDBRANCH  14  15
ENDBRANCH  11  14
ENDBRANCH   7   8
TORSDOF 4
ENDMDL
MODEL      235
REMARK 921   NORMALIZED FREE ENERGY PREDICTED BY IDOCK:   -3.92 KCAL/MOL
REMARK 922        TOTAL FREE ENERGY PREDICTED BY IDOCK:   -5.09 KCAL/MOL
REMARK 923 INTER-LIGAND FREE ENERGY PREDICTED BY IDOCK:   -4.53 KCAL/MOL
REMARK 924 INTRA-LIGAND FREE ENERGY PREDICTED BY IDOCK:   -0.56 KCAL/MOL
REMARK 927      BINDING AFFINITY PREDICTED BY RF-SCORE:    0.00 PKD
ROOT
HETATM    1  C   UNL     1      -6.175   5.065  65.671  1.00  0.00    -0.034 C  
HETATM    2  C   UNL     1      -7.667   4.964  65.848  1.00  0.00    -0.091 A  
HETATM    3  C   UNL     1      -8.223   3.674  65.665  1.00  0.00    -0.097 A  
HETATM    4  C   UNL     1      -9.577   3.435  65.885  1.00  0.00    -0.067 A  
HETATM    5  C   UNL     1     -10.394   4.473  66.294  1.00  0.00    -0.227 A  
HETATM    6  C   UNL     1      -9.860   5.756  66.444  1.00  0.00    -0.174 A  
HETATM    7  C   UNL     1      -8.504   6.051  66.197  1.00  0.00    -0.134 A  
ENDROOT
BRANCH   7   8
HETATM    8  N   UNL     1      -8.106   7.380  66.237  1.00  0.00    -0.112 NA 
HETATM    9  C   UNL     1      -8.174   8.155  67.477  1.00  0.00    -0.123 C  
HETATM   10  C   UNL     1      -7.034   9.189  67.539  1.00  0.00    -0.078 C  
HETATM   11  N   UNL     1      -6.970  10.105  66.375  1.00  0.00    -0.100 NA 
HETATM   12  C   UNL     1      -7.918   8.157  64.992  1.00  0.00    -0.139 C  
HETATM   13  C   UNL     1      -6.828   9.250  65.169  1.00  0.00    -0.082 C  
BRANCH  11  14
HETATM   14  C   UNL     1      -8.158  10.983  66.254  1.00  0.00    -0.159 C  
BRANCH  14  15
HETATM   15  C   UNL     1      -8.449  11.742  67.551  1.00  0.00    -0.154 C  
BRANCH  15  16
HETATM   16  C   UNL     1      -9.869  11.692  67.977  1.00  0.00    -0.190 A  
HETATM   17  N   UNL     1     -10.915  12.310  67.472  1.00  0.00    -0.242 NA 
HETATM   18  N   UNL     1     -12.024  11.960  68.214  1.00  0.00    -0.493 NA 
HETATM   19  C   UNL     1     -11.632  11.134  69.159  1.00  0.00    -0.324 A  
HETATM   20  C   UNL     1     -12.438  10.474  70.217  1.00  0.00    -0.345 C  
HETATM   21  C   UNL     1     -11.544   9.876  71.312  1.00  0.00    -0.456 C  
HETATM   22  C   UNL     1     -10.364   9.116  70.706  1.00  0.00    -0.323 C  
HETATM   23  C   UNL     1      -9.496  10.058  69.871  1.00  0.00    -0.181 C  
HETATM   24  N   UNL     1     -10.292  10.915  69.020  1.00  0.00    -0.206 NA 
ENDBRANCH  15  16
ENDBRANCH  14  15
ENDBRANCH  11  14
ENDBRANCH   7   8
TORSDOF 4
ENDMDL
MODEL      236
REMARK 921   NORMALIZED FREE ENERGY PREDICTED BY IDOCK:   -3.92 KCAL/MOL
REMARK 922        TOTAL FREE ENERGY PREDICTED BY IDOCK:   -5.09 KCAL/MOL
REMARK 923 INTER-LIGAND FREE ENERGY PREDICTED BY IDOCK:   -4.99 KCAL/MOL
REMARK 924 INTRA-LIGAND FREE ENERGY PREDICTED BY IDOCK:   -0.10 KCAL/MOL
REMARK 927      BINDING AFFINITY PREDICTED BY RF-SCORE:    0.00 PKD
ROOT
HETATM    1  C   UNL     1     -10.353  12.479  63.776  1.00  0.00    -0.418 C  
HETATM    2  C   UNL     1      -9.688  11.157  64.051  1.00  0.00    -0.323 A  
HETATM    3  C   UNL     1      -9.251  10.436  62.913  1.00  0.00    -0.319 A  
HETATM    4  C   UNL     1      -8.546   9.242  63.041  1.00  0.00    -0.217 A  
HETATM    5  C   UNL     1      -8.262   8.752  64.302  1.00  0.00    -0.164 A  
HETATM    6  C   UNL     1      -8.718   9.439  65.432  1.00  0.00    -0.194 A  
HETATM    7  C   UNL     1      -9.466  10.632  65.347  1.00  0.00    -0.215 A  
ENDROOT
BRANCH   7   8
HETATM    8  N   UNL     1      -9.992  11.158  66.520  1.00  0.00    -0.207 NA 
HETATM    9  C   UNL     1     -11.406  10.992  66.858  1.00  0.00    -0.032 C  
HETATM   10  C   UNL     1     -11.595  10.885  68.383  1.00  0.00    -0.276 C  
HETATM   11  N   UNL     1     -11.021  12.014  69.154  1.00  0.00    -0.210 NA 
HETATM   12  C   UNL     1      -9.250  12.172  67.298  1.00  0.00    -0.185 C  
HETATM   13  C   UNL     1      -9.577  12.070  68.814  1.00  0.00     0.016 C  
BRANCH  11  14
HETATM   14  C   UNL     1     -11.675  13.313  68.866  1.00  0.00    -0.327 C  
BRANCH  14  15
HETATM   15  C   UNL     1     -11.204  14.418  69.816  1.00  0.00    -0.251 C  
BRANCH  15  16
HETATM   16  C   UNL     1      -9.941  15.076  69.402  1.00  0.00    -0.183 A  
HETATM   17  N   UNL     1      -8.791  15.152  70.038  1.00  0.00     0.181 NA 
HETATM   18  N   UNL     1      -7.914  15.878  69.259  1.00  0.00    -0.232 NA 
HETATM   19  C   UNL     1      -8.547  16.231  68.162  1.00  0.00    -0.183 A  
HETATM   20  C   UNL     1      -8.048  17.022  67.009  1.00  0.00    -0.234 C  
HETATM   21  C   UNL     1      -9.200  17.497  66.114  1.00  0.00    -0.162 C  
HETATM   22  C   UNL     1     -10.198  16.369  65.854  1.00  0.00    -0.379 C  
HETATM   23  C   UNL     1     -10.810  15.885  67.169  1.00  0.00    -0.267 C  
HETATM   24  N   UNL     1      -9.810  15.715  68.201  1.00  0.00    -0.212 NA 
ENDBRANCH  15  16
ENDBRANCH  14  15
ENDBRANCH  11  14
ENDBRANCH   7   8
TORSDOF 4
ENDMDL
MODEL      237
REMARK 921   NORMALIZED FREE ENERGY PREDICTED BY IDOCK:   -3.89 KCAL/MOL
REMARK 922        TOTAL FREE ENERGY PREDICTED BY IDOCK:   -5.06 KCAL/MOL
REMARK 923 INTER-LIGAND FREE ENERGY PREDICTED BY IDOCK:   -4.54 KCAL/MOL
REMARK 924 INTRA-LIGAND FREE ENERGY PREDICTED BY IDOCK:   -0.52 KCAL/MOL
REMARK 927      BINDING AFFINITY PREDICTED BY RF-SCORE:    0.00 PKD
ROOT
HETATM    1  C   UNL     1      -7.337   6.050  63.684  1.00  0.00    -0.066 C  
HETATM    2  C   UNL     1      -8.378   5.689  64.709  1.00  0.00    -0.128 A  
HETATM    3  C   UNL     1      -9.052   4.462  64.499  1.00  0.00    -0.152 A  
HETATM    4  C   UNL     1      -9.975   3.978  65.422  1.00  0.00    -0.182 A  
HETATM    5  C   UNL     1     -10.235   4.704  66.569  1.00  0.00    -0.273 A  
HETATM    6  C   UNL     1      -9.600   5.934  66.769  1.00  0.00    -0.165 A  
HETATM    7  C   UNL     1      -8.687   6.479  65.843  1.00  0.00    -0.141 A  
ENDROOT
BRANCH   7   8
HETATM    8  N   UNL     1      -8.220   7.767  66.066  1.00  0.00    -0.116 NA 
HETATM    9  C   UNL     1      -6.946   8.006  66.746  1.00  0.00    -0.073 C  
HETATM   10  C   UNL     1      -6.264   9.275  66.199  1.00  0.00    -0.064 C  
HETATM   11  N   UNL     1      -7.102  10.496  66.256  1.00  0.00    -0.125 NA 
HETATM   12  C   UNL     1      -9.118   8.935  65.936  1.00  0.00    -0.218 C  
HETATM   13  C   UNL     1      -8.336  10.200  65.486  1.00  0.00    -0.158 C  
BRANCH  11  14
HETATM   14  C   UNL     1      -7.437  10.914  67.638  1.00  0.00    -0.095 C  
BRANCH  14  15
HETATM   15  C   UNL     1      -8.514  12.002  67.666  1.00  0.00    -0.160 C  
BRANCH  15  16
HETATM   16  C   UNL     1      -7.992  13.375  67.457  1.00  0.00    -0.183 A  
HETATM   17  N   UNL     1      -6.822  13.882  67.782  1.00  0.00    -0.163 NA 
HETATM   18  N   UNL     1      -6.803  15.207  67.395  1.00  0.00    -0.232 NA 
HETATM   19  C   UNL     1      -7.964  15.481  66.843  1.00  0.00    -0.229 A  
HETATM   20  C   UNL     1      -8.446  16.763  66.268  1.00  0.00    -0.342 C  
HETATM   21  C   UNL     1      -9.964  16.744  66.049  1.00  0.00    -0.334 C  
HETATM   22  C   UNL     1     -10.411  15.434  65.400  1.00  0.00    -0.426 C  
HETATM   23  C   UNL     1     -10.064  14.248  66.300  1.00  0.00    -0.298 C  
HETATM   24  N   UNL     1      -8.722  14.347  66.831  1.00  0.00    -0.217 NA 
ENDBRANCH  15  16
ENDBRANCH  14  15
ENDBRANCH  11  14
ENDBRANCH   7   8
TORSDOF 4
ENDMDL
MODEL      238
REMARK 921   NORMALIZED FREE ENERGY PREDICTED BY IDOCK:   -3.87 KCAL/MOL
REMARK 922        TOTAL FREE ENERGY PREDICTED BY IDOCK:   -5.03 KCAL/MOL
REMARK 923 INTER-LIGAND FREE ENERGY PREDICTED BY IDOCK:   -4.96 KCAL/MOL
REMARK 924 INTRA-LIGAND FREE ENERGY PREDICTED BY IDOCK:   -0.07 KCAL/MOL
REMARK 927      BINDING AFFINITY PREDICTED BY RF-SCORE:    0.00 PKD
ROOT
HETATM    1  C   UNL     1     -11.378   6.897  69.102  1.00  0.00    -0.097 C  
HETATM    2  C   UNL     1     -10.108   6.216  68.669  1.00  0.00    -0.196 A  
HETATM    3  C   UNL     1      -9.925   4.894  69.143  1.00  0.00    -0.252 A  
HETATM    4  C   UNL     1      -8.832   4.128  68.743  1.00  0.00    -0.143 A  
HETATM    5  C   UNL     1      -7.911   4.665  67.863  1.00  0.00    -0.089 A  
HETATM    6  C   UNL     1      -8.066   5.981  67.416  1.00  0.00    -0.106 A  
HETATM    7  C   UNL     1      -9.136   6.804  67.824  1.00  0.00    -0.117 A  
ENDROOT
BRANCH   7   8
HETATM    8  N   UNL     1      -9.121   8.137  67.437  1.00  0.00    -0.133 NA 
HETATM    9  C   UNL     1      -9.468   9.204  68.377  1.00  0.00    -0.142 C  
HETATM   10  C   UNL     1      -8.660  10.481  68.077  1.00  0.00    -0.121 C  
HETATM   11  N   UNL     1      -8.786  10.975  66.685  1.00  0.00    -0.155 NA 
HETATM   12  C   UNL     1      -9.084   8.514  66.007  1.00  0.00    -0.194 C  
HETATM   13  C   UNL     1      -8.348   9.866  65.800  1.00  0.00    -0.128 C  
BRANCH  11  14
HETATM   14  C   UNL     1     -10.161  11.407  66.337  1.00  0.00    -0.218 C  
BRANCH  14  15
HETATM   15  C   UNL     1     -10.200  12.852  65.832  1.00  0.00    -0.299 C  
BRANCH  15  16
HETATM   16  C   UNL     1     -10.556  13.848  66.871  1.00  0.00    -0.280 A  
HETATM   17  N   UNL     1     -11.382  13.733  67.890  1.00  0.00    -0.283 NA 
HETATM   18  N   UNL     1     -11.393  14.932  68.573  1.00  0.00    -0.283 NA 
HETATM   19  C   UNL     1     -10.574  15.755  67.957  1.00  0.00    -0.279 A  
HETATM   20  C   UNL     1     -10.234  17.161  68.292  1.00  0.00    -0.334 C  
HETATM   21  C   UNL     1      -9.515  17.857  67.129  1.00  0.00    -0.263 C  
HETATM   22  C   UNL     1      -8.428  16.960  66.537  1.00  0.00    -0.307 C  
HETATM   23  C   UNL     1      -9.040  15.670  65.990  1.00  0.00    -0.311 C  
HETATM   24  N   UNL     1     -10.003  15.098  66.906  1.00  0.00    -0.236 NA 
ENDBRANCH  15  16
ENDBRANCH  14  15
ENDBRANCH  11  14
ENDBRANCH   7   8
TORSDOF 4
ENDMDL
MODEL      239
REMARK 921   NORMALIZED FREE ENERGY PREDICTED BY IDOCK:   -3.85 KCAL/MOL
REMARK 922        TOTAL FREE ENERGY PREDICTED BY IDOCK:   -5.01 KCAL/MOL
REMARK 923 INTER-LIGAND FREE ENERGY PREDICTED BY IDOCK:   -5.47 KCAL/MOL
REMARK 924 INTRA-LIGAND FREE ENERGY PREDICTED BY IDOCK:    0.46 KCAL/MOL
REMARK 927      BINDING AFFINITY PREDICTED BY RF-SCORE:    0.00 PKD
ROOT
HETATM    1  C   UNL     1      -9.103   4.569  69.447  1.00  0.00    -0.167 C  
HETATM    2  C   UNL     1      -9.628   3.906  70.692  1.00  0.00    -0.259 A  
HETATM    3  C   UNL     1      -9.552   2.492  70.717  1.00  0.00    -0.175 A  
HETATM    4  C   UNL     1      -9.926   1.769  71.847  1.00  0.00    -0.221 A  
HETATM    5  C   UNL     1     -10.374   2.443  72.968  1.00  0.00    -0.230 A  
HETATM    6  C   UNL     1     -10.484   3.836  72.941  1.00  0.00    -0.246 A  
HETATM    7  C   UNL     1     -10.152   4.605  71.806  1.00  0.00    -0.191 A  
ENDROOT
BRANCH   7   8
HETATM    8  N   UNL     1     -10.431   5.965  71.833  1.00  0.00    -0.213 NA 
HETATM    9  C   UNL     1     -11.760   6.473  71.490  1.00  0.00    -0.324 C  
HETATM   10  C   UNL     1     -12.090   7.736  72.308  1.00  0.00    -0.287 C  
HETATM   11  N   UNL     1     -11.089   8.823  72.193  1.00  0.00    -0.363 NA 
HETATM   12  C   UNL     1      -9.342   6.964  71.879  1.00  0.00    -0.141 C  
HETATM   13  C   UNL     1      -9.789   8.251  72.626  1.00  0.00    -0.287 C  
BRANCH  11  14
HETATM   14  C   UNL     1     -10.982   9.379  70.822  1.00  0.00    -0.304 C  
BRANCH  14  15
HETATM   15  C   UNL     1      -9.720   8.898  70.102  1.00  0.00    -0.199 C  
BRANCH  15  16
HETATM   16  C   UNL     1      -9.923   8.592  68.664  1.00  0.00    -0.183 A  
HETATM   17  N   UNL     1     -10.454   7.526  68.104  1.00  0.00    -0.198 NA 
HETATM   18  N   UNL     1     -10.414   7.693  66.735  1.00  0.00    -0.303 NA 
HETATM   19  C   UNL     1      -9.859   8.858  66.487  1.00  0.00    -0.274 A  
HETATM   20  C   UNL     1      -9.584   9.503  65.178  1.00  0.00    -0.270 C  
HETATM   21  C   UNL     1      -8.619  10.687  65.327  1.00  0.00    -0.175 C  
HETATM   22  C   UNL     1      -9.009  11.569  66.514  1.00  0.00    -0.190 C  
HETATM   23  C   UNL     1      -8.954  10.768  67.814  1.00  0.00    -0.137 C  
HETATM   24  N   UNL     1      -9.570   9.466  67.674  1.00  0.00    -0.132 NA 
ENDBRANCH  15  16
ENDBRANCH  14  15
ENDBRANCH  11  14
ENDBRANCH   7   8
TORSDOF 4
ENDMDL
MODEL      240
REMARK 921   NORMALIZED FREE ENERGY PREDICTED BY IDOCK:   -3.85 KCAL/MOL
REMARK 922        TOTAL FREE ENERGY PREDICTED BY IDOCK:   -5.01 KCAL/MOL
REMARK 923 INTER-LIGAND FREE ENERGY PREDICTED BY IDOCK:   -5.07 KCAL/MOL
REMARK 924 INTRA-LIGAND FREE ENERGY PREDICTED BY IDOCK:    0.06 KCAL/MOL
REMARK 927      BINDING AFFINITY PREDICTED BY RF-SCORE:    0.00 PKD
ROOT
HETATM    1  C   UNL     1     -11.862  16.023  64.479  1.00  0.00    -0.027 C  
HETATM    2  C   UNL     1     -11.622  14.537  64.460  1.00  0.00    -0.385 A  
HETATM    3  C   UNL     1     -12.408  13.797  63.543  1.00  0.00    -0.172 A  
HETATM    4  C   UNL     1     -12.218  12.428  63.371  1.00  0.00    -0.623 A  
HETATM    5  C   UNL     1     -11.242  11.779  64.104  1.00  0.00    -0.437 A  
HETATM    6  C   UNL     1     -10.484  12.495  65.036  1.00  0.00    -0.323 A  
HETATM    7  C   UNL     1     -10.668  13.874  65.268  1.00  0.00    -0.345 A  
ENDROOT
BRANCH   7   8
HETATM    8  N   UNL     1      -9.965  14.459  66.313  1.00  0.00    -0.294 NA 
HETATM    9  C   UNL     1      -9.202  15.693  66.115  1.00  0.00    -0.343 C  
HETATM   10  C   UNL     1      -9.212  16.552  67.394  1.00  0.00    -0.216 C  
HETATM   11  N   UNL     1      -8.734  15.852  68.610  1.00  0.00    -0.187 NA 
HETATM   12  C   UNL     1      -9.681  13.709  67.555  1.00  0.00    -0.227 C  
HETATM   13  C   UNL     1      -9.600  14.659  68.781  1.00  0.00    -0.210 C  
BRANCH  11  14
HETATM   14  C   UNL     1      -7.307  15.454  68.534  1.00  0.00    -0.116 C  
BRANCH  14  15
HETATM   15  C   UNL     1      -7.054  14.093  69.188  1.00  0.00    -0.099 C  
BRANCH  15  16
HETATM   16  C   UNL     1      -6.332  13.130  68.322  1.00  0.00    -0.096 A  
HETATM   17  N   UNL     1      -5.664  13.346  67.208  1.00  0.00    -0.320 NA 
HETATM   18  N   UNL     1      -5.175  12.137  66.756  1.00  0.00    -0.332 NA 
HETATM   19  C   UNL     1      -5.555  11.207  67.603  1.00  0.00    -0.041 A  
HETATM   20  C   UNL     1      -5.291   9.746  67.568  1.00  0.00    -0.036 C  
HETATM   21  C   UNL     1      -6.199   8.988  68.545  1.00  0.00    -0.049 C  
HETATM   22  C   UNL     1      -6.260   9.691  69.901  1.00  0.00    -0.048 C  
HETATM   23  C   UNL     1      -6.831  11.100  69.745  1.00  0.00    -0.089 C  
HETATM   24  N   UNL     1      -6.252  11.797  68.617  1.00  0.00    -0.052 NA 
ENDBRANCH  15  16
ENDBRANCH  14  15
ENDBRANCH  11  14
ENDBRANCH   7   8
TORSDOF 4
ENDMDL
MODEL      241
REMARK 921   NORMALIZED FREE ENERGY PREDICTED BY IDOCK:   -3.85 KCAL/MOL
REMARK 922        TOTAL FREE ENERGY PREDICTED BY IDOCK:   -5.01 KCAL/MOL
REMARK 923 INTER-LIGAND FREE ENERGY PREDICTED BY IDOCK:   -4.44 KCAL/MOL
REMARK 924 INTRA-LIGAND FREE ENERGY PREDICTED BY IDOCK:   -0.56 KCAL/MOL
REMARK 927      BINDING AFFINITY PREDICTED BY RF-SCORE:    0.00 PKD
ROOT
HETATM    1  C   UNL     1      -6.476   5.630  64.458  1.00  0.00    -0.037 C  
HETATM    2  C   UNL     1      -7.854   5.369  65.003  1.00  0.00    -0.096 A  
HETATM    3  C   UNL     1      -8.422   4.115  64.669  1.00  0.00    -0.110 A  
HETATM    4  C   UNL     1      -9.655   3.722  65.183  1.00  0.00    -0.177 A  
HETATM    5  C   UNL     1     -10.335   4.566  66.040  1.00  0.00    -0.276 A  
HETATM    6  C   UNL     1      -9.798   5.820  66.349  1.00  0.00    -0.174 A  
HETATM    7  C   UNL     1      -8.572   6.274  65.821  1.00  0.00    -0.150 A  
ENDROOT
BRANCH   7   8
HETATM    8  N   UNL     1      -8.196   7.586  66.076  1.00  0.00    -0.122 NA 
HETATM    9  C   UNL     1      -7.359   7.925  67.228  1.00  0.00    -0.092 C  
HETATM   10  C   UNL     1      -6.444   9.122  66.904  1.00  0.00    -0.067 C  
HETATM   11  N   UNL     1      -7.157  10.330  66.425  1.00  0.00    -0.106 NA 
HETATM   12  C   UNL     1      -8.881   8.716  65.411  1.00  0.00    -0.155 C  
HETATM   13  C   UNL     1      -7.920   9.922  65.219  1.00  0.00    -0.137 C  
BRANCH  11  14
HETATM   14  C   UNL     1      -8.063  10.918  67.441  1.00  0.00    -0.114 C  
BRANCH  14  15
HETATM   15  C   UNL     1      -8.622  12.273  66.999  1.00  0.00    -0.191 C  
BRANCH  15  16
HETATM   16  C   UNL     1      -9.979  12.567  67.521  1.00  0.00    -0.201 A  
HETATM   17  N   UNL     1     -11.071  11.835  67.467  1.00  0.00    -0.254 NA 
HETATM   18  N   UNL     1     -12.091  12.535  68.079  1.00  0.00    -0.342 NA 
HETATM   19  C   UNL     1     -11.600  13.681  68.494  1.00  0.00    -0.335 A  
HETATM   20  C   UNL     1     -12.285  14.789  69.208  1.00  0.00    -0.234 C  
HETATM   21  C   UNL     1     -11.443  16.071  69.194  1.00  0.00    -0.347 C  
HETATM   22  C   UNL     1      -9.981  15.775  69.530  1.00  0.00    -0.283 C  
HETATM   23  C   UNL     1      -9.380  14.822  68.496  1.00  0.00    -0.199 C  
HETATM   24  N   UNL     1     -10.269  13.722  68.194  1.00  0.00    -0.246 NA 
ENDBRANCH  15  16
ENDBRANCH  14  15
ENDBRANCH  11  14
ENDBRANCH   7   8
TORSDOF 4
ENDMDL
MODEL      242
REMARK 921   NORMALIZED FREE ENERGY PREDICTED BY IDOCK:   -3.84 KCAL/MOL
REMARK 922        TOTAL FREE ENERGY PREDICTED BY IDOCK:   -5.00 KCAL/MOL
REMARK 923 INTER-LIGAND FREE ENERGY PREDICTED BY IDOCK:   -4.58 KCAL/MOL
REMARK 924 INTRA-LIGAND FREE ENERGY PREDICTED BY IDOCK:   -0.42 KCAL/MOL
REMARK 927      BINDING AFFINITY PREDICTED BY RF-SCORE:    0.00 PKD
ROOT
HETATM    1  C   UNL     1     -11.160  11.356  64.413  1.00  0.00    -0.329 C  
HETATM    2  C   UNL     1      -9.835  10.731  64.072  1.00  0.00    -0.390 A  
HETATM    3  C   UNL     1      -9.350  10.984  62.766  1.00  0.00    -0.372 A  
HETATM    4  C   UNL     1      -8.097  10.533  62.360  1.00  0.00    -0.216 A  
HETATM    5  C   UNL     1      -7.308   9.828  63.250  1.00  0.00    -0.123 A  
HETATM    6  C   UNL     1      -7.791   9.543  64.531  1.00  0.00    -0.126 A  
HETATM    7  C   UNL     1      -9.068   9.950  64.970  1.00  0.00    -0.218 A  
ENDROOT
BRANCH   7   8
HETATM    8  N   UNL     1      -9.509   9.496  66.206  1.00  0.00    -0.192 NA 
HETATM    9  C   UNL     1      -9.541  10.380  67.371  1.00  0.00    -0.154 C  
HETATM   10  C   UNL     1     -10.714  10.017  68.301  1.00  0.00    -0.240 C  
HETATM   11  N   UNL     1     -10.735   8.602  68.742  1.00  0.00    -0.127 NA 
HETATM   12  C   UNL     1      -9.644   8.049  66.481  1.00  0.00    -0.226 C  
HETATM   13  C   UNL     1     -10.776   7.775  67.510  1.00  0.00    -0.195 C  
BRANCH  11  14
HETATM   14  C   UNL     1      -9.569   8.231  69.580  1.00  0.00    -0.171 C  
BRANCH  14  15
HETATM   15  C   UNL     1      -9.984   7.827  70.997  1.00  0.00    -0.191 C  
BRANCH  15  16
HETATM   16  C   UNL     1      -8.871   7.828  71.977  1.00  0.00    -0.130 A  
HETATM   17  N   UNL     1      -8.338   8.837  72.634  1.00  0.00    -0.400 NA 
HETATM   18  N   UNL     1      -7.318   8.347  73.424  1.00  0.00    -0.286 NA 
HETATM   19  C   UNL     1      -7.248   7.049  73.232  1.00  0.00    -0.073 A  
HETATM   20  C   UNL     1      -6.320   6.062  73.841  1.00  0.00    -0.069 C  
HETATM   21  C   UNL     1      -6.349   4.725  73.088  1.00  0.00    -0.046 C  
HETATM   22  C   UNL     1      -7.784   4.294  72.785  1.00  0.00    -0.081 C  
HETATM   23  C   UNL     1      -8.476   5.332  71.901  1.00  0.00    -0.126 C  
HETATM   24  N   UNL     1      -8.230   6.682  72.358  1.00  0.00    -0.104 NA 
ENDBRANCH  15  16
ENDBRANCH  14  15
ENDBRANCH  11  14
ENDBRANCH   7   8
TORSDOF 4
ENDMDL
MODEL      243
REMARK 921   NORMALIZED FREE ENERGY PREDICTED BY IDOCK:   -3.79 KCAL/MOL
REMARK 922        TOTAL FREE ENERGY PREDICTED BY IDOCK:   -4.94 KCAL/MOL
REMARK 923 INTER-LIGAND FREE ENERGY PREDICTED BY IDOCK:   -5.56 KCAL/MOL
REMARK 924 INTRA-LIGAND FREE ENERGY PREDICTED BY IDOCK:    0.63 KCAL/MOL
REMARK 927      BINDING AFFINITY PREDICTED BY RF-SCORE:    0.00 PKD
ROOT
HETATM    1  C   UNL     1     -12.420  12.816  64.779  1.00  0.00    -0.539 C  
HETATM    2  C   UNL     1     -11.605  13.903  65.426  1.00  0.00    -0.331 A  
HETATM    3  C   UNL     1     -11.434  15.083  64.663  1.00  0.00    -0.382 A  
HETATM    4  C   UNL     1     -10.774  16.192  65.186  1.00  0.00    -0.391 A  
HETATM    5  C   UNL     1     -10.280  16.143  66.477  1.00  0.00    -0.304 A  
HETATM    6  C   UNL     1     -10.415  14.970  67.226  1.00  0.00    -0.265 A  
HETATM    7  C   UNL     1     -11.043  13.813  66.723  1.00  0.00    -0.308 A  
ENDROOT
BRANCH   7   8
HETATM    8  N   UNL     1     -10.999  12.658  67.492  1.00  0.00    -0.238 NA 
HETATM    9  C   UNL     1     -11.592  12.615  68.830  1.00  0.00    -0.313 C  
HETATM   10  C   UNL     1     -12.149  11.212  69.135  1.00  0.00    -0.283 C  
HETATM   11  N   UNL     1     -11.166  10.113  68.984  1.00  0.00    -0.205 NA 
HETATM   12  C   UNL     1     -10.082  11.549  67.149  1.00  0.00    -0.197 C  
HETATM   13  C   UNL     1     -10.668  10.178  67.587  1.00  0.00    -0.285 C  
BRANCH  11  14
HETATM   14  C   UNL     1     -10.039  10.198  69.944  1.00  0.00    -0.222 C  
BRANCH  14  15
HETATM   15  C   UNL     1     -10.340   9.463  71.253  1.00  0.00    -0.363 C  
BRANCH  15  16
HETATM   16  C   UNL     1      -9.292   8.495  71.658  1.00  0.00    -0.241 A  
HETATM   17  N   UNL     1      -9.153   7.841  72.792  1.00  0.00    -0.166 NA 
HETATM   18  N   UNL     1      -8.016   7.063  72.706  1.00  0.00    -0.102 NA 
HETATM   19  C   UNL     1      -7.484   7.259  71.520  1.00  0.00    -0.082 A  
HETATM   20  C   UNL     1      -6.256   6.661  70.936  1.00  0.00    -0.039 C  
HETATM   21  C   UNL     1      -5.808   7.416  69.678  1.00  0.00    -0.023 C  
HETATM   22  C   UNL     1      -6.994   7.705  68.757  1.00  0.00    -0.071 C  
HETATM   23  C   UNL     1      -8.023   8.579  69.473  1.00  0.00    -0.106 C  
HETATM   24  N   UNL     1      -8.276   8.123  70.822  1.00  0.00    -0.107 NA 
ENDBRANCH  15  16
ENDBRANCH  14  15
ENDBRANCH  11  14
ENDBRANCH   7   8
TORSDOF 4
ENDMDL
MODEL      244
REMARK 921   NORMALIZED FREE ENERGY PREDICTED BY IDOCK:   -3.77 KCAL/MOL
REMARK 922        TOTAL FREE ENERGY PREDICTED BY IDOCK:   -4.92 KCAL/MOL
REMARK 923 INTER-LIGAND FREE ENERGY PREDICTED BY IDOCK:   -5.33 KCAL/MOL
REMARK 924 INTRA-LIGAND FREE ENERGY PREDICTED BY IDOCK:    0.41 KCAL/MOL
REMARK 927      BINDING AFFINITY PREDICTED BY RF-SCORE:    0.00 PKD
ROOT
HETATM    1  C   UNL     1     -11.290  16.284  64.662  1.00  0.00    -0.237 C  
HETATM    2  C   UNL     1     -10.683  16.706  65.973  1.00  0.00    -0.153 A  
HETATM    3  C   UNL     1     -10.181  18.029  66.022  1.00  0.00    -0.304 A  
HETATM    4  C   UNL     1      -9.674  18.565  67.203  1.00  0.00    -0.315 A  
HETATM    5  C   UNL     1      -9.664  17.795  68.351  1.00  0.00    -0.333 A  
HETATM    6  C   UNL     1     -10.126  16.476  68.304  1.00  0.00    -0.259 A  
HETATM    7  C   UNL     1     -10.614  15.882  67.122  1.00  0.00    -0.316 A  
ENDROOT
BRANCH   7   8
HETATM    8  N   UNL     1     -10.915  14.527  67.147  1.00  0.00    -0.296 NA 
HETATM    9  C   UNL     1     -11.085  13.811  68.413  1.00  0.00    -0.263 C  
HETATM   10  C   UNL     1     -12.131  12.690  68.272  1.00  0.00    -0.085 C  
HETATM   11  N   UNL     1     -11.856  11.725  67.181  1.00  0.00    -0.620 NA 
HETATM   12  C   UNL     1     -10.751  13.687  65.941  1.00  0.00    -0.281 C  
HETATM   13  C   UNL     1     -11.771  12.516  65.927  1.00  0.00    -0.426 C  
BRANCH  11  14
HETATM   14  C   UNL     1     -10.613  10.944  67.388  1.00  0.00    -0.243 C  
BRANCH  14  15
HETATM   15  C   UNL     1     -10.263  10.801  68.872  1.00  0.00    -0.219 C  
BRANCH  15  16
HETATM   16  C   UNL     1      -8.841  10.470  69.130  1.00  0.00    -0.151 A  
HETATM   17  N   UNL     1      -8.317   9.373  69.635  1.00  0.00    -0.132 NA 
HETATM   18  N   UNL     1      -6.948   9.536  69.694  1.00  0.00    -0.060 NA 
HETATM   19  C   UNL     1      -6.664  10.730  69.225  1.00  0.00    -0.081 A  
HETATM   20  C   UNL     1      -5.340  11.386  69.078  1.00  0.00    -0.043 C  
HETATM   21  C   UNL     1      -5.485  12.892  68.819  1.00  0.00    -0.071 C  
HETATM   22  C   UNL     1      -6.563  13.170  67.771  1.00  0.00    -0.151 C  
HETATM   23  C   UNL     1      -7.920  12.655  68.252  1.00  0.00    -0.153 C  
HETATM   24  N   UNL     1      -7.823  11.331  68.828  1.00  0.00    -0.141 NA 
ENDBRANCH  15  16
ENDBRANCH  14  15
ENDBRANCH  11  14
ENDBRANCH   7   8
TORSDOF 4
ENDMDL
MODEL      245
REMARK 921   NORMALIZED FREE ENERGY PREDICTED BY IDOCK:   -3.76 KCAL/MOL
REMARK 922        TOTAL FREE ENERGY PREDICTED BY IDOCK:   -4.90 KCAL/MOL
REMARK 923 INTER-LIGAND FREE ENERGY PREDICTED BY IDOCK:   -4.25 KCAL/MOL
REMARK 924 INTRA-LIGAND FREE ENERGY PREDICTED BY IDOCK:   -0.65 KCAL/MOL
REMARK 927      BINDING AFFINITY PREDICTED BY RF-SCORE:    0.00 PKD
ROOT
HETATM    1  C   UNL     1     -11.174  12.011  64.473  1.00  0.00    -0.390 C  
HETATM    2  C   UNL     1     -10.183  10.922  64.162  1.00  0.00    -0.424 A  
HETATM    3  C   UNL     1      -9.953  10.671  62.788  1.00  0.00    -0.118 A  
HETATM    4  C   UNL     1      -8.995   9.749  62.373  1.00  0.00    -0.288 A  
HETATM    5  C   UNL     1      -8.251   9.069  63.319  1.00  0.00    -0.181 A  
HETATM    6  C   UNL     1      -8.495   9.285  64.679  1.00  0.00    -0.192 A  
HETATM    7  C   UNL     1      -9.479  10.182  65.143  1.00  0.00    -0.260 A  
ENDROOT
BRANCH   7   8
HETATM    8  N   UNL     1      -9.739  10.219  66.506  1.00  0.00    -0.185 NA 
HETATM    9  C   UNL     1      -8.944  11.054  67.407  1.00  0.00    -0.141 C  
HETATM   10  C   UNL     1      -9.807  11.577  68.572  1.00  0.00    -0.195 C  
HETATM   11  N   UNL     1     -10.501  10.520  69.345  1.00  0.00    -0.230 NA 
HETATM   12  C   UNL     1     -10.586   9.190  67.147  1.00  0.00    -0.216 C  
HETATM   13  C   UNL     1     -11.339   9.767  68.378  1.00  0.00     0.092 C  
BRANCH  11  14
HETATM   14  C   UNL     1      -9.574   9.605  70.053  1.00  0.00    -0.243 C  
BRANCH  14  15
HETATM   15  C   UNL     1     -10.259   8.304  70.477  1.00  0.00    -0.213 C  
BRANCH  15  16
HETATM   16  C   UNL     1      -9.336   7.152  70.621  1.00  0.00    -0.158 A  
HETATM   17  N   UNL     1      -8.465   6.895  71.573  1.00  0.00    -0.115 NA 
HETATM   18  N   UNL     1      -7.827   5.710  71.266  1.00  0.00    -0.108 NA 
HETATM   19  C   UNL     1      -8.323   5.268  70.132  1.00  0.00    -0.098 A  
HETATM   20  C   UNL     1      -7.973   4.039  69.374  1.00  0.00    -0.057 C  
HETATM   21  C   UNL     1      -8.532   4.083  67.946  1.00  0.00    -0.103 C  
HETATM   22  C   UNL     1      -9.983   4.564  67.936  1.00  0.00    -0.116 C  
HETATM   23  C   UNL     1     -10.079   5.979  68.508  1.00  0.00    -0.161 C  
HETATM   24  N   UNL     1      -9.297   6.128  69.716  1.00  0.00    -0.150 NA 
ENDBRANCH  15  16
ENDBRANCH  14  15
ENDBRANCH  11  14
ENDBRANCH   7   8
TORSDOF 4
ENDMDL
MODEL      246
REMARK 921   NORMALIZED FREE ENERGY PREDICTED BY IDOCK:   -3.76 KCAL/MOL
REMARK 922        TOTAL FREE ENERGY PREDICTED BY IDOCK:   -4.90 KCAL/MOL
REMARK 923 INTER-LIGAND FREE ENERGY PREDICTED BY IDOCK:   -4.74 KCAL/MOL
REMARK 924 INTRA-LIGAND FREE ENERGY PREDICTED BY IDOCK:   -0.16 KCAL/MOL
REMARK 927      BINDING AFFINITY PREDICTED BY RF-SCORE:    0.00 PKD
ROOT
HETATM    1  C   UNL     1     -13.356  11.362  72.167  1.00  0.00    -0.271 C  
HETATM    2  C   UNL     1     -13.239  12.777  71.669  1.00  0.00    -0.410 A  
HETATM    3  C   UNL     1     -14.039  13.735  72.338  1.00  0.00    -0.593 A  
HETATM    4  C   UNL     1     -13.956  15.089  72.027  1.00  0.00    -0.605 A  
HETATM    5  C   UNL     1     -13.072  15.510  71.050  1.00  0.00    -0.551 A  
HETATM    6  C   UNL     1     -12.302  14.568  70.360  1.00  0.00    -0.400 A  
HETATM    7  C   UNL     1     -12.382  13.183  70.618  1.00  0.00    -0.326 A  
ENDROOT
BRANCH   7   8
HETATM    8  N   UNL     1     -11.684  12.322  69.783  1.00  0.00    -0.312 NA 
HETATM    9  C   UNL     1     -10.792  11.296  70.326  1.00  0.00     0.532 C  
HETATM   10  C   UNL     1     -10.788  10.044  69.428  1.00  0.00    -0.239 C  
HETATM   11  N   UNL     1     -10.449  10.307  68.009  1.00  0.00    -0.181 NA 
HETATM   12  C   UNL     1     -11.545  12.608  68.338  1.00  0.00    -0.328 C  
HETATM   13  C   UNL     1     -11.437  11.297  67.512  1.00  0.00    -0.246 C  
BRANCH  11  14
HETATM   14  C   UNL     1      -9.067  10.811  67.820  1.00  0.00    -0.151 C  
BRANCH  14  15
HETATM   15  C   UNL     1      -8.634  10.767  66.352  1.00  0.00    -0.159 C  
BRANCH  15  16
HETATM   16  C   UNL     1      -7.396   9.986  66.109  1.00  0.00    -0.109 A  
HETATM   17  N   UNL     1      -6.161  10.242  66.484  1.00  0.00    -0.066 NA 
HETATM   18  N   UNL     1      -5.348   9.231  66.012  1.00  0.00    -0.039 NA 
HETATM   19  C   UNL     1      -6.105   8.379  65.357  1.00  0.00    -0.045 A  
HETATM   20  C   UNL     1      -5.715   7.127  64.660  1.00  0.00    -0.033 C  
HETATM   21  C   UNL     1      -6.837   6.625  63.740  1.00  0.00    -0.053 C  
HETATM   22  C   UNL     1      -8.194   6.683  64.442  1.00  0.00     0.007 C  
HETATM   23  C   UNL     1      -8.531   8.123  64.830  1.00  0.00    -0.075 C  
HETATM   24  N   UNL     1      -7.401   8.801  65.427  1.00  0.00    -0.084 NA 
ENDBRANCH  15  16
ENDBRANCH  14  15
ENDBRANCH  11  14
ENDBRANCH   7   8
TORSDOF 4
ENDMDL
MODEL      247
REMARK 921   NORMALIZED FREE ENERGY PREDICTED BY IDOCK:   -3.76 KCAL/MOL
REMARK 922        TOTAL FREE ENERGY PREDICTED BY IDOCK:   -4.90 KCAL/MOL
REMARK 923 INTER-LIGAND FREE ENERGY PREDICTED BY IDOCK:   -4.83 KCAL/MOL
REMARK 924 INTRA-LIGAND FREE ENERGY PREDICTED BY IDOCK:   -0.06 KCAL/MOL
REMARK 927      BINDING AFFINITY PREDICTED BY RF-SCORE:    0.00 PKD
ROOT
HETATM    1  C   UNL     1      -9.813  10.647  63.626  1.00  0.00    -0.392 C  
HETATM    2  C   UNL     1     -10.786  11.647  64.192  1.00  0.00    -0.418 A  
HETATM    3  C   UNL     1     -11.497  12.421  63.243  1.00  0.00    -0.426 A  
HETATM    4  C   UNL     1     -12.486  13.318  63.638  1.00  0.00    -0.347 A  
HETATM    5  C   UNL     1     -12.784  13.453  64.981  1.00  0.00    -0.420 A  
HETATM    6  C   UNL     1     -12.064  12.718  65.928  1.00  0.00    -0.485 A  
HETATM    7  C   UNL     1     -11.030  11.826  65.575  1.00  0.00    -0.290 A  
ENDROOT
BRANCH   7   8
HETATM    8  N   UNL     1     -10.283  11.254  66.595  1.00  0.00    -0.221 NA 
HETATM    9  C   UNL     1      -8.823  11.183  66.518  1.00  0.00    -0.171 C  
HETATM   10  C   UNL     1      -8.195  11.302  67.919  1.00  0.00    -0.123 C  
HETATM   11  N   UNL     1      -8.696  10.315  68.905  1.00  0.00    -0.142 NA 
HETATM   12  C   UNL     1     -10.924  10.408  67.625  1.00  0.00    -0.312 C  
HETATM   13  C   UNL     1     -10.167  10.500  68.980  1.00  0.00    -0.216 C  
BRANCH  11  14
HETATM   14  C   UNL     1      -8.365   8.913  68.552  1.00  0.00    -0.125 C  
BRANCH  14  15
HETATM   15  C   UNL     1      -7.246   8.347  69.431  1.00  0.00    -0.059 C  
BRANCH  15  16
HETATM   16  C   UNL     1      -6.889   6.940  69.125  1.00  0.00    -0.068 A  
HETATM   17  N   UNL     1      -5.998   6.470  68.278  1.00  0.00    -0.020 NA 
HETATM   18  N   UNL     1      -6.035   5.092  68.333  1.00  0.00    -0.024 NA 
HETATM   19  C   UNL     1      -6.949   4.749  69.213  1.00  0.00    -0.051 A  
HETATM   20  C   UNL     1      -7.375   3.390  69.637  1.00  0.00    -0.045 C  
HETATM   21  C   UNL     1      -8.696   3.434  70.416  1.00  0.00    -0.129 C  
HETATM   22  C   UNL     1      -8.688   4.559  71.452  1.00  0.00    -0.140 C  
HETATM   23  C   UNL     1      -8.516   5.914  70.766  1.00  0.00    -0.129 C  
HETATM   24  N   UNL     1      -7.481   5.882  69.756  1.00  0.00    -0.078 NA 
ENDBRANCH  15  16
ENDBRANCH  14  15
ENDBRANCH  11  14
ENDBRANCH   7   8
TORSDOF 4
ENDMDL
MODEL      248
REMARK 921   NORMALIZED FREE ENERGY PREDICTED BY IDOCK:   -3.76 KCAL/MOL
REMARK 922        TOTAL FREE ENERGY PREDICTED BY IDOCK:   -4.90 KCAL/MOL
REMARK 923 INTER-LIGAND FREE ENERGY PREDICTED BY IDOCK:   -4.88 KCAL/MOL
REMARK 924 INTRA-LIGAND FREE ENERGY PREDICTED BY IDOCK:   -0.01 KCAL/MOL
REMARK 927      BINDING AFFINITY PREDICTED BY RF-SCORE:    0.00 PKD
ROOT
HETATM    1  C   UNL     1     -11.770  12.361  67.690  1.00  0.00    -0.412 C  
HETATM    2  C   UNL     1     -11.538  12.632  66.227  1.00  0.00    -0.440 A  
HETATM    3  C   UNL     1     -12.645  13.154  65.514  1.00  0.00    -0.468 A  
HETATM    4  C   UNL     1     -12.531  13.526  64.177  1.00  0.00    -0.301 A  
HETATM    5  C   UNL     1     -11.315  13.390  63.534  1.00  0.00     0.030 A  
HETATM    6  C   UNL     1     -10.226  12.845  64.221  1.00  0.00    -0.337 A  
HETATM    7  C   UNL     1     -10.306  12.421  65.563  1.00  0.00    -0.271 A  
ENDROOT
BRANCH   7   8
HETATM    8  N   UNL     1      -9.211  11.764  66.108  1.00  0.00    -0.221 NA 
HETATM    9  C   UNL     1      -8.747  10.485  65.567  1.00  0.00    -0.185 C  
HETATM   10  C   UNL     1      -7.218  10.358  65.701  1.00  0.00    -0.146 C  
HETATM   11  N   UNL     1      -6.704  10.538  67.079  1.00  0.00    -0.079 NA 
HETATM   12  C   UNL     1      -8.682  12.140  67.437  1.00  0.00    -0.177 C  
HETATM   13  C   UNL     1      -7.153  11.880  67.528  1.00  0.00    -0.123 C  
BRANCH  11  14
HETATM   14  C   UNL     1      -7.170   9.492  68.020  1.00  0.00    -0.081 C  
BRANCH  14  15
HETATM   15  C   UNL     1      -7.393   8.147  67.323  1.00  0.00    -0.089 C  
BRANCH  15  16
HETATM   16  C   UNL     1      -8.655   7.468  67.706  1.00  0.00    -0.120 A  
HETATM   17  N   UNL     1      -9.842   7.532  67.140  1.00  0.00    -0.183 NA 
HETATM   18  N   UNL     1     -10.708   6.735  67.862  1.00  0.00    -0.242 NA 
HETATM   19  C   UNL     1     -10.030   6.201  68.854  1.00  0.00    -0.152 A  
HETATM   20  C   UNL     1     -10.501   5.274  69.914  1.00  0.00    -0.351 C  
HETATM   21  C   UNL     1      -9.487   5.174  71.062  1.00  0.00    -0.214 C  
HETATM   22  C   UNL     1      -8.063   5.018  70.528  1.00  0.00    -0.093 C  
HETATM   23  C   UNL     1      -7.676   6.230  69.681  1.00  0.00    -0.099 C  
HETATM   24  N   UNL     1      -8.731   6.610  68.767  1.00  0.00    -0.128 NA 
ENDBRANCH  15  16
ENDBRANCH  14  15
ENDBRANCH  11  14
ENDBRANCH   7   8
TORSDOF 4
ENDMDL
MODEL      249
REMARK 921   NORMALIZED FREE ENERGY PREDICTED BY IDOCK:   -3.72 KCAL/MOL
REMARK 922        TOTAL FREE ENERGY PREDICTED BY IDOCK:   -4.85 KCAL/MOL
REMARK 923 INTER-LIGAND FREE ENERGY PREDICTED BY IDOCK:   -4.35 KCAL/MOL
REMARK 924 INTRA-LIGAND FREE ENERGY PREDICTED BY IDOCK:   -0.50 KCAL/MOL
REMARK 927      BINDING AFFINITY PREDICTED BY RF-SCORE:    0.00 PKD
ROOT
HETATM    1  C   UNL     1     -10.868  10.681  68.013  1.00  0.00    -0.309 C  
HETATM    2  C   UNL     1     -11.373  10.453  69.413  1.00  0.00    -0.310 A  
HETATM    3  C   UNL     1     -12.251  11.442  69.920  1.00  0.00    -0.346 A  
HETATM    4  C   UNL     1     -12.852  11.300  71.168  1.00  0.00    -0.452 A  
HETATM    5  C   UNL     1     -12.593  10.173  71.924  1.00  0.00    -0.437 A  
HETATM    6  C   UNL     1     -11.702   9.207  71.446  1.00  0.00    -0.413 A  
HETATM    7  C   UNL     1     -11.043   9.328  70.205  1.00  0.00    -0.251 A  
ENDROOT
BRANCH   7   8
HETATM    8  N   UNL     1     -10.072   8.388  69.887  1.00  0.00    -0.191 NA 
HETATM    9  C   UNL     1      -8.650   8.664  70.099  1.00  0.00    -0.138 C  
HETATM   10  C   UNL     1      -7.892   7.375  70.467  1.00  0.00    -0.097 C  
HETATM   11  N   UNL     1      -8.050   6.269  69.493  1.00  0.00    -0.115 NA 
HETATM   12  C   UNL     1     -10.390   7.227  69.028  1.00  0.00    -0.205 C  
HETATM   13  C   UNL     1      -9.507   6.000  69.390  1.00  0.00    -0.134 C  
BRANCH  11  14
HETATM   14  C   UNL     1      -7.481   6.575  68.159  1.00  0.00    -0.095 C  
BRANCH  14  15
HETATM   15  C   UNL     1      -6.979   5.318  67.444  1.00  0.00    -0.065 C  
BRANCH  15  16
HETATM   16  C   UNL     1      -7.517   5.145  66.073  1.00  0.00    -0.082 A  
HETATM   17  N   UNL     1      -7.891   6.058  65.202  1.00  0.00    -0.102 NA 
HETATM   18  N   UNL     1      -8.335   5.414  64.065  1.00  0.00    -0.134 NA 
HETATM   19  C   UNL     1      -8.222   4.120  64.266  1.00  0.00    -0.096 A  
HETATM   20  C   UNL     1      -8.566   2.999  63.353  1.00  0.00    -0.086 C  
HETATM   21  C   UNL     1      -8.609   1.660  64.102  1.00  0.00    -0.083 C  
HETATM   22  C   UNL     1      -7.404   1.509  65.030  1.00  0.00    -0.053 C  
HETATM   23  C   UNL     1      -7.398   2.619  66.080  1.00  0.00    -0.067 C  
HETATM   24  N   UNL     1      -7.679   3.914  65.500  1.00  0.00    -0.085 NA 
ENDBRANCH  15  16
ENDBRANCH  14  15
ENDBRANCH  11  14
ENDBRANCH   7   8
TORSDOF 4
ENDMDL
MODEL      250
REMARK 921   NORMALIZED FREE ENERGY PREDICTED BY IDOCK:   -3.71 KCAL/MOL
REMARK 922        TOTAL FREE ENERGY PREDICTED BY IDOCK:   -4.84 KCAL/MOL
REMARK 923 INTER-LIGAND FREE ENERGY PREDICTED BY IDOCK:   -4.75 KCAL/MOL
REMARK 924 INTRA-LIGAND FREE ENERGY PREDICTED BY IDOCK:   -0.09 KCAL/MOL
REMARK 927      BINDING AFFINITY PREDICTED BY RF-SCORE:    0.00 PKD
ROOT
HETATM    1  C   UNL     1      -7.229  10.906  66.499  1.00  0.00    -0.142 C  
HETATM    2  C   UNL     1      -8.657  11.242  66.836  1.00  0.00    -0.150 A  
HETATM    3  C   UNL     1      -8.988  12.618  66.816  1.00  0.00    -0.197 A  
HETATM    4  C   UNL     1     -10.296  13.049  67.026  1.00  0.00    -0.247 A  
HETATM    5  C   UNL     1     -11.291  12.117  67.253  1.00  0.00    -0.398 A  
HETATM    6  C   UNL     1     -10.968  10.758  67.307  1.00  0.00    -0.359 A  
HETATM    7  C   UNL     1      -9.652  10.281  67.137  1.00  0.00    -0.168 A  
ENDROOT
BRANCH   7   8
HETATM    8  N   UNL     1      -9.414   8.930  67.350  1.00  0.00    -0.141 NA 
HETATM    9  C   UNL     1      -9.942   7.913  66.438  1.00  0.00    -0.122 C  
HETATM   10  C   UNL     1      -8.982   6.712  66.344  1.00  0.00    -0.148 C  
HETATM   11  N   UNL     1      -8.642   6.092  67.647  1.00  0.00    -0.108 NA 
HETATM   12  C   UNL     1      -8.919   8.441  68.655  1.00  0.00    -0.140 C  
HETATM   13  C   UNL     1      -8.049   7.165  68.485  1.00  0.00    -0.125 C  
BRANCH  11  14
HETATM   14  C   UNL     1      -9.810   5.484  68.330  1.00  0.00    -0.144 C  
BRANCH  14  15
HETATM   15  C   UNL     1      -9.393   4.604  69.511  1.00  0.00    -0.208 C  
BRANCH  15  16
HETATM   16  C   UNL     1      -9.324   5.322  70.807  1.00  0.00    -0.159 A  
HETATM   17  N   UNL     1      -8.400   5.268  71.743  1.00  0.00    -0.117 NA 
HETATM   18  N   UNL     1      -8.780   6.106  72.773  1.00  0.00    -0.124 NA 
HETATM   19  C   UNL     1      -9.928   6.654  72.442  1.00  0.00    -0.166 A  
HETATM   20  C   UNL     1     -10.755   7.624  73.206  1.00  0.00    -0.409 C  
HETATM   21  C   UNL     1     -12.170   7.735  72.623  1.00  0.00    -0.117 C  
HETATM   22  C   UNL     1     -12.131   7.843  71.099  1.00  0.00    -0.294 C  
HETATM   23  C   UNL     1     -11.484   6.598  70.493  1.00  0.00    -0.376 C  
HETATM   24  N   UNL     1     -10.283   6.214  71.201  1.00  0.00    -0.193 NA 
ENDBRANCH  15  16
ENDBRANCH  14  15
ENDBRANCH  11  14
ENDBRANCH   7   8
TORSDOF 4
ENDMDL
MODEL      251
REMARK 921   NORMALIZED FREE ENERGY PREDICTED BY IDOCK:   -3.69 KCAL/MOL
REMARK 922        TOTAL FREE ENERGY PREDICTED BY IDOCK:   -4.82 KCAL/MOL
REMARK 923 INTER-LIGAND FREE ENERGY PREDICTED BY IDOCK:   -4.47 KCAL/MOL
REMARK 924 INTRA-LIGAND FREE ENERGY PREDICTED BY IDOCK:   -0.34 KCAL/MOL
REMARK 927      BINDING AFFINITY PREDICTED BY RF-SCORE:    0.00 PKD
ROOT
HETATM    1  C   UNL     1      -8.542   9.345  69.371  1.00  0.00    -0.148 C  
HETATM    2  C   UNL     1      -9.291   8.078  69.688  1.00  0.00    -0.156 A  
HETATM    3  C   UNL     1      -8.629   6.871  69.357  1.00  0.00    -0.133 A  
HETATM    4  C   UNL     1      -9.181   5.634  69.679  1.00  0.00    -0.163 A  
HETATM    5  C   UNL     1     -10.395   5.581  70.338  1.00  0.00    -0.346 A  
HETATM    6  C   UNL     1     -11.073   6.767  70.638  1.00  0.00    -0.338 A  
HETATM    7  C   UNL     1     -10.568   8.039  70.298  1.00  0.00    -0.231 A  
ENDROOT
BRANCH   7   8
HETATM    8  N   UNL     1     -11.381   9.144  70.513  1.00  0.00    -0.264 NA 
HETATM    9  C   UNL     1     -11.562  10.164  69.479  1.00  0.00    -0.118 C  
HETATM   10  C   UNL     1     -12.978  10.766  69.547  1.00  0.00     0.709 C  
HETATM   11  N   UNL     1     -13.349  11.319  70.871  1.00  0.00     0.195 NA 
HETATM   12  C   UNL     1     -11.823   9.510  71.875  1.00  0.00    -0.279 C  
HETATM   13  C   UNL     1     -13.211  10.210  71.848  1.00  0.00    -0.452 C  
BRANCH  11  14
HETATM   14  C   UNL     1     -12.517  12.477  71.277  1.00  0.00    -0.170 C  
BRANCH  14  15
HETATM   15  C   UNL     1     -12.851  13.737  70.474  1.00  0.00    -0.209 C  
BRANCH  15  16
HETATM   16  C   UNL     1     -11.664  14.532  70.073  1.00  0.00    -0.301 A  
HETATM   17  N   UNL     1     -11.031  15.477  70.733  1.00  0.00    -0.340 NA 
HETATM   18  N   UNL     1      -9.992  15.932  69.947  1.00  0.00    -0.221 NA 
HETATM   19  C   UNL     1     -10.013  15.254  68.821  1.00  0.00    -0.215 A  
HETATM   20  C   UNL     1      -9.111  15.364  67.646  1.00  0.00    -0.183 C  
HETATM   21  C   UNL     1      -9.693  14.644  66.422  1.00  0.00    -0.315 C  
HETATM   22  C   UNL     1     -10.241  13.268  66.801  1.00  0.00    -0.254 C  
HETATM   23  C   UNL     1     -11.365  13.406  67.828  1.00  0.00    -0.294 C  
HETATM   24  N   UNL     1     -11.027  14.342  68.878  1.00  0.00    -0.250 NA 
ENDBRANCH  15  16
ENDBRANCH  14  15
ENDBRANCH  11  14
ENDBRANCH   7   8
TORSDOF 4
ENDMDL
MODEL      252
REMARK 921   NORMALIZED FREE ENERGY PREDICTED BY IDOCK:   -3.65 KCAL/MOL
REMARK 922        TOTAL FREE ENERGY PREDICTED BY IDOCK:   -4.77 KCAL/MOL
REMARK 923 INTER-LIGAND FREE ENERGY PREDICTED BY IDOCK:   -5.16 KCAL/MOL
REMARK 924 INTRA-LIGAND FREE ENERGY PREDICTED BY IDOCK:    0.39 KCAL/MOL
REMARK 927      BINDING AFFINITY PREDICTED BY RF-SCORE:    0.00 PKD
ROOT
HETATM    1  C   UNL     1     -10.245  10.940  64.365  1.00  0.00    -0.423 C  
HETATM    2  C   UNL     1     -10.777  12.185  65.022  1.00  0.00    -0.338 A  
HETATM    3  C   UNL     1     -11.738  12.912  64.279  1.00  0.00    -0.445 A  
HETATM    4  C   UNL     1     -12.368  14.032  64.815  1.00  0.00    -0.437 A  
HETATM    5  C   UNL     1     -12.054  14.441  66.098  1.00  0.00    -0.373 A  
HETATM    6  C   UNL     1     -11.082  13.749  66.827  1.00  0.00    -0.316 A  
HETATM    7  C   UNL     1     -10.394  12.632  66.310  1.00  0.00    -0.252 A  
ENDROOT
BRANCH   7   8
HETATM    8  N   UNL     1      -9.349  12.105  67.057  1.00  0.00    -0.195 NA 
HETATM    9  C   UNL     1      -9.092  10.664  67.089  1.00  0.00    -0.143 C  
HETATM   10  C   UNL     1      -7.585  10.381  67.233  1.00  0.00    -0.095 C  
HETATM   11  N   UNL     1      -6.945  11.034  68.400  1.00  0.00    -0.068 NA 
HETATM   12  C   UNL     1      -8.674  12.911  68.096  1.00  0.00    -0.190 C  
HETATM   13  C   UNL     1      -7.186  12.492  68.256  1.00  0.00    -0.111 C  
BRANCH  11  14
HETATM   14  C   UNL     1      -7.462  10.546  69.701  1.00  0.00    -0.141 C  
BRANCH  14  15
HETATM   15  C   UNL     1      -8.048   9.136  69.596  1.00  0.00    -0.106 C  
BRANCH  15  16
HETATM   16  C   UNL     1      -8.053   8.386  70.876  1.00  0.00    -0.110 A  
HETATM   17  N   UNL     1      -7.134   8.332  71.816  1.00  0.00    -0.078 NA 
HETATM   18  N   UNL     1      -7.585   7.491  72.814  1.00  0.00    -0.084 NA 
HETATM   19  C   UNL     1      -8.771   7.049  72.461  1.00  0.00    -0.123 A  
HETATM   20  C   UNL     1      -9.675   6.119  73.185  1.00  0.00    -0.160 C  
HETATM   21  C   UNL     1     -10.793   5.598  72.271  1.00  0.00    -0.295 C  
HETATM   22  C   UNL     1     -11.409   6.732  71.451  1.00  0.00    -0.322 C  
HETATM   23  C   UNL     1     -10.351   7.378  70.557  1.00  0.00    -0.214 C  
HETATM   24  N   UNL     1      -9.114   7.617  71.268  1.00  0.00    -0.137 NA 
ENDBRANCH  15  16
ENDBRANCH  14  15
ENDBRANCH  11  14
ENDBRANCH   7   8
TORSDOF 4
ENDMDL
MODEL      253
REMARK 921   NORMALIZED FREE ENERGY PREDICTED BY IDOCK:   -3.63 KCAL/MOL
REMARK 922        TOTAL FREE ENERGY PREDICTED BY IDOCK:   -4.74 KCAL/MOL
REMARK 923 INTER-LIGAND FREE ENERGY PREDICTED BY IDOCK:   -4.45 KCAL/MOL
REMARK 924 INTRA-LIGAND FREE ENERGY PREDICTED BY IDOCK:   -0.29 KCAL/MOL
REMARK 927      BINDING AFFINITY PREDICTED BY RF-SCORE:    0.00 PKD
ROOT
HETATM    1  C   UNL     1     -12.959  11.992  71.388  1.00  0.00    -0.362 C  
HETATM    2  C   UNL     1     -12.194  12.754  70.339  1.00  0.00    -0.371 A  
HETATM    3  C   UNL     1     -12.548  14.117  70.187  1.00  0.00    -0.325 A  
HETATM    4  C   UNL     1     -11.855  14.949  69.311  1.00  0.00    -0.350 A  
HETATM    5  C   UNL     1     -10.799  14.438  68.580  1.00  0.00    -0.260 A  
HETATM    6  C   UNL     1     -10.464  13.085  68.699  1.00  0.00    -0.236 A  
HETATM    7  C   UNL     1     -11.162  12.200  69.545  1.00  0.00    -0.131 A  
ENDROOT
BRANCH   7   8
HETATM    8  N   UNL     1     -10.843  10.850  69.485  1.00  0.00    -0.247 NA 
HETATM    9  C   UNL     1     -11.221  10.032  68.331  1.00  0.00    -0.127 C  
HETATM   10  C   UNL     1     -10.171   8.936  68.070  1.00  0.00    -0.213 C  
HETATM   11  N   UNL     1      -9.890   8.063  69.236  1.00  0.00    -0.175 NA 
HETATM   12  C   UNL     1     -10.417  10.113  70.694  1.00  0.00    -0.018 C  
HETATM   13  C   UNL     1      -9.445   8.955  70.336  1.00  0.00    -0.195 C  
BRANCH  11  14
HETATM   14  C   UNL     1     -11.060   7.257  69.660  1.00  0.00    -0.141 C  
BRANCH  14  15
HETATM   15  C   UNL     1     -11.055   5.860  69.034  1.00  0.00    -0.295 C  
BRANCH  15  16
HETATM   16  C   UNL     1      -9.705   5.255  68.915  1.00  0.00    -0.148 A  
HETATM   17  N   UNL     1      -8.810   5.022  69.850  1.00  0.00    -0.100 NA 
HETATM   18  N   UNL     1      -7.700   4.456  69.255  1.00  0.00    -0.055 NA 
HETATM   19  C   UNL     1      -7.943   4.356  67.967  1.00  0.00    -0.080 A  
HETATM   20  C   UNL     1      -7.071   3.817  66.891  1.00  0.00    -0.063 C  
HETATM   21  C   UNL     1      -7.593   4.204  65.501  1.00  0.00    -0.085 C  
HETATM   22  C   UNL     1      -9.104   3.989  65.399  1.00  0.00    -0.142 C  
HETATM   23  C   UNL     1      -9.835   4.860  66.420  1.00  0.00    -0.209 C  
HETATM   24  N   UNL     1      -9.205   4.814  67.721  1.00  0.00    -0.119 NA 
ENDBRANCH  15  16
ENDBRANCH  14  15
ENDBRANCH  11  14
ENDBRANCH   7   8
TORSDOF 4
ENDMDL
MODEL      254
REMARK 921   NORMALIZED FREE ENERGY PREDICTED BY IDOCK:   -3.62 KCAL/MOL
REMARK 922        TOTAL FREE ENERGY PREDICTED BY IDOCK:   -4.73 KCAL/MOL
REMARK 923 INTER-LIGAND FREE ENERGY PREDICTED BY IDOCK:   -4.30 KCAL/MOL
REMARK 924 INTRA-LIGAND FREE ENERGY PREDICTED BY IDOCK:   -0.43 KCAL/MOL
REMARK 927      BINDING AFFINITY PREDICTED BY RF-SCORE:    0.00 PKD
ROOT
HETATM    1  C   UNL     1     -11.958  12.612  67.252  1.00  0.00    -0.321 C  
HETATM    2  C   UNL     1     -10.860  13.589  66.927  1.00  0.00    -0.286 A  
HETATM    3  C   UNL     1     -11.254  14.943  66.804  1.00  0.00    -0.338 A  
HETATM    4  C   UNL     1     -10.318  15.951  66.590  1.00  0.00    -0.302 A  
HETATM    5  C   UNL     1      -8.977  15.626  66.502  1.00  0.00    -0.343 A  
HETATM    6  C   UNL     1      -8.581  14.288  66.588  1.00  0.00    -0.017 A  
HETATM    7  C   UNL     1      -9.499  13.232  66.767  1.00  0.00    -0.257 A  
ENDROOT
BRANCH   7   8
HETATM    8  N   UNL     1      -9.020  11.931  66.697  1.00  0.00    -0.195 NA 
HETATM    9  C   UNL     1      -9.199  11.121  65.491  1.00  0.00    -0.216 C  
HETATM   10  C   UNL     1      -8.010  10.162  65.296  1.00  0.00    -0.145 C  
HETATM   11  N   UNL     1      -7.730   9.283  66.457  1.00  0.00    -0.093 NA 
HETATM   12  C   UNL     1      -8.617  11.202  67.919  1.00  0.00    -0.135 C  
HETATM   13  C   UNL     1      -7.489  10.177  67.617  1.00  0.00    -0.090 C  
BRANCH  11  14
HETATM   14  C   UNL     1      -8.830   8.333  66.751  1.00  0.00    -0.140 C  
BRANCH  14  15
HETATM   15  C   UNL     1      -8.404   7.249  67.744  1.00  0.00    -0.118 C  
BRANCH  15  16
HETATM   16  C   UNL     1      -8.876   5.887  67.394  1.00  0.00    -0.106 A  
HETATM   17  N   UNL     1      -9.417   5.453  66.275  1.00  0.00    -0.153 NA 
HETATM   18  N   UNL     1      -9.704   4.111  66.426  1.00  0.00    -0.206 NA 
HETATM   19  C   UNL     1      -9.332   3.754  67.635  1.00  0.00    -0.195 A  
HETATM   20  C   UNL     1      -9.427   2.423  68.287  1.00  0.00    -0.222 C  
HETATM   21  C   UNL     1      -9.205   2.523  69.802  1.00  0.00    -0.195 C  
HETATM   22  C   UNL     1      -8.008   3.417  70.127  1.00  0.00    -0.053 C  
HETATM   23  C   UNL     1      -8.243   4.834  69.604  1.00  0.00    -0.072 C  
HETATM   24  N   UNL     1      -8.776   4.833  68.259  1.00  0.00    -0.101 NA 
ENDBRANCH  15  16
ENDBRANCH  14  15
ENDBRANCH  11  14
ENDBRANCH   7   8
TORSDOF 4
ENDMDL
MODEL      255
REMARK 921   NORMALIZED FREE ENERGY PREDICTED BY IDOCK:   -3.59 KCAL/MOL
REMARK 922        TOTAL FREE ENERGY PREDICTED BY IDOCK:   -4.69 KCAL/MOL
REMARK 923 INTER-LIGAND FREE ENERGY PREDICTED BY IDOCK:   -4.60 KCAL/MOL
REMARK 924 INTRA-LIGAND FREE ENERGY PREDICTED BY IDOCK:   -0.10 KCAL/MOL
REMARK 927      BINDING AFFINITY PREDICTED BY RF-SCORE:    0.00 PKD
ROOT
HETATM    1  C   UNL     1      -9.692   4.235  70.618  1.00  0.00    -0.274 C  
HETATM    2  C   UNL     1      -8.573   4.683  71.520  1.00  0.00    -0.125 A  
HETATM    3  C   UNL     1      -8.135   3.736  72.478  1.00  0.00    -0.081 A  
HETATM    4  C   UNL     1      -7.051   4.001  73.311  1.00  0.00    -0.067 A  
HETATM    5  C   UNL     1      -6.385   5.207  73.198  1.00  0.00    -0.051 A  
HETATM    6  C   UNL     1      -6.831   6.161  72.279  1.00  0.00    -0.073 A  
HETATM    7  C   UNL     1      -7.946   5.950  71.442  1.00  0.00    -0.113 A  
ENDROOT
BRANCH   7   8
HETATM    8  N   UNL     1      -8.392   7.012  70.667  1.00  0.00    -0.125 NA 
HETATM    9  C   UNL     1      -9.317   8.010  71.208  1.00  0.00    -0.150 C  
HETATM   10  C   UNL     1      -9.049   9.395  70.590  1.00  0.00    -0.233 C  
HETATM   11  N   UNL     1      -9.086   9.425  69.108  1.00  0.00    -0.143 NA 
HETATM   12  C   UNL     1      -8.229   7.003  69.197  1.00  0.00    -0.122 C  
HETATM   13  C   UNL     1      -8.074   8.445  68.639  1.00  0.00    -0.122 C  
BRANCH  11  14
HETATM   14  C   UNL     1     -10.421   9.105  68.548  1.00  0.00    -0.204 C  
BRANCH  14  15
HETATM   15  C   UNL     1     -10.968  10.240  67.678  1.00  0.00    -0.356 C  
BRANCH  15  16
HETATM   16  C   UNL     1     -11.248  11.492  68.423  1.00  0.00    -0.255 A  
HETATM   17  N   UNL     1     -10.916  12.731  68.127  1.00  0.00    -0.235 NA 
HETATM   18  N   UNL     1     -11.387  13.555  69.129  1.00  0.00    -0.271 NA 
HETATM   19  C   UNL     1     -11.997  12.801  70.017  1.00  0.00    -0.301 A  
HETATM   20  C   UNL     1     -12.670  13.201  71.278  1.00  0.00    -0.396 C  
HETATM   21  C   UNL     1     -12.941  11.989  72.179  1.00  0.00    -0.256 C  
HETATM   22  C   UNL     1     -13.518  10.823  71.376  1.00  0.00    -0.089 C  
HETATM   23  C   UNL     1     -12.532  10.380  70.296  1.00  0.00    -0.223 C  
HETATM   24  N   UNL     1     -11.961  11.505  69.589  1.00  0.00    -0.332 NA 
ENDBRANCH  15  16
ENDBRANCH  14  15
ENDBRANCH  11  14
ENDBRANCH   7   8
TORSDOF 4
ENDMDL
MODEL      256
REMARK 921   NORMALIZED FREE ENERGY PREDICTED BY IDOCK:   -3.58 KCAL/MOL
REMARK 922        TOTAL FREE ENERGY PREDICTED BY IDOCK:   -4.67 KCAL/MOL
REMARK 923 INTER-LIGAND FREE ENERGY PREDICTED BY IDOCK:   -4.24 KCAL/MOL
REMARK 924 INTRA-LIGAND FREE ENERGY PREDICTED BY IDOCK:   -0.44 KCAL/MOL
REMARK 927      BINDING AFFINITY PREDICTED BY RF-SCORE:    0.00 PKD
ROOT
HETATM    1  C   UNL     1      -6.246   5.202  68.588  1.00  0.00    -0.031 C  
HETATM    2  C   UNL     1      -7.226   4.087  68.833  1.00  0.00    -0.054 A  
HETATM    3  C   UNL     1      -6.739   2.776  68.610  1.00  0.00    -0.037 A  
HETATM    4  C   UNL     1      -7.522   1.658  68.883  1.00  0.00    -0.043 A  
HETATM    5  C   UNL     1      -8.798   1.828  69.387  1.00  0.00    -0.125 A  
HETATM    6  C   UNL     1      -9.301   3.119  69.579  1.00  0.00    -0.228 A  
HETATM    7  C   UNL     1      -8.556   4.279  69.281  1.00  0.00    -0.081 A  
ENDROOT
BRANCH   7   8
HETATM    8  N   UNL     1      -9.195   5.508  69.372  1.00  0.00    -0.115 NA 
HETATM    9  C   UNL     1      -9.940   6.061  68.240  1.00  0.00    -0.147 C  
HETATM   10  C   UNL     1     -11.143   6.889  68.730  1.00  0.00    -0.101 C  
HETATM   11  N   UNL     1     -10.798   7.970  69.683  1.00  0.00    -0.214 NA 
HETATM   12  C   UNL     1      -8.882   6.449  70.469  1.00  0.00    -0.144 C  
HETATM   13  C   UNL     1     -10.114   7.323  70.831  1.00  0.00    -0.188 C  
BRANCH  11  14
HETATM   14  C   UNL     1      -9.938   9.023  69.090  1.00  0.00    -0.185 C  
BRANCH  14  15
HETATM   15  C   UNL     1     -10.636   9.761  67.945  1.00  0.00    -0.310 C  
BRANCH  15  16
HETATM   16  C   UNL     1     -10.088  11.111  67.672  1.00  0.00    -0.179 A  
HETATM   17  N   UNL     1      -9.107  11.467  66.868  1.00  0.00    -0.174 NA 
HETATM   18  N   UNL     1      -8.951  12.836  66.958  1.00  0.00    -0.216 NA 
HETATM   19  C   UNL     1      -9.840  13.287  67.815  1.00  0.00    -0.224 A  
HETATM   20  C   UNL     1     -10.082  14.682  68.262  1.00  0.00    -0.228 C  
HETATM   21  C   UNL     1     -10.965  14.724  69.516  1.00  0.00    -0.287 C  
HETATM   22  C   UNL     1     -12.159  13.778  69.382  1.00  0.00    -0.377 C  
HETATM   23  C   UNL     1     -11.679  12.337  69.208  1.00  0.00    -0.330 C  
HETATM   24  N   UNL     1     -10.594  12.239  68.256  1.00  0.00    -0.219 NA 
ENDBRANCH  15  16
ENDBRANCH  14  15
ENDBRANCH  11  14
ENDBRANCH   7   8
TORSDOF 4
ENDMDL
MODEL      257
REMARK 921   NORMALIZED FREE ENERGY PREDICTED BY IDOCK:   -3.57 KCAL/MOL
REMARK 922        TOTAL FREE ENERGY PREDICTED BY IDOCK:   -4.66 KCAL/MOL
REMARK 923 INTER-LIGAND FREE ENERGY PREDICTED BY IDOCK:   -5.08 KCAL/MOL
REMARK 924 INTRA-LIGAND FREE ENERGY PREDICTED BY IDOCK:    0.41 KCAL/MOL
REMARK 927      BINDING AFFINITY PREDICTED BY RF-SCORE:    0.00 PKD
ROOT
HETATM    1  C   UNL     1      -9.482   4.251  68.908  1.00  0.00    -0.236 C  
HETATM    2  C   UNL     1      -8.145   4.701  69.432  1.00  0.00    -0.069 A  
HETATM    3  C   UNL     1      -7.206   3.673  69.690  1.00  0.00    -0.042 A  
HETATM    4  C   UNL     1      -5.906   3.968  70.095  1.00  0.00    -0.017 A  
HETATM    5  C   UNL     1      -5.523   5.288  70.244  1.00  0.00    -0.004 A  
HETATM    6  C   UNL     1      -6.453   6.308  70.024  1.00  0.00    -0.043 A  
HETATM    7  C   UNL     1      -7.789   6.054  69.649  1.00  0.00    -0.102 A  
ENDROOT
BRANCH   7   8
HETATM    8  N   UNL     1      -8.668   7.127  69.595  1.00  0.00    -0.141 NA 
HETATM    9  C   UNL     1     -10.061   6.945  69.185  1.00  0.00    -0.173 C  
HETATM   10  C   UNL     1     -10.982   7.935  69.925  1.00  0.00    -0.178 C  
HETATM   11  N   UNL     1     -10.596   9.359  69.781  1.00  0.00    -0.221 NA 
HETATM   12  C   UNL     1      -8.172   8.520  69.620  1.00  0.00    -0.115 C  
HETATM   13  C   UNL     1      -9.203   9.474  70.283  1.00  0.00    -0.258 C  
BRANCH  11  14
HETATM   14  C   UNL     1     -10.689   9.855  68.387  1.00  0.00    -0.232 C  
BRANCH  14  15
HETATM   15  C   UNL     1     -10.290  11.328  68.272  1.00  0.00    -0.200 C  
BRANCH  15  16
HETATM   16  C   UNL     1     -10.991  12.063  67.190  1.00  0.00    -0.270 A  
HETATM   17  N   UNL     1     -12.032  11.698  66.472  1.00  0.00    -0.376 NA 
HETATM   18  N   UNL     1     -12.316  12.711  65.579  1.00  0.00    -0.632 NA 
HETATM   19  C   UNL     1     -11.442  13.673  65.770  1.00  0.00    -0.315 A  
HETATM   20  C   UNL     1     -11.315  14.975  65.066  1.00  0.00    -0.395 C  
HETATM   21  C   UNL     1      -9.964  15.641  65.356  1.00  0.00    -0.311 C  
HETATM   22  C   UNL     1      -9.625  15.576  66.846  1.00  0.00    -0.241 C  
HETATM   23  C   UNL     1      -9.527  14.122  67.306  1.00  0.00    -0.229 C  
HETATM   24  N   UNL     1     -10.617  13.318  66.797  1.00  0.00    -0.274 NA 
ENDBRANCH  15  16
ENDBRANCH  14  15
ENDBRANCH  11  14
ENDBRANCH   7   8
TORSDOF 4
ENDMDL
MODEL      258
REMARK 921   NORMALIZED FREE ENERGY PREDICTED BY IDOCK:   -3.56 KCAL/MOL
REMARK 922        TOTAL FREE ENERGY PREDICTED BY IDOCK:   -4.65 KCAL/MOL
REMARK 923 INTER-LIGAND FREE ENERGY PREDICTED BY IDOCK:   -5.43 KCAL/MOL
REMARK 924 INTRA-LIGAND FREE ENERGY PREDICTED BY IDOCK:    0.77 KCAL/MOL
REMARK 927      BINDING AFFINITY PREDICTED BY RF-SCORE:    0.00 PKD
ROOT
HETATM    1  C   UNL     1     -11.287  16.283  64.667  1.00  0.00    -0.237 C  
HETATM    2  C   UNL     1     -10.690  16.777  65.957  1.00  0.00    -0.139 A  
HETATM    3  C   UNL     1     -10.225  18.115  65.949  1.00  0.00    -0.239 A  
HETATM    4  C   UNL     1      -9.732  18.714  67.105  1.00  0.00    -0.324 A  
HETATM    5  C   UNL     1      -9.700  17.994  68.285  1.00  0.00    -0.332 A  
HETATM    6  C   UNL     1     -10.126  16.662  68.295  1.00  0.00    -0.268 A  
HETATM    7  C   UNL     1     -10.598  16.005  67.140  1.00  0.00    -0.305 A  
ENDROOT
BRANCH   7   8
HETATM    8  N   UNL     1     -10.861  14.644  67.224  1.00  0.00    -0.298 NA 
HETATM    9  C   UNL     1     -11.026  13.982  68.519  1.00  0.00    -0.256 C  
HETATM   10  C   UNL     1     -12.039  12.826  68.417  1.00  0.00    -0.101 C  
HETATM   11  N   UNL     1     -11.723  11.821  67.374  1.00  0.00    -0.588 NA 
HETATM   12  C   UNL     1     -10.659  13.756  66.059  1.00  0.00    -0.290 C  
HETATM   13  C   UNL     1     -11.646  12.557  66.086  1.00  0.00    -0.395 C  
BRANCH  11  14
HETATM   14  C   UNL     1     -10.462  11.086  67.631  1.00  0.00    -0.204 C  
BRANCH  14  15
HETATM   15  C   UNL     1      -9.589  10.983  66.376  1.00  0.00    -0.227 C  
BRANCH  15  16
HETATM   16  C   UNL     1      -8.570   9.908  66.435  1.00  0.00    -0.128 A  
HETATM   17  N   UNL     1      -7.257  10.002  66.458  1.00  0.00    -0.098 NA 
HETATM   18  N   UNL     1      -6.733   8.726  66.501  1.00  0.00    -0.070 NA 
HETATM   19  C   UNL     1      -7.738   7.878  66.502  1.00  0.00    -0.097 A  
HETATM   20  C   UNL     1      -7.708   6.394  66.538  1.00  0.00    -0.099 C  
HETATM   21  C   UNL     1      -9.074   5.796  66.176  1.00  0.00    -0.161 C  
HETATM   22  C   UNL     1     -10.205   6.526  66.902  1.00  0.00    -0.279 C  
HETATM   23  C   UNL     1     -10.230   8.001  66.501  1.00  0.00    -0.158 C  
HETATM   24  N   UNL     1      -8.906   8.584  66.498  1.00  0.00    -0.133 NA 
ENDBRANCH  15  16
ENDBRANCH  14  15
ENDBRANCH  11  14
ENDBRANCH   7   8
TORSDOF 4
ENDMDL
MODEL      259
REMARK 921   NORMALIZED FREE ENERGY PREDICTED BY IDOCK:   -3.54 KCAL/MOL
REMARK 922        TOTAL FREE ENERGY PREDICTED BY IDOCK:   -4.63 KCAL/MOL
REMARK 923 INTER-LIGAND FREE ENERGY PREDICTED BY IDOCK:   -4.11 KCAL/MOL
REMARK 924 INTRA-LIGAND FREE ENERGY PREDICTED BY IDOCK:   -0.52 KCAL/MOL
REMARK 927      BINDING AFFINITY PREDICTED BY RF-SCORE:    0.00 PKD
ROOT
HETATM    1  C   UNL     1      -9.997   3.966  70.525  1.00  0.00    -0.070 C  
HETATM    2  C   UNL     1      -9.141   4.410  71.681  1.00  0.00    -0.174 A  
HETATM    3  C   UNL     1      -8.819   3.410  72.630  1.00  0.00    -0.100 A  
HETATM    4  C   UNL     1      -7.964   3.675  73.697  1.00  0.00    -0.079 A  
HETATM    5  C   UNL     1      -7.416   4.937  73.831  1.00  0.00    -0.087 A  
HETATM    6  C   UNL     1      -7.755   5.940  72.918  1.00  0.00    -0.100 A  
HETATM    7  C   UNL     1      -8.644   5.725  71.845  1.00  0.00    -0.134 A  
ENDROOT
BRANCH   7   8
HETATM    8  N   UNL     1      -9.025   6.821  71.082  1.00  0.00    -0.147 NA 
HETATM    9  C   UNL     1     -10.270   7.540  71.356  1.00  0.00    -0.186 C  
HETATM   10  C   UNL     1     -10.119   9.038  71.031  1.00  0.00    -0.282 C  
HETATM   11  N   UNL     1      -9.664   9.326  69.650  1.00  0.00    -0.174 NA 
HETATM   12  C   UNL     1      -8.382   7.101  69.780  1.00  0.00    -0.132 C  
HETATM   13  C   UNL     1      -8.366   8.625  69.476  1.00  0.00    -0.117 C  
BRANCH  11  14
HETATM   14  C   UNL     1     -10.631   8.896  68.612  1.00  0.00    -0.147 C  
BRANCH  14  15
HETATM   15  C   UNL     1     -10.760   9.923  67.484  1.00  0.00    -0.333 C  
BRANCH  15  16
HETATM   16  C   UNL     1     -10.022   9.561  66.249  1.00  0.00    -0.274 A  
HETATM   17  N   UNL     1      -9.179   8.573  66.039  1.00  0.00    -0.206 NA 
HETATM   18  N   UNL     1      -8.738   8.650  64.734  1.00  0.00    -0.120 NA 
HETATM   19  C   UNL     1      -9.323   9.686  64.173  1.00  0.00    -0.084 A  
HETATM   20  C   UNL     1      -9.184  10.200  62.786  1.00  0.00    -0.322 C  
HETATM   21  C   UNL     1      -9.763  11.614  62.652  1.00  0.00     0.105 C  
HETATM   22  C   UNL     1     -11.122  11.723  63.343  1.00  0.00    -0.448 C  
HETATM   23  C   UNL     1     -10.985  11.424  64.836  1.00  0.00    -0.216 C  
HETATM   24  N   UNL     1     -10.162  10.261  65.082  1.00  0.00    -0.289 NA 
ENDBRANCH  15  16
ENDBRANCH  14  15
ENDBRANCH  11  14
ENDBRANCH   7   8
TORSDOF 4
ENDMDL
MODEL      260
REMARK 921   NORMALIZED FREE ENERGY PREDICTED BY IDOCK:   -3.54 KCAL/MOL
REMARK 922        TOTAL FREE ENERGY PREDICTED BY IDOCK:   -4.63 KCAL/MOL
REMARK 923 INTER-LIGAND FREE ENERGY PREDICTED BY IDOCK:   -4.42 KCAL/MOL
REMARK 924 INTRA-LIGAND FREE ENERGY PREDICTED BY IDOCK:   -0.21 KCAL/MOL
REMARK 927      BINDING AFFINITY PREDICTED BY RF-SCORE:    0.00 PKD
ROOT
HETATM    1  C   UNL     1      -9.203  11.645  65.896  1.00  0.00    -0.206 C  
HETATM    2  C   UNL     1      -8.895  10.598  64.859  1.00  0.00    -0.204 A  
HETATM    3  C   UNL     1      -9.293  10.904  63.535  1.00  0.00    -0.293 A  
HETATM    4  C   UNL     1      -8.988  10.054  62.475  1.00  0.00    -0.285 A  
HETATM    5  C   UNL     1      -8.279   8.893  62.716  1.00  0.00    -0.192 A  
HETATM    6  C   UNL     1      -7.910   8.565  64.025  1.00  0.00    -0.148 A  
HETATM    7  C   UNL     1      -8.230   9.378  65.132  1.00  0.00    -0.135 A  
ENDROOT
BRANCH   7   8
HETATM    8  N   UNL     1      -7.945   8.894  66.402  1.00  0.00    -0.102 NA 
HETATM    9  C   UNL     1      -6.642   8.303  66.713  1.00  0.00    -0.057 C  
HETATM   10  C   UNL     1      -6.248   8.587  68.174  1.00  0.00    -0.051 C  
HETATM   11  N   UNL     1      -7.250   8.155  69.178  1.00  0.00    -0.071 NA 
HETATM   12  C   UNL     1      -9.023   8.650  67.384  1.00  0.00    -0.133 C  
HETATM   13  C   UNL     1      -8.517   8.851  68.839  1.00  0.00    -0.131 C  
BRANCH  11  14
HETATM   14  C   UNL     1      -7.454   6.687  69.208  1.00  0.00    -0.095 C  
BRANCH  14  15
HETATM   15  C   UNL     1      -7.605   6.155  70.636  1.00  0.00    -0.093 C  
BRANCH  15  16
HETATM   16  C   UNL     1      -8.502   6.968  71.493  1.00  0.00    -0.116 A  
HETATM   17  N   UNL     1      -8.198   7.803  72.464  1.00  0.00    -0.117 NA 
HETATM   18  N   UNL     1      -9.373   8.314  72.978  1.00  0.00    -0.263 NA 
HETATM   19  C   UNL     1     -10.370   7.779  72.309  1.00  0.00    -0.237 A  
HETATM   20  C   UNL     1     -11.830   7.998  72.475  1.00  0.00    -0.419 C  
HETATM   21  C   UNL     1     -12.645   6.927  71.736  1.00  0.00    -0.386 C  
HETATM   22  C   UNL     1     -12.093   6.686  70.331  1.00  0.00    -0.251 C  
HETATM   23  C   UNL     1     -10.648   6.192  70.404  1.00  0.00    -0.257 C  
HETATM   24  N   UNL     1      -9.861   6.957  71.346  1.00  0.00    -0.178 NA 
ENDBRANCH  15  16
ENDBRANCH  14  15
ENDBRANCH  11  14
ENDBRANCH   7   8
TORSDOF 4
ENDMDL
MODEL      261
REMARK 921   NORMALIZED FREE ENERGY PREDICTED BY IDOCK:   -3.52 KCAL/MOL
REMARK 922        TOTAL FREE ENERGY PREDICTED BY IDOCK:   -4.61 KCAL/MOL
REMARK 923 INTER-LIGAND FREE ENERGY PREDICTED BY IDOCK:   -4.36 KCAL/MOL
REMARK 924 INTRA-LIGAND FREE ENERGY PREDICTED BY IDOCK:   -0.25 KCAL/MOL
REMARK 927      BINDING AFFINITY PREDICTED BY RF-SCORE:    0.00 PKD
ROOT
HETATM    1  C   UNL     1     -12.024  13.720  66.732  1.00  0.00    -0.465 C  
HETATM    2  C   UNL     1     -10.829  14.364  67.382  1.00  0.00    -0.293 A  
HETATM    3  C   UNL     1     -10.642  15.739  67.104  1.00  0.00    -0.313 A  
HETATM    4  C   UNL     1      -9.623  16.467  67.714  1.00  0.00    -0.231 A  
HETATM    5  C   UNL     1      -8.781  15.837  68.612  1.00  0.00    -0.195 A  
HETATM    6  C   UNL     1      -8.937  14.471  68.867  1.00  0.00    -0.109 A  
HETATM    7  C   UNL     1      -9.932  13.689  68.244  1.00  0.00    -0.236 A  
ENDROOT
BRANCH   7   8
HETATM    8  N   UNL     1      -9.913  12.317  68.457  1.00  0.00    -0.201 NA 
HETATM    9  C   UNL     1      -8.866  11.474  67.877  1.00  0.00    -0.152 C  
HETATM   10  C   UNL     1      -8.543  10.287  68.805  1.00  0.00    -0.139 C  
HETATM   11  N   UNL     1      -9.714   9.456  69.171  1.00  0.00    -0.160 NA 
HETATM   12  C   UNL     1     -11.102  11.611  68.982  1.00  0.00    -0.241 C  
HETATM   13  C   UNL     1     -10.695  10.365  69.816  1.00  0.00    -0.278 C  
BRANCH  11  14
HETATM   14  C   UNL     1     -10.329   8.765  68.012  1.00  0.00    -0.220 C  
BRANCH  14  15
HETATM   15  C   UNL     1      -9.472   7.597  67.517  1.00  0.00    -0.168 C  
BRANCH  15  16
HETATM   16  C   UNL     1      -9.609   6.361  68.324  1.00  0.00    -0.123 A  
HETATM   17  N   UNL     1     -10.653   5.907  68.986  1.00  0.00    -0.263 NA 
HETATM   18  N   UNL     1     -10.295   4.722  69.596  1.00  0.00    -0.140 NA 
HETATM   19  C   UNL     1      -9.040   4.476  69.294  1.00  0.00    -0.113 A  
HETATM   20  C   UNL     1      -8.187   3.331  69.702  1.00  0.00    -0.072 C  
HETATM   21  C   UNL     1      -6.704   3.608  69.423  1.00  0.00    -0.037 C  
HETATM   22  C   UNL     1      -6.508   4.211  68.032  1.00  0.00    -0.038 C  
HETATM   23  C   UNL     1      -7.251   5.542  67.918  1.00  0.00    -0.072 C  
HETATM   24  N   UNL     1      -8.587   5.464  68.469  1.00  0.00    -0.099 NA 
ENDBRANCH  15  16
ENDBRANCH  14  15
ENDBRANCH  11  14
ENDBRANCH   7   8
TORSDOF 4
ENDMDL
MODEL      262
REMARK 921   NORMALIZED FREE ENERGY PREDICTED BY IDOCK:   -3.38 KCAL/MOL
REMARK 922        TOTAL FREE ENERGY PREDICTED BY IDOCK:   -4.43 KCAL/MOL
REMARK 923 INTER-LIGAND FREE ENERGY PREDICTED BY IDOCK:   -3.97 KCAL/MOL
REMARK 924 INTRA-LIGAND FREE ENERGY PREDICTED BY IDOCK:   -0.45 KCAL/MOL
REMARK 927      BINDING AFFINITY PREDICTED BY RF-SCORE:    0.00 PKD
ROOT
HETATM    1  C   UNL     1     -10.920   4.160  73.370  1.00  0.00    -0.350 C  
HETATM    2  C   UNL     1      -9.501   4.662  73.364  1.00  0.00    -0.130 A  
HETATM    3  C   UNL     1      -8.571   3.891  74.102  1.00  0.00    -0.092 A  
HETATM    4  C   UNL     1      -7.214   4.205  74.104  1.00  0.00    -0.067 A  
HETATM    5  C   UNL     1      -6.764   5.285  73.367  1.00  0.00    -0.074 A  
HETATM    6  C   UNL     1      -7.680   6.072  72.662  1.00  0.00    -0.100 A  
HETATM    7  C   UNL     1      -9.066   5.813  72.663  1.00  0.00    -0.131 A  
ENDROOT
BRANCH   7   8
HETATM    8  N   UNL     1      -9.904   6.734  72.049  1.00  0.00    -0.158 NA 
HETATM    9  C   UNL     1      -9.926   6.888  70.593  1.00  0.00    -0.186 C  
HETATM   10  C   UNL     1     -11.337   7.267  70.105  1.00  0.00    -0.207 C  
HETATM   11  N   UNL     1     -11.906   8.475  70.748  1.00  0.00    -0.222 NA 
HETATM   12  C   UNL     1     -10.550   7.812  72.828  1.00  0.00    -0.341 C  
HETATM   13  C   UNL     1     -11.917   8.213  72.209  1.00  0.00    -0.377 C  
BRANCH  11  14
HETATM   14  C   UNL     1     -11.147   9.713  70.447  1.00  0.00    -0.290 C  
BRANCH  14  15
HETATM   15  C   UNL     1     -10.462   9.651  69.079  1.00  0.00    -0.229 C  
BRANCH  15  16
HETATM   16  C   UNL     1      -9.482  10.738  68.842  1.00  0.00    -0.181 A  
HETATM   17  N   UNL     1      -9.684  11.965  68.409  1.00  0.00    -0.206 NA 
HETATM   18  N   UNL     1      -8.462  12.604  68.338  1.00  0.00    -0.153 NA 
HETATM   19  C   UNL     1      -7.540  11.753  68.730  1.00  0.00    -0.104 A  
HETATM   20  C   UNL     1      -6.071  11.950  68.834  1.00  0.00    -0.062 C  
HETATM   21  C   UNL     1      -5.336  10.612  68.995  1.00  0.00    -0.041 C  
HETATM   22  C   UNL     1      -6.033   9.720  70.023  1.00  0.00    -0.046 C  
HETATM   23  C   UNL     1      -7.461   9.407  69.576  1.00  0.00    -0.083 C  
HETATM   24  N   UNL     1      -8.146  10.584  69.088  1.00  0.00    -0.145 NA 
ENDBRANCH  15  16
ENDBRANCH  14  15
ENDBRANCH  11  14
ENDBRANCH   7   8
TORSDOF 4
ENDMDL
MODEL      263
REMARK 921   NORMALIZED FREE ENERGY PREDICTED BY IDOCK:   -3.32 KCAL/MOL
REMARK 922        TOTAL FREE ENERGY PREDICTED BY IDOCK:   -4.36 KCAL/MOL
REMARK 923 INTER-LIGAND FREE ENERGY PREDICTED BY IDOCK:   -4.54 KCAL/MOL
REMARK 924 INTRA-LIGAND FREE ENERGY PREDICTED BY IDOCK:    0.18 KCAL/MOL
REMARK 927      BINDING AFFINITY PREDICTED BY RF-SCORE:    0.00 PKD
ROOT
HETATM    1  C   UNL     1      -8.296   6.843  65.895  1.00  0.00    -0.137 C  
HETATM    2  C   UNL     1      -7.603   7.984  65.200  1.00  0.00    -0.098 A  
HETATM    3  C   UNL     1      -6.538   7.626  64.338  1.00  0.00    -0.048 A  
HETATM    4  C   UNL     1      -5.875   8.582  63.573  1.00  0.00    -0.072 A  
HETATM    5  C   UNL     1      -6.266   9.906  63.652  1.00  0.00    -0.124 A  
HETATM    6  C   UNL     1      -7.294  10.274  64.525  1.00  0.00    -0.076 A  
HETATM    7  C   UNL     1      -7.967   9.345  65.344  1.00  0.00    -0.105 A  
ENDROOT
BRANCH   7   8
HETATM    8  N   UNL     1      -8.872   9.831  66.278  1.00  0.00    -0.144 NA 
HETATM    9  C   UNL     1     -10.313   9.803  66.023  1.00  0.00    -0.114 C  
HETATM   10  C   UNL     1     -11.096   9.596  67.334  1.00  0.00     0.074 C  
HETATM   11  N   UNL     1     -10.791  10.585  68.395  1.00  0.00    -0.222 NA 
HETATM   12  C   UNL     1      -8.424  10.688  67.397  1.00  0.00    -0.122 C  
HETATM   13  C   UNL     1      -9.330  10.501  68.646  1.00  0.00    -0.172 C  
BRANCH  11  14
HETATM   14  C   UNL     1     -11.179  11.970  68.035  1.00  0.00    -0.258 C  
BRANCH  14  15
HETATM   15  C   UNL     1      -9.975  12.914  67.994  1.00  0.00    -0.236 C  
BRANCH  15  16
HETATM   16  C   UNL     1     -10.144  14.072  67.084  1.00  0.00    -0.259 A  
HETATM   17  N   UNL     1     -10.289  14.092  65.776  1.00  0.00    -0.312 NA 
HETATM   18  N   UNL     1     -10.399  15.408  65.374  1.00  0.00    -0.375 NA 
HETATM   19  C   UNL     1     -10.319  16.164  66.446  1.00  0.00    -0.315 A  
HETATM   20  C   UNL     1     -10.379  17.645  66.552  1.00  0.00    -0.337 C  
HETATM   21  C   UNL     1      -9.900  18.129  67.927  1.00  0.00    -0.317 C  
HETATM   22  C   UNL     1     -10.505  17.286  69.050  1.00  0.00    -0.309 C  
HETATM   23  C   UNL     1     -10.082  15.824  68.906  1.00  0.00    -0.222 C  
HETATM   24  N   UNL     1     -10.194  15.360  67.541  1.00  0.00    -0.241 NA 
ENDBRANCH  15  16
ENDBRANCH  14  15
ENDBRANCH  11  14
ENDBRANCH   7   8
TORSDOF 4
ENDMDL
MODEL      264
REMARK 921   NORMALIZED FREE ENERGY PREDICTED BY IDOCK:   -3.31 KCAL/MOL
REMARK 922        TOTAL FREE ENERGY PREDICTED BY IDOCK:   -4.35 KCAL/MOL
REMARK 923 INTER-LIGAND FREE ENERGY PREDICTED BY IDOCK:   -3.77 KCAL/MOL
REMARK 924 INTRA-LIGAND FREE ENERGY PREDICTED BY IDOCK:   -0.58 KCAL/MOL
REMARK 927      BINDING AFFINITY PREDICTED BY RF-SCORE:    0.00 PKD
ROOT
HETATM    1  C   UNL     1      -7.082   5.935  64.126  1.00  0.00    -0.053 C  
HETATM    2  C   UNL     1      -8.355   5.150  63.965  1.00  0.00    -0.132 A  
HETATM    3  C   UNL     1      -8.635   4.689  62.656  1.00  0.00    -0.111 A  
HETATM    4  C   UNL     1      -9.738   3.880  62.396  1.00  0.00    -0.120 A  
HETATM    5  C   UNL     1     -10.573   3.514  63.434  1.00  0.00    -0.257 A  
HETATM    6  C   UNL     1     -10.324   3.992  64.725  1.00  0.00    -0.212 A  
HETATM    7  C   UNL     1      -9.241   4.843  65.026  1.00  0.00    -0.102 A  
ENDROOT
BRANCH   7   8
HETATM    8  N   UNL     1      -9.164   5.375  66.306  1.00  0.00    -0.148 NA 
HETATM    9  C   UNL     1      -9.731   6.688  66.617  1.00  0.00    -0.159 C  
HETATM   10  C   UNL     1     -10.260   6.726  68.063  1.00  0.00    -0.171 C  
HETATM   11  N   UNL     1      -9.262   6.351  69.093  1.00  0.00    -0.134 NA 
HETATM   12  C   UNL     1      -8.236   4.811  67.310  1.00  0.00    -0.106 C  
HETATM   13  C   UNL     1      -8.791   4.986  68.751  1.00  0.00    -0.093 C  
BRANCH  11  14
HETATM   14  C   UNL     1      -8.119   7.292  69.173  1.00  0.00    -0.121 C  
BRANCH  14  15
HETATM   15  C   UNL     1      -8.430   8.503  70.056  1.00  0.00    -0.125 C  
BRANCH  15  16
HETATM   16  C   UNL     1      -8.286   9.809  69.367  1.00  0.00    -0.152 A  
HETATM   17  N   UNL     1      -7.225  10.340  68.797  1.00  0.00    -0.079 NA 
HETATM   18  N   UNL     1      -7.577  11.578  68.298  1.00  0.00    -0.107 NA 
HETATM   19  C   UNL     1      -8.847  11.776  68.574  1.00  0.00    -0.122 A  
HETATM   20  C   UNL     1      -9.700  12.950  68.256  1.00  0.00    -0.217 C  
HETATM   21  C   UNL     1     -11.010  12.924  69.055  1.00  0.00    -0.244 C  
HETATM   22  C   UNL     1     -11.640  11.531  69.037  1.00  0.00    -0.383 C  
HETATM   23  C   UNL     1     -10.696  10.511  69.673  1.00  0.00    -0.259 C  
HETATM   24  N   UNL     1      -9.334  10.673  69.212  1.00  0.00    -0.162 NA 
ENDBRANCH  15  16
ENDBRANCH  14  15
ENDBRANCH  11  14
ENDBRANCH   7   8
TORSDOF 4
ENDMDL
MODEL      265
REMARK 921   NORMALIZED FREE ENERGY PREDICTED BY IDOCK:   -3.24 KCAL/MOL
REMARK 922        TOTAL FREE ENERGY PREDICTED BY IDOCK:   -4.26 KCAL/MOL
REMARK 923 INTER-LIGAND FREE ENERGY PREDICTED BY IDOCK:   -4.72 KCAL/MOL
REMARK 924 INTRA-LIGAND FREE ENERGY PREDICTED BY IDOCK:    0.45 KCAL/MOL
REMARK 927      BINDING AFFINITY PREDICTED BY RF-SCORE:    0.00 PKD
ROOT
HETATM    1  C   UNL     1     -12.472  11.590  70.777  1.00  0.00    -0.444 C  
HETATM    2  C   UNL     1     -11.602  11.731  69.558  1.00  0.00    -0.398 A  
HETATM    3  C   UNL     1     -11.907  12.819  68.704  1.00  0.00    -0.341 A  
HETATM    4  C   UNL     1     -11.120  13.105  67.591  1.00  0.00    -0.295 A  
HETATM    5  C   UNL     1     -10.019  12.318  67.316  1.00  0.00    -0.210 A  
HETATM    6  C   UNL     1      -9.729  11.221  68.134  1.00  0.00    -0.188 A  
HETATM    7  C   UNL     1     -10.519  10.873  69.249  1.00  0.00    -0.202 A  
ENDROOT
BRANCH   7   8
HETATM    8  N   UNL     1     -10.230   9.687  69.910  1.00  0.00    -0.228 NA 
HETATM    9  C   UNL     1      -9.804   8.494  69.176  1.00  0.00    -0.186 C  
HETATM   10  C   UNL     1      -8.820   7.658  70.016  1.00  0.00    -0.143 C  
HETATM   11  N   UNL     1      -9.326   7.272  71.354  1.00  0.00    -0.150 NA 
HETATM   12  C   UNL     1     -10.651   9.475  71.312  1.00  0.00    -0.288 C  
HETATM   13  C   UNL     1      -9.666   8.534  72.059  1.00  0.00    -0.307 C  
BRANCH  11  14
HETATM   14  C   UNL     1     -10.504   6.373  71.299  1.00  0.00    -0.216 C  
BRANCH  14  15
HETATM   15  C   UNL     1     -10.477   5.463  70.069  1.00  0.00    -0.373 C  
BRANCH  15  16
HETATM   16  C   UNL     1      -9.700   4.213  70.258  1.00  0.00    -0.207 A  
HETATM   17  N   UNL     1      -9.826   3.283  71.181  1.00  0.00    -0.140 NA 
HETATM   18  N   UNL     1      -8.868   2.316  70.952  1.00  0.00    -0.064 NA 
HETATM   19  C   UNL     1      -8.177   2.676  69.893  1.00  0.00    -0.041 A  
HETATM   20  C   UNL     1      -7.039   1.981  69.240  1.00  0.00    -0.036 C  
HETATM   21  C   UNL     1      -6.308   2.906  68.257  1.00  0.00    -0.029 C  
HETATM   22  C   UNL     1      -7.298   3.675  67.383  1.00  0.00    -0.066 C  
HETATM   23  C   UNL     1      -8.203   4.552  68.248  1.00  0.00    -0.090 C  
HETATM   24  N   UNL     1      -8.694   3.843  69.410  1.00  0.00    -0.074 NA 
ENDBRANCH  15  16
ENDBRANCH  14  15
ENDBRANCH  11  14
ENDBRANCH   7   8
TORSDOF 4
ENDMDL
MODEL      266
REMARK 921   NORMALIZED FREE ENERGY PREDICTED BY IDOCK:   -3.21 KCAL/MOL
REMARK 922        TOTAL FREE ENERGY PREDICTED BY IDOCK:   -4.22 KCAL/MOL
REMARK 923 INTER-LIGAND FREE ENERGY PREDICTED BY IDOCK:   -4.40 KCAL/MOL
REMARK 924 INTRA-LIGAND FREE ENERGY PREDICTED BY IDOCK:    0.19 KCAL/MOL
REMARK 927      BINDING AFFINITY PREDICTED BY RF-SCORE:    0.00 PKD
ROOT
HETATM    1  C   UNL     1      -9.611  10.149  65.396  1.00  0.00    -0.325 C  
HETATM    2  C   UNL     1      -8.782   9.343  64.433  1.00  0.00    -0.227 A  
HETATM    3  C   UNL     1      -8.312  10.039  63.292  1.00  0.00    -0.168 A  
HETATM    4  C   UNL     1      -7.465   9.427  62.372  1.00  0.00    -0.109 A  
HETATM    5  C   UNL     1      -7.070   8.118  62.577  1.00  0.00    -0.090 A  
HETATM    6  C   UNL     1      -7.556   7.412  63.682  1.00  0.00    -0.121 A  
HETATM    7  C   UNL     1      -8.444   7.981  64.618  1.00  0.00     0.017 A  
ENDROOT
BRANCH   7   8
HETATM    8  N   UNL     1      -8.978   7.155  65.598  1.00  0.00    -0.021 NA 
HETATM    9  C   UNL     1      -9.583   7.709  66.810  1.00  0.00    -0.209 C  
HETATM   10  C   UNL     1     -10.743   6.821  67.297  1.00  0.00    -0.353 C  
HETATM   11  N   UNL     1     -10.380   5.401  67.519  1.00  0.00    -0.200 NA 
HETATM   12  C   UNL     1      -8.669   5.709  65.625  1.00  0.00    -0.151 C  
HETATM   13  C   UNL     1      -9.845   4.893  66.231  1.00  0.00    -0.209 C  
BRANCH  11  14
HETATM   14  C   UNL     1      -9.387   5.212  68.605  1.00  0.00    -0.125 C  
BRANCH  14  15
HETATM   15  C   UNL     1     -10.024   4.638  69.873  1.00  0.00    -0.296 C  
BRANCH  15  16
HETATM   16  C   UNL     1     -10.382   5.659  70.887  1.00  0.00    -0.238 A  
HETATM   17  N   UNL     1     -11.494   6.350  71.019  1.00  0.00    -0.328 NA 
HETATM   18  N   UNL     1     -11.355   7.189  72.107  1.00  0.00    -0.256 NA 
HETATM   19  C   UNL     1     -10.160   6.992  72.616  1.00  0.00    -0.181 A  
HETATM   20  C   UNL     1      -9.524   7.646  73.789  1.00  0.00    -0.300 C  
HETATM   21  C   UNL     1      -8.013   7.381  73.828  1.00  0.00    -0.148 C  
HETATM   22  C   UNL     1      -7.704   5.910  73.550  1.00  0.00    -0.101 C  
HETATM   23  C   UNL     1      -8.201   5.515  72.160  1.00  0.00    -0.112 C  
HETATM   24  N   UNL     1      -9.534   6.014  71.900  1.00  0.00    -0.151 NA 
ENDBRANCH  15  16
ENDBRANCH  14  15
ENDBRANCH  11  14
ENDBRANCH   7   8
TORSDOF 4
ENDMDL
MODEL      267
REMARK 921   NORMALIZED FREE ENERGY PREDICTED BY IDOCK:   -3.17 KCAL/MOL
REMARK 922        TOTAL FREE ENERGY PREDICTED BY IDOCK:   -4.18 KCAL/MOL
REMARK 923 INTER-LIGAND FREE ENERGY PREDICTED BY IDOCK:   -4.37 KCAL/MOL
REMARK 924 INTRA-LIGAND FREE ENERGY PREDICTED BY IDOCK:    0.19 KCAL/MOL
REMARK 927      BINDING AFFINITY PREDICTED BY RF-SCORE:    0.00 PKD
ROOT
HETATM    1  C   UNL     1     -10.649  15.772  65.706  1.00  0.00    -0.369 C  
HETATM    2  C   UNL     1      -9.327  15.772  66.427  1.00  0.00    -0.333 A  
HETATM    3  C   UNL     1      -8.778  17.047  66.708  1.00  0.00    -0.272 A  
HETATM    4  C   UNL     1      -7.604  17.180  67.445  1.00  0.00    -0.188 A  
HETATM    5  C   UNL     1      -6.964  16.049  67.915  1.00  0.00    -0.151 A  
HETATM    6  C   UNL     1      -7.480  14.785  67.613  1.00  0.00    -0.203 A  
HETATM    7  C   UNL     1      -8.645  14.603  66.840  1.00  0.00    -0.204 A  
ENDROOT
BRANCH   7   8
HETATM    8  N   UNL     1      -8.994  13.309  66.478  1.00  0.00    -0.123 NA 
HETATM    9  C   UNL     1     -10.340  12.992  65.998  1.00  0.00    -0.285 C  
HETATM   10  C   UNL     1     -10.296  11.856  64.958  1.00  0.00    -0.289 C  
HETATM   11  N   UNL     1      -9.624  10.620  65.425  1.00  0.00    -0.213 NA 
HETATM   12  C   UNL     1      -8.153  12.156  66.869  1.00  0.00    -0.112 C  
HETATM   13  C   UNL     1      -8.248  11.010  65.824  1.00  0.00    -0.064 C  
BRANCH  11  14
HETATM   14  C   UNL     1     -10.326   9.961  66.553  1.00  0.00    -0.188 C  
BRANCH  14  15
HETATM   15  C   UNL     1      -9.841   8.525  66.773  1.00  0.00    -0.327 C  
BRANCH  15  16
HETATM   16  C   UNL     1      -9.734   8.134  68.199  1.00  0.00    -0.161 A  
HETATM   17  N   UNL     1     -10.686   7.957  69.091  1.00  0.00    -0.169 NA 
HETATM   18  N   UNL     1     -10.096   7.609  70.289  1.00  0.00    -0.196 NA 
HETATM   19  C   UNL     1      -8.795   7.581  70.104  1.00  0.00    -0.147 A  
HETATM   20  C   UNL     1      -7.719   7.266  71.078  1.00  0.00    -0.089 C  
HETATM   21  C   UNL     1      -6.342   7.686  70.548  1.00  0.00    -0.038 C  
HETATM   22  C   UNL     1      -6.160   7.264  69.090  1.00  0.00    -0.030 C  
HETATM   23  C   UNL     1      -7.213   7.932  68.207  1.00  0.00    -0.090 C  
HETATM   24  N   UNL     1      -8.532   7.870  68.797  1.00  0.00    -0.128 NA 
ENDBRANCH  15  16
ENDBRANCH  14  15
ENDBRANCH  11  14
ENDBRANCH   7   8
TORSDOF 4
ENDMDL
MODEL      268
REMARK 921   NORMALIZED FREE ENERGY PREDICTED BY IDOCK:   -3.17 KCAL/MOL
REMARK 922        TOTAL FREE ENERGY PREDICTED BY IDOCK:   -4.17 KCAL/MOL
REMARK 923 INTER-LIGAND FREE ENERGY PREDICTED BY IDOCK:   -3.65 KCAL/MOL
REMARK 924 INTRA-LIGAND FREE ENERGY PREDICTED BY IDOCK:   -0.52 KCAL/MOL
REMARK 927      BINDING AFFINITY PREDICTED BY RF-SCORE:    0.00 PKD
ROOT
HETATM    1  C   UNL     1      -9.762   3.128  70.597  1.00  0.00    -0.137 C  
HETATM    2  C   UNL     1      -8.732   3.580  71.598  1.00  0.00    -0.124 A  
HETATM    3  C   UNL     1      -8.489   2.693  72.675  1.00  0.00    -0.070 A  
HETATM    4  C   UNL     1      -7.499   2.959  73.618  1.00  0.00    -0.051 A  
HETATM    5  C   UNL     1      -6.736   4.105  73.499  1.00  0.00    -0.053 A  
HETATM    6  C   UNL     1      -6.992   5.003  72.458  1.00  0.00    -0.076 A  
HETATM    7  C   UNL     1      -8.008   4.793  71.503  1.00  0.00    -0.102 A  
ENDROOT
BRANCH   7   8
HETATM    8  N   UNL     1      -8.275   5.810  70.597  1.00  0.00    -0.117 NA 
HETATM    9  C   UNL     1      -9.392   6.734  70.801  1.00  0.00    -0.161 C  
HETATM   10  C   UNL     1      -9.052   8.132  70.251  1.00  0.00    -0.151 C  
HETATM   11  N   UNL     1      -8.638   8.149  68.828  1.00  0.00    -0.126 NA 
HETATM   12  C   UNL     1      -7.671   5.804  69.247  1.00  0.00    -0.089 C  
HETATM   13  C   UNL     1      -7.461   7.250  68.718  1.00  0.00    -0.102 C  
BRANCH  11  14
HETATM   14  C   UNL     1      -9.711   7.718  67.899  1.00  0.00    -0.153 C  
BRANCH  14  15
HETATM   15  C   UNL     1      -9.733   8.556  66.617  1.00  0.00    -0.318 C  
BRANCH  15  16
HETATM   16  C   UNL     1      -9.266   9.952  66.798  1.00  0.00    -0.148 A  
HETATM   17  N   UNL     1      -8.138  10.511  66.414  1.00  0.00    -0.129 NA 
HETATM   18  N   UNL     1      -8.150  11.830  66.819  1.00  0.00    -0.159 NA 
HETATM   19  C   UNL     1      -9.287  12.049  67.442  1.00  0.00    -0.178 A  
HETATM   20  C   UNL     1      -9.784  13.302  68.066  1.00  0.00    -0.223 C  
HETATM   21  C   UNL     1     -10.988  13.034  68.979  1.00  0.00    -0.242 C  
HETATM   22  C   UNL     1     -11.993  12.099  68.305  1.00  0.00    -0.248 C  
HETATM   23  C   UNL     1     -11.344  10.751  67.998  1.00  0.00    -0.307 C  
HETATM   24  N   UNL     1     -10.028  10.904  67.417  1.00  0.00    -0.183 NA 
ENDBRANCH  15  16
ENDBRANCH  14  15
ENDBRANCH  11  14
ENDBRANCH   7   8
TORSDOF 4
ENDMDL
MODEL      269
REMARK 921   NORMALIZED FREE ENERGY PREDICTED BY IDOCK:   -3.11 KCAL/MOL
REMARK 922        TOTAL FREE ENERGY PREDICTED BY IDOCK:   -4.10 KCAL/MOL
REMARK 923 INTER-LIGAND FREE ENERGY PREDICTED BY IDOCK:   -3.64 KCAL/MOL
REMARK 924 INTRA-LIGAND FREE ENERGY PREDICTED BY IDOCK:   -0.45 KCAL/MOL
REMARK 927      BINDING AFFINITY PREDICTED BY RF-SCORE:    0.00 PKD
ROOT
HETATM    1  C   UNL     1      -5.675   4.751  64.493  1.00  0.00    -0.014 C  
HETATM    2  C   UNL     1      -6.922   4.012  64.089  1.00  0.00    -0.046 A  
HETATM    3  C   UNL     1      -6.817   3.217  62.922  1.00  0.00    -0.031 A  
HETATM    4  C   UNL     1      -7.875   2.419  62.495  1.00  0.00    -0.058 A  
HETATM    5  C   UNL     1      -9.048   2.396  63.225  1.00  0.00    -0.092 A  
HETATM    6  C   UNL     1      -9.173   3.203  64.360  1.00  0.00    -0.135 A  
HETATM    7  C   UNL     1      -8.141   4.054  64.807  1.00  0.00    -0.093 A  
ENDROOT
BRANCH   7   8
HETATM    8  N   UNL     1      -8.415   4.917  65.859  1.00  0.00    -0.117 NA 
HETATM    9  C   UNL     1      -8.779   6.314  65.618  1.00  0.00    -0.114 C  
HETATM   10  C   UNL     1      -9.765   6.815  66.690  1.00  0.00    -0.158 C  
HETATM   11  N   UNL     1      -9.292   6.652  68.085  1.00  0.00    -0.116 NA 
HETATM   12  C   UNL     1      -8.035   4.573  67.246  1.00  0.00    -0.101 C  
HETATM   13  C   UNL     1      -9.015   5.205  68.273  1.00  0.00    -0.110 C  
BRANCH  11  14
HETATM   14  C   UNL     1      -8.086   7.457  68.394  1.00  0.00    -0.125 C  
BRANCH  14  15
HETATM   15  C   UNL     1      -8.431   8.749  69.141  1.00  0.00    -0.123 C  
BRANCH  15  16
HETATM   16  C   UNL     1      -8.236   8.670  70.609  1.00  0.00    -0.137 A  
HETATM   17  N   UNL     1      -7.208   9.055  71.336  1.00  0.00    -0.240 NA 
HETATM   18  N   UNL     1      -7.482   8.766  72.657  1.00  0.00    -0.355 NA 
HETATM   19  C   UNL     1      -8.672   8.210  72.709  1.00  0.00    -0.217 A  
HETATM   20  C   UNL     1      -9.421   7.716  73.893  1.00  0.00    -0.230 C  
HETATM   21  C   UNL     1     -10.605   6.832  73.477  1.00  0.00    -0.358 C  
HETATM   22  C   UNL     1     -11.386   7.463  72.324  1.00  0.00    -0.323 C  
HETATM   23  C   UNL     1     -10.486   7.627  71.099  1.00  0.00    -0.208 C  
HETATM   24  N   UNL     1      -9.190   8.166  71.448  1.00  0.00    -0.144 NA 
ENDBRANCH  15  16
ENDBRANCH  14  15
ENDBRANCH  11  14
ENDBRANCH   7   8
TORSDOF 4
ENDMDL
MODEL      270
REMARK 921   NORMALIZED FREE ENERGY PREDICTED BY IDOCK:   -3.11 KCAL/MOL
REMARK 922        TOTAL FREE ENERGY PREDICTED BY IDOCK:   -4.10 KCAL/MOL
REMARK 923 INTER-LIGAND FREE ENERGY PREDICTED BY IDOCK:   -3.82 KCAL/MOL
REMARK 924 INTRA-LIGAND FREE ENERGY PREDICTED BY IDOCK:   -0.28 KCAL/MOL
REMARK 927      BINDING AFFINITY PREDICTED BY RF-SCORE:    0.00 PKD
ROOT
HETATM    1  C   UNL     1     -10.163  10.069  65.866  1.00  0.00    -0.275 C  
HETATM    2  C   UNL     1      -9.000   9.180  65.513  1.00  0.00    -0.252 A  
HETATM    3  C   UNL     1      -8.309   9.511  64.322  1.00  0.00    -0.172 A  
HETATM    4  C   UNL     1      -7.165   8.818  63.935  1.00  0.00    -0.096 A  
HETATM    5  C   UNL     1      -6.691   7.791  64.729  1.00  0.00    -0.050 A  
HETATM    6  C   UNL     1      -7.385   7.435  65.890  1.00  0.00    -0.075 A  
HETATM    7  C   UNL     1      -8.567   8.085  66.300  1.00  0.00    -0.143 A  
ENDROOT
BRANCH   7   8
HETATM    8  N   UNL     1      -9.257   7.565  67.386  1.00  0.00    -0.131 NA 
HETATM    9  C   UNL     1      -8.973   8.013  68.750  1.00  0.00    -0.141 C  
HETATM   10  C   UNL     1     -10.249   7.985  69.612  1.00  0.00    -0.208 C  
HETATM   11  N   UNL     1     -10.940   6.674  69.646  1.00  0.00    -0.285 NA 
HETATM   12  C   UNL     1     -10.051   6.323  67.260  1.00  0.00    -0.163 C  
HETATM   13  C   UNL     1     -11.258   6.325  68.239  1.00  0.00    -0.148 C  
BRANCH  11  14
HETATM   14  C   UNL     1     -10.134   5.603  70.279  1.00  0.00    -0.222 C  
BRANCH  14  15
HETATM   15  C   UNL     1     -10.222   5.641  71.807  1.00  0.00    -0.253 C  
BRANCH  15  16
HETATM   16  C   UNL     1      -9.436   6.733  72.432  1.00  0.00    -0.143 A  
HETATM   17  N   UNL     1      -9.836   7.696  73.235  1.00  0.00    -0.278 NA 
HETATM   18  N   UNL     1      -8.743   8.480  73.546  1.00  0.00    -0.308 NA 
HETATM   19  C   UNL     1      -7.699   7.979  72.925  1.00  0.00    -0.134 A  
HETATM   20  C   UNL     1      -6.291   8.455  72.931  1.00  0.00    -0.102 C  
HETATM   21  C   UNL     1      -5.474   7.800  71.809  1.00  0.00    -0.035 C  
HETATM   22  C   UNL     1      -5.741   6.296  71.738  1.00  0.00    -0.032 C  
HETATM   23  C   UNL     1      -7.217   6.031  71.443  1.00  0.00    -0.079 C  
HETATM   24  N   UNL     1      -8.087   6.862  72.245  1.00  0.00    -0.094 NA 
ENDBRANCH  15  16
ENDBRANCH  14  15
ENDBRANCH  11  14
ENDBRANCH   7   8
TORSDOF 4
ENDMDL
MODEL      271
REMARK 921   NORMALIZED FREE ENERGY PREDICTED BY IDOCK:   -3.05 KCAL/MOL
REMARK 922        TOTAL FREE ENERGY PREDICTED BY IDOCK:   -4.02 KCAL/MOL
REMARK 923 INTER-LIGAND FREE ENERGY PREDICTED BY IDOCK:   -3.59 KCAL/MOL
REMARK 924 INTRA-LIGAND FREE ENERGY PREDICTED BY IDOCK:   -0.44 KCAL/MOL
REMARK 927      BINDING AFFINITY PREDICTED BY RF-SCORE:    0.00 PKD
ROOT
HETATM    1  C   UNL     1      -7.751   5.800  64.753  1.00  0.00    -0.096 C  
HETATM    2  C   UNL     1      -8.084   4.334  64.689  1.00  0.00    -0.091 A  
HETATM    3  C   UNL     1      -8.272   3.799  63.391  1.00  0.00    -0.089 A  
HETATM    4  C   UNL     1      -8.499   2.439  63.197  1.00  0.00    -0.085 A  
HETATM    5  C   UNL     1      -8.538   1.593  64.290  1.00  0.00    -0.084 A  
HETATM    6  C   UNL     1      -8.387   2.117  65.577  1.00  0.00    -0.092 A  
HETATM    7  C   UNL     1      -8.192   3.492  65.822  1.00  0.00    -0.097 A  
ENDROOT
BRANCH   7   8
HETATM    8  N   UNL     1      -8.196   3.928  67.140  1.00  0.00    -0.098 NA 
HETATM    9  C   UNL     1      -9.443   4.296  67.813  1.00  0.00    -0.168 C  
HETATM   10  C   UNL     1      -9.374   3.958  69.315  1.00  0.00    -0.172 C  
HETATM   11  N   UNL     1      -8.220   4.557  70.027  1.00  0.00    -0.066 NA 
HETATM   12  C   UNL     1      -6.946   4.355  67.805  1.00  0.00    -0.056 C  
HETATM   13  C   UNL     1      -6.998   4.080  69.333  1.00  0.00    -0.046 C  
BRANCH  11  14
HETATM   14  C   UNL     1      -8.256   6.039  70.060  1.00  0.00    -0.122 C  
BRANCH  14  15
HETATM   15  C   UNL     1      -8.796   6.573  71.389  1.00  0.00    -0.137 C  
BRANCH  15  16
HETATM   16  C   UNL     1     -10.273   6.701  71.436  1.00  0.00    -0.199 A  
HETATM   17  N   UNL     1     -11.186   5.770  71.622  1.00  0.00    -0.234 NA 
HETATM   18  N   UNL     1     -12.428   6.369  71.572  1.00  0.00    -0.156 NA 
HETATM   19  C   UNL     1     -12.248   7.653  71.356  1.00  0.00    -0.326 A  
HETATM   20  C   UNL     1     -13.263   8.729  71.218  1.00  0.00    -0.203 C  
HETATM   21  C   UNL     1     -12.649  10.007  70.632  1.00  0.00    -0.301 C  
HETATM   22  C   UNL     1     -11.315  10.336  71.304  1.00  0.00    -0.122 C  
HETATM   23  C   UNL     1     -10.313   9.204  71.082  1.00  0.00    -0.317 C  
HETATM   24  N   UNL     1     -10.908   7.904  71.301  1.00  0.00    -0.232 NA 
ENDBRANCH  15  16
ENDBRANCH  14  15
ENDBRANCH  11  14
ENDBRANCH   7   8
TORSDOF 4
ENDMDL
MODEL      272
REMARK 921   NORMALIZED FREE ENERGY PREDICTED BY IDOCK:   -3.04 KCAL/MOL
REMARK 922        TOTAL FREE ENERGY PREDICTED BY IDOCK:   -4.01 KCAL/MOL
REMARK 923 INTER-LIGAND FREE ENERGY PREDICTED BY IDOCK:   -4.39 KCAL/MOL
REMARK 924 INTRA-LIGAND FREE ENERGY PREDICTED BY IDOCK:    0.38 KCAL/MOL
REMARK 927      BINDING AFFINITY PREDICTED BY RF-SCORE:    0.00 PKD
ROOT
HETATM    1  C   UNL     1     -11.030  15.341  66.196  1.00  0.00    -0.307 C  
HETATM    2  C   UNL     1      -9.855  15.838  66.994  1.00  0.00    -0.238 A  
HETATM    3  C   UNL     1      -9.768  17.243  67.154  1.00  0.00    -0.259 A  
HETATM    4  C   UNL     1      -8.775  17.819  67.942  1.00  0.00    -0.251 A  
HETATM    5  C   UNL     1      -7.860  17.007  68.585  1.00  0.00    -0.257 A  
HETATM    6  C   UNL     1      -7.917  15.621  68.406  1.00  0.00    -0.136 A  
HETATM    7  C   UNL     1      -8.882  14.998  67.588  1.00  0.00    -0.179 A  
ENDROOT
BRANCH   7   8
HETATM    8  N   UNL     1      -8.766  13.633  67.363  1.00  0.00    -0.202 NA 
HETATM    9  C   UNL     1      -9.750  12.911  66.555  1.00  0.00    -0.257 C  
HETATM   10  C   UNL     1      -9.083  11.752  65.789  1.00  0.00    -0.083 C  
HETATM   11  N   UNL     1      -8.337  10.799  66.644  1.00  0.00    -0.136 NA 
HETATM   12  C   UNL     1      -7.860  12.801  68.184  1.00  0.00    -0.146 C  
HETATM   13  C   UNL     1      -7.315  11.593  67.373  1.00  0.00    -0.128 C  
BRANCH  11  14
HETATM   14  C   UNL     1      -9.202  10.064  67.597  1.00  0.00    -0.137 C  
BRANCH  14  15
HETATM   15  C   UNL     1      -8.571   8.743  68.047  1.00  0.00    -0.134 C  
BRANCH  15  16
HETATM   16  C   UNL     1      -9.436   7.556  67.837  1.00  0.00    -0.141 A  
HETATM   17  N   UNL     1     -10.455   7.129  68.551  1.00  0.00    -0.201 NA 
HETATM   18  N   UNL     1     -10.937   5.974  67.968  1.00  0.00    -0.296 NA 
HETATM   19  C   UNL     1     -10.201   5.721  66.909  1.00  0.00    -0.218 A  
HETATM   20  C   UNL     1     -10.307   4.597  65.944  1.00  0.00    -0.315 C  
HETATM   21  C   UNL     1      -9.051   4.488  65.069  1.00  0.00    -0.152 C  
HETATM   22  C   UNL     1      -8.617   5.860  64.554  1.00  0.00     0.061 C  
HETATM   23  C   UNL     1      -8.281   6.786  65.723  1.00  0.00    -0.135 C  
HETATM   24  N   UNL     1      -9.272   6.712  66.774  1.00  0.00    -0.144 NA 
ENDBRANCH  15  16
ENDBRANCH  14  15
ENDBRANCH  11  14
ENDBRANCH   7   8
TORSDOF 4
ENDMDL
MODEL      273
REMARK 921   NORMALIZED FREE ENERGY PREDICTED BY IDOCK:   -2.99 KCAL/MOL
REMARK 922        TOTAL FREE ENERGY PREDICTED BY IDOCK:   -3.94 KCAL/MOL
REMARK 923 INTER-LIGAND FREE ENERGY PREDICTED BY IDOCK:   -3.54 KCAL/MOL
REMARK 924 INTRA-LIGAND FREE ENERGY PREDICTED BY IDOCK:   -0.41 KCAL/MOL
REMARK 927      BINDING AFFINITY PREDICTED BY RF-SCORE:    0.00 PKD
ROOT
HETATM    1  C   UNL     1      -6.941   5.940  63.904  1.00  0.00    -0.050 C  
HETATM    2  C   UNL     1      -8.246   5.198  64.008  1.00  0.00    -0.131 A  
HETATM    3  C   UNL     1      -8.700   4.579  62.817  1.00  0.00    -0.117 A  
HETATM    4  C   UNL     1      -9.849   3.793  62.806  1.00  0.00    -0.138 A  
HETATM    5  C   UNL     1     -10.558   3.607  63.978  1.00  0.00    -0.272 A  
HETATM    6  C   UNL     1     -10.136   4.241  65.151  1.00  0.00    -0.221 A  
HETATM    7  C   UNL     1      -9.001   5.075  65.199  1.00  0.00    -0.143 A  
ENDROOT
BRANCH   7   8
HETATM    8  N   UNL     1      -8.749   5.769  66.375  1.00  0.00    -0.124 NA 
HETATM    9  C   UNL     1      -7.876   5.214  67.411  1.00  0.00    -0.096 C  
HETATM   10  C   UNL     1      -7.117   6.337  68.144  1.00  0.00    -0.082 C  
HETATM   11  N   UNL     1      -7.983   7.389  68.725  1.00  0.00    -0.121 NA 
HETATM   12  C   UNL     1      -9.592   6.915  66.777  1.00  0.00    -0.168 C  
HETATM   13  C   UNL     1      -8.780   7.950  67.604  1.00  0.00    -0.126 C  
BRANCH  11  14
HETATM   14  C   UNL     1      -8.875   6.888  69.798  1.00  0.00    -0.141 C  
BRANCH  14  15
HETATM   15  C   UNL     1      -8.375   7.276  71.192  1.00  0.00    -0.112 C  
BRANCH  15  16
HETATM   16  C   UNL     1      -8.189   6.126  72.111  1.00  0.00    -0.110 A  
HETATM   17  N   UNL     1      -7.076   5.605  72.581  1.00  0.00    -0.087 NA 
HETATM   18  N   UNL     1      -7.408   4.538  73.391  1.00  0.00    -0.079 NA 
HETATM   19  C   UNL     1      -8.718   4.430  73.399  1.00  0.00    -0.099 A  
HETATM   20  C   UNL     1      -9.571   3.446  74.112  1.00  0.00    -0.124 C  
HETATM   21  C   UNL     1     -11.009   3.457  73.576  1.00  0.00    -0.328 C  
HETATM   22  C   UNL     1     -11.523   4.887  73.405  1.00  0.00    -0.306 C  
HETATM   23  C   UNL     1     -10.655   5.649  72.403  1.00  0.00    -0.224 C  
HETATM   24  N   UNL     1      -9.244   5.432  72.635  1.00  0.00    -0.138 NA 
ENDBRANCH  15  16
ENDBRANCH  14  15
ENDBRANCH  11  14
ENDBRANCH   7   8
TORSDOF 4
ENDMDL
MODEL      274
REMARK 921   NORMALIZED FREE ENERGY PREDICTED BY IDOCK:   -2.75 KCAL/MOL
REMARK 922        TOTAL FREE ENERGY PREDICTED BY IDOCK:   -3.65 KCAL/MOL
REMARK 923 INTER-LIGAND FREE ENERGY PREDICTED BY IDOCK:   -3.20 KCAL/MOL
REMARK 924 INTRA-LIGAND FREE ENERGY PREDICTED BY IDOCK:   -0.45 KCAL/MOL
REMARK 927      BINDING AFFINITY PREDICTED BY RF-SCORE:    0.00 PKD
ROOT
HETATM    1  C   UNL     1     -10.768   9.689  67.197  1.00  0.00    -0.258 C  
HETATM    2  C   UNL     1      -9.483  10.229  67.765  1.00  0.00    -0.163 A  
HETATM    3  C   UNL     1      -9.292  11.626  67.641  1.00  0.00    -0.178 A  
HETATM    4  C   UNL     1      -8.185  12.256  68.202  1.00  0.00    -0.168 A  
HETATM    5  C   UNL     1      -7.256  11.506  68.898  1.00  0.00    -0.117 A  
HETATM    6  C   UNL     1      -7.418  10.121  68.998  1.00  0.00    -0.091 A  
HETATM    7  C   UNL     1      -8.504   9.437  68.413  1.00  0.00    -0.120 A  
ENDROOT
BRANCH   7   8
HETATM    8  N   UNL     1      -8.497   8.050  68.448  1.00  0.00    -0.127 NA 
HETATM    9  C   UNL     1      -8.180   7.263  67.254  1.00  0.00    -0.115 C  
HETATM   10  C   UNL     1      -7.460   5.956  67.637  1.00  0.00    -0.078 C  
HETATM   11  N   UNL     1      -8.189   5.115  68.616  1.00  0.00    -0.086 NA 
HETATM   12  C   UNL     1      -9.123   7.313  69.567  1.00  0.00    -0.143 C  
HETATM   13  C   UNL     1      -8.407   5.957  69.819  1.00  0.00    -0.124 C  
BRANCH  11  14
HETATM   14  C   UNL     1      -9.480   4.600  68.100  1.00  0.00    -0.146 C  
BRANCH  14  15
HETATM   15  C   UNL     1      -9.383   3.135  67.667  1.00  0.00    -0.247 C  
BRANCH  15  16
HETATM   16  C   UNL     1      -8.552   2.914  66.458  1.00  0.00    -0.112 A  
HETATM   17  N   UNL     1      -7.354   2.380  66.355  1.00  0.00    -0.064 NA 
HETATM   18  N   UNL     1      -6.985   2.401  65.025  1.00  0.00    -0.047 NA 
HETATM   19  C   UNL     1      -7.967   2.948  64.343  1.00  0.00    -0.082 A  
HETATM   20  C   UNL     1      -8.063   3.202  62.883  1.00  0.00    -0.073 C  
HETATM   21  C   UNL     1      -9.214   4.163  62.556  1.00  0.00    -0.118 C  
HETATM   22  C   UNL     1     -10.483   3.785  63.321  1.00  0.00    -0.227 C  
HETATM   23  C   UNL     1     -10.238   3.861  64.828  1.00  0.00    -0.188 C  
HETATM   24  N   UNL     1      -8.982   3.250  65.204  1.00  0.00    -0.134 NA 
ENDBRANCH  15  16
ENDBRANCH  14  15
ENDBRANCH  11  14
ENDBRANCH   7   8
TORSDOF 4
ENDMDL
MODEL      275
REMARK 921   NORMALIZED FREE ENERGY PREDICTED BY IDOCK:   -2.68 KCAL/MOL
REMARK 922        TOTAL FREE ENERGY PREDICTED BY IDOCK:   -3.57 KCAL/MOL
REMARK 923 INTER-LIGAND FREE ENERGY PREDICTED BY IDOCK:   -5.47 KCAL/MOL
REMARK 924 INTRA-LIGAND FREE ENERGY PREDICTED BY IDOCK:    1.90 KCAL/MOL
REMARK 927      BINDING AFFINITY PREDICTED BY RF-SCORE:    0.00 PKD
ROOT
HETATM    1  C   UNL     1      -5.237  15.052  70.765  1.00  0.00    -0.133 C  
HETATM    2  C   UNL     1      -5.911  13.873  70.117  1.00  0.00    -0.143 A  
HETATM    3  C   UNL     1      -5.452  12.598  70.528  1.00  0.00    -0.161 A  
HETATM    4  C   UNL     1      -6.055  11.430  70.065  1.00  0.00    -0.145 A  
HETATM    5  C   UNL     1      -7.123  11.516  69.193  1.00  0.00    -0.105 A  
HETATM    6  C   UNL     1      -7.561  12.770  68.755  1.00  0.00    -0.025 A  
HETATM    7  C   UNL     1      -6.957  13.975  69.169  1.00  0.00    -0.103 A  
ENDROOT
BRANCH   7   8
HETATM    8  N   UNL     1      -7.374  15.155  68.568  1.00  0.00    -0.115 NA 
HETATM    9  C   UNL     1      -7.644  16.356  69.360  1.00  0.00    -0.098 C  
HETATM   10  C   UNL     1      -7.290  17.626  68.564  1.00  0.00    -0.256 C  
HETATM   11  N   UNL     1      -7.959  17.732  67.245  1.00  0.00    -0.206 NA 
HETATM   12  C   UNL     1      -7.878  15.164  67.177  1.00  0.00    -0.205 C  
HETATM   13  C   UNL     1      -7.578  16.519  66.478  1.00  0.00    -0.269 C  
BRANCH  11  14
HETATM   14  C   UNL     1      -9.434  17.846  67.342  1.00  0.00    -0.258 C  
BRANCH  14  15
HETATM   15  C   UNL     1     -10.146  17.069  66.232  1.00  0.00    -0.330 C  
BRANCH  15  16
HETATM   16  C   UNL     1     -10.908  15.890  66.710  1.00  0.00    -0.228 A  
HETATM   17  N   UNL     1     -11.459  14.915  66.019  1.00  0.00    -0.318 NA 
HETATM   18  N   UNL     1     -12.072  14.051  66.903  1.00  0.00    -0.439 NA 
HETATM   19  C   UNL     1     -11.882  14.517  68.117  1.00  0.00    -0.313 A  
HETATM   20  C   UNL     1     -12.341  13.958  69.415  1.00  0.00    -0.240 C  
HETATM   21  C   UNL     1     -12.208  14.986  70.547  1.00  0.00    -0.391 C  
HETATM   22  C   UNL     1     -10.855  15.697  70.490  1.00  0.00    -0.347 C  
HETATM   23  C   UNL     1     -10.704  16.449  69.168  1.00  0.00    -0.317 C  
HETATM   24  N   UNL     1     -11.126  15.650  68.039  1.00  0.00    -0.325 NA 
ENDBRANCH  15  16
ENDBRANCH  14  15
ENDBRANCH  11  14
ENDBRANCH   7   8
TORSDOF 4
ENDMDL
MODEL      276
REMARK 921   NORMALIZED FREE ENERGY PREDICTED BY IDOCK:   -2.67 KCAL/MOL
REMARK 922        TOTAL FREE ENERGY PREDICTED BY IDOCK:   -3.55 KCAL/MOL
REMARK 923 INTER-LIGAND FREE ENERGY PREDICTED BY IDOCK:   -4.38 KCAL/MOL
REMARK 924 INTRA-LIGAND FREE ENERGY PREDICTED BY IDOCK:    0.83 KCAL/MOL
REMARK 927      BINDING AFFINITY PREDICTED BY RF-SCORE:    0.00 PKD
ROOT
HETATM    1  C   UNL     1     -11.876  13.711  66.654  1.00  0.00    -0.447 C  
HETATM    2  C   UNL     1     -10.652  14.580  66.546  1.00  0.00    -0.297 A  
HETATM    3  C   UNL     1     -10.889  15.944  66.248  1.00  0.00    -0.200 A  
HETATM    4  C   UNL     1      -9.845  16.866  66.207  1.00  0.00    -0.320 A  
HETATM    5  C   UNL     1      -8.555  16.444  66.466  1.00  0.00    -0.329 A  
HETATM    6  C   UNL     1      -8.307  15.092  66.727  1.00  0.00    -0.225 A  
HETATM    7  C   UNL     1      -9.328  14.120  66.743  1.00  0.00    -0.282 A  
ENDROOT
BRANCH   7   8
HETATM    8  N   UNL     1      -8.959  12.788  66.871  1.00  0.00    -0.219 NA 
HETATM    9  C   UNL     1      -9.931  11.710  66.675  1.00  0.00    -0.203 C  
HETATM   10  C   UNL     1      -9.252  10.465  66.072  1.00  0.00    -0.167 C  
HETATM   11  N   UNL     1      -8.091   9.963  66.844  1.00  0.00    -0.112 NA 
HETATM   12  C   UNL     1      -7.688  12.409  67.524  1.00  0.00    -0.161 C  
HETATM   13  C   UNL     1      -7.124  11.086  66.936  1.00  0.00    -0.125 C  
BRANCH  11  14
HETATM   14  C   UNL     1      -8.452   9.476  68.197  1.00  0.00    -0.119 C  
BRANCH  14  15
HETATM   15  C   UNL     1      -8.212   7.971  68.351  1.00  0.00    -0.123 C  
BRANCH  15  16
HETATM   16  C   UNL     1      -7.955   7.265  67.072  1.00  0.00    -0.109 A  
HETATM   17  N   UNL     1      -7.048   7.511  66.150  1.00  0.00    -0.068 NA 
HETATM   18  N   UNL     1      -7.206   6.592  65.133  1.00  0.00    -0.067 NA 
HETATM   19  C   UNL     1      -8.207   5.803  65.455  1.00  0.00    -0.138 A  
HETATM   20  C   UNL     1      -8.776   4.659  64.698  1.00  0.00    -0.151 C  
HETATM   21  C   UNL     1     -10.142   4.240  65.259  1.00  0.00    -0.231 C  
HETATM   22  C   UNL     1     -10.113   4.169  66.786  1.00  0.00    -0.034 C  
HETATM   23  C   UNL     1      -9.777   5.539  67.376  1.00  0.00    -0.135 C  
HETATM   24  N   UNL     1      -8.679   6.173  66.681  1.00  0.00    -0.121 NA 
ENDBRANCH  15  16
ENDBRANCH  14  15
ENDBRANCH  11  14
ENDBRANCH   7   8
TORSDOF 4
ENDMDL
MODEL      277
REMARK 921   NORMALIZED FREE ENERGY PREDICTED BY IDOCK:   -2.59 KCAL/MOL
REMARK 922        TOTAL FREE ENERGY PREDICTED BY IDOCK:   -3.46 KCAL/MOL
REMARK 923 INTER-LIGAND FREE ENERGY PREDICTED BY IDOCK:   -3.67 KCAL/MOL
REMARK 924 INTRA-LIGAND FREE ENERGY PREDICTED BY IDOCK:    0.21 KCAL/MOL
REMARK 927      BINDING AFFINITY PREDICTED BY RF-SCORE:    0.00 PKD
ROOT
HETATM    1  C   UNL     1      -8.981  16.265  68.895  1.00  0.00    -0.248 C  
HETATM    2  C   UNL     1      -9.629  16.197  67.538  1.00  0.00    -0.229 A  
HETATM    3  C   UNL     1     -10.333  17.356  67.131  1.00  0.00    -0.325 A  
HETATM    4  C   UNL     1     -10.902  17.447  65.863  1.00  0.00     0.002 A  
HETATM    5  C   UNL     1     -10.773  16.390  64.982  1.00  0.00    -0.279 A  
HETATM    6  C   UNL     1     -10.109  15.228  65.387  1.00  0.00    -0.397 A  
HETATM    7  C   UNL     1      -9.550  15.078  66.673  1.00  0.00    -0.263 A  
ENDROOT
BRANCH   7   8
HETATM    8  N   UNL     1      -9.038  13.837  67.023  1.00  0.00    -0.238 NA 
HETATM    9  C   UNL     1      -7.756  13.714  67.719  1.00  0.00    -0.164 C  
HETATM   10  C   UNL     1      -7.766  12.504  68.673  1.00  0.00    -0.063 C  
HETATM   11  N   UNL     1      -8.116  11.216  68.030  1.00  0.00    -0.118 NA 
HETATM   12  C   UNL     1      -9.579  12.595  66.429  1.00  0.00    -0.248 C  
HETATM   13  C   UNL     1      -9.454  11.399  67.413  1.00  0.00    -0.167 C  
BRANCH  11  14
HETATM   14  C   UNL     1      -7.128  10.781  67.012  1.00  0.00    -0.104 C  
BRANCH  14  15
HETATM   15  C   UNL     1      -6.813   9.286  67.118  1.00  0.00    -0.084 C  
BRANCH  15  16
HETATM   16  C   UNL     1      -6.974   8.728  68.483  1.00  0.00    -0.065 A  
HETATM   17  N   UNL     1      -6.647   9.254  69.644  1.00  0.00    -0.042 NA 
HETATM   18  N   UNL     1      -6.980   8.353  70.635  1.00  0.00    -0.038 NA 
HETATM   19  C   UNL     1      -7.503   7.295  70.058  1.00  0.00    -0.085 A  
HETATM   20  C   UNL     1      -8.018   6.049  70.681  1.00  0.00    -0.111 C  
HETATM   21  C   UNL     1      -8.214   4.940  69.639  1.00  0.00    -0.080 C  
HETATM   22  C   UNL     1      -8.909   5.477  68.387  1.00  0.00    -0.107 C  
HETATM   23  C   UNL     1      -8.064   6.571  67.736  1.00  0.00    -0.115 C  
HETATM   24  N   UNL     1      -7.549   7.508  68.711  1.00  0.00    -0.104 NA 
ENDBRANCH  15  16
ENDBRANCH  14  15
ENDBRANCH  11  14
ENDBRANCH   7   8
TORSDOF 4
ENDMDL
MODEL      278
REMARK 921   NORMALIZED FREE ENERGY PREDICTED BY IDOCK:   -2.52 KCAL/MOL
REMARK 922        TOTAL FREE ENERGY PREDICTED BY IDOCK:   -3.36 KCAL/MOL
REMARK 923 INTER-LIGAND FREE ENERGY PREDICTED BY IDOCK:   -2.82 KCAL/MOL
REMARK 924 INTRA-LIGAND FREE ENERGY PREDICTED BY IDOCK:   -0.54 KCAL/MOL
REMARK 927      BINDING AFFINITY PREDICTED BY RF-SCORE:    0.00 PKD
ROOT
HETATM    1  C   UNL     1     -10.910   9.946  67.251  1.00  0.00    -0.268 C  
HETATM    2  C   UNL     1      -9.595  10.665  67.394  1.00  0.00    -0.180 A  
HETATM    3  C   UNL     1      -9.586  12.021  66.988  1.00  0.00    -0.200 A  
HETATM    4  C   UNL     1      -8.454  12.816  67.151  1.00  0.00    -0.181 A  
HETATM    5  C   UNL     1      -7.319  12.273  67.725  1.00  0.00    -0.118 A  
HETATM    6  C   UNL     1      -7.308  10.926  68.098  1.00  0.00    -0.089 A  
HETATM    7  C   UNL     1      -8.418  10.076  67.917  1.00  0.00    -0.118 A  
ENDROOT
BRANCH   7   8
HETATM    8  N   UNL     1      -8.258   8.724  68.188  1.00  0.00    -0.114 NA 
HETATM    9  C   UNL     1      -8.482   8.188  69.532  1.00  0.00    -0.127 C  
HETATM   10  C   UNL     1      -9.039   6.754  69.463  1.00  0.00    -0.141 C  
HETATM   11  N   UNL     1      -8.212   5.810  68.675  1.00  0.00    -0.104 NA 
HETATM   12  C   UNL     1      -7.545   7.837  67.243  1.00  0.00    -0.104 C  
HETATM   13  C   UNL     1      -8.093   6.385  67.312  1.00  0.00    -0.113 C  
BRANCH  11  14
HETATM   14  C   UNL     1      -6.870   5.576  69.261  1.00  0.00    -0.061 C  
BRANCH  14  15
HETATM   15  C   UNL     1      -6.705   4.142  69.770  1.00  0.00    -0.034 C  
BRANCH  15  16
HETATM   16  C   UNL     1      -7.826   3.667  70.617  1.00  0.00    -0.053 A  
HETATM   17  N   UNL     1      -8.777   2.801  70.335  1.00  0.00    -0.064 NA 
HETATM   18  N   UNL     1      -9.601   2.692  71.436  1.00  0.00    -0.146 NA 
HETATM   19  C   UNL     1      -9.136   3.494  72.368  1.00  0.00    -0.097 A  
HETATM   20  C   UNL     1      -9.663   3.743  73.735  1.00  0.00    -0.141 C  
HETATM   21  C   UNL     1      -9.034   4.996  74.358  1.00  0.00    -0.111 C  
HETATM   22  C   UNL     1      -7.521   5.022  74.138  1.00  0.00    -0.086 C  
HETATM   23  C   UNL     1      -7.201   5.045  72.643  1.00  0.00    -0.088 C  
HETATM   24  N   UNL     1      -8.003   4.095  71.903  1.00  0.00    -0.082 NA 
ENDBRANCH  15  16
ENDBRANCH  14  15
ENDBRANCH  11  14
ENDBRANCH   7   8
TORSDOF 4
ENDMDL
MODEL      279
REMARK 921   NORMALIZED FREE ENERGY PREDICTED BY IDOCK:   -2.41 KCAL/MOL
REMARK 922        TOTAL FREE ENERGY PREDICTED BY IDOCK:   -3.23 KCAL/MOL
REMARK 923 INTER-LIGAND FREE ENERGY PREDICTED BY IDOCK:   -3.78 KCAL/MOL
REMARK 924 INTRA-LIGAND FREE ENERGY PREDICTED BY IDOCK:    0.55 KCAL/MOL
REMARK 927      BINDING AFFINITY PREDICTED BY RF-SCORE:    0.00 PKD
ROOT
HETATM    1  C   UNL     1      -9.273   9.134  70.447  1.00  0.00    -0.271 C  
HETATM    2  C   UNL     1     -10.628   9.397  71.048  1.00  0.00    -0.400 A  
HETATM    3  C   UNL     1     -11.011   8.538  72.106  1.00  0.00    -0.427 A  
HETATM    4  C   UNL     1     -12.202   8.734  72.800  1.00  0.00    -0.056 A  
HETATM    5  C   UNL     1     -13.025   9.790  72.453  1.00  0.00    -0.312 A  
HETATM    6  C   UNL     1     -12.671  10.623  71.388  1.00  0.00    -0.545 A  
HETATM    7  C   UNL     1     -11.493  10.439  70.635  1.00  0.00    -0.349 A  
ENDROOT
BRANCH   7   8
HETATM    8  N   UNL     1     -11.305  11.231  69.511  1.00  0.00    -0.273 NA 
HETATM    9  C   UNL     1     -10.045  11.941  69.286  1.00  0.00     0.303 C  
HETATM   10  C   UNL     1      -9.736  12.042  67.780  1.00  0.00    -0.192 C  
HETATM   11  N   UNL     1     -10.814  12.659  66.971  1.00  0.00    -0.249 NA 
HETATM   12  C   UNL     1     -12.452  11.658  68.680  1.00  0.00     0.629 C  
HETATM   13  C   UNL     1     -12.033  11.842  67.195  1.00  0.00     0.032 C  
BRANCH  11  14
HETATM   14  C   UNL     1     -11.067  14.079  67.315  1.00  0.00    -0.302 C  
BRANCH  14  15
HETATM   15  C   UNL     1     -10.082  14.601  68.365  1.00  0.00    -0.237 C  
BRANCH  15  16
HETATM   16  C   UNL     1      -9.029  15.491  67.817  1.00  0.00    -0.173 A  
HETATM   17  N   UNL     1      -9.008  16.160  66.684  1.00  0.00    -0.230 NA 
HETATM   18  N   UNL     1      -7.809  16.839  66.606  1.00  0.00    -0.241 NA 
HETATM   19  C   UNL     1      -7.123  16.571  67.695  1.00  0.00    -0.133 A  
HETATM   20  C   UNL     1      -5.775  17.051  68.092  1.00  0.00    -0.120 C  
HETATM   21  C   UNL     1      -5.208  16.230  69.258  1.00  0.00    -0.112 C  
HETATM   22  C   UNL     1      -6.262  16.015  70.345  1.00  0.00     0.130 C  
HETATM   23  C   UNL     1      -7.458  15.247  69.783  1.00  0.00    -0.122 C  
HETATM   24  N   UNL     1      -7.872  15.757  68.494  1.00  0.00    -0.133 NA 
ENDBRANCH  15  16
ENDBRANCH  14  15
ENDBRANCH  11  14
ENDBRANCH   7   8
TORSDOF 4
ENDMDL
MODEL      280
REMARK 921   NORMALIZED FREE ENERGY PREDICTED BY IDOCK:   -2.29 KCAL/MOL
REMARK 922        TOTAL FREE ENERGY PREDICTED BY IDOCK:   -3.09 KCAL/MOL
REMARK 923 INTER-LIGAND FREE ENERGY PREDICTED BY IDOCK:   -2.50 KCAL/MOL
REMARK 924 INTRA-LIGAND FREE ENERGY PREDICTED BY IDOCK:   -0.59 KCAL/MOL
REMARK 927      BINDING AFFINITY PREDICTED BY RF-SCORE:    0.00 PKD
ROOT
HETATM    1  C   UNL     1     -11.014  14.960  69.262  1.00  0.00    -0.279 C  
HETATM    2  C   UNL     1     -10.907  13.518  68.847  1.00  0.00    -0.255 A  
HETATM    3  C   UNL     1     -12.117  12.783  68.849  1.00  0.00    -0.175 A  
HETATM    4  C   UNL     1     -12.162  11.464  68.403  1.00  0.00     0.099 A  
HETATM    5  C   UNL     1     -11.006  10.862  67.944  1.00  0.00    -0.325 A  
HETATM    6  C   UNL     1      -9.799  11.569  67.968  1.00  0.00    -0.192 A  
HETATM    7  C   UNL     1      -9.702  12.892  68.446  1.00  0.00    -0.186 A  
ENDROOT
BRANCH   7   8
HETATM    8  N   UNL     1      -8.437  13.453  68.561  1.00  0.00    -0.125 NA 
HETATM    9  C   UNL     1      -7.687  13.382  69.816  1.00  0.00     1.140 C  
HETATM   10  C   UNL     1      -6.174  13.291  69.544  1.00  0.00    -0.115 C  
HETATM   11  N   UNL     1      -5.634  14.380  68.696  1.00  0.00    -0.088 NA 
HETATM   12  C   UNL     1      -7.938  14.418  67.557  1.00  0.00    -0.192 C  
HETATM   13  C   UNL     1      -6.393  14.340  67.420  1.00  0.00     0.169 C  
BRANCH  11  14
HETATM   14  C   UNL     1      -5.741  15.720  69.323  1.00  0.00    -0.111 C  
BRANCH  14  15
HETATM   15  C   UNL     1      -5.291  16.836  68.377  1.00  0.00    -0.118 C  
BRANCH  15  16
HETATM   16  C   UNL     1      -6.290  17.918  68.197  1.00  0.00    -0.184 A  
HETATM   17  N   UNL     1      -7.348  18.206  68.925  1.00  0.00    -0.268 NA 
HETATM   18  N   UNL     1      -7.980  19.293  68.357  1.00  0.00    -0.328 NA 
HETATM   19  C   UNL     1      -7.293  19.646  67.293  1.00  0.00    -0.229 A  
HETATM   20  C   UNL     1      -7.555  20.752  66.336  1.00  0.00    -0.004 C  
HETATM   21  C   UNL     1      -6.720  20.598  65.058  1.00  0.00    -0.224 C  
HETATM   22  C   UNL     1      -5.271  20.238  65.387  1.00  0.00    -0.191 C  
HETATM   23  C   UNL     1      -5.209  18.908  66.137  1.00  0.00    -0.144 C  
HETATM   24  N   UNL     1      -6.207  18.829  67.181  1.00  0.00    -0.178 NA 
ENDBRANCH  15  16
ENDBRANCH  14  15
ENDBRANCH  11  14
ENDBRANCH   7   8
TORSDOF 4
ENDMDL
MODEL      281
REMARK 921   NORMALIZED FREE ENERGY PREDICTED BY IDOCK:   -2.20 KCAL/MOL
REMARK 922        TOTAL FREE ENERGY PREDICTED BY IDOCK:   -2.97 KCAL/MOL
REMARK 923 INTER-LIGAND FREE ENERGY PREDICTED BY IDOCK:   -4.68 KCAL/MOL
REMARK 924 INTRA-LIGAND FREE ENERGY PREDICTED BY IDOCK:    1.70 KCAL/MOL
REMARK 927      BINDING AFFINITY PREDICTED BY RF-SCORE:    0.00 PKD
ROOT
HETATM    1  C   UNL     1     -10.516  17.225  66.994  1.00  0.00    -0.287 C  
HETATM    2  C   UNL     1      -9.244  17.172  67.797  1.00  0.00    -0.241 A  
HETATM    3  C   UNL     1      -8.587  18.410  67.995  1.00  0.00    -0.287 A  
HETATM    4  C   UNL     1      -7.449  18.504  68.792  1.00  0.00    -0.309 A  
HETATM    5  C   UNL     1      -6.954  17.370  69.407  1.00  0.00    -0.108 A  
HETATM    6  C   UNL     1      -7.576  16.136  69.191  1.00  0.00    -0.230 A  
HETATM    7  C   UNL     1      -8.708  15.989  68.362  1.00  0.00    -0.186 A  
ENDROOT
BRANCH   7   8
HETATM    8  N   UNL     1      -9.163  14.705  68.100  1.00  0.00    -0.186 NA 
HETATM    9  C   UNL     1      -8.232  13.618  67.791  1.00  0.00    -0.179 C  
HETATM   10  C   UNL     1      -8.766  12.274  68.322  1.00  0.00    -0.178 C  
HETATM   11  N   UNL     1     -10.126  11.922  67.848  1.00  0.00    -0.187 NA 
HETATM   12  C   UNL     1     -10.587  14.450  67.793  1.00  0.00    -0.246 C  
HETATM   13  C   UNL     1     -11.020  13.033  68.262  1.00  0.00    -0.260 C  
BRANCH  11  14
HETATM   14  C   UNL     1     -10.201  11.711  66.383  1.00  0.00    -0.221 C  
BRANCH  14  15
HETATM   15  C   UNL     1      -9.029  10.875  65.860  1.00  0.00    -0.206 C  
BRANCH  15  16
HETATM   16  C   UNL     1      -8.496   9.899  66.843  1.00  0.00    -0.125 A  
HETATM   17  N   UNL     1      -7.405   9.964  67.576  1.00  0.00    -0.090 NA 
HETATM   18  N   UNL     1      -7.323   8.812  68.331  1.00  0.00    -0.085 NA 
HETATM   19  C   UNL     1      -8.367   8.067  68.042  1.00  0.00    -0.126 A  
HETATM   20  C   UNL     1      -8.741   6.734  68.580  1.00  0.00    -0.125 C  
HETATM   21  C   UNL     1      -9.833   6.072  67.729  1.00  0.00    -0.129 C  
HETATM   22  C   UNL     1     -10.944   7.065  67.388  1.00  0.00    -0.336 C  
HETATM   23  C   UNL     1     -10.383   8.236  66.582  1.00  0.00    -0.223 C  
HETATM   24  N   UNL     1      -9.144   8.732  67.139  1.00  0.00    -0.130 NA 
ENDBRANCH  15  16
ENDBRANCH  14  15
ENDBRANCH  11  14
ENDBRANCH   7   8
TORSDOF 4
ENDMDL
MODEL      282
REMARK 921   NORMALIZED FREE ENERGY PREDICTED BY IDOCK:   -2.03 KCAL/MOL
REMARK 922        TOTAL FREE ENERGY PREDICTED BY IDOCK:   -2.77 KCAL/MOL
REMARK 923 INTER-LIGAND FREE ENERGY PREDICTED BY IDOCK:   -2.32 KCAL/MOL
REMARK 924 INTRA-LIGAND FREE ENERGY PREDICTED BY IDOCK:   -0.45 KCAL/MOL
REMARK 927      BINDING AFFINITY PREDICTED BY RF-SCORE:    0.00 PKD
ROOT
HETATM    1  C   UNL     1      -8.447   5.011  64.045  1.00  0.00    -0.135 C  
HETATM    2  C   UNL     1      -9.416   3.871  63.886  1.00  0.00    -0.155 A  
HETATM    3  C   UNL     1     -10.152   3.851  62.676  1.00  0.00    -0.173 A  
HETATM    4  C   UNL     1     -11.016   2.802  62.374  1.00  0.00    -0.157 A  
HETATM    5  C   UNL     1     -11.155   1.757  63.268  1.00  0.00    -0.209 A  
HETATM    6  C   UNL     1     -10.458   1.784  64.480  1.00  0.00     0.606 A  
HETATM    7  C   UNL     1      -9.601   2.844  64.842  1.00  0.00    -0.078 A  
ENDROOT
BRANCH   7   8
HETATM    8  N   UNL     1      -9.068   2.845  66.124  1.00  0.00    -0.145 NA 
HETATM    9  C   UNL     1      -9.310   3.957  67.045  1.00  0.00    -0.190 C  
HETATM   10  C   UNL     1      -9.374   3.457  68.500  1.00  0.00    -0.168 C  
HETATM   11  N   UNL     1      -8.186   2.687  68.940  1.00  0.00    -0.054 NA 
HETATM   12  C   UNL     1      -7.983   1.913  66.498  1.00  0.00    -0.076 C  
HETATM   13  C   UNL     1      -8.052   1.542  68.005  1.00  0.00    -0.058 C  
BRANCH  11  14
HETATM   14  C   UNL     1      -6.940   3.491  68.959  1.00  0.00    -0.046 C  
BRANCH  14  15
HETATM   15  C   UNL     1      -6.560   3.931  70.376  1.00  0.00    -0.032 C  
BRANCH  15  16
HETATM   16  C   UNL     1      -7.274   5.143  70.846  1.00  0.00    -0.064 A  
HETATM   17  N   UNL     1      -7.052   6.407  70.557  1.00  0.00    -0.064 NA 
HETATM   18  N   UNL     1      -7.968   7.175  71.247  1.00  0.00    -0.101 NA 
HETATM   19  C   UNL     1      -8.732   6.362  71.943  1.00  0.00    -0.134 A  
HETATM   20  C   UNL     1      -9.863   6.689  72.848  1.00  0.00    -0.179 C  
HETATM   21  C   UNL     1     -10.248   5.486  73.720  1.00  0.00    -0.246 C  
HETATM   22  C   UNL     1     -10.317   4.203  72.891  1.00  0.00    -0.241 C  
HETATM   23  C   UNL     1      -8.955   3.898  72.267  1.00  0.00    -0.109 C  
HETATM   24  N   UNL     1      -8.349   5.077  71.689  1.00  0.00    -0.114 NA 
ENDBRANCH  15  16
ENDBRANCH  14  15
ENDBRANCH  11  14
ENDBRANCH   7   8
TORSDOF 4
ENDMDL
MODEL      283
REMARK 921   NORMALIZED FREE ENERGY PREDICTED BY IDOCK:   -1.99 KCAL/MOL
REMARK 922        TOTAL FREE ENERGY PREDICTED BY IDOCK:   -2.71 KCAL/MOL
REMARK 923 INTER-LIGAND FREE ENERGY PREDICTED BY IDOCK:   -2.37 KCAL/MOL
REMARK 924 INTRA-LIGAND FREE ENERGY PREDICTED BY IDOCK:   -0.34 KCAL/MOL
REMARK 927      BINDING AFFINITY PREDICTED BY RF-SCORE:    0.00 PKD
ROOT
HETATM    1  C   UNL     1      -6.175   9.125  67.670  1.00  0.00    -0.058 C  
HETATM    2  C   UNL     1      -6.352   8.785  69.125  1.00  0.00    -0.043 A  
HETATM    3  C   UNL     1      -5.292   9.169  69.982  1.00  0.00    -0.028 A  
HETATM    4  C   UNL     1      -5.377   8.987  71.361  1.00  0.00    -0.043 A  
HETATM    5  C   UNL     1      -6.517   8.426  71.904  1.00  0.00    -0.067 A  
HETATM    6  C   UNL     1      -7.555   8.013  71.063  1.00  0.00    -0.083 A  
HETATM    7  C   UNL     1      -7.496   8.145  69.660  1.00  0.00    -0.086 A  
ENDROOT
BRANCH   7   8
HETATM    8  N   UNL     1      -8.514   7.575  68.907  1.00  0.00    -0.129 NA 
HETATM    9  C   UNL     1      -8.641   6.123  68.778  1.00  0.00    -0.120 C  
HETATM   10  C   UNL     1     -10.121   5.712  68.658  1.00  0.00    -0.183 C  
HETATM   11  N   UNL     1     -10.857   6.381  67.559  1.00  0.00    -0.316 NA 
HETATM   12  C   UNL     1      -9.296   8.386  67.948  1.00  0.00    -0.135 C  
HETATM   13  C   UNL     1     -10.744   7.842  67.801  1.00  0.00    -0.127 C  
BRANCH  11  14
HETATM   14  C   UNL     1     -10.344   6.035  66.212  1.00  0.00     0.026 C  
BRANCH  14  15
HETATM   15  C   UNL     1     -10.619   4.573  65.849  1.00  0.00    -0.194 C  
BRANCH  15  16
HETATM   16  C   UNL     1      -9.401   3.730  65.767  1.00  0.00    -0.164 A  
HETATM   17  N   UNL     1      -8.960   2.815  66.604  1.00  0.00    -0.148 NA 
HETATM   18  N   UNL     1      -7.777   2.308  66.107  1.00  0.00    -0.074 NA 
HETATM   19  C   UNL     1      -7.519   2.926  64.976  1.00  0.00    -0.075 A  
HETATM   20  C   UNL     1      -6.367   2.747  64.055  1.00  0.00    -0.022 C  
HETATM   21  C   UNL     1      -6.274   3.897  63.043  1.00  0.00    -0.018 C  
HETATM   22  C   UNL     1      -7.645   4.223  62.451  1.00  0.00    -0.051 C  
HETATM   23  C   UNL     1      -8.611   4.660  63.552  1.00  0.00    -0.131 C  
HETATM   24  N   UNL     1      -8.534   3.799  64.712  1.00  0.00    -0.103 NA 
ENDBRANCH  15  16
ENDBRANCH  14  15
ENDBRANCH  11  14
ENDBRANCH   7   8
TORSDOF 4
ENDMDL
MODEL      284
REMARK 921   NORMALIZED FREE ENERGY PREDICTED BY IDOCK:   -1.62 KCAL/MOL
REMARK 922        TOTAL FREE ENERGY PREDICTED BY IDOCK:   -2.26 KCAL/MOL
REMARK 923 INTER-LIGAND FREE ENERGY PREDICTED BY IDOCK:   -3.10 KCAL/MOL
REMARK 924 INTRA-LIGAND FREE ENERGY PREDICTED BY IDOCK:    0.84 KCAL/MOL
REMARK 927      BINDING AFFINITY PREDICTED BY RF-SCORE:    0.00 PKD
ROOT
HETATM    1  C   UNL     1      -8.124  18.621  69.398  1.00  0.00     0.255 C  
HETATM    2  C   UNL     1      -7.783  18.358  67.955  1.00  0.00    -0.273 A  
HETATM    3  C   UNL     1      -7.177  19.432  67.259  1.00  0.00    -0.231 A  
HETATM    4  C   UNL     1      -6.738  19.284  65.946  1.00  0.00    -0.273 A  
HETATM    5  C   UNL     1      -6.891  18.066  65.310  1.00  0.00     0.309 A  
HETATM    6  C   UNL     1      -7.519  17.010  65.978  1.00  0.00    -0.115 A  
HETATM    7  C   UNL     1      -8.012  17.127  67.294  1.00  0.00    -0.179 A  
ENDROOT
BRANCH   7   8
HETATM    8  N   UNL     1      -8.744  16.069  67.814  1.00  0.00    -0.167 NA 
HETATM    9  C   UNL     1      -8.159  15.152  68.794  1.00  0.00    -0.166 C  
HETATM   10  C   UNL     1      -9.232  14.647  69.778  1.00  0.00     0.456 C  
HETATM   11  N   UNL     1     -10.408  14.015  69.135  1.00  0.00    -0.118 NA 
HETATM   12  C   UNL     1     -10.000  15.623  67.173  1.00  0.00    -0.240 C  
HETATM   13  C   UNL     1     -10.985  15.028  68.216  1.00  0.00    -0.271 C  
BRANCH  11  14
HETATM   14  C   UNL     1     -10.076  12.772  68.398  1.00  0.00    -0.226 C  
BRANCH  14  15
HETATM   15  C   UNL     1     -10.824  12.675  67.066  1.00  0.00    -0.282 C  
BRANCH  15  16
HETATM   16  C   UNL     1     -10.240  11.699  66.113  1.00  0.00    -0.226 A  
HETATM   17  N   UNL     1     -10.366  11.632  64.805  1.00  0.00    -0.267 NA 
HETATM   18  N   UNL     1      -9.647  10.542  64.358  1.00  0.00    -0.272 NA 
HETATM   19  C   UNL     1      -9.098   9.965  65.403  1.00  0.00    -0.196 A  
HETATM   20  C   UNL     1      -8.233   8.759  65.459  1.00  0.00    -0.133 C  
HETATM   21  C   UNL     1      -8.099   8.231  66.893  1.00  0.00    -0.103 C  
HETATM   22  C   UNL     1      -7.836   9.370  67.878  1.00  0.00    -0.091 C  
HETATM   23  C   UNL     1      -8.996  10.365  67.864  1.00  0.00    -0.128 C  
HETATM   24  N   UNL     1      -9.419  10.684  66.518  1.00  0.00    -0.166 NA 
ENDBRANCH  15  16
ENDBRANCH  14  15
ENDBRANCH  11  14
ENDBRANCH   7   8
TORSDOF 4
ENDMDL
MODEL      285
REMARK 921   NORMALIZED FREE ENERGY PREDICTED BY IDOCK:   -1.55 KCAL/MOL
REMARK 922        TOTAL FREE ENERGY PREDICTED BY IDOCK:   -2.17 KCAL/MOL
REMARK 923 INTER-LIGAND FREE ENERGY PREDICTED BY IDOCK:   -3.65 KCAL/MOL
REMARK 924 INTRA-LIGAND FREE ENERGY PREDICTED BY IDOCK:    1.48 KCAL/MOL
REMARK 927      BINDING AFFINITY PREDICTED BY RF-SCORE:    0.00 PKD
ROOT
HETATM    1  C   UNL     1      -9.147   9.141  70.444  1.00  0.00    -0.270 C  
HETATM    2  C   UNL     1     -10.623   9.089  70.730  1.00  0.00    -0.300 A  
HETATM    3  C   UNL     1     -11.064   7.983  71.497  1.00  0.00    -0.290 A  
HETATM    4  C   UNL     1     -12.392   7.868  71.901  1.00  0.00    -0.350 A  
HETATM    5  C   UNL     1     -13.297   8.853  71.551  1.00  0.00    -0.374 A  
HETATM    6  C   UNL     1     -12.878   9.932  70.765  1.00  0.00    -0.290 A  
HETATM    7  C   UNL     1     -11.552  10.069  70.305  1.00  0.00    -0.280 A  
ENDROOT
BRANCH   7   8
HETATM    8  N   UNL     1     -11.273  11.097  69.415  1.00  0.00    -0.249 NA 
HETATM    9  C   UNL     1     -10.384  12.200  69.786  1.00  0.00     1.063 C  
HETATM   10  C   UNL     1      -9.601  12.707  68.560  1.00  0.00    -0.109 C  
HETATM   11  N   UNL     1     -10.448  13.107  67.411  1.00  0.00    -0.241 NA 
HETATM   12  C   UNL     1     -12.099  11.304  68.206  1.00  0.00     0.012 C  
HETATM   13  C   UNL     1     -11.262  11.918  67.050  1.00  0.00    -0.323 C  
BRANCH  11  14
HETATM   14  C   UNL     1     -11.323  14.268  67.703  1.00  0.00    -0.324 C  
BRANCH  14  15
HETATM   15  C   UNL     1     -11.029  14.881  69.075  1.00  0.00    -0.251 C  
BRANCH  15  16
HETATM   16  C   UNL     1     -10.561  16.287  69.022  1.00  0.00    -0.286 A  
HETATM   17  N   UNL     1     -10.280  17.111  70.009  1.00  0.00     0.284 NA 
HETATM   18  N   UNL     1      -9.894  18.320  69.465  1.00  0.00     0.124 NA 
HETATM   19  C   UNL     1      -9.948  18.208  68.157  1.00  0.00    -0.359 A  
HETATM   20  C   UNL     1      -9.634  19.223  67.118  1.00  0.00    -0.397 C  
HETATM   21  C   UNL     1     -10.159  18.797  65.741  1.00  0.00    -0.062 C  
HETATM   22  C   UNL     1      -9.835  17.330  65.457  1.00  0.00     0.225 C  
HETATM   23  C   UNL     1     -10.496  16.427  66.498  1.00  0.00    -0.282 C  
HETATM   24  N   UNL     1     -10.328  16.936  67.841  1.00  0.00    -0.318 NA 
ENDBRANCH  15  16
ENDBRANCH  14  15
ENDBRANCH  11  14
ENDBRANCH   7   8
TORSDOF 4
ENDMDL
MODEL      286
REMARK 921   NORMALIZED FREE ENERGY PREDICTED BY IDOCK:   -1.49 KCAL/MOL
REMARK 922        TOTAL FREE ENERGY PREDICTED BY IDOCK:   -2.09 KCAL/MOL
REMARK 923 INTER-LIGAND FREE ENERGY PREDICTED BY IDOCK:   -2.54 KCAL/MOL
REMARK 924 INTRA-LIGAND FREE ENERGY PREDICTED BY IDOCK:    0.44 KCAL/MOL
REMARK 927      BINDING AFFINITY PREDICTED BY RF-SCORE:    0.00 PKD
ROOT
HETATM    1  C   UNL     1      -9.286   9.142  70.474  1.00  0.00    -0.287 C  
HETATM    2  C   UNL     1     -10.652   9.212  71.102  1.00  0.00    -0.379 A  
HETATM    3  C   UNL     1     -10.950   8.198  72.045  1.00  0.00    -0.350 A  
HETATM    4  C   UNL     1     -12.147   8.203  72.757  1.00  0.00    -0.208 A  
HETATM    5  C   UNL     1     -13.060   9.219  72.545  1.00  0.00    -0.416 A  
HETATM    6  C   UNL     1     -12.789  10.206  71.592  1.00  0.00    -0.559 A  
HETATM    7  C   UNL     1     -11.607  10.219  70.823  1.00  0.00    -0.355 A  
ENDROOT
BRANCH   7   8
HETATM    8  N   UNL     1     -11.499  11.158  69.807  1.00  0.00    -0.289 NA 
HETATM    9  C   UNL     1     -11.318  10.750  68.412  1.00  0.00    -0.302 C  
HETATM   10  C   UNL     1     -12.004  11.746  67.458  1.00  0.00    -0.002 C  
HETATM   11  N   UNL     1     -11.578  13.155  67.629  1.00  0.00    -0.327 NA 
HETATM   12  C   UNL     1     -11.227  12.580  70.110  1.00  0.00     0.454 C  
HETATM   13  C   UNL     1     -11.860  13.515  69.042  1.00  0.00    -0.343 C  
BRANCH  11  14
HETATM   14  C   UNL     1     -10.148  13.378  67.310  1.00  0.00    -0.238 C  
BRANCH  14  15
HETATM   15  C   UNL     1      -9.441  12.085  66.897  1.00  0.00    -0.206 C  
BRANCH  15  16
HETATM   16  C   UNL     1      -9.169  11.981  65.443  1.00  0.00     0.107 A  
HETATM   17  N   UNL     1      -9.172  12.924  64.524  1.00  0.00     0.820 NA 
HETATM   18  N   UNL     1      -8.872  12.342  63.308  1.00  0.00     1.015 NA 
HETATM   19  C   UNL     1      -8.692  11.056  63.511  1.00  0.00     0.015 A  
HETATM   20  C   UNL     1      -8.354   9.993  62.530  1.00  0.00    -0.164 C  
HETATM   21  C   UNL     1      -8.579   8.594  63.118  1.00  0.00    -0.035 C  
HETATM   22  C   UNL     1      -8.013   8.494  64.535  1.00  0.00    -0.145 C  
HETATM   23  C   UNL     1      -8.706   9.495  65.458  1.00  0.00    -0.154 C  
HETATM   24  N   UNL     1      -8.835  10.798  64.843  1.00  0.00    -0.187 NA 
ENDBRANCH  15  16
ENDBRANCH  14  15
ENDBRANCH  11  14
ENDBRANCH   7   8
TORSDOF 4
ENDMDL
MODEL      287
REMARK 921   NORMALIZED FREE ENERGY PREDICTED BY IDOCK:   -0.87 KCAL/MOL
REMARK 922        TOTAL FREE ENERGY PREDICTED BY IDOCK:   -1.33 KCAL/MOL
REMARK 923 INTER-LIGAND FREE ENERGY PREDICTED BY IDOCK:   -3.81 KCAL/MOL
REMARK 924 INTRA-LIGAND FREE ENERGY PREDICTED BY IDOCK:    2.48 KCAL/MOL
REMARK 927      BINDING AFFINITY PREDICTED BY RF-SCORE:    0.00 PKD
ROOT
HETATM    1  C   UNL     1      -9.522   7.728  69.149  1.00  0.00    -0.151 C  
HETATM    2  C   UNL     1      -8.088   8.081  68.861  1.00  0.00    -0.124 A  
HETATM    3  C   UNL     1      -7.122   7.470  69.697  1.00  0.00    -0.064 A  
HETATM    4  C   UNL     1      -5.759   7.650  69.477  1.00  0.00    -0.023 A  
HETATM    5  C   UNL     1      -5.339   8.435  68.419  1.00  0.00    -0.034 A  
HETATM    6  C   UNL     1      -6.285   9.069  67.608  1.00  0.00    -0.055 A  
HETATM    7  C   UNL     1      -7.674   8.944  67.817  1.00  0.00    -0.101 A  
ENDROOT
BRANCH   7   8
HETATM    8  N   UNL     1      -8.524   9.725  67.047  1.00  0.00    -0.117 NA 
HETATM    9  C   UNL     1      -8.000  10.673  66.063  1.00  0.00    -0.159 C  
HETATM   10  C   UNL     1      -8.951  10.792  64.857  1.00  0.00    -0.184 C  
HETATM   11  N   UNL     1     -10.346  11.150  65.207  1.00  0.00    -0.268 NA 
HETATM   12  C   UNL     1      -9.950   9.882  67.408  1.00  0.00    -0.189 C  
HETATM   13  C   UNL     1     -10.829  10.106  66.147  1.00  0.00     0.167 C  
BRANCH  11  14
HETATM   14  C   UNL     1     -10.471  12.496  65.816  1.00  0.00    -0.271 C  
BRANCH  14  15
HETATM   15  C   UNL     1     -10.503  12.437  67.345  1.00  0.00    -0.229 C  
BRANCH  15  16
HETATM   16  C   UNL     1     -10.452  13.765  68.004  1.00  0.00    -0.244 A  
HETATM   17  N   UNL     1     -10.908  14.129  69.184  1.00  0.00    -0.248 NA 
HETATM   18  N   UNL     1     -10.639  15.472  69.355  1.00  0.00    -0.232 NA 
HETATM   19  C   UNL     1     -10.024  15.899  68.275  1.00  0.00    -0.222 A  
HETATM   20  C   UNL     1      -9.525  17.263  67.961  1.00  0.00    -0.271 C  
HETATM   21  C   UNL     1      -9.189  17.408  66.471  1.00  0.00    -0.286 C  
HETATM   22  C   UNL     1      -8.398  16.202  65.964  1.00  0.00    -0.050 C  
HETATM   23  C   UNL     1      -9.217  14.922  66.125  1.00  0.00    -0.233 C  
HETATM   24  N   UNL     1      -9.857  14.848  67.421  1.00  0.00    -0.221 NA 
ENDBRANCH  15  16
ENDBRANCH  14  15
ENDBRANCH  11  14
ENDBRANCH   7   8
TORSDOF 4
ENDMDL
MODEL      288
REMARK 921   NORMALIZED FREE ENERGY PREDICTED BY IDOCK:   -0.65 KCAL/MOL
REMARK 922        TOTAL FREE ENERGY PREDICTED BY IDOCK:   -1.07 KCAL/MOL
REMARK 923 INTER-LIGAND FREE ENERGY PREDICTED BY IDOCK:   -1.07 KCAL/MOL
REMARK 924 INTRA-LIGAND FREE ENERGY PREDICTED BY IDOCK:    0.01 KCAL/MOL
REMARK 927      BINDING AFFINITY PREDICTED BY RF-SCORE:    0.00 PKD
ROOT
HETATM    1  C   UNL     1     -11.198  12.219  70.906  1.00  0.00     2.042 C  
HETATM    2  C   UNL     1     -11.096  11.798  69.465  1.00  0.00    -0.199 A  
HETATM    3  C   UNL     1     -11.608  12.716  68.516  1.00  0.00    -0.363 A  
HETATM    4  C   UNL     1     -11.494  12.479  67.148  1.00  0.00    -0.414 A  
HETATM    5  C   UNL     1     -10.865  11.330  66.707  1.00  0.00    -0.334 A  
HETATM    6  C   UNL     1     -10.386  10.401  67.637  1.00  0.00    -0.260 A  
HETATM    7  C   UNL     1     -10.513  10.583  69.030  1.00  0.00    -0.217 A  
ENDROOT
BRANCH   7   8
HETATM    8  N   UNL     1     -10.133   9.540  69.862  1.00  0.00    -0.216 NA 
HETATM    9  C   UNL     1     -10.642   8.182  69.657  1.00  0.00    -0.223 C  
HETATM   10  C   UNL     1      -9.587   7.136  70.064  1.00  0.00    -0.164 C  
HETATM   11  N   UNL     1      -9.079   7.280  71.449  1.00  0.00    -0.142 NA 
HETATM   12  C   UNL     1      -9.483   9.803  71.165  1.00  0.00     0.552 C  
HETATM   13  C   UNL     1      -8.517   8.650  71.555  1.00  0.00    -0.181 C  
BRANCH  11  14
HETATM   14  C   UNL     1     -10.122   7.064  72.481  1.00  0.00    -0.177 C  
BRANCH  14  15
HETATM   15  C   UNL     1     -10.367   5.577  72.751  1.00  0.00    -0.230 C  
BRANCH  15  16
HETATM   16  C   UNL     1      -9.135   4.750  72.747  1.00  0.00    -0.122 A  
HETATM   17  N   UNL     1      -8.046   4.872  73.477  1.00  0.00    -0.106 NA 
HETATM   18  N   UNL     1      -7.166   3.875  73.107  1.00  0.00    -0.061 NA 
HETATM   19  C   UNL     1      -7.736   3.166  72.159  1.00  0.00    -0.054 A  
HETATM   20  C   UNL     1      -7.207   1.987  71.426  1.00  0.00    -0.032 C  
HETATM   21  C   UNL     1      -8.042   1.682  70.175  1.00  0.00    -0.055 C  
HETATM   22  C   UNL     1      -9.538   1.745  70.483  1.00  0.00    -0.128 C  
HETATM   23  C   UNL     1      -9.925   3.144  70.961  1.00  0.00     0.112 C  
HETATM   24  N   UNL     1      -8.987   3.663  71.932  1.00  0.00    -0.102 NA 
ENDBRANCH  15  16
ENDBRANCH  14  15
ENDBRANCH  11  14
ENDBRANCH   7   8
TORSDOF 4
ENDMDL
MODEL      289
REMARK 921   NORMALIZED FREE ENERGY PREDICTED BY IDOCK:   -0.57 KCAL/MOL
REMARK 922        TOTAL FREE ENERGY PREDICTED BY IDOCK:   -0.96 KCAL/MOL
REMARK 923 INTER-LIGAND FREE ENERGY PREDICTED BY IDOCK:   -1.62 KCAL/MOL
REMARK 924 INTRA-LIGAND FREE ENERGY PREDICTED BY IDOCK:    0.66 KCAL/MOL
REMARK 927      BINDING AFFINITY PREDICTED BY RF-SCORE:    0.00 PKD
ROOT
HETATM    1  C   UNL     1      -5.818   9.424  67.617  1.00  0.00    -0.045 C  
HETATM    2  C   UNL     1      -6.185   9.026  69.021  1.00  0.00    -0.043 A  
HETATM    3  C   UNL     1      -5.352   9.538  70.045  1.00  0.00    -0.032 A  
HETATM    4  C   UNL     1      -5.638   9.312  71.389  1.00  0.00    -0.063 A  
HETATM    5  C   UNL     1      -6.759   8.579  71.732  1.00  0.00    -0.082 A  
HETATM    6  C   UNL     1      -7.569   8.041  70.727  1.00  0.00    -0.077 A  
HETATM    7  C   UNL     1      -7.296   8.214  69.355  1.00  0.00    -0.076 A  
ENDROOT
BRANCH   7   8
HETATM    8  N   UNL     1      -8.079   7.522  68.441  1.00  0.00    -0.123 NA 
HETATM    9  C   UNL     1      -8.482   6.136  68.683  1.00  0.00    -0.114 C  
HETATM   10  C   UNL     1      -9.872   5.858  68.081  1.00  0.00    -0.133 C  
HETATM   11  N   UNL     1      -9.992   6.173  66.638  1.00  0.00    -0.166 NA 
HETATM   12  C   UNL     1      -8.257   8.021  67.060  1.00  0.00    -0.116 C  
HETATM   13  C   UNL     1      -9.640   7.607  66.485  1.00  0.00    -0.186 C  
BRANCH  11  14
HETATM   14  C   UNL     1      -9.125   5.329  65.779  1.00  0.00    -0.157 C  
BRANCH  14  15
HETATM   15  C   UNL     1      -9.569   3.864  65.776  1.00  0.00    -0.182 C  
BRANCH  15  16
HETATM   16  C   UNL     1      -9.171   3.108  66.988  1.00  0.00    -0.172 A  
HETATM   17  N   UNL     1      -9.918   2.661  67.976  1.00  0.00     0.488 NA 
HETATM   18  N   UNL     1      -9.096   2.026  68.885  1.00  0.00    -0.116 NA 
HETATM   19  C   UNL     1      -7.864   2.099  68.433  1.00  0.00    -0.053 A  
HETATM   20  C   UNL     1      -6.613   1.575  69.039  1.00  0.00    -0.029 C  
HETATM   21  C   UNL     1      -5.370   2.175  68.369  1.00  0.00    -0.013 C  
HETATM   22  C   UNL     1      -5.508   2.168  66.846  1.00  0.00    -0.017 C  
HETATM   23  C   UNL     1      -6.710   3.009  66.416  1.00  0.00    -0.047 C  
HETATM   24  N   UNL     1      -7.876   2.740  67.228  1.00  0.00    -0.069 NA 
ENDBRANCH  15  16
ENDBRANCH  14  15
ENDBRANCH  11  14
ENDBRANCH   7   8
TORSDOF 4
ENDMDL
MODEL      290
REMARK 921   NORMALIZED FREE ENERGY PREDICTED BY IDOCK:    0.24 KCAL/MOL
REMARK 922        TOTAL FREE ENERGY PREDICTED BY IDOCK:    0.04 KCAL/MOL
REMARK 923 INTER-LIGAND FREE ENERGY PREDICTED BY IDOCK:    0.44 KCAL/MOL
REMARK 924 INTRA-LIGAND FREE ENERGY PREDICTED BY IDOCK:   -0.40 KCAL/MOL
REMARK 927      BINDING AFFINITY PREDICTED BY RF-SCORE:    0.00 PKD
ROOT
HETATM    1  C   UNL     1     -10.405  14.804  72.575  1.00  0.00     3.325 C  
HETATM    2  C   UNL     1     -11.826  15.145  72.213  1.00  0.00    -0.493 A  
HETATM    3  C   UNL     1     -12.459  16.107  73.038  1.00  0.00    -0.590 A  
HETATM    4  C   UNL     1     -13.742  16.568  72.755  1.00  0.00     0.817 A  
HETATM    5  C   UNL     1     -14.410  16.083  71.646  1.00  0.00     0.658 A  
HETATM    6  C   UNL     1     -13.807  15.107  70.846  1.00  0.00    -0.312 A  
HETATM    7  C   UNL     1     -12.525  14.586  71.116  1.00  0.00    -0.341 A  
ENDROOT
BRANCH   7   8
HETATM    8  N   UNL     1     -12.076  13.522  70.346  1.00  0.00    -0.351 NA 
HETATM    9  C   UNL     1     -12.345  12.137  70.736  1.00  0.00    -0.297 C  
HETATM   10  C   UNL     1     -12.518  11.243  69.493  1.00  0.00    -0.061 C  
HETATM   11  N   UNL     1     -11.383  11.287  68.541  1.00  0.00    -0.249 NA 
HETATM   12  C   UNL     1     -11.044  13.718  69.305  1.00  0.00    -0.208 C  
HETATM   13  C   UNL     1     -11.222  12.707  68.138  1.00  0.00    -0.269 C  
BRANCH  11  14
HETATM   14  C   UNL     1     -10.119  10.760  69.109  1.00  0.00    -0.205 C  
BRANCH  14  15
HETATM   15  C   UNL     1      -9.906   9.283  68.770  1.00  0.00    -0.174 C  
BRANCH  15  16
HETATM   16  C   UNL     1      -8.524   8.800  69.008  1.00  0.00    -0.130 A  
HETATM   17  N   UNL     1      -7.379   9.314  68.610  1.00  0.00    -0.075 NA 
HETATM   18  N   UNL     1      -6.360   8.503  69.068  1.00  0.00    -0.043 NA 
HETATM   19  C   UNL     1      -6.904   7.511  69.735  1.00  0.00    -0.047 A  
HETATM   20  C   UNL     1      -6.242   6.372  70.421  1.00  0.00    -0.035 C  
HETATM   21  C   UNL     1      -7.247   5.267  70.773  1.00  0.00    -0.065 C  
HETATM   22  C   UNL     1      -8.520   5.854  71.384  1.00  0.00    -0.128 C  
HETATM   23  C   UNL     1      -9.202   6.795  70.392  1.00  0.00    -0.156 C  
HETATM   24  N   UNL     1      -8.257   7.682  69.750  1.00  0.00    -0.129 NA 
ENDBRANCH  15  16
ENDBRANCH  14  15
ENDBRANCH  11  14
ENDBRANCH   7   8
TORSDOF 4
ENDMDL
MODEL      291
REMARK 921   NORMALIZED FREE ENERGY PREDICTED BY IDOCK:    0.27 KCAL/MOL
REMARK 922        TOTAL FREE ENERGY PREDICTED BY IDOCK:    0.07 KCAL/MOL
REMARK 923 INTER-LIGAND FREE ENERGY PREDICTED BY IDOCK:    0.51 KCAL/MOL
REMARK 924 INTRA-LIGAND FREE ENERGY PREDICTED BY IDOCK:   -0.45 KCAL/MOL
REMARK 927      BINDING AFFINITY PREDICTED BY RF-SCORE:    0.00 PKD
ROOT
HETATM    1  C   UNL     1     -10.405  14.804  72.575  1.00  0.00     3.325 C  
HETATM    2  C   UNL     1     -11.822  15.144  72.195  1.00  0.00    -0.501 A  
HETATM    3  C   UNL     1     -12.469  16.098  73.018  1.00  0.00    -0.590 A  
HETATM    4  C   UNL     1     -13.749  16.558  72.720  1.00  0.00     0.817 A  
HETATM    5  C   UNL     1     -14.399  16.080  71.597  1.00  0.00     0.658 A  
HETATM    6  C   UNL     1     -13.782  15.114  70.798  1.00  0.00    -0.244 A  
HETATM    7  C   UNL     1     -12.503  14.593  71.083  1.00  0.00    -0.332 A  
ENDROOT
BRANCH   7   8
HETATM    8  N   UNL     1     -12.039  13.537  70.310  1.00  0.00    -0.353 NA 
HETATM    9  C   UNL     1     -12.310  12.148  70.684  1.00  0.00    -0.295 C  
HETATM   10  C   UNL     1     -12.462  11.264  69.432  1.00  0.00    -0.008 C  
HETATM   11  N   UNL     1     -11.313  11.319  68.497  1.00  0.00    -0.249 NA 
HETATM   12  C   UNL     1     -10.992  13.744  69.287  1.00  0.00    -0.163 C  
HETATM   13  C   UNL     1     -11.150  12.743  68.109  1.00  0.00    -0.256 C  
BRANCH  11  14
HETATM   14  C   UNL     1     -10.056  10.791  69.080  1.00  0.00    -0.211 C  
BRANCH  14  15
HETATM   15  C   UNL     1      -9.834   9.317  68.730  1.00  0.00    -0.174 C  
BRANCH  15  16
HETATM   16  C   UNL     1      -8.464   9.008  68.254  1.00  0.00    -0.129 A  
HETATM   17  N   UNL     1      -7.428   8.556  68.928  1.00  0.00    -0.089 NA 
HETATM   18  N   UNL     1      -6.365   8.435  68.056  1.00  0.00    -0.055 NA 
HETATM   19  C   UNL     1      -6.775   8.816  66.866  1.00  0.00    -0.069 A  
HETATM   20  C   UNL     1      -6.016   8.874  65.591  1.00  0.00    -0.051 C  
HETATM   21  C   UNL     1      -6.762   9.698  64.532  1.00  0.00    -0.103 C  
HETATM   22  C   UNL     1      -8.245   9.327  64.489  1.00  0.00    -0.151 C  
HETATM   23  C   UNL     1      -8.905   9.611  65.838  1.00  0.00    -0.153 C  
HETATM   24  N   UNL     1      -8.096   9.148  66.944  1.00  0.00    -0.111 NA 
ENDBRANCH  15  16
ENDBRANCH  14  15
ENDBRANCH  11  14
ENDBRANCH   7   8
TORSDOF 4
ENDMDL
MODEL      292
REMARK 921   NORMALIZED FREE ENERGY PREDICTED BY IDOCK:    0.43 KCAL/MOL
REMARK 922        TOTAL FREE ENERGY PREDICTED BY IDOCK:    0.27 KCAL/MOL
REMARK 923 INTER-LIGAND FREE ENERGY PREDICTED BY IDOCK:   -1.33 KCAL/MOL
REMARK 924 INTRA-LIGAND FREE ENERGY PREDICTED BY IDOCK:    1.60 KCAL/MOL
REMARK 927      BINDING AFFINITY PREDICTED BY RF-SCORE:    0.00 PKD
ROOT
HETATM    1  C   UNL     1     -11.737  12.022  71.869  1.00  0.00     2.789 C  
HETATM    2  C   UNL     1     -12.561  13.215  71.465  1.00  0.00    -0.292 A  
HETATM    3  C   UNL     1     -13.627  13.551  72.334  1.00  0.00    -0.709 A  
HETATM    4  C   UNL     1     -14.407  14.684  72.116  1.00  0.00    -0.589 A  
HETATM    5  C   UNL     1     -14.134  15.499  71.033  1.00  0.00    -0.092 A  
HETATM    6  C   UNL     1     -13.105  15.157  70.150  1.00  0.00    -0.033 A  
HETATM    7  C   UNL     1     -12.315  14.000  70.313  1.00  0.00    -0.358 A  
ENDROOT
BRANCH   7   8
HETATM    8  N   UNL     1     -11.416  13.676  69.306  1.00  0.00    -0.276 NA 
HETATM    9  C   UNL     1     -11.873  13.124  68.030  1.00  0.00    -0.358 C  
HETATM   10  C   UNL     1     -10.962  13.585  66.877  1.00  0.00    -0.288 C  
HETATM   11  N   UNL     1      -9.524  13.281  67.071  1.00  0.00    -0.235 NA 
HETATM   12  C   UNL     1      -9.969  13.556  69.587  1.00  0.00     1.052 C  
HETATM   13  C   UNL     1      -9.120  13.934  68.342  1.00  0.00    -0.184 C  
BRANCH  11  14
HETATM   14  C   UNL     1      -9.231  11.828  67.115  1.00  0.00    -0.179 C  
BRANCH  14  15
HETATM   15  C   UNL     1      -9.963  11.128  68.263  1.00  0.00    -0.196 C  
BRANCH  15  16
HETATM   16  C   UNL     1      -9.329   9.862  68.703  1.00  0.00    -0.149 A  
HETATM   17  N   UNL     1      -8.594   9.623  69.769  1.00  0.00    -0.181 NA 
HETATM   18  N   UNL     1      -8.217   8.295  69.745  1.00  0.00    -0.118 NA 
HETATM   19  C   UNL     1      -8.730   7.752  68.663  1.00  0.00    -0.128 A  
HETATM   20  C   UNL     1      -8.616   6.353  68.177  1.00  0.00    -0.117 C  
HETATM   21  C   UNL     1      -9.066   6.229  66.715  1.00  0.00    -0.141 C  
HETATM   22  C   UNL     1     -10.371   6.988  66.473  1.00  0.00    -0.107 C  
HETATM   23  C   UNL     1     -10.185   8.475  66.770  1.00  0.00    -0.300 C  
HETATM   24  N   UNL     1      -9.463   8.695  68.004  1.00  0.00    -0.139 NA 
ENDBRANCH  15  16
ENDBRANCH  14  15
ENDBRANCH  11  14
ENDBRANCH   7   8
TORSDOF 4
ENDMDL
MODEL      293
REMARK 921   NORMALIZED FREE ENERGY PREDICTED BY IDOCK:    1.76 KCAL/MOL
REMARK 922        TOTAL FREE ENERGY PREDICTED BY IDOCK:    1.91 KCAL/MOL
REMARK 923 INTER-LIGAND FREE ENERGY PREDICTED BY IDOCK:    1.27 KCAL/MOL
REMARK 924 INTRA-LIGAND FREE ENERGY PREDICTED BY IDOCK:    0.65 KCAL/MOL
REMARK 927      BINDING AFFINITY PREDICTED BY RF-SCORE:    0.00 PKD
ROOT
HETATM    1  C   UNL     1      -9.395   9.552  70.464  1.00  0.00    -0.296 C  
HETATM    2  C   UNL     1     -10.723  10.176  70.801  1.00  0.00    -0.163 A  
HETATM    3  C   UNL     1     -11.178   9.978  72.127  1.00  0.00     1.470 A  
HETATM    4  C   UNL     1     -12.349  10.577  72.585  1.00  0.00     1.901 A  
HETATM    5  C   UNL     1     -13.079  11.383  71.732  1.00  0.00    -0.523 A  
HETATM    6  C   UNL     1     -12.656  11.557  70.411  1.00  0.00    -0.238 A  
HETATM    7  C   UNL     1     -11.497  10.941  69.895  1.00  0.00    -0.323 A  
ENDROOT
BRANCH   7   8
HETATM    8  N   UNL     1     -11.242  11.062  68.536  1.00  0.00    -0.244 NA 
HETATM    9  C   UNL     1     -11.076   9.881  67.687  1.00  0.00    -0.101 C  
HETATM   10  C   UNL     1     -11.603  10.153  66.265  1.00  0.00     1.946 C  
HETATM   11  N   UNL     1     -11.007  11.337  65.603  1.00  0.00    -0.189 NA 
HETATM   12  C   UNL     1     -10.800  12.349  67.957  1.00  0.00    -0.221 C  
HETATM   13  C   UNL     1     -11.279  12.499  66.486  1.00  0.00    -0.307 C  
BRANCH  11  14
HETATM   14  C   UNL     1      -9.551  11.200  65.357  1.00  0.00    -0.229 C  
BRANCH  14  15
HETATM   15  C   UNL     1      -8.964   9.964  66.044  1.00  0.00    -0.178 C  
BRANCH  15  16
HETATM   16  C   UNL     1      -8.611   8.864  65.114  1.00  0.00    -0.182 A  
HETATM   17  N   UNL     1      -8.289   8.920  63.839  1.00  0.00    -0.172 NA 
HETATM   18  N   UNL     1      -8.056   7.634  63.396  1.00  0.00    -0.093 NA 
HETATM   19  C   UNL     1      -8.241   6.819  64.410  1.00  0.00     0.015 A  
HETATM   20  C   UNL     1      -8.117   5.339  64.455  1.00  0.00    -0.120 C  
HETATM   21  C   UNL     1      -8.753   4.762  65.727  1.00  0.00    -0.127 C  
HETATM   22  C   UNL     1      -8.351   5.571  66.961  1.00  0.00    -0.107 C  
HETATM   23  C   UNL     1      -8.827   7.017  66.827  1.00  0.00    -0.126 C  
HETATM   24  N   UNL     1      -8.555   7.557  65.514  1.00  0.00    -0.121 NA 
ENDBRANCH  15  16
ENDBRANCH  14  15
ENDBRANCH  11  14
ENDBRANCH   7   8
TORSDOF 4
ENDMDL
MODEL      294
REMARK 921   NORMALIZED FREE ENERGY PREDICTED BY IDOCK:   12.76 KCAL/MOL
REMARK 922        TOTAL FREE ENERGY PREDICTED BY IDOCK:   15.49 KCAL/MOL
REMARK 923 INTER-LIGAND FREE ENERGY PREDICTED BY IDOCK:   13.52 KCAL/MOL
REMARK 924 INTRA-LIGAND FREE ENERGY PREDICTED BY IDOCK:    1.97 KCAL/MOL
REMARK 927      BINDING AFFINITY PREDICTED BY RF-SCORE:    0.00 PKD
ROOT
HETATM    1  C   UNL     1      -8.239  15.648  69.065  1.00  0.00    -0.233 C  
HETATM    2  C   UNL     1      -9.238  15.169  70.084  1.00  0.00     0.440 A  
HETATM    3  C   UNL     1      -8.740  14.983  71.396  1.00  0.00     3.883 A  
HETATM    4  C   UNL     1      -9.584  14.625  72.445  1.00  0.00     6.064 A  
HETATM    5  C   UNL     1     -10.934  14.454  72.203  1.00  0.00     1.950 A  
HETATM    6  C   UNL     1     -11.430  14.603  70.904  1.00  0.00    -0.213 A  
HETATM    7  C   UNL     1     -10.606  14.928  69.807  1.00  0.00    -0.169 A  
ENDROOT
BRANCH   7   8
HETATM    8  N   UNL     1     -11.169  14.912  68.539  1.00  0.00    -0.266 NA 
HETATM    9  C   UNL     1     -12.375  14.132  68.254  1.00  0.00     0.008 C  
HETATM   10  C   UNL     1     -13.238  14.830  67.186  1.00  0.00     3.153 C  
HETATM   11  N   UNL     1     -12.525  15.136  65.922  1.00  0.00     0.439 NA 
HETATM   12  C   UNL     1     -10.413  15.396  67.363  1.00  0.00    -0.277 C  
HETATM   13  C   UNL     1     -11.364  15.986  66.285  1.00  0.00     0.297 C  
BRANCH  11  14
HETATM   14  C   UNL     1     -12.077  13.925  65.194  1.00  0.00    -0.403 C  
BRANCH  14  15
HETATM   15  C   UNL     1     -10.724  13.416  65.700  1.00  0.00    -0.283 C  
BRANCH  15  16
HETATM   16  C   UNL     1     -10.702  11.966  66.015  1.00  0.00    -0.285 A  
HETATM   17  N   UNL     1     -11.193  11.331  67.057  1.00  0.00    -0.362 NA 
HETATM   18  N   UNL     1     -10.917   9.986  66.913  1.00  0.00    -0.082 NA 
HETATM   19  C   UNL     1     -10.261   9.829  65.785  1.00  0.00    -0.152 A  
HETATM   20  C   UNL     1      -9.736   8.581  65.175  1.00  0.00     0.850 C  
HETATM   21  C   UNL     1      -8.743   8.883  64.045  1.00  0.00    -0.068 C  
HETATM   22  C   UNL     1      -9.272   9.984  63.125  1.00  0.00    -0.313 C  
HETATM   23  C   UNL     1      -9.481  11.279  63.910  1.00  0.00    -0.192 C  
HETATM   24  N   UNL     1     -10.140  11.044  65.176  1.00  0.00    -0.270 NA 
ENDBRANCH  15  16
ENDBRANCH  14  15
ENDBRANCH  11  14
ENDBRANCH   7   8
TORSDOF 4
ENDMDL
