MODEL        1
REMARK 921   NORMALIZED FREE ENERGY PREDICTED BY IDOCK:   -7.05 KCAL/MOL
REMARK 922        TOTAL FREE ENERGY PREDICTED BY IDOCK:   -8.30 KCAL/MOL
REMARK 923 INTER-LIGAND FREE ENERGY PREDICTED BY IDOCK:   -7.88 KCAL/MOL
REMARK 924 INTRA-LIGAND FREE ENERGY PREDICTED BY IDOCK:   -0.42 KCAL/MOL
REMARK 927      BINDING AFFINITY PREDICTED BY RF-SCORE:    0.00 PKD
ROOT
HETATM    1  N   UNL     1     -11.459  16.344  63.887  1.00  0.00    -1.618 NA 
HETATM    2  H2  UNL     1     -12.342  16.839  64.012  1.00  0.00     0.000 HD 
HETATM    3  C   UNL     1     -11.348  15.379  64.894  1.00  0.00    -0.363 A  
HETATM    4  H1  UNL     1     -10.721  17.035  63.753  1.00  0.00     0.000 HD 
HETATM    5  C   UNL     1     -12.359  14.432  65.078  1.00  0.00    -0.401 A  
HETATM    6  C   UNL     1     -12.226  13.416  66.030  1.00  0.00    -0.491 A  
HETATM    7  C   UNL     1     -11.050  13.325  66.777  1.00  0.00    -0.292 A  
HETATM    8  C   UNL     1     -10.136  15.205  65.568  1.00  0.00    -0.402 A  
HETATM    9  C   UNL     1      -9.984  14.189  66.517  1.00  0.00    -0.289 A  
ENDROOT
BRANCH   7  10
HETATM   10  S   UNL     1     -10.859  12.018  67.970  1.00  0.00    -0.229 S  
HETATM   11  O   UNL     1     -11.511  10.851  67.403  1.00  0.00    -0.479 OA 
HETATM   12  O   UNL     1      -9.456  11.967  68.336  1.00  0.00    -0.200 OA 
BRANCH  10  13
HETATM   13  C   UNL     1     -11.743  12.427  69.461  1.00  0.00    -0.322 A  
HETATM   14  C   UNL     1     -12.018  13.772  69.723  1.00  0.00    -0.406 A  
HETATM   15  C   UNL     1     -12.749  14.124  70.859  1.00  0.00    -0.432 A  
HETATM   16  C   UNL     1     -13.174  13.150  71.767  1.00  0.00    -0.403 A  
HETATM   17  N   UNL     1     -14.028  13.499  72.818  1.00  0.00    -0.655 NA 
HETATM   18  C   UNL     1     -12.933  11.804  71.467  1.00  0.00    -0.446 A  
HETATM   19  H2  UNL     1     -14.852  13.956  72.426  1.00  0.00     0.000 HD 
HETATM   20  H1  UNL     1     -14.338  12.788  73.481  1.00  0.00     0.000 HD 
HETATM   21  C   UNL     1     -12.198  11.436  70.331  1.00  0.00    -0.450 A  
ENDBRANCH  10  13
ENDBRANCH   7  10
TORSDOF 2
ENDMDL
MODEL        2
REMARK 921   NORMALIZED FREE ENERGY PREDICTED BY IDOCK:   -7.05 KCAL/MOL
REMARK 922        TOTAL FREE ENERGY PREDICTED BY IDOCK:   -8.29 KCAL/MOL
REMARK 923 INTER-LIGAND FREE ENERGY PREDICTED BY IDOCK:   -7.87 KCAL/MOL
REMARK 924 INTRA-LIGAND FREE ENERGY PREDICTED BY IDOCK:   -0.42 KCAL/MOL
REMARK 927      BINDING AFFINITY PREDICTED BY RF-SCORE:    0.00 PKD
ROOT
HETATM    1  N   UNL     1     -13.807  13.899  72.827  1.00  0.00    -0.688 NA 
HETATM    2  H2  UNL     1     -13.402  13.479  73.664  1.00  0.00     0.000 HD 
HETATM    3  C   UNL     1     -13.070  13.470  71.718  1.00  0.00    -0.387 A  
HETATM    4  H1  UNL     1     -13.942  14.894  73.002  1.00  0.00     0.000 HD 
HETATM    5  C   UNL     1     -12.885  12.106  71.478  1.00  0.00    -0.394 A  
HETATM    6  C   UNL     1     -12.216  11.663  70.332  1.00  0.00    -0.434 A  
HETATM    7  C   UNL     1     -11.764  12.596  69.398  1.00  0.00    -0.325 A  
HETATM    8  C   UNL     1     -12.713  14.380  70.719  1.00  0.00    -0.427 A  
HETATM    9  C   UNL     1     -12.050  13.953  69.564  1.00  0.00    -0.393 A  
ENDROOT
BRANCH   7  10
HETATM   10  S   UNL     1     -10.937  12.041  67.922  1.00  0.00    -0.236 S  
HETATM   11  O   UNL     1      -9.533  11.909  68.269  1.00  0.00    -0.189 OA 
HETATM   12  O   UNL     1     -11.675  10.901  67.413  1.00  0.00    -0.510 OA 
BRANCH  10  13
HETATM   13  C   UNL     1     -11.040  13.297  66.664  1.00  0.00    -0.291 A  
HETATM   14  C   UNL     1     -12.215  13.391  65.913  1.00  0.00    -0.502 A  
HETATM   15  C   UNL     1     -12.348  14.393  64.950  1.00  0.00    -0.414 A  
HETATM   16  C   UNL     1     -11.299  15.281  64.693  1.00  0.00    -0.358 A  
HETATM   17  N   UNL     1     -11.498  16.368  63.835  1.00  0.00    -1.618 NA 
HETATM   18  C   UNL     1     -10.148  15.206  65.485  1.00  0.00    -0.402 A  
HETATM   19  H2  UNL     1     -12.300  16.902  64.172  1.00  0.00     0.000 HD 
HETATM   20  H1  UNL     1     -10.733  17.016  63.647  1.00  0.00     0.000 HD 
HETATM   21  C   UNL     1     -10.000  14.203  66.455  1.00  0.00    -0.302 A  
ENDBRANCH  10  13
ENDBRANCH   7  10
TORSDOF 2
ENDMDL
MODEL        3
REMARK 921   NORMALIZED FREE ENERGY PREDICTED BY IDOCK:   -6.99 KCAL/MOL
REMARK 922        TOTAL FREE ENERGY PREDICTED BY IDOCK:   -8.24 KCAL/MOL
REMARK 923 INTER-LIGAND FREE ENERGY PREDICTED BY IDOCK:   -7.81 KCAL/MOL
REMARK 924 INTRA-LIGAND FREE ENERGY PREDICTED BY IDOCK:   -0.43 KCAL/MOL
REMARK 927      BINDING AFFINITY PREDICTED BY RF-SCORE:    0.00 PKD
ROOT
HETATM    1  N   UNL     1     -13.781  13.828  72.945  1.00  0.00    -0.607 NA 
HETATM    2  H2  UNL     1     -14.487  14.530  72.723  1.00  0.00     0.000 HD 
HETATM    3  C   UNL     1     -13.168  13.426  71.753  1.00  0.00    -0.407 A  
HETATM    4  H1  UNL     1     -14.202  13.137  73.566  1.00  0.00     0.000 HD 
HETATM    5  C   UNL     1     -12.592  14.373  70.903  1.00  0.00    -0.422 A  
HETATM    6  C   UNL     1     -11.909  13.979  69.747  1.00  0.00    -0.385 A  
HETATM    7  C   UNL     1     -11.770  12.620  69.463  1.00  0.00    -0.308 A  
HETATM    8  C   UNL     1     -12.921  12.072  71.513  1.00  0.00    -0.407 A  
HETATM    9  C   UNL     1     -12.233  11.661  70.367  1.00  0.00    -0.434 A  
ENDROOT
BRANCH   7  10
HETATM   10  S   UNL     1     -10.878  12.106  68.010  1.00  0.00    -0.236 S  
HETATM   11  O   UNL     1      -9.477  12.058  68.389  1.00  0.00    -0.201 OA 
HETATM   12  O   UNL     1     -11.537  10.922  67.492  1.00  0.00    -0.526 OA 
BRANCH  10  13
HETATM   13  C   UNL     1     -11.026  13.347  66.741  1.00  0.00    -0.288 A  
HETATM   14  C   UNL     1     -12.232  13.442  66.041  1.00  0.00    -0.491 A  
HETATM   15  C   UNL     1     -12.397  14.434  65.072  1.00  0.00    -0.401 A  
HETATM   16  C   UNL     1     -11.353  15.308  64.757  1.00  0.00    -0.391 A  
HETATM   17  N   UNL     1     -11.580  16.386  63.894  1.00  0.00    -1.602 NA 
HETATM   18  C   UNL     1     -10.168  15.232  65.499  1.00  0.00    -0.417 A  
HETATM   19  H2  UNL     1     -12.361  16.932  64.259  1.00  0.00     0.000 HD 
HETATM   20  H1  UNL     1     -10.818  17.024  63.664  1.00  0.00     0.000 HD 
HETATM   21  C   UNL     1      -9.988  14.240  66.474  1.00  0.00    -0.289 A  
ENDBRANCH  10  13
ENDBRANCH   7  10
TORSDOF 2
ENDMDL
MODEL        4
REMARK 921   NORMALIZED FREE ENERGY PREDICTED BY IDOCK:   -6.34 KCAL/MOL
REMARK 922        TOTAL FREE ENERGY PREDICTED BY IDOCK:   -7.51 KCAL/MOL
REMARK 923 INTER-LIGAND FREE ENERGY PREDICTED BY IDOCK:   -7.33 KCAL/MOL
REMARK 924 INTRA-LIGAND FREE ENERGY PREDICTED BY IDOCK:   -0.18 KCAL/MOL
REMARK 927      BINDING AFFINITY PREDICTED BY RF-SCORE:    0.00 PKD
ROOT
HETATM    1  N   UNL     1     -12.501  13.814  63.114  1.00  0.00    -1.074 NA 
HETATM    2  H2  UNL     1     -11.713  13.627  62.495  1.00  0.00     0.000 HD 
HETATM    3  C   UNL     1     -11.998  14.185  64.366  1.00  0.00    -0.457 A  
HETATM    4  H1  UNL     1     -13.163  13.043  63.034  1.00  0.00     0.000 HD 
HETATM    5  C   UNL     1     -11.091  15.243  64.477  1.00  0.00    -0.260 A  
HETATM    6  C   UNL     1     -10.640  15.674  65.729  1.00  0.00    -0.374 A  
HETATM    7  C   UNL     1     -11.133  15.064  66.883  1.00  0.00    -0.331 A  
HETATM    8  C   UNL     1     -12.565  13.665  65.533  1.00  0.00    -0.541 A  
HETATM    9  C   UNL     1     -12.131  14.090  66.792  1.00  0.00    -0.480 A  
ENDROOT
BRANCH   7  10
HETATM   10  S   UNL     1     -10.587  15.623  68.483  1.00  0.00    -0.267 S  
HETATM   11  O   UNL     1      -9.234  15.123  68.648  1.00  0.00    -0.180 OA 
HETATM   12  O   UNL     1     -10.856  17.047  68.560  1.00  0.00    -0.354 OA 
BRANCH  10  13
HETATM   13  C   UNL     1     -11.575  14.866  69.756  1.00  0.00    -0.303 A  
HETATM   14  C   UNL     1     -12.392  15.685  70.541  1.00  0.00    -0.443 A  
HETATM   15  C   UNL     1     -13.213  15.119  71.517  1.00  0.00    -0.512 A  
HETATM   16  C   UNL     1     -13.198  13.742  71.754  1.00  0.00    -0.386 A  
HETATM   17  N   UNL     1     -14.129  13.172  72.629  1.00  0.00    -0.710 NA 
HETATM   18  C   UNL     1     -12.411  12.928  70.930  1.00  0.00    -0.383 A  
HETATM   19  H2  UNL     1     -15.065  13.436  72.320  1.00  0.00     0.000 HD 
HETATM   20  H1  UNL     1     -14.118  12.167  72.802  1.00  0.00     0.000 HD 
HETATM   21  C   UNL     1     -11.580  13.484  69.946  1.00  0.00    -0.271 A  
ENDBRANCH  10  13
ENDBRANCH   7  10
TORSDOF 2
ENDMDL
MODEL        5
REMARK 921   NORMALIZED FREE ENERGY PREDICTED BY IDOCK:   -6.32 KCAL/MOL
REMARK 922        TOTAL FREE ENERGY PREDICTED BY IDOCK:   -7.49 KCAL/MOL
REMARK 923 INTER-LIGAND FREE ENERGY PREDICTED BY IDOCK:   -7.11 KCAL/MOL
REMARK 924 INTRA-LIGAND FREE ENERGY PREDICTED BY IDOCK:   -0.38 KCAL/MOL
REMARK 927      BINDING AFFINITY PREDICTED BY RF-SCORE:    0.00 PKD
ROOT
HETATM    1  N   UNL     1     -12.490  13.785  63.317  1.00  0.00    -1.092 NA 
HETATM    2  H2  UNL     1     -11.738  13.507  62.686  1.00  0.00     0.000 HD 
HETATM    3  C   UNL     1     -11.919  14.261  64.501  1.00  0.00    -0.462 A  
HETATM    4  H1  UNL     1     -13.180  13.033  63.344  1.00  0.00     0.000 HD 
HETATM    5  C   UNL     1     -10.974  15.291  64.465  1.00  0.00    -0.212 A  
HETATM    6  C   UNL     1     -10.452  15.828  65.645  1.00  0.00    -0.402 A  
HETATM    7  C   UNL     1     -10.911  15.356  66.876  1.00  0.00    -0.313 A  
HETATM    8  C   UNL     1     -12.448  13.882  65.738  1.00  0.00    -0.530 A  
HETATM    9  C   UNL     1     -11.942  14.415  66.928  1.00  0.00    -0.425 A  
ENDROOT
BRANCH   7  10
HETATM   10  S   UNL     1     -10.274  16.053  68.385  1.00  0.00    -0.244 S  
HETATM   11  O   UNL     1     -11.424  16.295  69.238  1.00  0.00    -0.316 OA 
HETATM   12  O   UNL     1      -9.195  15.195  68.839  1.00  0.00    -0.190 OA 
BRANCH  10  13
HETATM   13  C   UNL     1      -9.536  17.639  68.053  1.00  0.00    -0.282 A  
HETATM   14  C   UNL     1      -8.145  17.756  68.135  1.00  0.00    -0.265 A  
HETATM   15  C   UNL     1      -7.531  18.973  67.835  1.00  0.00    -0.278 A  
HETATM   16  C   UNL     1      -8.293  20.096  67.498  1.00  0.00    -0.332 A  
HETATM   17  N   UNL     1      -7.660  21.264  67.059  1.00  0.00    -0.768 NA 
HETATM   18  C   UNL     1      -9.680  19.952  67.375  1.00  0.00    -0.519 A  
HETATM   19  H2  UNL     1      -7.063  21.028  66.266  1.00  0.00     0.000 HD 
HETATM   20  H1  UNL     1      -8.216  22.083  66.814  1.00  0.00     0.000 HD 
HETATM   21  C   UNL     1     -10.311  18.735  67.674  1.00  0.00    -0.476 A  
ENDBRANCH  10  13
ENDBRANCH   7  10
TORSDOF 2
ENDMDL
MODEL        6
REMARK 921   NORMALIZED FREE ENERGY PREDICTED BY IDOCK:   -6.31 KCAL/MOL
REMARK 922        TOTAL FREE ENERGY PREDICTED BY IDOCK:   -7.47 KCAL/MOL
REMARK 923 INTER-LIGAND FREE ENERGY PREDICTED BY IDOCK:   -7.23 KCAL/MOL
REMARK 924 INTRA-LIGAND FREE ENERGY PREDICTED BY IDOCK:   -0.24 KCAL/MOL
REMARK 927      BINDING AFFINITY PREDICTED BY RF-SCORE:    0.00 PKD
ROOT
HETATM    1  N   UNL     1     -14.397  13.034  72.609  1.00  0.00    -0.560 NA 
HETATM    2  H2  UNL     1     -13.899  12.434  73.266  1.00  0.00     0.000 HD 
HETATM    3  C   UNL     1     -13.460  13.626  71.755  1.00  0.00    -0.384 A  
HETATM    4  H1  UNL     1     -15.051  13.613  73.136  1.00  0.00     0.000 HD 
HETATM    5  C   UNL     1     -12.565  12.832  71.032  1.00  0.00    -0.362 A  
HETATM    6  C   UNL     1     -11.675  13.404  70.117  1.00  0.00    -0.266 A  
HETATM    7  C   UNL     1     -11.710  14.782  69.897  1.00  0.00    -0.306 A  
HETATM    8  C   UNL     1     -13.559  14.983  71.437  1.00  0.00    -0.538 A  
HETATM    9  C   UNL     1     -12.681  15.570  70.520  1.00  0.00    -0.436 A  
ENDROOT
BRANCH   7  10
HETATM   10  S   UNL     1     -10.601  15.518  68.714  1.00  0.00    -0.254 S  
HETATM   11  O   UNL     1     -10.790  16.954  68.819  1.00  0.00    -0.327 OA 
HETATM   12  O   UNL     1      -9.291  14.935  68.926  1.00  0.00    -0.194 OA 
BRANCH  10  13
HETATM   13  C   UNL     1     -11.085  15.055  67.064  1.00  0.00    -0.334 A  
HETATM   14  C   UNL     1     -12.108  14.115  66.909  1.00  0.00    -0.466 A  
HETATM   15  C   UNL     1     -12.544  13.764  65.630  1.00  0.00    -0.551 A  
HETATM   16  C   UNL     1     -11.938  14.308  64.494  1.00  0.00    -0.462 A  
HETATM   17  N   UNL     1     -12.479  14.062  63.228  1.00  0.00    -1.112 NA 
HETATM   18  C   UNL     1     -10.948  15.283  64.664  1.00  0.00    -0.322 A  
HETATM   19  H2  UNL     1     -13.460  14.343  63.236  1.00  0.00     0.000 HD 
HETATM   20  H1  UNL     1     -12.037  14.459  62.398  1.00  0.00     0.000 HD 
HETATM   21  C   UNL     1     -10.499  15.644  65.943  1.00  0.00    -0.358 A  
ENDBRANCH  10  13
ENDBRANCH   7  10
TORSDOF 2
ENDMDL
MODEL        7
REMARK 921   NORMALIZED FREE ENERGY PREDICTED BY IDOCK:   -6.27 KCAL/MOL
REMARK 922        TOTAL FREE ENERGY PREDICTED BY IDOCK:   -7.43 KCAL/MOL
REMARK 923 INTER-LIGAND FREE ENERGY PREDICTED BY IDOCK:   -7.28 KCAL/MOL
REMARK 924 INTRA-LIGAND FREE ENERGY PREDICTED BY IDOCK:   -0.15 KCAL/MOL
REMARK 927      BINDING AFFINITY PREDICTED BY RF-SCORE:    0.00 PKD
ROOT
HETATM    1  N   UNL     1     -12.382  14.125  63.224  1.00  0.00    -1.133 NA 
HETATM    2  H2  UNL     1     -11.533  14.047  62.665  1.00  0.00     0.000 HD 
HETATM    3  C   UNL     1     -12.016  14.232  64.570  1.00  0.00    -0.462 A  
HETATM    4  H1  UNL     1     -13.032  13.398  62.924  1.00  0.00     0.000 HD 
HETATM    5  C   UNL     1     -11.126  15.229  64.982  1.00  0.00    -0.436 A  
HETATM    6  C   UNL     1     -10.810  15.396  66.334  1.00  0.00    -0.303 A  
HETATM    7  C   UNL     1     -11.423  14.581  67.287  1.00  0.00    -0.365 A  
HETATM    8  C   UNL     1     -12.704  13.505  65.545  1.00  0.00    -0.493 A  
HETATM    9  C   UNL     1     -12.406  13.665  66.902  1.00  0.00    -0.309 A  
ENDROOT
BRANCH   7  10
HETATM   10  S   UNL     1     -11.051  14.803  69.014  1.00  0.00    -0.269 S  
HETATM   11  O   UNL     1      -9.618  14.605  69.149  1.00  0.00    -0.181 OA 
HETATM   12  O   UNL     1     -11.659  16.052  69.432  1.00  0.00    -0.343 OA 
BRANCH  10  13
HETATM   13  C   UNL     1     -11.840  13.526  69.971  1.00  0.00    -0.301 A  
HETATM   14  C   UNL     1     -11.567  12.192  69.654  1.00  0.00    -0.361 A  
HETATM   15  C   UNL     1     -12.132  11.166  70.413  1.00  0.00    -0.475 A  
HETATM   16  C   UNL     1     -13.008  11.454  71.464  1.00  0.00    -0.399 A  
HETATM   17  N   UNL     1     -13.449  10.428  72.307  1.00  0.00    -0.568 NA 
HETATM   18  C   UNL     1     -13.234  12.793  71.801  1.00  0.00    -0.471 A  
HETATM   19  H2  UNL     1     -12.631   9.950  72.689  1.00  0.00     0.000 HD 
HETATM   20  H1  UNL     1     -14.088  10.637  73.074  1.00  0.00     0.000 HD 
HETATM   21  C   UNL     1     -12.674  13.834  71.046  1.00  0.00    -0.416 A  
ENDBRANCH  10  13
ENDBRANCH   7  10
TORSDOF 2
ENDMDL
MODEL        8
REMARK 921   NORMALIZED FREE ENERGY PREDICTED BY IDOCK:   -6.26 KCAL/MOL
REMARK 922        TOTAL FREE ENERGY PREDICTED BY IDOCK:   -7.42 KCAL/MOL
REMARK 923 INTER-LIGAND FREE ENERGY PREDICTED BY IDOCK:   -7.00 KCAL/MOL
REMARK 924 INTRA-LIGAND FREE ENERGY PREDICTED BY IDOCK:   -0.42 KCAL/MOL
REMARK 927      BINDING AFFINITY PREDICTED BY RF-SCORE:    0.00 PKD
ROOT
HETATM    1  N   UNL     1     -12.186  11.697  63.142  1.00  0.00    -0.966 NA 
HETATM    2  H2  UNL     1     -11.842  10.738  63.180  1.00  0.00     0.000 HD 
HETATM    3  C   UNL     1     -11.801  12.349  64.319  1.00  0.00    -0.398 A  
HETATM    4  H1  UNL     1     -13.166  11.675  62.863  1.00  0.00     0.000 HD 
HETATM    5  C   UNL     1     -10.457  12.379  64.701  1.00  0.00    -0.338 A  
HETATM    6  C   UNL     1     -10.048  13.092  65.833  1.00  0.00    -0.291 A  
HETATM    7  C   UNL     1     -10.991  13.814  66.567  1.00  0.00    -0.299 A  
HETATM    8  C   UNL     1     -12.708  13.168  64.997  1.00  0.00    -0.456 A  
HETATM    9  C   UNL     1     -12.314  13.893  66.126  1.00  0.00    -0.504 A  
ENDROOT
BRANCH   7  10
HETATM   10  S   UNL     1     -10.478  14.748  67.993  1.00  0.00    -0.249 S  
HETATM   11  O   UNL     1      -9.193  14.202  68.394  1.00  0.00    -0.197 OA 
HETATM   12  O   UNL     1     -10.604  16.154  67.659  1.00  0.00    -0.302 OA 
BRANCH  10  13
HETATM   13  C   UNL     1     -11.604  14.458  69.342  1.00  0.00    -0.304 A  
HETATM   14  C   UNL     1     -11.778  13.147  69.793  1.00  0.00    -0.350 A  
HETATM   15  C   UNL     1     -12.618  12.890  70.878  1.00  0.00    -0.355 A  
HETATM   16  C   UNL     1     -13.326  13.926  71.495  1.00  0.00    -0.335 A  
HETATM   17  N   UNL     1     -14.046  13.678  72.668  1.00  0.00    -0.732 NA 
HETATM   18  C   UNL     1     -13.106  15.239  71.063  1.00  0.00    -0.544 A  
HETATM   19  H2  UNL     1     -13.412  13.267  73.354  1.00  0.00     0.000 HD 
HETATM   20  H1  UNL     1     -14.564  14.433  73.118  1.00  0.00     0.000 HD 
HETATM   21  C   UNL     1     -12.266  15.511  69.973  1.00  0.00    -0.380 A  
ENDBRANCH  10  13
ENDBRANCH   7  10
TORSDOF 2
ENDMDL
MODEL        9
REMARK 921   NORMALIZED FREE ENERGY PREDICTED BY IDOCK:   -6.25 KCAL/MOL
REMARK 922        TOTAL FREE ENERGY PREDICTED BY IDOCK:   -7.41 KCAL/MOL
REMARK 923 INTER-LIGAND FREE ENERGY PREDICTED BY IDOCK:   -6.99 KCAL/MOL
REMARK 924 INTRA-LIGAND FREE ENERGY PREDICTED BY IDOCK:   -0.42 KCAL/MOL
REMARK 927      BINDING AFFINITY PREDICTED BY RF-SCORE:    0.00 PKD
ROOT
HETATM    1  N   UNL     1     -13.930  13.610  72.610  1.00  0.00    -0.745 NA 
HETATM    2  H2  UNL     1     -14.843  14.060  72.542  1.00  0.00     0.000 HD 
HETATM    3  C   UNL     1     -13.209  13.899  71.445  1.00  0.00    -0.321 A  
HETATM    4  H1  UNL     1     -14.070  12.643  72.902  1.00  0.00     0.000 HD 
HETATM    5  C   UNL     1     -13.017  15.224  71.045  1.00  0.00    -0.526 A  
HETATM    6  C   UNL     1     -12.235  15.529  69.926  1.00  0.00    -0.351 A  
HETATM    7  C   UNL     1     -11.607  14.498  69.226  1.00  0.00    -0.302 A  
HETATM    8  C   UNL     1     -12.482  12.893  70.803  1.00  0.00    -0.370 A  
HETATM    9  C   UNL     1     -11.690  13.182  69.688  1.00  0.00    -0.370 A  
ENDROOT
BRANCH   7  10
HETATM   10  S   UNL     1     -10.585  14.878  67.818  1.00  0.00    -0.267 S  
HETATM   11  O   UNL     1     -10.902  16.245  67.444  1.00  0.00    -0.313 OA 
HETATM   12  O   UNL     1      -9.224  14.509  68.158  1.00  0.00    -0.183 OA 
BRANCH  10  13
HETATM   13  C   UNL     1     -11.047  13.847  66.442  1.00  0.00    -0.309 A  
HETATM   14  C   UNL     1     -12.385  13.838  66.038  1.00  0.00    -0.499 A  
HETATM   15  C   UNL     1     -12.773  13.077  64.933  1.00  0.00    -0.456 A  
HETATM   16  C   UNL     1     -11.846  12.284  64.249  1.00  0.00    -0.403 A  
HETATM   17  N   UNL     1     -12.215  11.646  63.061  1.00  0.00    -0.951 NA 
HETATM   18  C   UNL     1     -10.502  12.341  64.636  1.00  0.00    -0.334 A  
HETATM   19  H2  UNL     1     -12.578  12.348  62.416  1.00  0.00     0.000 HD 
HETATM   20  H1  UNL     1     -11.539  11.067  62.562  1.00  0.00     0.000 HD 
HETATM   21  C   UNL     1     -10.099  13.099  65.744  1.00  0.00    -0.290 A  
ENDBRANCH  10  13
ENDBRANCH   7  10
TORSDOF 2
ENDMDL
MODEL       10
REMARK 921   NORMALIZED FREE ENERGY PREDICTED BY IDOCK:   -6.24 KCAL/MOL
REMARK 922        TOTAL FREE ENERGY PREDICTED BY IDOCK:   -7.40 KCAL/MOL
REMARK 923 INTER-LIGAND FREE ENERGY PREDICTED BY IDOCK:   -7.27 KCAL/MOL
REMARK 924 INTRA-LIGAND FREE ENERGY PREDICTED BY IDOCK:   -0.12 KCAL/MOL
REMARK 927      BINDING AFFINITY PREDICTED BY RF-SCORE:    0.00 PKD
ROOT
HETATM    1  N   UNL     1     -13.381  10.361  72.245  1.00  0.00    -0.586 NA 
HETATM    2  H2  UNL     1     -14.389  10.459  72.360  1.00  0.00     0.000 HD 
HETATM    3  C   UNL     1     -12.922  11.422  71.456  1.00  0.00    -0.399 A  
HETATM    4  H1  UNL     1     -13.181   9.397  71.977  1.00  0.00     0.000 HD 
HETATM    5  C   UNL     1     -13.196  12.742  71.822  1.00  0.00    -0.471 A  
HETATM    6  C   UNL     1     -12.679  13.814  71.086  1.00  0.00    -0.438 A  
HETATM    7  C   UNL     1     -11.848  13.558  69.994  1.00  0.00    -0.301 A  
HETATM    8  C   UNL     1     -11.999  11.188  70.433  1.00  0.00    -0.469 A  
HETATM    9  C   UNL     1     -11.467  12.248  69.692  1.00  0.00    -0.285 A  
ENDROOT
BRANCH   7  10
HETATM   10  S   UNL     1     -11.162  14.914  69.066  1.00  0.00    -0.281 S  
HETATM   11  O   UNL     1     -11.937  16.087  69.429  1.00  0.00    -0.311 OA 
HETATM   12  O   UNL     1      -9.725  14.895  69.268  1.00  0.00    -0.203 OA 
BRANCH  10  13
HETATM   13  C   UNL     1     -11.418  14.645  67.325  1.00  0.00    -0.372 A  
HETATM   14  C   UNL     1     -12.308  13.642  66.931  1.00  0.00    -0.309 A  
HETATM   15  C   UNL     1     -12.568  13.436  65.575  1.00  0.00    -0.520 A  
HETATM   16  C   UNL     1     -11.913  14.191  64.598  1.00  0.00    -0.445 A  
HETATM   17  N   UNL     1     -12.290  14.076  63.255  1.00  0.00    -1.145 NA 
HETATM   18  C   UNL     1     -11.060  15.223  65.008  1.00  0.00    -0.436 A  
HETATM   19  H2  UNL     1     -13.292  14.256  63.185  1.00  0.00     0.000 HD 
HETATM   20  H1  UNL     1     -11.811  14.627  62.543  1.00  0.00     0.000 HD 
HETATM   21  C   UNL     1     -10.790  15.441  66.367  1.00  0.00    -0.303 A  
ENDBRANCH  10  13
ENDBRANCH   7  10
TORSDOF 2
ENDMDL
MODEL       11
REMARK 921   NORMALIZED FREE ENERGY PREDICTED BY IDOCK:   -6.20 KCAL/MOL
REMARK 922        TOTAL FREE ENERGY PREDICTED BY IDOCK:   -7.34 KCAL/MOL
REMARK 923 INTER-LIGAND FREE ENERGY PREDICTED BY IDOCK:   -6.98 KCAL/MOL
REMARK 924 INTRA-LIGAND FREE ENERGY PREDICTED BY IDOCK:   -0.36 KCAL/MOL
REMARK 927      BINDING AFFINITY PREDICTED BY RF-SCORE:    0.00 PKD
ROOT
HETATM    1  N   UNL     1     -12.128  11.690  62.984  1.00  0.00    -0.927 NA 
HETATM    2  H2  UNL     1     -12.068  10.672  62.955  1.00  0.00     0.000 HD 
HETATM    3  C   UNL     1     -11.939  12.104  64.307  1.00  0.00    -0.380 A  
HETATM    4  H1  UNL     1     -12.960  11.977  62.469  1.00  0.00     0.000 HD 
HETATM    5  C   UNL     1     -10.799  11.711  65.013  1.00  0.00    -0.346 A  
HETATM    6  C   UNL     1     -10.560  12.180  66.309  1.00  0.00    -0.285 A  
HETATM    7  C   UNL     1     -11.453  13.083  66.888  1.00  0.00    -0.339 A  
HETATM    8  C   UNL     1     -12.759  13.094  64.856  1.00  0.00    -0.421 A  
HETATM    9  C   UNL     1     -12.529  13.579  66.148  1.00  0.00    -0.424 A  
ENDROOT
BRANCH   7  10
HETATM   10  S   UNL     1     -11.144  13.709  68.526  1.00  0.00    -0.290 S  
HETATM   11  O   UNL     1      -9.702  13.697  68.699  1.00  0.00    -0.202 OA 
HETATM   12  O   UNL     1     -11.888  14.946  68.665  1.00  0.00    -0.325 OA 
BRANCH  10  13
HETATM   13  C   UNL     1     -11.816  12.589  69.736  1.00  0.00    -0.310 A  
HETATM   14  C   UNL     1     -12.475  13.126  70.846  1.00  0.00    -0.407 A  
HETATM   15  C   UNL     1     -13.054  12.277  71.790  1.00  0.00    -0.449 A  
HETATM   16  C   UNL     1     -12.945  10.889  71.666  1.00  0.00    -0.464 A  
HETATM   17  N   UNL     1     -13.652  10.051  72.535  1.00  0.00    -0.595 NA 
HETATM   18  C   UNL     1     -12.323  10.364  70.526  1.00  0.00    -0.410 A  
HETATM   19  H2  UNL     1     -14.640  10.302  72.491  1.00  0.00     0.000 HD 
HETATM   20  H1  UNL     1     -13.572   9.038  72.444  1.00  0.00     0.000 HD 
HETATM   21  C   UNL     1     -11.736  11.206  69.570  1.00  0.00    -0.405 A  
ENDBRANCH  10  13
ENDBRANCH   7  10
TORSDOF 2
ENDMDL
MODEL       12
REMARK 921   NORMALIZED FREE ENERGY PREDICTED BY IDOCK:   -6.17 KCAL/MOL
REMARK 922        TOTAL FREE ENERGY PREDICTED BY IDOCK:   -7.32 KCAL/MOL
REMARK 923 INTER-LIGAND FREE ENERGY PREDICTED BY IDOCK:   -7.00 KCAL/MOL
REMARK 924 INTRA-LIGAND FREE ENERGY PREDICTED BY IDOCK:   -0.33 KCAL/MOL
REMARK 927      BINDING AFFINITY PREDICTED BY RF-SCORE:    0.00 PKD
ROOT
HETATM    1  N   UNL     1     -13.471  10.194  72.563  1.00  0.00    -0.556 NA 
HETATM    2  H2  UNL     1     -14.415  10.480  72.821  1.00  0.00     0.000 HD 
HETATM    3  C   UNL     1     -12.993  11.078  71.589  1.00  0.00    -0.456 A  
HETATM    4  H1  UNL     1     -13.478   9.189  72.386  1.00  0.00     0.000 HD 
HETATM    5  C   UNL     1     -12.983  12.454  71.830  1.00  0.00    -0.407 A  
HETATM    6  C   UNL     1     -12.438  13.343  70.898  1.00  0.00    -0.439 A  
HETATM    7  C   UNL     1     -11.862  12.842  69.729  1.00  0.00    -0.310 A  
HETATM    8  C   UNL     1     -12.312  10.589  70.471  1.00  0.00    -0.432 A  
HETATM    9  C   UNL     1     -11.755  11.463  69.533  1.00  0.00    -0.417 A  
ENDROOT
BRANCH   7  10
HETATM   10  S   UNL     1     -11.140  13.962  68.548  1.00  0.00    -0.279 S  
HETATM   11  O   UNL     1     -11.900  15.196  68.641  1.00  0.00    -0.339 OA 
HETATM   12  O   UNL     1      -9.707  13.966  68.775  1.00  0.00    -0.192 OA 
BRANCH  10  13
HETATM   13  C   UNL     1     -11.376  13.334  66.898  1.00  0.00    -0.318 A  
HETATM   14  C   UNL     1     -10.480  12.376  66.416  1.00  0.00    -0.267 A  
HETATM   15  C   UNL     1     -10.663  11.830  65.145  1.00  0.00    -0.343 A  
HETATM   16  C   UNL     1     -11.710  12.262  64.324  1.00  0.00    -0.381 A  
HETATM   17  N   UNL     1     -11.969  11.604  63.117  1.00  0.00    -0.926 NA 
HETATM   18  C   UNL     1     -12.626  13.187  64.838  1.00  0.00    -0.468 A  
HETATM   19  H2  UNL     1     -12.101  10.611  63.313  1.00  0.00     0.000 HD 
HETATM   20  H1  UNL     1     -12.732  11.919  62.519  1.00  0.00     0.000 HD 
HETATM   21  C   UNL     1     -12.454  13.745  66.113  1.00  0.00    -0.466 A  
ENDBRANCH  10  13
ENDBRANCH   7  10
TORSDOF 2
ENDMDL
MODEL       13
REMARK 921   NORMALIZED FREE ENERGY PREDICTED BY IDOCK:   -6.17 KCAL/MOL
REMARK 922        TOTAL FREE ENERGY PREDICTED BY IDOCK:   -7.31 KCAL/MOL
REMARK 923 INTER-LIGAND FREE ENERGY PREDICTED BY IDOCK:   -6.92 KCAL/MOL
REMARK 924 INTRA-LIGAND FREE ENERGY PREDICTED BY IDOCK:   -0.39 KCAL/MOL
REMARK 927      BINDING AFFINITY PREDICTED BY RF-SCORE:    0.00 PKD
ROOT
HETATM    1  N   UNL     1      -9.786  20.754  66.835  1.00  0.00    -0.659 NA 
HETATM    2  H2  UNL     1     -10.515  21.125  66.226  1.00  0.00     0.000 HD 
HETATM    3  C   UNL     1     -10.088  19.418  67.121  1.00  0.00    -0.384 A  
HETATM    4  H1  UNL     1      -9.631  21.420  67.592  1.00  0.00     0.000 HD 
HETATM    5  C   UNL     1     -10.300  18.506  66.084  1.00  0.00    -0.457 A  
HETATM    6  C   UNL     1     -10.527  17.152  66.354  1.00  0.00    -0.255 A  
HETATM    7  C   UNL     1     -10.503  16.703  67.676  1.00  0.00    -0.320 A  
HETATM    8  C   UNL     1      -9.954  18.932  68.425  1.00  0.00    -0.447 A  
HETATM    9  C   UNL     1     -10.170  17.580  68.711  1.00  0.00    -0.373 A  
ENDROOT
BRANCH   7  10
HETATM   10  S   UNL     1     -10.762  14.977  68.029  1.00  0.00    -0.269 S  
HETATM   11  O   UNL     1      -9.483  14.459  68.481  1.00  0.00    -0.206 OA 
HETATM   12  O   UNL     1     -11.933  14.880  68.880  1.00  0.00    -0.305 OA 
BRANCH  10  13
HETATM   13  C   UNL     1     -11.168  14.108  66.529  1.00  0.00    -0.330 A  
HETATM   14  C   UNL     1     -10.124  13.623  65.737  1.00  0.00    -0.311 A  
HETATM   15  C   UNL     1     -10.407  12.897  64.579  1.00  0.00    -0.380 A  
HETATM   16  C   UNL     1     -11.728  12.687  64.172  1.00  0.00    -0.400 A  
HETATM   17  N   UNL     1     -12.001  11.836  63.096  1.00  0.00    -0.890 NA 
HETATM   18  C   UNL     1     -12.764  13.137  64.999  1.00  0.00    -0.456 A  
HETATM   19  H2  UNL     1     -11.572  10.929  63.284  1.00  0.00     0.000 HD 
HETATM   20  H1  UNL     1     -12.965  11.683  62.798  1.00  0.00     0.000 HD 
HETATM   21  C   UNL     1     -12.494  13.869  66.165  1.00  0.00    -0.478 A  
ENDBRANCH  10  13
ENDBRANCH   7  10
TORSDOF 2
ENDMDL
MODEL       14
REMARK 921   NORMALIZED FREE ENERGY PREDICTED BY IDOCK:   -6.16 KCAL/MOL
REMARK 922        TOTAL FREE ENERGY PREDICTED BY IDOCK:   -7.31 KCAL/MOL
REMARK 923 INTER-LIGAND FREE ENERGY PREDICTED BY IDOCK:   -6.89 KCAL/MOL
REMARK 924 INTRA-LIGAND FREE ENERGY PREDICTED BY IDOCK:   -0.42 KCAL/MOL
REMARK 927      BINDING AFFINITY PREDICTED BY RF-SCORE:    0.00 PKD
ROOT
HETATM    1  N   UNL     1     -13.957  13.119  72.592  1.00  0.00    -0.743 NA 
HETATM    2  H2  UNL     1     -13.461  12.441  73.169  1.00  0.00     0.000 HD 
HETATM    3  C   UNL     1     -13.107  13.522  71.556  1.00  0.00    -0.344 A  
HETATM    4  H1  UNL     1     -14.383  13.813  73.207  1.00  0.00     0.000 HD 
HETATM    5  C   UNL     1     -12.524  12.572  70.713  1.00  0.00    -0.357 A  
HETATM    6  C   UNL     1     -11.734  12.964  69.627  1.00  0.00    -0.367 A  
HETATM    7  C   UNL     1     -11.560  14.323  69.361  1.00  0.00    -0.306 A  
HETATM    8  C   UNL     1     -13.016  14.872  71.207  1.00  0.00    -0.431 A  
HETATM    9  C   UNL     1     -12.237  15.280  70.120  1.00  0.00    -0.402 A  
ENDROOT
BRANCH   7  10
HETATM   10  S   UNL     1     -10.581  14.833  67.964  1.00  0.00    -0.248 S  
HETATM   11  O   UNL     1     -10.925  16.221  67.712  1.00  0.00    -0.330 OA 
HETATM   12  O   UNL     1      -9.206  14.458  68.238  1.00  0.00    -0.188 OA 
BRANCH  10  13
HETATM   13  C   UNL     1     -11.064  13.912  66.519  1.00  0.00    -0.308 A  
HETATM   14  C   UNL     1     -10.076  13.229  65.803  1.00  0.00    -0.293 A  
HETATM   15  C   UNL     1     -10.428  12.460  64.693  1.00  0.00    -0.338 A  
HETATM   16  C   UNL     1     -11.754  12.399  64.256  1.00  0.00    -0.380 A  
HETATM   17  N   UNL     1     -12.114  11.511  63.236  1.00  0.00    -0.884 NA 
HETATM   18  C   UNL     1     -12.739  13.049  65.009  1.00  0.00    -0.475 A  
HETATM   19  H2  UNL     1     -11.819  10.573  63.506  1.00  0.00     0.000 HD 
HETATM   20  H1  UNL     1     -13.081  11.467  62.916  1.00  0.00     0.000 HD 
HETATM   21  C   UNL     1     -12.400  13.826  66.126  1.00  0.00    -0.496 A  
ENDBRANCH  10  13
ENDBRANCH   7  10
TORSDOF 2
ENDMDL
MODEL       15
REMARK 921   NORMALIZED FREE ENERGY PREDICTED BY IDOCK:   -6.15 KCAL/MOL
REMARK 922        TOTAL FREE ENERGY PREDICTED BY IDOCK:   -7.29 KCAL/MOL
REMARK 923 INTER-LIGAND FREE ENERGY PREDICTED BY IDOCK:   -6.97 KCAL/MOL
REMARK 924 INTRA-LIGAND FREE ENERGY PREDICTED BY IDOCK:   -0.33 KCAL/MOL
REMARK 927      BINDING AFFINITY PREDICTED BY RF-SCORE:    0.00 PKD
ROOT
HETATM    1  N   UNL     1      -7.437  21.268  67.311  1.00  0.00    -0.732 NA 
HETATM    2  H2  UNL     1      -6.595  21.090  66.763  1.00  0.00     0.000 HD 
HETATM    3  C   UNL     1      -8.110  20.055  67.492  1.00  0.00    -0.316 A  
HETATM    4  H1  UNL     1      -7.920  22.069  66.904  1.00  0.00     0.000 HD 
HETATM    5  C   UNL     1      -7.448  18.958  68.049  1.00  0.00    -0.277 A  
HETATM    6  C   UNL     1      -8.129  17.763  68.306  1.00  0.00    -0.283 A  
HETATM    7  C   UNL     1      -9.497  17.682  68.038  1.00  0.00    -0.282 A  
HETATM    8  C   UNL     1      -9.498  19.993  67.338  1.00  0.00    -0.508 A  
HETATM    9  C   UNL     1     -10.195  18.809  67.597  1.00  0.00    -0.450 A  
ENDROOT
BRANCH   7  10
HETATM   10  S   UNL     1     -10.380  16.176  68.389  1.00  0.00    -0.270 S  
HETATM   11  O   UNL     1      -9.410  15.262  68.965  1.00  0.00    -0.205 OA 
HETATM   12  O   UNL     1     -11.575  16.536  69.127  1.00  0.00    -0.189 OA 
BRANCH  10  13
HETATM   13  C   UNL     1     -10.942  15.439  66.868  1.00  0.00    -0.294 A  
HETATM   14  C   UNL     1     -11.798  14.336  66.941  1.00  0.00    -0.458 A  
HETATM   15  C   UNL     1     -12.295  13.763  65.769  1.00  0.00    -0.523 A  
HETATM   16  C   UNL     1     -11.910  14.250  64.516  1.00  0.00    -0.442 A  
HETATM   17  N   UNL     1     -12.527  13.764  63.358  1.00  0.00    -1.072 NA 
HETATM   18  C   UNL     1     -11.091  15.383  64.459  1.00  0.00    -0.272 A  
HETATM   19  H2  UNL     1     -13.536  13.883  63.455  1.00  0.00     0.000 HD 
HETATM   20  H1  UNL     1     -12.247  14.118  62.444  1.00  0.00     0.000 HD 
HETATM   21  C   UNL     1     -10.583  15.968  65.628  1.00  0.00    -0.392 A  
ENDBRANCH  10  13
ENDBRANCH   7  10
TORSDOF 2
ENDMDL
MODEL       16
REMARK 921   NORMALIZED FREE ENERGY PREDICTED BY IDOCK:   -6.13 KCAL/MOL
REMARK 922        TOTAL FREE ENERGY PREDICTED BY IDOCK:   -7.27 KCAL/MOL
REMARK 923 INTER-LIGAND FREE ENERGY PREDICTED BY IDOCK:   -6.88 KCAL/MOL
REMARK 924 INTRA-LIGAND FREE ENERGY PREDICTED BY IDOCK:   -0.39 KCAL/MOL
REMARK 927      BINDING AFFINITY PREDICTED BY RF-SCORE:    0.00 PKD
ROOT
HETATM    1  N   UNL     1     -12.105  12.176  63.138  1.00  0.00    -0.743 NA 
HETATM    2  H2  UNL     1     -12.846  12.660  62.631  1.00  0.00     0.000 HD 
HETATM    3  C   UNL     1     -11.762  12.945  64.256  1.00  0.00    -0.386 A  
HETATM    4  H1  UNL     1     -11.389  11.895  62.468  1.00  0.00     0.000 HD 
HETATM    5  C   UNL     1     -12.743  13.330  65.175  1.00  0.00    -0.464 A  
HETATM    6  C   UNL     1     -12.404  14.032  66.336  1.00  0.00    -0.468 A  
HETATM    7  C   UNL     1     -11.062  14.316  66.598  1.00  0.00    -0.321 A  
HETATM    8  C   UNL     1     -10.419  13.137  64.591  1.00  0.00    -0.411 A  
HETATM    9  C   UNL     1     -10.062  13.830  65.752  1.00  0.00    -0.322 A  
ENDROOT
BRANCH   7  10
HETATM   10  S   UNL     1     -10.616  15.184  68.087  1.00  0.00    -0.251 S  
HETATM   11  O   UNL     1     -11.766  15.097  68.968  1.00  0.00    -0.308 OA 
HETATM   12  O   UNL     1      -9.326  14.677  68.514  1.00  0.00    -0.191 OA 
BRANCH  10  13
HETATM   13  C   UNL     1     -10.372  16.912  67.728  1.00  0.00    -0.327 A  
HETATM   14  C   UNL     1     -10.131  17.784  68.793  1.00  0.00    -0.381 A  
HETATM   15  C   UNL     1      -9.890  19.137  68.543  1.00  0.00    -0.483 A  
HETATM   16  C   UNL     1      -9.932  19.642  67.241  1.00  0.00    -0.395 A  
HETATM   17  N   UNL     1      -9.545  20.963  66.991  1.00  0.00    -0.688 NA 
HETATM   18  C   UNL     1     -10.128  18.749  66.181  1.00  0.00    -0.421 A  
HETATM   19  H2  UNL     1      -8.603  21.099  67.360  1.00  0.00     0.000 HD 
HETATM   20  H1  UNL     1      -9.576  21.332  66.041  1.00  0.00     0.000 HD 
HETATM   21  C   UNL     1     -10.373  17.389  66.417  1.00  0.00    -0.317 A  
ENDBRANCH  10  13
ENDBRANCH   7  10
TORSDOF 2
ENDMDL
MODEL       17
REMARK 921   NORMALIZED FREE ENERGY PREDICTED BY IDOCK:   -6.04 KCAL/MOL
REMARK 922        TOTAL FREE ENERGY PREDICTED BY IDOCK:   -7.17 KCAL/MOL
REMARK 923 INTER-LIGAND FREE ENERGY PREDICTED BY IDOCK:   -6.81 KCAL/MOL
REMARK 924 INTRA-LIGAND FREE ENERGY PREDICTED BY IDOCK:   -0.36 KCAL/MOL
REMARK 927      BINDING AFFINITY PREDICTED BY RF-SCORE:    0.00 PKD
ROOT
HETATM    1  N   UNL     1     -13.583  10.037  72.562  1.00  0.00    -0.595 NA 
HETATM    2  H2  UNL     1     -12.937   9.273  72.759  1.00  0.00     0.000 HD 
HETATM    3  C   UNL     1     -12.963  10.920  71.671  1.00  0.00    -0.464 A  
HETATM    4  H1  UNL     1     -13.957  10.377  73.448  1.00  0.00     0.000 HD 
HETATM    5  C   UNL     1     -12.451  10.454  70.458  1.00  0.00    -0.403 A  
HETATM    6  C   UNL     1     -11.897  11.337  69.525  1.00  0.00    -0.427 A  
HETATM    7  C   UNL     1     -11.893  12.707  69.796  1.00  0.00    -0.309 A  
HETATM    8  C   UNL     1     -13.053  12.300  71.874  1.00  0.00    -0.469 A  
HETATM    9  C   UNL     1     -12.511  13.197  70.948  1.00  0.00    -0.407 A  
ENDROOT
BRANCH   7  10
HETATM   10  S   UNL     1     -11.216  13.843  68.604  1.00  0.00    -0.287 S  
HETATM   11  O   UNL     1     -12.133  14.968  68.550  1.00  0.00    -0.257 OA 
HETATM   12  O   UNL     1      -9.822  14.051  68.945  1.00  0.00    -0.181 OA 
BRANCH  10  13
HETATM   13  C   UNL     1     -11.223  13.097  66.987  1.00  0.00    -0.294 A  
HETATM   14  C   UNL     1     -12.285  13.385  66.126  1.00  0.00    -0.471 A  
HETATM   15  C   UNL     1     -12.298  12.854  64.835  1.00  0.00    -0.532 A  
HETATM   16  C   UNL     1     -11.282  11.996  64.404  1.00  0.00    -0.344 A  
HETATM   17  N   UNL     1     -11.230  11.591  63.066  1.00  0.00    -0.823 NA 
HETATM   18  C   UNL     1     -10.201  11.754  65.260  1.00  0.00    -0.307 A  
HETATM   19  H2  UNL     1     -11.221  12.424  62.477  1.00  0.00     0.000 HD 
HETATM   20  H1  UNL     1     -10.488  10.964  62.752  1.00  0.00     0.000 HD 
HETATM   21  C   UNL     1     -10.176  12.280  66.560  1.00  0.00    -0.235 A  
ENDBRANCH  10  13
ENDBRANCH   7  10
TORSDOF 2
ENDMDL
MODEL       18
REMARK 921   NORMALIZED FREE ENERGY PREDICTED BY IDOCK:   -6.02 KCAL/MOL
REMARK 922        TOTAL FREE ENERGY PREDICTED BY IDOCK:   -7.15 KCAL/MOL
REMARK 923 INTER-LIGAND FREE ENERGY PREDICTED BY IDOCK:   -6.73 KCAL/MOL
REMARK 924 INTRA-LIGAND FREE ENERGY PREDICTED BY IDOCK:   -0.41 KCAL/MOL
REMARK 927      BINDING AFFINITY PREDICTED BY RF-SCORE:    0.00 PKD
ROOT
HETATM    1  N   UNL     1     -11.524  16.378  63.835  1.00  0.00    -1.618 NA 
HETATM    2  H2  UNL     1     -10.642  16.574  63.362  1.00  0.00     0.000 HD 
HETATM    3  C   UNL     1     -11.336  15.280  64.680  1.00  0.00    -0.358 A  
HETATM    4  H1  UNL     1     -12.267  16.368  63.136  1.00  0.00     0.000 HD 
HETATM    5  C   UNL     1     -10.318  15.293  65.638  1.00  0.00    -0.389 A  
HETATM    6  C   UNL     1     -10.167  14.235  66.540  1.00  0.00    -0.277 A  
HETATM    7  C   UNL     1     -11.071  13.171  66.507  1.00  0.00    -0.294 A  
HETATM    8  C   UNL     1     -12.296  14.265  64.738  1.00  0.00    -0.440 A  
HETATM    9  C   UNL     1     -12.164  13.204  65.639  1.00  0.00    -0.521 A  
ENDROOT
BRANCH   7  10
HETATM   10  S   UNL     1     -10.905  11.833  67.670  1.00  0.00    -0.231 S  
HETATM   11  O   UNL     1      -9.944  12.275  68.664  1.00  0.00    -0.200 OA 
HETATM   12  O   UNL     1     -12.243  11.438  68.070  1.00  0.00    -0.607 OA 
BRANCH  10  13
HETATM   13  C   UNL     1     -10.194  10.415  66.861  1.00  0.00    -0.227 A  
HETATM   14  C   UNL     1     -10.296   9.170  67.488  1.00  0.00    -0.324 A  
HETATM   15  C   UNL     1      -9.790   8.031  66.860  1.00  0.00    -0.318 A  
HETATM   16  C   UNL     1      -9.138   8.124  65.626  1.00  0.00    -0.035 A  
HETATM   17  N   UNL     1      -8.768   6.961  64.942  1.00  0.00    -0.345 NA 
HETATM   18  C   UNL     1      -9.085   9.369  64.988  1.00  0.00    -0.271 A  
HETATM   19  H2  UNL     1      -9.597   6.378  64.826  1.00  0.00     0.000 HD 
HETATM   20  H1  UNL     1      -8.292   7.029  64.042  1.00  0.00     0.000 HD 
HETATM   21  C   UNL     1      -9.588  10.522  65.608  1.00  0.00    -0.278 A  
ENDBRANCH  10  13
ENDBRANCH   7  10
TORSDOF 2
ENDMDL
MODEL       19
REMARK 921   NORMALIZED FREE ENERGY PREDICTED BY IDOCK:   -5.94 KCAL/MOL
REMARK 922        TOTAL FREE ENERGY PREDICTED BY IDOCK:   -7.06 KCAL/MOL
REMARK 923 INTER-LIGAND FREE ENERGY PREDICTED BY IDOCK:   -6.64 KCAL/MOL
REMARK 924 INTRA-LIGAND FREE ENERGY PREDICTED BY IDOCK:   -0.41 KCAL/MOL
REMARK 927      BINDING AFFINITY PREDICTED BY RF-SCORE:    0.00 PKD
ROOT
HETATM    1  N   UNL     1     -12.492  11.390  62.901  1.00  0.00    -0.863 NA 
HETATM    2  H2  UNL     1     -12.756  11.687  61.962  1.00  0.00     0.000 HD 
HETATM    3  C   UNL     1     -11.867  12.464  63.544  1.00  0.00    -0.521 A  
HETATM    4  H1  UNL     1     -12.022  10.488  62.832  1.00  0.00     0.000 HD 
HETATM    5  C   UNL     1     -12.512  13.701  63.639  1.00  0.00    -0.230 A  
HETATM    6  C   UNL     1     -11.932  14.760  64.344  1.00  0.00    -0.433 A  
HETATM    7  C   UNL     1     -10.712  14.566  64.994  1.00  0.00    -0.427 A  
HETATM    8  C   UNL     1     -10.706  12.255  64.293  1.00  0.00    -0.389 A  
HETATM    9  C   UNL     1     -10.118  13.301  65.010  1.00  0.00    -0.247 A  
ENDROOT
BRANCH   7  10
HETATM   10  S   UNL     1      -9.978  15.899  65.918  1.00  0.00    -0.369 S  
HETATM   11  O   UNL     1      -8.555  15.615  65.980  1.00  0.00    -0.242 OA 
HETATM   12  O   UNL     1     -10.452  17.141  65.339  1.00  0.00    -0.633 OA 
BRANCH  10  13
HETATM   13  C   UNL     1     -10.581  15.875  67.594  1.00  0.00    -0.307 A  
HETATM   14  C   UNL     1     -10.149  16.874  68.471  1.00  0.00    -0.297 A  
HETATM   15  C   UNL     1     -10.638  16.911  69.778  1.00  0.00    -0.098 A  
HETATM   16  C   UNL     1     -11.523  15.932  70.239  1.00  0.00    -0.366 A  
HETATM   17  N   UNL     1     -12.117  16.065  71.499  1.00  0.00    -0.533 NA 
HETATM   18  C   UNL     1     -11.983  14.966  69.337  1.00  0.00    -0.336 A  
HETATM   19  H2  UNL     1     -12.586  16.970  71.540  1.00  0.00     0.000 HD 
HETATM   20  H1  UNL     1     -12.762  15.350  71.835  1.00  0.00     0.000 HD 
HETATM   21  C   UNL     1     -11.499  14.915  68.021  1.00  0.00    -0.355 A  
ENDBRANCH  10  13
ENDBRANCH   7  10
TORSDOF 2
ENDMDL
MODEL       20
REMARK 921   NORMALIZED FREE ENERGY PREDICTED BY IDOCK:   -5.91 KCAL/MOL
REMARK 922        TOTAL FREE ENERGY PREDICTED BY IDOCK:   -7.02 KCAL/MOL
REMARK 923 INTER-LIGAND FREE ENERGY PREDICTED BY IDOCK:   -6.61 KCAL/MOL
REMARK 924 INTRA-LIGAND FREE ENERGY PREDICTED BY IDOCK:   -0.41 KCAL/MOL
REMARK 927      BINDING AFFINITY PREDICTED BY RF-SCORE:    0.00 PKD
ROOT
HETATM    1  N   UNL     1      -8.190   7.357  64.279  1.00  0.00    -0.340 NA 
HETATM    2  H2  UNL     1      -8.720   6.488  64.351  1.00  0.00     0.000 HD 
HETATM    3  C   UNL     1      -8.865   8.346  65.004  1.00  0.00     0.017 A  
HETATM    4  H1  UNL     1      -7.954   7.508  63.299  1.00  0.00     0.000 HD 
HETATM    5  C   UNL     1      -9.188   8.138  66.348  1.00  0.00    -0.250 A  
HETATM    6  C   UNL     1      -9.793   9.147  67.104  1.00  0.00    -0.253 A  
HETATM    7  C   UNL     1     -10.041  10.389  66.518  1.00  0.00    -0.228 A  
HETATM    8  C   UNL     1      -9.015   9.628  64.469  1.00  0.00    -0.278 A  
HETATM    9  C   UNL     1      -9.611  10.650  65.215  1.00  0.00    -0.293 A  
ENDROOT
BRANCH   7  10
HETATM   10  S   UNL     1     -10.785  11.690  67.480  1.00  0.00    -0.227 S  
HETATM   11  O   UNL     1     -12.098  11.207  67.868  1.00  0.00    -0.627 OA 
HETATM   12  O   UNL     1      -9.823  12.086  68.491  1.00  0.00    -0.209 OA 
BRANCH  10  13
HETATM   13  C   UNL     1     -11.045  13.124  66.457  1.00  0.00    -0.294 A  
HETATM   14  C   UNL     1     -10.036  14.090  66.397  1.00  0.00    -0.301 A  
HETATM   15  C   UNL     1     -10.188  15.203  65.569  1.00  0.00    -0.405 A  
HETATM   16  C   UNL     1     -11.360  15.391  64.830  1.00  0.00    -0.376 A  
HETATM   17  N   UNL     1     -11.438  16.430  63.896  1.00  0.00    -1.618 NA 
HETATM   18  C   UNL     1     -12.341  14.393  64.864  1.00  0.00    -0.414 A  
HETATM   19  H2  UNL     1     -10.657  16.338  63.245  1.00  0.00     0.000 HD 
HETATM   20  H1  UNL     1     -12.293  16.567  63.357  1.00  0.00     0.000 HD 
HETATM   21  C   UNL     1     -12.202  13.270  65.692  1.00  0.00    -0.514 A  
ENDBRANCH  10  13
ENDBRANCH   7  10
TORSDOF 2
ENDMDL
MODEL       21
REMARK 921   NORMALIZED FREE ENERGY PREDICTED BY IDOCK:   -5.82 KCAL/MOL
REMARK 922        TOTAL FREE ENERGY PREDICTED BY IDOCK:   -6.93 KCAL/MOL
REMARK 923 INTER-LIGAND FREE ENERGY PREDICTED BY IDOCK:   -6.54 KCAL/MOL
REMARK 924 INTRA-LIGAND FREE ENERGY PREDICTED BY IDOCK:   -0.39 KCAL/MOL
REMARK 927      BINDING AFFINITY PREDICTED BY RF-SCORE:    0.00 PKD
ROOT
HETATM    1  N   UNL     1     -12.313  15.750  63.781  1.00  0.00    -0.992 NA 
HETATM    2  H2  UNL     1     -11.674  15.984  63.022  1.00  0.00     0.000 HD 
HETATM    3  C   UNL     1     -11.688  14.811  64.609  1.00  0.00    -0.422 A  
HETATM    4  H1  UNL     1     -13.230  15.554  63.381  1.00  0.00     0.000 HD 
HETATM    5  C   UNL     1     -10.432  15.080  65.159  1.00  0.00    -0.438 A  
HETATM    6  C   UNL     1      -9.830  14.184  66.048  1.00  0.00    -0.329 A  
HETATM    7  C   UNL     1     -10.513  13.025  66.421  1.00  0.00    -0.276 A  
HETATM    8  C   UNL     1     -12.403  13.706  65.081  1.00  0.00    -0.486 A  
HETATM    9  C   UNL     1     -11.819  12.804  65.976  1.00  0.00    -0.495 A  
ENDROOT
BRANCH   7  10
HETATM   10  S   UNL     1      -9.769  11.891  67.575  1.00  0.00    -0.184 S  
HETATM   11  O   UNL     1      -9.609  10.635  66.863  1.00  0.00    -0.166 OA 
HETATM   12  O   UNL     1      -8.618  12.556  68.155  1.00  0.00    -0.177 OA 
BRANCH  10  13
HETATM   13  C   UNL     1     -10.890  11.580  68.923  1.00  0.00    -0.218 A  
HETATM   14  C   UNL     1     -11.053  10.263  69.362  1.00  0.00    -0.299 A  
HETATM   15  C   UNL     1     -11.888   9.989  70.447  1.00  0.00    -0.343 A  
HETATM   16  C   UNL     1     -12.604  11.013  71.074  1.00  0.00    -0.411 A  
HETATM   17  N   UNL     1     -13.319  10.748  72.247  1.00  0.00    -0.576 NA 
HETATM   18  C   UNL     1     -12.396  12.332  70.654  1.00  0.00    -0.375 A  
HETATM   19  H2  UNL     1     -12.681  10.336  72.928  1.00  0.00     0.000 HD 
HETATM   20  H1  UNL     1     -13.842  11.495  72.705  1.00  0.00     0.000 HD 
HETATM   21  C   UNL     1     -11.560  12.621  69.565  1.00  0.00    -0.348 A  
ENDBRANCH  10  13
ENDBRANCH   7  10
TORSDOF 2
ENDMDL
MODEL       22
REMARK 921   NORMALIZED FREE ENERGY PREDICTED BY IDOCK:   -5.74 KCAL/MOL
REMARK 922        TOTAL FREE ENERGY PREDICTED BY IDOCK:   -6.84 KCAL/MOL
REMARK 923 INTER-LIGAND FREE ENERGY PREDICTED BY IDOCK:   -6.46 KCAL/MOL
REMARK 924 INTRA-LIGAND FREE ENERGY PREDICTED BY IDOCK:   -0.38 KCAL/MOL
REMARK 927      BINDING AFFINITY PREDICTED BY RF-SCORE:    0.00 PKD
ROOT
HETATM    1  N   UNL     1     -12.495  14.990  63.744  1.00  0.00    -1.049 NA 
HETATM    2  H2  UNL     1     -13.495  14.988  63.946  1.00  0.00     0.000 HD 
HETATM    3  C   UNL     1     -11.847  14.234  64.727  1.00  0.00    -0.429 A  
HETATM    4  H1  UNL     1     -12.207  15.951  63.560  1.00  0.00     0.000 HD 
HETATM    5  C   UNL     1     -12.241  12.917  64.979  1.00  0.00    -0.515 A  
HETATM    6  C   UNL     1     -11.552  12.126  65.904  1.00  0.00    -0.425 A  
HETATM    7  C   UNL     1     -10.432  12.648  66.554  1.00  0.00    -0.247 A  
HETATM    8  C   UNL     1     -10.659  14.699  65.300  1.00  0.00    -0.409 A  
HETATM    9  C   UNL     1      -9.955  13.917  66.220  1.00  0.00    -0.315 A  
ENDROOT
BRANCH   7  10
HETATM   10  S   UNL     1      -9.531  11.640  67.712  1.00  0.00    -0.183 S  
HETATM   11  O   UNL     1      -9.212  10.407  67.014  1.00  0.00    -0.146 OA 
HETATM   12  O   UNL     1      -8.472  12.460  68.269  1.00  0.00    -0.171 OA 
BRANCH  10  13
HETATM   13  C   UNL     1     -10.585  11.200  69.078  1.00  0.00    -0.218 A  
HETATM   14  C   UNL     1     -11.575  12.105  69.472  1.00  0.00    -0.382 A  
HETATM   15  C   UNL     1     -12.448  11.772  70.509  1.00  0.00    -0.317 A  
HETATM   16  C   UNL     1     -12.318  10.560  71.193  1.00  0.00    -0.405 A  
HETATM   17  N   UNL     1     -13.287  10.176  72.127  1.00  0.00    -0.552 NA 
HETATM   18  C   UNL     1     -11.353   9.644  70.756  1.00  0.00    -0.409 A  
HETATM   19  H2  UNL     1     -14.199  10.193  71.670  1.00  0.00     0.000 HD 
HETATM   20  H1  UNL     1     -13.191   9.292  72.626  1.00  0.00     0.000 HD 
HETATM   21  C   UNL     1     -10.468   9.965  69.717  1.00  0.00    -0.292 A  
ENDBRANCH  10  13
ENDBRANCH   7  10
TORSDOF 2
ENDMDL
MODEL       23
REMARK 921   NORMALIZED FREE ENERGY PREDICTED BY IDOCK:   -5.74 KCAL/MOL
REMARK 922        TOTAL FREE ENERGY PREDICTED BY IDOCK:   -6.84 KCAL/MOL
REMARK 923 INTER-LIGAND FREE ENERGY PREDICTED BY IDOCK:   -6.42 KCAL/MOL
REMARK 924 INTRA-LIGAND FREE ENERGY PREDICTED BY IDOCK:   -0.42 KCAL/MOL
REMARK 927      BINDING AFFINITY PREDICTED BY RF-SCORE:    0.00 PKD
ROOT
HETATM    1  N   UNL     1     -12.600  12.133  63.313  1.00  0.00    -0.845 NA 
HETATM    2  H2  UNL     1     -12.301  11.159  63.274  1.00  0.00     0.000 HD 
HETATM    3  C   UNL     1     -12.094  12.702  64.486  1.00  0.00    -0.417 A  
HETATM    4  H1  UNL     1     -13.600  12.169  63.113  1.00  0.00     0.000 HD 
HETATM    5  C   UNL     1     -10.724  12.653  64.760  1.00  0.00    -0.335 A  
HETATM    6  C   UNL     1     -10.195  13.284  65.890  1.00  0.00    -0.295 A  
HETATM    7  C   UNL     1     -11.042  14.006  66.733  1.00  0.00    -0.306 A  
HETATM    8  C   UNL     1     -12.906  13.522  65.275  1.00  0.00    -0.410 A  
HETATM    9  C   UNL     1     -12.390  14.167  66.404  1.00  0.00    -0.431 A  
ENDROOT
BRANCH   7  10
HETATM   10  S   UNL     1     -10.375  14.838  68.158  1.00  0.00    -0.243 S  
HETATM   11  O   UNL     1     -11.388  14.744  69.195  1.00  0.00    -0.253 OA 
HETATM   12  O   UNL     1      -9.044  14.308  68.386  1.00  0.00    -0.186 OA 
BRANCH  10  13
HETATM   13  C   UNL     1     -10.163  16.570  67.802  1.00  0.00    -0.278 A  
HETATM   14  C   UNL     1     -10.061  16.967  66.466  1.00  0.00    -0.320 A  
HETATM   15  C   UNL     1      -9.941  18.321  66.150  1.00  0.00    -0.313 A  
HETATM   16  C   UNL     1      -9.873  19.288  67.157  1.00  0.00    -0.339 A  
HETATM   17  N   UNL     1      -9.901  20.647  66.825  1.00  0.00    -0.619 NA 
HETATM   18  C   UNL     1     -10.024  18.881  68.488  1.00  0.00    -0.463 A  
HETATM   19  H2  UNL     1     -10.734  20.824  66.262  1.00  0.00     0.000 HD 
HETATM   20  H1  UNL     1      -9.852  21.352  67.560  1.00  0.00     0.000 HD 
HETATM   21  C   UNL     1     -10.144  17.524  68.821  1.00  0.00    -0.363 A  
ENDBRANCH  10  13
ENDBRANCH   7  10
TORSDOF 2
ENDMDL
MODEL       24
REMARK 921   NORMALIZED FREE ENERGY PREDICTED BY IDOCK:   -5.73 KCAL/MOL
REMARK 922        TOTAL FREE ENERGY PREDICTED BY IDOCK:   -6.83 KCAL/MOL
REMARK 923 INTER-LIGAND FREE ENERGY PREDICTED BY IDOCK:   -6.47 KCAL/MOL
REMARK 924 INTRA-LIGAND FREE ENERGY PREDICTED BY IDOCK:   -0.36 KCAL/MOL
REMARK 927      BINDING AFFINITY PREDICTED BY RF-SCORE:    0.00 PKD
ROOT
HETATM    1  N   UNL     1     -10.188  18.300  66.055  1.00  0.00    -0.554 NA 
HETATM    2  H2  UNL     1      -9.272  18.367  66.499  1.00  0.00     0.000 HD 
HETATM    3  C   UNL     1     -10.525  16.946  65.942  1.00  0.00    -0.285 A  
HETATM    4  H1  UNL     1     -10.188  18.900  65.231  1.00  0.00     0.000 HD 
HETATM    5  C   UNL     1     -10.524  16.123  67.072  1.00  0.00    -0.306 A  
HETATM    6  C   UNL     1     -10.932  14.788  66.988  1.00  0.00    -0.324 A  
HETATM    7  C   UNL     1     -11.384  14.285  65.766  1.00  0.00    -0.326 A  
HETATM    8  C   UNL     1     -11.086  16.459  64.759  1.00  0.00    -0.246 A  
HETATM    9  C   UNL     1     -11.506  15.129  64.660  1.00  0.00    -0.363 A  
ENDROOT
BRANCH   7  10
HETATM   10  S   UNL     1     -11.933  12.595  65.654  1.00  0.00    -0.439 S  
HETATM   11  O   UNL     1     -11.958  12.085  67.013  1.00  0.00    -0.609 OA 
HETATM   12  O   UNL     1     -13.138  12.583  64.846  1.00  0.00    -0.833 OA 
BRANCH  10  13
HETATM   13  C   UNL     1     -10.732  11.628  64.763  1.00  0.00    -0.309 A  
HETATM   14  C   UNL     1     -10.096  10.578  65.431  1.00  0.00    -0.358 A  
HETATM   15  C   UNL     1      -9.184   9.771  64.749  1.00  0.00    -0.319 A  
HETATM   16  C   UNL     1      -8.861  10.027  63.413  1.00  0.00    -0.237 A  
HETATM   17  N   UNL     1      -8.061   9.126  62.703  1.00  0.00    -0.139 NA 
HETATM   18  C   UNL     1      -9.540  11.052  62.744  1.00  0.00    -0.337 A  
HETATM   19  H2  UNL     1      -8.487   8.201  62.760  1.00  0.00     0.000 HD 
HETATM   20  H1  UNL     1      -7.825   9.313  61.728  1.00  0.00     0.000 HD 
HETATM   21  C   UNL     1     -10.458  11.871  63.417  1.00  0.00    -0.487 A  
ENDBRANCH  10  13
ENDBRANCH   7  10
TORSDOF 2
ENDMDL
MODEL       25
REMARK 921   NORMALIZED FREE ENERGY PREDICTED BY IDOCK:   -5.72 KCAL/MOL
REMARK 922        TOTAL FREE ENERGY PREDICTED BY IDOCK:   -6.81 KCAL/MOL
REMARK 923 INTER-LIGAND FREE ENERGY PREDICTED BY IDOCK:   -6.75 KCAL/MOL
REMARK 924 INTRA-LIGAND FREE ENERGY PREDICTED BY IDOCK:   -0.06 KCAL/MOL
REMARK 927      BINDING AFFINITY PREDICTED BY RF-SCORE:    0.00 PKD
ROOT
HETATM    1  N   UNL     1     -13.956   9.086  73.314  1.00  0.00    -1.199 NA 
HETATM    2  H2  UNL     1     -14.868   9.519  73.166  1.00  0.00     0.000 HD 
HETATM    3  C   UNL     1     -13.148   9.370  72.207  1.00  0.00    -0.428 A  
HETATM    4  H1  UNL     1     -14.103   8.121  73.609  1.00  0.00     0.000 HD 
HETATM    5  C   UNL     1     -12.946  10.693  71.803  1.00  0.00    -0.577 A  
HETATM    6  C   UNL     1     -12.081  10.996  70.746  1.00  0.00    -0.467 A  
HETATM    7  C   UNL     1     -11.381   9.966  70.115  1.00  0.00    -0.275 A  
HETATM    8  C   UNL     1     -12.355   8.368  71.641  1.00  0.00    -0.359 A  
HETATM    9  C   UNL     1     -11.480   8.656  70.589  1.00  0.00    -0.256 A  
ENDROOT
BRANCH   7  10
HETATM   10  S   UNL     1     -10.256  10.344  68.788  1.00  0.00    -0.200 S  
HETATM   11  O   UNL     1      -9.089  10.948  69.406  1.00  0.00    -0.050 OA 
HETATM   12  O   UNL     1     -10.119   9.146  67.981  1.00  0.00    -0.176 OA 
BRANCH  10  13
HETATM   13  C   UNL     1     -10.971  11.578  67.722  1.00  0.00    -0.236 A  
HETATM   14  C   UNL     1     -11.114  11.282  66.364  1.00  0.00    -0.257 A  
HETATM   15  C   UNL     1     -11.714  12.208  65.509  1.00  0.00    -0.384 A  
HETATM   16  C   UNL     1     -12.134  13.454  65.985  1.00  0.00    -0.438 A  
HETATM   17  N   UNL     1     -12.863  14.310  65.153  1.00  0.00    -0.672 NA 
HETATM   18  C   UNL     1     -12.028  13.718  67.356  1.00  0.00    -0.423 A  
HETATM   19  H2  UNL     1     -13.679  13.805  64.806  1.00  0.00     0.000 HD 
HETATM   20  H1  UNL     1     -13.169  15.219  65.501  1.00  0.00     0.000 HD 
HETATM   21  C   UNL     1     -11.427  12.797  68.226  1.00  0.00    -0.354 A  
ENDBRANCH  10  13
ENDBRANCH   7  10
TORSDOF 2
ENDMDL
MODEL       26
REMARK 921   NORMALIZED FREE ENERGY PREDICTED BY IDOCK:   -5.70 KCAL/MOL
REMARK 922        TOTAL FREE ENERGY PREDICTED BY IDOCK:   -6.79 KCAL/MOL
REMARK 923 INTER-LIGAND FREE ENERGY PREDICTED BY IDOCK:   -6.42 KCAL/MOL
REMARK 924 INTRA-LIGAND FREE ENERGY PREDICTED BY IDOCK:   -0.37 KCAL/MOL
REMARK 927      BINDING AFFINITY PREDICTED BY RF-SCORE:    0.00 PKD
ROOT
HETATM    1  N   UNL     1      -9.849  17.508  68.298  1.00  0.00    -0.301 NA 
HETATM    2  H2  UNL     1     -10.087  18.444  67.971  1.00  0.00     0.000 HD 
HETATM    3  C   UNL     1     -10.454  16.577  67.446  1.00  0.00    -0.310 A  
HETATM    4  H1  UNL     1     -10.014  17.468  69.304  1.00  0.00     0.000 HD 
HETATM    5  C   UNL     1     -10.229  16.632  66.068  1.00  0.00    -0.366 A  
HETATM    6  C   UNL     1     -10.765  15.663  65.214  1.00  0.00    -0.444 A  
HETATM    7  C   UNL     1     -11.502  14.607  65.751  1.00  0.00    -0.338 A  
HETATM    8  C   UNL     1     -11.096  15.454  67.976  1.00  0.00    -0.312 A  
HETATM    9  C   UNL     1     -11.631  14.472  67.136  1.00  0.00    -0.406 A  
ENDROOT
BRANCH   7  10
HETATM   10  S   UNL     1     -12.166  13.352  64.676  1.00  0.00    -0.404 S  
HETATM   11  O   UNL     1     -13.371  12.861  65.321  1.00  0.00    -0.498 OA 
HETATM   12  O   UNL     1     -12.228  13.914  63.340  1.00  0.00    -0.635 OA 
BRANCH  10  13
HETATM   13  C   UNL     1     -11.036  11.979  64.582  1.00  0.00    -0.322 A  
HETATM   14  C   UNL     1     -10.788  11.241  65.743  1.00  0.00    -0.257 A  
HETATM   15  C   UNL     1      -9.944  10.130  65.694  1.00  0.00    -0.348 A  
HETATM   16  C   UNL     1      -9.303   9.770  64.505  1.00  0.00    -0.235 A  
HETATM   17  N   UNL     1      -8.580   8.574  64.435  1.00  0.00    -0.390 NA 
HETATM   18  C   UNL     1      -9.598  10.489  63.340  1.00  0.00    -0.376 A  
HETATM   19  H2  UNL     1      -9.194   7.809  64.716  1.00  0.00     0.000 HD 
HETATM   20  H1  UNL     1      -8.113   8.312  63.567  1.00  0.00     0.000 HD 
HETATM   21  C   UNL     1     -10.443  11.608  63.375  1.00  0.00    -0.482 A  
ENDBRANCH  10  13
ENDBRANCH   7  10
TORSDOF 2
ENDMDL
MODEL       27
REMARK 921   NORMALIZED FREE ENERGY PREDICTED BY IDOCK:   -5.70 KCAL/MOL
REMARK 922        TOTAL FREE ENERGY PREDICTED BY IDOCK:   -6.79 KCAL/MOL
REMARK 923 INTER-LIGAND FREE ENERGY PREDICTED BY IDOCK:   -6.42 KCAL/MOL
REMARK 924 INTRA-LIGAND FREE ENERGY PREDICTED BY IDOCK:   -0.37 KCAL/MOL
REMARK 927      BINDING AFFINITY PREDICTED BY RF-SCORE:    0.00 PKD
ROOT
HETATM    1  N   UNL     1      -8.114   8.841  63.037  1.00  0.00    -0.167 NA 
HETATM    2  H2  UNL     1      -7.480   9.371  62.440  1.00  0.00     0.000 HD 
HETATM    3  C   UNL     1      -8.961   9.742  63.691  1.00  0.00    -0.240 A  
HETATM    4  H1  UNL     1      -7.564   8.170  63.573  1.00  0.00     0.000 HD 
HETATM    5  C   UNL     1      -9.716  10.661  62.956  1.00  0.00    -0.362 A  
HETATM    6  C   UNL     1     -10.623  11.516  63.591  1.00  0.00    -0.491 A  
HETATM    7  C   UNL     1     -10.804  11.421  64.972  1.00  0.00    -0.246 A  
HETATM    8  C   UNL     1      -9.239   9.584  65.052  1.00  0.00    -0.297 A  
HETATM    9  C   UNL     1     -10.148  10.425  65.700  1.00  0.00    -0.337 A  
ENDROOT
BRANCH   7  10
HETATM   10  S   UNL     1     -11.977  12.484  65.786  1.00  0.00    -0.368 S  
HETATM   11  O   UNL     1     -13.146  12.533  64.926  1.00  0.00    -0.833 OA 
HETATM   12  O   UNL     1     -12.096  12.028  67.158  1.00  0.00    -0.587 OA 
BRANCH  10  13
HETATM   13  C   UNL     1     -11.331  14.142  65.871  1.00  0.00    -0.323 A  
HETATM   14  C   UNL     1     -11.405  14.944  64.729  1.00  0.00    -0.400 A  
HETATM   15  C   UNL     1     -10.950  16.263  64.775  1.00  0.00    -0.288 A  
HETATM   16  C   UNL     1     -10.378  16.783  65.939  1.00  0.00    -0.328 A  
HETATM   17  N   UNL     1     -10.064  18.144  66.016  1.00  0.00    -0.554 NA 
HETATM   18  C   UNL     1     -10.354  15.984  67.089  1.00  0.00    -0.295 A  
HETATM   19  H2  UNL     1     -10.904  18.681  65.801  1.00  0.00     0.000 HD 
HETATM   20  H1  UNL     1      -9.646  18.523  66.866  1.00  0.00     0.000 HD 
HETATM   21  C   UNL     1     -10.806  14.656  67.057  1.00  0.00    -0.304 A  
ENDBRANCH  10  13
ENDBRANCH   7  10
TORSDOF 2
ENDMDL
MODEL       28
REMARK 921   NORMALIZED FREE ENERGY PREDICTED BY IDOCK:   -5.69 KCAL/MOL
REMARK 922        TOTAL FREE ENERGY PREDICTED BY IDOCK:   -6.78 KCAL/MOL
REMARK 923 INTER-LIGAND FREE ENERGY PREDICTED BY IDOCK:   -6.61 KCAL/MOL
REMARK 924 INTRA-LIGAND FREE ENERGY PREDICTED BY IDOCK:   -0.16 KCAL/MOL
REMARK 927      BINDING AFFINITY PREDICTED BY RF-SCORE:    0.00 PKD
ROOT
HETATM    1  N   UNL     1     -11.036  15.299  71.274  1.00  0.00    -0.512 NA 
HETATM    2  H2  UNL     1     -10.701  14.466  71.757  1.00  0.00     0.000 HD 
HETATM    3  C   UNL     1     -11.164  14.997  69.913  1.00  0.00    -0.276 A  
HETATM    4  H1  UNL     1     -10.471  16.093  71.574  1.00  0.00     0.000 HD 
HETATM    5  C   UNL     1     -11.938  13.909  69.501  1.00  0.00    -0.396 A  
HETATM    6  C   UNL     1     -12.136  13.642  68.143  1.00  0.00    -0.310 A  
HETATM    7  C   UNL     1     -11.585  14.498  67.188  1.00  0.00    -0.388 A  
HETATM    8  C   UNL     1     -10.717  15.904  68.948  1.00  0.00    -0.254 A  
HETATM    9  C   UNL     1     -10.914  15.656  67.586  1.00  0.00    -0.315 A  
ENDROOT
BRANCH   7  10
HETATM   10  S   UNL     1     -11.855  14.184  65.456  1.00  0.00    -0.379 S  
HETATM   11  O   UNL     1     -13.283  13.973  65.300  1.00  0.00    -0.782 OA 
HETATM   12  O   UNL     1     -11.184  15.235  64.715  1.00  0.00    -0.405 OA 
BRANCH  10  13
HETATM   13  C   UNL     1     -11.056  12.663  64.987  1.00  0.00    -0.291 A  
HETATM   14  C   UNL     1     -10.771  12.450  63.635  1.00  0.00    -0.497 A  
HETATM   15  C   UNL     1     -10.104  11.290  63.238  1.00  0.00    -0.428 A  
HETATM   16  C   UNL     1      -9.755  10.311  64.173  1.00  0.00    -0.291 A  
HETATM   17  N   UNL     1      -8.960   9.227  63.785  1.00  0.00    -0.421 NA 
HETATM   18  C   UNL     1     -10.003  10.558  65.528  1.00  0.00    -0.342 A  
HETATM   19  H2  UNL     1      -8.105   9.589  63.362  1.00  0.00     0.000 HD 
HETATM   20  H1  UNL     1      -8.705   8.512  64.467  1.00  0.00     0.000 HD 
HETATM   21  C   UNL     1     -10.674  11.719  65.941  1.00  0.00    -0.328 A  
ENDBRANCH  10  13
ENDBRANCH   7  10
TORSDOF 2
ENDMDL
MODEL       29
REMARK 921   NORMALIZED FREE ENERGY PREDICTED BY IDOCK:   -5.69 KCAL/MOL
REMARK 922        TOTAL FREE ENERGY PREDICTED BY IDOCK:   -6.77 KCAL/MOL
REMARK 923 INTER-LIGAND FREE ENERGY PREDICTED BY IDOCK:   -6.51 KCAL/MOL
REMARK 924 INTRA-LIGAND FREE ENERGY PREDICTED BY IDOCK:   -0.27 KCAL/MOL
REMARK 927      BINDING AFFINITY PREDICTED BY RF-SCORE:    0.00 PKD
ROOT
HETATM    1  N   UNL     1      -8.867   9.280  63.894  1.00  0.00    -0.382 NA 
HETATM    2  H2  UNL     1      -8.997   8.554  64.599  1.00  0.00     0.000 HD 
HETATM    3  C   UNL     1      -9.605  10.405  64.279  1.00  0.00    -0.318 A  
HETATM    4  H1  UNL     1      -9.007   8.863  62.974  1.00  0.00     0.000 HD 
HETATM    5  C   UNL     1      -9.413  10.977  65.539  1.00  0.00    -0.250 A  
HETATM    6  C   UNL     1     -10.087  12.146  65.908  1.00  0.00    -0.270 A  
HETATM    7  C   UNL     1     -10.932  12.769  64.988  1.00  0.00    -0.289 A  
HETATM    8  C   UNL     1     -10.364  11.103  63.335  1.00  0.00    -0.419 A  
HETATM    9  C   UNL     1     -11.038  12.277  63.685  1.00  0.00    -0.537 A  
ENDROOT
BRANCH   7  10
HETATM   10  S   UNL     1     -11.774  14.273  65.436  1.00  0.00    -0.366 S  
HETATM   11  O   UNL     1     -11.079  15.347  64.749  1.00  0.00    -0.416 OA 
HETATM   12  O   UNL     1     -13.191  14.059  65.215  1.00  0.00    -0.782 OA 
BRANCH  10  13
HETATM   13  C   UNL     1     -11.586  14.572  67.181  1.00  0.00    -0.388 A  
HETATM   14  C   UNL     1     -12.157  13.664  68.077  1.00  0.00    -0.309 A  
HETATM   15  C   UNL     1     -11.990  13.843  69.452  1.00  0.00    -0.402 A  
HETATM   16  C   UNL     1     -11.295  14.950  69.949  1.00  0.00    -0.277 A  
HETATM   17  N   UNL     1     -11.009  15.039  71.316  1.00  0.00    -0.562 NA 
HETATM   18  C   UNL     1     -10.689  15.825  69.040  1.00  0.00    -0.235 A  
HETATM   19  H2  UNL     1     -10.513  14.192  71.597  1.00  0.00     0.000 HD 
HETATM   20  H1  UNL     1     -10.502  15.846  71.679  1.00  0.00     0.000 HD 
HETATM   21  C   UNL     1     -10.850  15.657  67.657  1.00  0.00    -0.307 A  
ENDBRANCH  10  13
ENDBRANCH   7  10
TORSDOF 2
ENDMDL
MODEL       30
REMARK 921   NORMALIZED FREE ENERGY PREDICTED BY IDOCK:   -5.61 KCAL/MOL
REMARK 922        TOTAL FREE ENERGY PREDICTED BY IDOCK:   -6.70 KCAL/MOL
REMARK 923 INTER-LIGAND FREE ENERGY PREDICTED BY IDOCK:   -6.82 KCAL/MOL
REMARK 924 INTRA-LIGAND FREE ENERGY PREDICTED BY IDOCK:    0.12 KCAL/MOL
REMARK 927      BINDING AFFINITY PREDICTED BY RF-SCORE:    0.00 PKD
ROOT
HETATM    1  N   UNL     1     -11.023   6.842  73.502  1.00  0.00    -0.534 NA 
HETATM    2  H2  UNL     1     -11.751   6.146  73.344  1.00  0.00     0.000 HD 
HETATM    3  C   UNL     1     -11.168   7.855  72.548  1.00  0.00    -0.376 A  
HETATM    4  H1  UNL     1     -10.132   6.357  73.605  1.00  0.00     0.000 HD 
HETATM    5  C   UNL     1     -12.389   8.521  72.406  1.00  0.00    -0.424 A  
HETATM    6  C   UNL     1     -12.526   9.586  71.510  1.00  0.00    -0.463 A  
HETATM    7  C   UNL     1     -11.417  10.014  70.778  1.00  0.00    -0.356 A  
HETATM    8  C   UNL     1     -10.046   8.369  71.893  1.00  0.00    -0.337 A  
HETATM    9  C   UNL     1     -10.164   9.439  71.000  1.00  0.00    -0.369 A  
ENDROOT
BRANCH   7  10
HETATM   10  S   UNL     1     -11.573  11.387  69.656  1.00  0.00    -0.349 S  
HETATM   11  O   UNL     1     -10.220  11.793  69.320  1.00  0.00    -0.010 OA 
HETATM   12  O   UNL     1     -12.499  10.992  68.612  1.00  0.00    -0.462 OA 
BRANCH  10  13
HETATM   13  C   UNL     1     -12.331  12.766  70.491  1.00  0.00    -0.275 A  
HETATM   14  C   UNL     1     -13.097  12.513  71.632  1.00  0.00    -0.414 A  
HETATM   15  C   UNL     1     -13.667  13.575  72.337  1.00  0.00    -0.704 A  
HETATM   16  C   UNL     1     -13.520  14.891  71.890  1.00  0.00    -0.380 A  
HETATM   17  N   UNL     1     -13.969  15.953  72.683  1.00  0.00    -0.493 NA 
HETATM   18  C   UNL     1     -12.711  15.133  70.773  1.00  0.00    -0.463 A  
HETATM   19  H2  UNL     1     -13.536  15.873  73.603  1.00  0.00     0.000 HD 
HETATM   20  H1  UNL     1     -13.862  16.913  72.356  1.00  0.00     0.000 HD 
HETATM   21  C   UNL     1     -12.134  14.076  70.055  1.00  0.00    -0.412 A  
ENDBRANCH  10  13
ENDBRANCH   7  10
TORSDOF 2
ENDMDL
MODEL       31
REMARK 921   NORMALIZED FREE ENERGY PREDICTED BY IDOCK:   -5.59 KCAL/MOL
REMARK 922        TOTAL FREE ENERGY PREDICTED BY IDOCK:   -6.67 KCAL/MOL
REMARK 923 INTER-LIGAND FREE ENERGY PREDICTED BY IDOCK:   -6.27 KCAL/MOL
REMARK 924 INTRA-LIGAND FREE ENERGY PREDICTED BY IDOCK:   -0.40 KCAL/MOL
REMARK 927      BINDING AFFINITY PREDICTED BY RF-SCORE:    0.00 PKD
ROOT
HETATM    1  N   UNL     1      -8.381   8.800  64.081  1.00  0.00    -0.247 NA 
HETATM    2  H2  UNL     1      -8.763   7.960  64.515  1.00  0.00     0.000 HD 
HETATM    3  C   UNL     1      -9.326   9.825  64.198  1.00  0.00    -0.175 A  
HETATM    4  H1  UNL     1      -8.007   8.547  63.167  1.00  0.00     0.000 HD 
HETATM    5  C   UNL     1      -9.839  10.172  65.451  1.00  0.00    -0.375 A  
HETATM    6  C   UNL     1     -10.726  11.245  65.591  1.00  0.00    -0.279 A  
HETATM    7  C   UNL     1     -11.071  12.000  64.470  1.00  0.00    -0.331 A  
HETATM    8  C   UNL     1      -9.593  10.661  63.110  1.00  0.00    -0.382 A  
HETATM    9  C   UNL     1     -10.472  11.741  63.235  1.00  0.00    -0.439 A  
ENDROOT
BRANCH   7  10
HETATM   10  S   UNL     1     -12.177  13.385  64.642  1.00  0.00    -0.404 S  
HETATM   11  O   UNL     1     -12.251  14.011  63.333  1.00  0.00    -0.621 OA 
HETATM   12  O   UNL     1     -13.381  12.901  65.291  1.00  0.00    -0.498 OA 
BRANCH  10  13
HETATM   13  C   UNL     1     -11.471  14.588  65.748  1.00  0.00    -0.342 A  
HETATM   14  C   UNL     1     -10.720  15.634  65.202  1.00  0.00    -0.463 A  
HETATM   15  C   UNL     1     -10.191  16.620  66.037  1.00  0.00    -0.366 A  
HETATM   16  C   UNL     1     -10.363  16.552  67.423  1.00  0.00    -0.290 A  
HETATM   17  N   UNL     1      -9.956  17.619  68.231  1.00  0.00    -0.319 NA 
HETATM   18  C   UNL     1     -11.155  15.526  67.951  1.00  0.00    -0.321 A  
HETATM   19  H2  UNL     1     -10.405  18.470  67.891  1.00  0.00     0.000 HD 
HETATM   20  H1  UNL     1     -10.081  17.569  69.242  1.00  0.00     0.000 HD 
HETATM   21  C   UNL     1     -11.692  14.528  67.124  1.00  0.00    -0.420 A  
ENDBRANCH  10  13
ENDBRANCH   7  10
TORSDOF 2
ENDMDL
MODEL       32
REMARK 921   NORMALIZED FREE ENERGY PREDICTED BY IDOCK:   -5.55 KCAL/MOL
REMARK 922        TOTAL FREE ENERGY PREDICTED BY IDOCK:   -6.62 KCAL/MOL
REMARK 923 INTER-LIGAND FREE ENERGY PREDICTED BY IDOCK:   -6.21 KCAL/MOL
REMARK 924 INTRA-LIGAND FREE ENERGY PREDICTED BY IDOCK:   -0.42 KCAL/MOL
REMARK 927      BINDING AFFINITY PREDICTED BY RF-SCORE:    0.00 PKD
ROOT
HETATM    1  N   UNL     1      -8.644  17.688  65.796  1.00  0.00    -0.449 NA 
HETATM    2  H2  UNL     1      -9.265  18.440  66.092  1.00  0.00     0.000 HD 
HETATM    3  C   UNL     1      -9.235  16.467  66.138  1.00  0.00    -0.330 A  
HETATM    4  H1  UNL     1      -7.699  17.908  66.112  1.00  0.00     0.000 HD 
HETATM    5  C   UNL     1     -10.529  16.164  65.705  1.00  0.00    -0.384 A  
HETATM    6  C   UNL     1     -11.104  14.918  65.975  1.00  0.00    -0.334 A  
HETATM    7  C   UNL     1     -10.358  13.951  66.652  1.00  0.00    -0.278 A  
HETATM    8  C   UNL     1      -8.466  15.451  66.712  1.00  0.00    -0.307 A  
HETATM    9  C   UNL     1      -9.023  14.197  66.982  1.00  0.00    -0.251 A  
ENDROOT
BRANCH   7  10
HETATM   10  S   UNL     1     -11.069  12.351  66.976  1.00  0.00    -0.296 S  
HETATM   11  O   UNL     1     -12.216  12.230  66.094  1.00  0.00    -0.647 OA 
HETATM   12  O   UNL     1      -9.994  11.379  66.917  1.00  0.00    -0.201 OA 
BRANCH  10  13
HETATM   13  C   UNL     1     -11.693  12.295  68.643  1.00  0.00    -0.328 A  
HETATM   14  C   UNL     1     -11.967  13.502  69.292  1.00  0.00    -0.378 A  
HETATM   15  C   UNL     1     -12.501  13.493  70.582  1.00  0.00    -0.405 A  
HETATM   16  C   UNL     1     -12.725  12.288  71.255  1.00  0.00    -0.251 A  
HETATM   17  N   UNL     1     -13.395  12.287  72.483  1.00  0.00    -0.525 NA 
HETATM   18  C   UNL     1     -12.490  11.087  70.576  1.00  0.00    -0.432 A  
HETATM   19  H2  UNL     1     -14.290  12.761  72.362  1.00  0.00     0.000 HD 
HETATM   20  H1  UNL     1     -13.558  11.408  72.975  1.00  0.00     0.000 HD 
HETATM   21  C   UNL     1     -11.953  11.081  69.280  1.00  0.00    -0.410 A  
ENDBRANCH  10  13
ENDBRANCH   7  10
TORSDOF 2
ENDMDL
MODEL       33
REMARK 921   NORMALIZED FREE ENERGY PREDICTED BY IDOCK:   -5.54 KCAL/MOL
REMARK 922        TOTAL FREE ENERGY PREDICTED BY IDOCK:   -6.61 KCAL/MOL
REMARK 923 INTER-LIGAND FREE ENERGY PREDICTED BY IDOCK:   -6.47 KCAL/MOL
REMARK 924 INTRA-LIGAND FREE ENERGY PREDICTED BY IDOCK:   -0.14 KCAL/MOL
REMARK 927      BINDING AFFINITY PREDICTED BY RF-SCORE:    0.00 PKD
ROOT
HETATM    1  N   UNL     1     -13.786  15.980  73.759  1.00  0.00    -0.728 NA 
HETATM    2  H2  UNL     1     -14.329  15.166  74.044  1.00  0.00     0.000 HD 
HETATM    3  C   UNL     1     -13.145  15.683  72.551  1.00  0.00    -0.472 A  
HETATM    4  H1  UNL     1     -13.245  16.302  74.562  1.00  0.00     0.000 HD 
HETATM    5  C   UNL     1     -13.885  15.242  71.451  1.00  0.00    -0.603 A  
HETATM    6  C   UNL     1     -13.269  15.015  70.216  1.00  0.00    -0.025 A  
HETATM    7  C   UNL     1     -11.903  15.269  70.073  1.00  0.00    -0.334 A  
HETATM    8  C   UNL     1     -11.807  16.040  72.360  1.00  0.00    -0.639 A  
HETATM    9  C   UNL     1     -11.178  15.826  71.130  1.00  0.00    -0.380 A  
ENDROOT
BRANCH   7  10
HETATM   10  S   UNL     1     -11.114  15.010  68.499  1.00  0.00    -0.287 S  
HETATM   11  O   UNL     1      -9.870  14.314  68.778  1.00  0.00    -0.227 OA 
HETATM   12  O   UNL     1     -12.099  14.421  67.611  1.00  0.00    -0.363 OA 
BRANCH  10  13
HETATM   13  C   UNL     1     -10.676  16.578  67.778  1.00  0.00    -0.329 A  
HETATM   14  C   UNL     1     -10.764  17.724  68.574  1.00  0.00    -0.148 A  
HETATM   15  C   UNL     1     -10.384  18.963  68.054  1.00  0.00    -0.457 A  
HETATM   16  C   UNL     1      -9.958  19.082  66.728  1.00  0.00    -0.360 A  
HETATM   17  N   UNL     1      -9.442  20.298  66.267  1.00  0.00    -0.620 NA 
HETATM   18  C   UNL     1      -9.830  17.920  65.958  1.00  0.00    -0.180 A  
HETATM   19  H2  UNL     1      -8.674  20.576  66.879  1.00  0.00     0.000 HD 
HETATM   20  H1  UNL     1      -9.131  20.385  65.299  1.00  0.00     0.000 HD 
HETATM   21  C   UNL     1     -10.209  16.670  66.466  1.00  0.00    -0.314 A  
ENDBRANCH  10  13
ENDBRANCH   7  10
TORSDOF 2
ENDMDL
MODEL       34
REMARK 921   NORMALIZED FREE ENERGY PREDICTED BY IDOCK:   -5.52 KCAL/MOL
REMARK 922        TOTAL FREE ENERGY PREDICTED BY IDOCK:   -6.59 KCAL/MOL
REMARK 923 INTER-LIGAND FREE ENERGY PREDICTED BY IDOCK:   -6.22 KCAL/MOL
REMARK 924 INTRA-LIGAND FREE ENERGY PREDICTED BY IDOCK:   -0.37 KCAL/MOL
REMARK 927      BINDING AFFINITY PREDICTED BY RF-SCORE:    0.00 PKD
ROOT
HETATM    1  N   UNL     1     -13.247  10.257  72.140  1.00  0.00    -0.555 NA 
HETATM    2  H2  UNL     1     -14.203  10.467  71.855  1.00  0.00     0.000 HD 
HETATM    3  C   UNL     1     -12.396  10.536  71.065  1.00  0.00    -0.399 A  
HETATM    4  H1  UNL     1     -13.238   9.336  72.578  1.00  0.00     0.000 HD 
HETATM    5  C   UNL     1     -12.408  11.798  70.465  1.00  0.00    -0.387 A  
HETATM    6  C   UNL     1     -11.510  12.115  69.440  1.00  0.00    -0.355 A  
HETATM    7  C   UNL     1     -10.564  11.169  69.041  1.00  0.00    -0.218 A  
HETATM    8  C   UNL     1     -11.371   9.646  70.732  1.00  0.00    -0.409 A  
HETATM    9  C   UNL     1     -10.461   9.950  69.715  1.00  0.00    -0.292 A  
ENDROOT
BRANCH   7  10
HETATM   10  S   UNL     1      -9.397  11.571  67.758  1.00  0.00    -0.173 S  
HETATM   11  O   UNL     1      -8.519  12.586  68.311  1.00  0.00    -0.169 OA 
HETATM   12  O   UNL     1      -8.851  10.323  67.261  1.00  0.00    -0.132 OA 
BRANCH  10  13
HETATM   13  C   UNL     1     -10.246  12.320  66.383  1.00  0.00    -0.225 A  
HETATM   14  C   UNL     1     -10.693  11.495  65.347  1.00  0.00    -0.335 A  
HETATM   15  C   UNL     1     -11.403  12.043  64.278  1.00  0.00    -0.433 A  
HETATM   16  C   UNL     1     -11.634  13.419  64.203  1.00  0.00    -0.398 A  
HETATM   17  N   UNL     1     -12.470  13.935  63.206  1.00  0.00    -1.112 NA 
HETATM   18  C   UNL     1     -11.222  14.227  65.269  1.00  0.00    -0.337 A  
HETATM   19  H2  UNL     1     -13.370  13.458  63.262  1.00  0.00     0.000 HD 
HETATM   20  H1  UNL     1     -12.639  14.939  63.152  1.00  0.00     0.000 HD 
HETATM   21  C   UNL     1     -10.508  13.690  66.350  1.00  0.00    -0.288 A  
ENDBRANCH  10  13
ENDBRANCH   7  10
TORSDOF 2
ENDMDL
MODEL       35
REMARK 921   NORMALIZED FREE ENERGY PREDICTED BY IDOCK:   -5.51 KCAL/MOL
REMARK 922        TOTAL FREE ENERGY PREDICTED BY IDOCK:   -6.58 KCAL/MOL
REMARK 923 INTER-LIGAND FREE ENERGY PREDICTED BY IDOCK:   -6.17 KCAL/MOL
REMARK 924 INTRA-LIGAND FREE ENERGY PREDICTED BY IDOCK:   -0.41 KCAL/MOL
REMARK 927      BINDING AFFINITY PREDICTED BY RF-SCORE:    0.00 PKD
ROOT
HETATM    1  N   UNL     1     -12.388  11.628  62.930  1.00  0.00    -0.861 NA 
HETATM    2  H2  UNL     1     -12.692  12.486  62.471  1.00  0.00     0.000 HD 
HETATM    3  C   UNL     1     -11.868  11.961  64.186  1.00  0.00    -0.318 A  
HETATM    4  H1  UNL     1     -11.829  11.091  62.268  1.00  0.00     0.000 HD 
HETATM    5  C   UNL     1     -12.633  12.697  65.094  1.00  0.00    -0.459 A  
HETATM    6  C   UNL     1     -12.156  12.971  66.380  1.00  0.00    -0.428 A  
HETATM    7  C   UNL     1     -10.914  12.468  66.772  1.00  0.00    -0.265 A  
HETATM    8  C   UNL     1     -10.682  11.371  64.633  1.00  0.00    -0.378 A  
HETATM    9  C   UNL     1     -10.194  11.629  65.918  1.00  0.00    -0.277 A  
ENDROOT
BRANCH   7  10
HETATM   10  S   UNL     1     -10.308  12.787  68.415  1.00  0.00    -0.230 S  
HETATM   11  O   UNL     1      -8.900  12.430  68.405  1.00  0.00    -0.182 OA 
HETATM   12  O   UNL     1     -10.720  14.130  68.777  1.00  0.00    -0.245 OA 
BRANCH  10  13
HETATM   13  C   UNL     1     -11.107  11.696  69.575  1.00  0.00    -0.164 A  
HETATM   14  C   UNL     1     -12.097  12.223  70.409  1.00  0.00    -0.385 A  
HETATM   15  C   UNL     1     -12.776  11.386  71.297  1.00  0.00    -0.498 A  
HETATM   16  C   UNL     1     -12.446  10.031  71.397  1.00  0.00    -0.411 A  
HETATM   17  N   UNL     1     -13.230   9.177  72.180  1.00  0.00    -0.423 NA 
HETATM   18  C   UNL     1     -11.486   9.508  70.523  1.00  0.00    -0.337 A  
HETATM   19  H2  UNL     1     -14.199   9.252  71.868  1.00  0.00     0.000 HD 
HETATM   20  H1  UNL     1     -12.989   8.188  72.254  1.00  0.00     0.000 HD 
HETATM   21  C   UNL     1     -10.796  10.337  69.627  1.00  0.00    -0.311 A  
ENDBRANCH  10  13
ENDBRANCH   7  10
TORSDOF 2
ENDMDL
MODEL       36
REMARK 921   NORMALIZED FREE ENERGY PREDICTED BY IDOCK:   -5.48 KCAL/MOL
REMARK 922        TOTAL FREE ENERGY PREDICTED BY IDOCK:   -6.55 KCAL/MOL
REMARK 923 INTER-LIGAND FREE ENERGY PREDICTED BY IDOCK:   -6.15 KCAL/MOL
REMARK 924 INTRA-LIGAND FREE ENERGY PREDICTED BY IDOCK:   -0.39 KCAL/MOL
REMARK 927      BINDING AFFINITY PREDICTED BY RF-SCORE:    0.00 PKD
ROOT
HETATM    1  N   UNL     1     -13.681  13.243  72.596  1.00  0.00    -0.695 NA 
HETATM    2  H2  UNL     1     -13.184  12.737  73.329  1.00  0.00     0.000 HD 
HETATM    3  C   UNL     1     -12.961  13.111  71.404  1.00  0.00    -0.298 A  
HETATM    4  H1  UNL     1     -13.921  14.168  72.952  1.00  0.00     0.000 HD 
HETATM    5  C   UNL     1     -12.631  11.844  70.916  1.00  0.00    -0.361 A  
HETATM    6  C   UNL     1     -11.980  11.694  69.687  1.00  0.00    -0.390 A  
HETATM    7  C   UNL     1     -11.691  12.825  68.922  1.00  0.00    -0.326 A  
HETATM    8  C   UNL     1     -12.768  14.219  70.574  1.00  0.00    -0.391 A  
HETATM    9  C   UNL     1     -12.124  14.086  69.340  1.00  0.00    -0.386 A  
ENDROOT
BRANCH   7  10
HETATM   10  S   UNL     1     -10.887  12.645  67.344  1.00  0.00    -0.250 S  
HETATM   11  O   UNL     1      -9.841  11.656  67.531  1.00  0.00    -0.185 OA 
HETATM   12  O   UNL     1     -11.924  12.435  66.351  1.00  0.00    -0.559 OA 
BRANCH  10  13
HETATM   13  C   UNL     1     -10.081  14.170  66.899  1.00  0.00    -0.258 A  
HETATM   14  C   UNL     1      -8.753  14.359  67.294  1.00  0.00    -0.228 A  
HETATM   15  C   UNL     1      -8.077  15.523  66.923  1.00  0.00    -0.284 A  
HETATM   16  C   UNL     1      -8.725  16.526  66.197  1.00  0.00    -0.300 A  
HETATM   17  N   UNL     1      -7.996  17.616  65.707  1.00  0.00    -0.541 NA 
HETATM   18  C   UNL     1     -10.038  16.302  65.768  1.00  0.00    -0.373 A  
HETATM   19  H2  UNL     1      -7.222  17.259  65.146  1.00  0.00     0.000 HD 
HETATM   20  H1  UNL     1      -8.469  18.348  65.177  1.00  0.00     0.000 HD 
HETATM   21  C   UNL     1     -10.731  15.139  66.135  1.00  0.00    -0.327 A  
ENDBRANCH  10  13
ENDBRANCH   7  10
TORSDOF 2
ENDMDL
MODEL       37
REMARK 921   NORMALIZED FREE ENERGY PREDICTED BY IDOCK:   -5.45 KCAL/MOL
REMARK 922        TOTAL FREE ENERGY PREDICTED BY IDOCK:   -6.51 KCAL/MOL
REMARK 923 INTER-LIGAND FREE ENERGY PREDICTED BY IDOCK:   -6.44 KCAL/MOL
REMARK 924 INTRA-LIGAND FREE ENERGY PREDICTED BY IDOCK:   -0.07 KCAL/MOL
REMARK 927      BINDING AFFINITY PREDICTED BY RF-SCORE:    0.00 PKD
ROOT
HETATM    1  N   UNL     1     -12.939  14.347  64.834  1.00  0.00    -0.572 NA 
HETATM    2  H2  UNL     1     -13.597  13.877  64.212  1.00  0.00     0.000 HD 
HETATM    3  C   UNL     1     -12.384  13.393  65.693  1.00  0.00    -0.470 A  
HETATM    4  H1  UNL     1     -13.395  15.178  65.212  1.00  0.00     0.000 HD 
HETATM    5  C   UNL     1     -11.760  12.255  65.174  1.00  0.00    -0.414 A  
HETATM    6  C   UNL     1     -11.134  11.331  66.017  1.00  0.00    -0.181 A  
HETATM    7  C   UNL     1     -11.100  11.571  67.392  1.00  0.00    -0.282 A  
HETATM    8  C   UNL     1     -12.241  13.673  67.054  1.00  0.00    -0.373 A  
HETATM    9  C   UNL     1     -11.611  12.764  67.910  1.00  0.00    -0.400 A  
ENDROOT
BRANCH   7  10
HETATM   10  S   UNL     1     -10.281  10.417  68.472  1.00  0.00    -0.183 S  
HETATM   11  O   UNL     1     -10.079   9.207  67.695  1.00  0.00    -0.191 OA 
HETATM   12  O   UNL     1      -9.149  11.105  69.064  1.00  0.00    -0.134 OA 
BRANCH  10  13
HETATM   13  C   UNL     1     -11.359   9.987  69.823  1.00  0.00    -0.228 A  
HETATM   14  C   UNL     1     -11.403   8.653  70.240  1.00  0.00    -0.146 A  
HETATM   15  C   UNL     1     -12.201   8.290  71.326  1.00  0.00    -0.295 A  
HETATM   16  C   UNL     1     -12.997   9.236  71.978  1.00  0.00    -0.425 A  
HETATM   17  N   UNL     1     -13.676   8.890  73.151  1.00  0.00    -1.100 NA 
HETATM   18  C   UNL     1     -12.907  10.576  71.580  1.00  0.00    -0.581 A  
HETATM   19  H2  UNL     1     -12.998   8.523  73.819  1.00  0.00     0.000 HD 
HETATM   20  H1  UNL     1     -14.257   9.581  73.626  1.00  0.00     0.000 HD 
HETATM   21  C   UNL     1     -12.110  10.955  70.490  1.00  0.00    -0.464 A  
ENDBRANCH  10  13
ENDBRANCH   7  10
TORSDOF 2
ENDMDL
MODEL       38
REMARK 921   NORMALIZED FREE ENERGY PREDICTED BY IDOCK:   -5.44 KCAL/MOL
REMARK 922        TOTAL FREE ENERGY PREDICTED BY IDOCK:   -6.50 KCAL/MOL
REMARK 923 INTER-LIGAND FREE ENERGY PREDICTED BY IDOCK:   -6.10 KCAL/MOL
REMARK 924 INTRA-LIGAND FREE ENERGY PREDICTED BY IDOCK:   -0.41 KCAL/MOL
REMARK 927      BINDING AFFINITY PREDICTED BY RF-SCORE:    0.00 PKD
ROOT
HETATM    1  N   UNL     1      -9.898   6.627  66.240  1.00  0.00    -0.395 NA 
HETATM    2  H2  UNL     1     -10.779   6.131  66.372  1.00  0.00     0.000 HD 
HETATM    3  C   UNL     1     -10.067   7.947  66.672  1.00  0.00    -0.240 A  
HETATM    4  H1  UNL     1      -9.558   6.433  65.298  1.00  0.00     0.000 HD 
HETATM    5  C   UNL     1     -10.531   8.213  67.963  1.00  0.00    -0.242 A  
HETATM    6  C   UNL     1     -10.632   9.526  68.433  1.00  0.00    -0.261 A  
HETATM    7  C   UNL     1     -10.226  10.582  67.615  1.00  0.00    -0.197 A  
HETATM    8  C   UNL     1      -9.559   9.005  65.912  1.00  0.00    -0.317 A  
HETATM    9  C   UNL     1      -9.645  10.323  66.371  1.00  0.00    -0.233 A  
ENDROOT
BRANCH   7  10
HETATM   10  S   UNL     1     -10.323  12.255  68.214  1.00  0.00    -0.224 S  
HETATM   11  O   UNL     1     -11.456  12.297  69.121  1.00  0.00    -0.258 OA 
HETATM   12  O   UNL     1      -9.000  12.627  68.679  1.00  0.00    -0.092 OA 
BRANCH  10  13
HETATM   13  C   UNL     1     -10.700  13.358  66.867  1.00  0.00    -0.273 A  
HETATM   14  C   UNL     1     -11.937  13.228  66.228  1.00  0.00    -0.471 A  
HETATM   15  C   UNL     1     -12.284  14.106  65.200  1.00  0.00    -0.439 A  
HETATM   16  C   UNL     1     -11.389  15.089  64.766  1.00  0.00    -0.406 A  
HETATM   17  N   UNL     1     -11.804  16.052  63.839  1.00  0.00    -1.338 NA 
HETATM   18  C   UNL     1     -10.174  15.237  65.445  1.00  0.00    -0.414 A  
HETATM   19  H2  UNL     1     -12.638  16.512  64.205  1.00  0.00     0.000 HD 
HETATM   20  H1  UNL     1     -11.151  16.768  63.522  1.00  0.00     0.000 HD 
HETATM   21  C   UNL     1      -9.812  14.362  66.480  1.00  0.00    -0.298 A  
ENDBRANCH  10  13
ENDBRANCH   7  10
TORSDOF 2
ENDMDL
MODEL       39
REMARK 921   NORMALIZED FREE ENERGY PREDICTED BY IDOCK:   -5.44 KCAL/MOL
REMARK 922        TOTAL FREE ENERGY PREDICTED BY IDOCK:   -6.50 KCAL/MOL
REMARK 923 INTER-LIGAND FREE ENERGY PREDICTED BY IDOCK:   -6.13 KCAL/MOL
REMARK 924 INTRA-LIGAND FREE ENERGY PREDICTED BY IDOCK:   -0.37 KCAL/MOL
REMARK 927      BINDING AFFINITY PREDICTED BY RF-SCORE:    0.00 PKD
ROOT
HETATM    1  N   UNL     1      -8.496  20.183  66.276  1.00  0.00    -0.524 NA 
HETATM    2  H2  UNL     1      -8.073  20.025  65.361  1.00  0.00     0.000 HD 
HETATM    3  C   UNL     1      -9.079  18.985  66.704  1.00  0.00    -0.329 A  
HETATM    4  H1  UNL     1      -9.050  21.038  66.230  1.00  0.00     0.000 HD 
HETATM    5  C   UNL     1      -8.320  17.814  66.767  1.00  0.00    -0.271 A  
HETATM    6  C   UNL     1      -8.870  16.628  67.265  1.00  0.00    -0.206 A  
HETATM    7  C   UNL     1     -10.182  16.627  67.740  1.00  0.00    -0.292 A  
HETATM    8  C   UNL     1     -10.349  18.993  67.288  1.00  0.00    -0.505 A  
HETATM    9  C   UNL     1     -10.910  17.817  67.797  1.00  0.00    -0.238 A  
ENDROOT
BRANCH   7  10
HETATM   10  S   UNL     1     -10.883  15.130  68.403  1.00  0.00    -0.265 S  
HETATM   11  O   UNL     1     -11.924  14.724  67.475  1.00  0.00    -0.352 OA 
HETATM   12  O   UNL     1      -9.783  14.233  68.706  1.00  0.00    -0.221 OA 
BRANCH  10  13
HETATM   13  C   UNL     1     -11.682  15.474  69.956  1.00  0.00    -0.346 A  
HETATM   14  C   UNL     1     -12.958  14.947  70.179  1.00  0.00    -0.103 A  
HETATM   15  C   UNL     1     -13.594  15.159  71.403  1.00  0.00    -0.570 A  
HETATM   16  C   UNL     1     -12.990  15.932  72.399  1.00  0.00    -0.433 A  
HETATM   17  N   UNL     1     -13.570  16.012  73.670  1.00  0.00    -0.844 NA 
HETATM   18  C   UNL     1     -11.694  16.412  72.181  1.00  0.00    -0.453 A  
HETATM   19  H2  UNL     1     -13.696  15.065  74.027  1.00  0.00     0.000 HD 
HETATM   20  H1  UNL     1     -13.130  16.577  74.396  1.00  0.00     0.000 HD 
HETATM   21  C   UNL     1     -11.043  16.209  70.955  1.00  0.00    -0.178 A  
ENDBRANCH  10  13
ENDBRANCH   7  10
TORSDOF 2
ENDMDL
MODEL       40
REMARK 921   NORMALIZED FREE ENERGY PREDICTED BY IDOCK:   -5.38 KCAL/MOL
REMARK 922        TOTAL FREE ENERGY PREDICTED BY IDOCK:   -6.44 KCAL/MOL
REMARK 923 INTER-LIGAND FREE ENERGY PREDICTED BY IDOCK:   -6.11 KCAL/MOL
REMARK 924 INTRA-LIGAND FREE ENERGY PREDICTED BY IDOCK:   -0.33 KCAL/MOL
REMARK 927      BINDING AFFINITY PREDICTED BY RF-SCORE:    0.00 PKD
ROOT
HETATM    1  N   UNL     1     -13.882  16.105  73.679  1.00  0.00    -0.755 NA 
HETATM    2  H2  UNL     1     -14.490  15.348  73.991  1.00  0.00     0.000 HD 
HETATM    3  C   UNL     1     -13.223  15.689  72.517  1.00  0.00    -0.497 A  
HETATM    4  H1  UNL     1     -13.348  16.439  74.481  1.00  0.00     0.000 HD 
HETATM    5  C   UNL     1     -13.954  15.231  71.417  1.00  0.00    -0.601 A  
HETATM    6  C   UNL     1     -13.314  14.885  70.223  1.00  0.00     0.124 A  
HETATM    7  C   UNL     1     -11.930  15.037  70.117  1.00  0.00    -0.320 A  
HETATM    8  C   UNL     1     -11.858  15.942  72.355  1.00  0.00    -0.618 A  
HETATM    9  C   UNL     1     -11.204  15.609  71.165  1.00  0.00    -0.409 A  
ENDROOT
BRANCH   7  10
HETATM   10  S   UNL     1     -11.108  14.627  68.592  1.00  0.00    -0.276 S  
HETATM   11  O   UNL     1     -11.910  15.207  67.530  1.00  0.00    -0.283 OA 
HETATM   12  O   UNL     1      -9.713  14.994  68.739  1.00  0.00    -0.212 OA 
BRANCH  10  13
HETATM   13  C   UNL     1     -11.131  12.863  68.350  1.00  0.00    -0.262 A  
HETATM   14  C   UNL     1     -10.663  12.352  67.136  1.00  0.00    -0.264 A  
HETATM   15  C   UNL     1     -10.624  10.972  66.930  1.00  0.00    -0.307 A  
HETATM   16  C   UNL     1     -11.091  10.090  67.909  1.00  0.00    -0.195 A  
HETATM   17  N   UNL     1     -10.911   8.711  67.751  1.00  0.00    -0.495 NA 
HETATM   18  C   UNL     1     -11.513  10.613  69.137  1.00  0.00    -0.349 A  
HETATM   19  H2  UNL     1      -9.917   8.532  67.601  1.00  0.00     0.000 HD 
HETATM   20  H1  UNL     1     -11.252   8.068  68.465  1.00  0.00     0.000 HD 
HETATM   21  C   UNL     1     -11.559  11.997  69.357  1.00  0.00    -0.393 A  
ENDBRANCH  10  13
ENDBRANCH   7  10
TORSDOF 2
ENDMDL
MODEL       41
REMARK 921   NORMALIZED FREE ENERGY PREDICTED BY IDOCK:   -5.35 KCAL/MOL
REMARK 922        TOTAL FREE ENERGY PREDICTED BY IDOCK:   -6.40 KCAL/MOL
REMARK 923 INTER-LIGAND FREE ENERGY PREDICTED BY IDOCK:   -5.97 KCAL/MOL
REMARK 924 INTRA-LIGAND FREE ENERGY PREDICTED BY IDOCK:   -0.43 KCAL/MOL
REMARK 927      BINDING AFFINITY PREDICTED BY RF-SCORE:    0.00 PKD
ROOT
HETATM    1  N   UNL     1      -8.636  17.525  66.067  1.00  0.00    -0.527 NA 
HETATM    2  H2  UNL     1      -7.654  17.468  65.798  1.00  0.00     0.000 HD 
HETATM    3  C   UNL     1      -9.198  16.248  65.959  1.00  0.00    -0.316 A  
HETATM    4  H1  UNL     1      -9.057  18.316  65.579  1.00  0.00     0.000 HD 
HETATM    5  C   UNL     1      -8.622  15.165  66.628  1.00  0.00    -0.279 A  
HETATM    6  C   UNL     1      -9.216  13.900  66.591  1.00  0.00    -0.253 A  
HETATM    7  C   UNL     1     -10.421  13.728  65.908  1.00  0.00    -0.297 A  
HETATM    8  C   UNL     1     -10.459  16.083  65.379  1.00  0.00    -0.415 A  
HETATM    9  C   UNL     1     -11.070  14.826  65.340  1.00  0.00    -0.359 A  
ENDROOT
BRANCH   7  10
HETATM   10  S   UNL     1     -11.201  12.127  65.878  1.00  0.00    -0.347 S  
HETATM   11  O   UNL     1     -12.594  12.361  65.538  1.00  0.00    -0.616 OA 
HETATM   12  O   UNL     1     -10.382  11.260  65.054  1.00  0.00    -0.271 OA 
BRANCH  10  13
HETATM   13  C   UNL     1     -11.183  11.416  67.511  1.00  0.00    -0.292 A  
HETATM   14  C   UNL     1     -11.878  12.074  68.531  1.00  0.00    -0.369 A  
HETATM   15  C   UNL     1     -11.923  11.519  69.811  1.00  0.00    -0.415 A  
HETATM   16  C   UNL     1     -11.242  10.334  70.102  1.00  0.00    -0.318 A  
HETATM   17  N   UNL     1     -11.416   9.714  71.344  1.00  0.00    -0.380 NA 
HETATM   18  C   UNL     1     -10.590   9.662  69.060  1.00  0.00    -0.237 A  
HETATM   19  H2  UNL     1     -12.413   9.558  71.489  1.00  0.00     0.000 HD 
HETATM   20  H1  UNL     1     -10.918   8.849  71.556  1.00  0.00     0.000 HD 
HETATM   21  C   UNL     1     -10.536  10.208  67.770  1.00  0.00    -0.277 A  
ENDBRANCH  10  13
ENDBRANCH   7  10
TORSDOF 2
ENDMDL
MODEL       42
REMARK 921   NORMALIZED FREE ENERGY PREDICTED BY IDOCK:   -5.25 KCAL/MOL
REMARK 922        TOTAL FREE ENERGY PREDICTED BY IDOCK:   -6.29 KCAL/MOL
REMARK 923 INTER-LIGAND FREE ENERGY PREDICTED BY IDOCK:   -5.95 KCAL/MOL
REMARK 924 INTRA-LIGAND FREE ENERGY PREDICTED BY IDOCK:   -0.34 KCAL/MOL
REMARK 927      BINDING AFFINITY PREDICTED BY RF-SCORE:    0.00 PKD
ROOT
HETATM    1  N   UNL     1     -10.373   7.984  70.472  1.00  0.00    -0.200 NA 
HETATM    2  H2  UNL     1      -9.424   7.830  70.812  1.00  0.00     0.000 HD 
HETATM    3  C   UNL     1     -10.511   9.337  70.146  1.00  0.00    -0.230 A  
HETATM    4  H1  UNL     1     -11.022   7.542  71.122  1.00  0.00     0.000 HD 
HETATM    5  C   UNL     1      -9.622   9.942  69.254  1.00  0.00    -0.215 A  
HETATM    6  C   UNL     1      -9.794  11.274  68.861  1.00  0.00    -0.153 A  
HETATM    7  C   UNL     1     -10.891  11.993  69.337  1.00  0.00    -0.001 A  
HETATM    8  C   UNL     1     -11.663  10.035  70.520  1.00  0.00    -0.400 A  
HETATM    9  C   UNL     1     -11.854  11.364  70.130  1.00  0.00    -0.440 A  
ENDROOT
BRANCH   7  10
HETATM   10  S   UNL     1     -11.136  13.679  68.820  1.00  0.00    -0.281 S  
HETATM   11  O   UNL     1     -12.359  14.127  69.464  1.00  0.00    -0.328 OA 
HETATM   12  O   UNL     1      -9.890  14.387  69.044  1.00  0.00    -0.193 OA 
BRANCH  10  13
HETATM   13  C   UNL     1     -11.428  13.737  67.065  1.00  0.00    -0.346 A  
HETATM   14  C   UNL     1     -11.900  12.584  66.431  1.00  0.00    -0.445 A  
HETATM   15  C   UNL     1     -12.183  12.608  65.064  1.00  0.00    -0.535 A  
HETATM   16  C   UNL     1     -11.957  13.761  64.306  1.00  0.00    -0.443 A  
HETATM   17  N   UNL     1     -12.381  13.818  62.975  1.00  0.00    -1.030 NA 
HETATM   18  C   UNL     1     -11.528  14.921  64.963  1.00  0.00    -0.379 A  
HETATM   19  H2  UNL     1     -13.378  13.602  62.945  1.00  0.00     0.000 HD 
HETATM   20  H1  UNL     1     -12.215  14.659  62.422  1.00  0.00     0.000 HD 
HETATM   21  C   UNL     1     -11.239  14.911  66.335  1.00  0.00    -0.331 A  
ENDBRANCH  10  13
ENDBRANCH   7  10
TORSDOF 2
ENDMDL
MODEL       43
REMARK 921   NORMALIZED FREE ENERGY PREDICTED BY IDOCK:   -5.22 KCAL/MOL
REMARK 922        TOTAL FREE ENERGY PREDICTED BY IDOCK:   -6.26 KCAL/MOL
REMARK 923 INTER-LIGAND FREE ENERGY PREDICTED BY IDOCK:   -6.11 KCAL/MOL
REMARK 924 INTRA-LIGAND FREE ENERGY PREDICTED BY IDOCK:   -0.15 KCAL/MOL
REMARK 927      BINDING AFFINITY PREDICTED BY RF-SCORE:    0.00 PKD
ROOT
HETATM    1  N   UNL     1     -14.324  15.628  72.568  1.00  0.00    -0.439 NA 
HETATM    2  H2  UNL     1     -14.212  15.560  73.579  1.00  0.00     0.000 HD 
HETATM    3  C   UNL     1     -13.627  14.569  71.975  1.00  0.00    -0.416 A  
HETATM    4  H1  UNL     1     -14.132  16.590  72.289  1.00  0.00     0.000 HD 
HETATM    5  C   UNL     1     -13.890  13.251  72.357  1.00  0.00    -0.630 A  
HETATM    6  C   UNL     1     -13.257  12.179  71.720  1.00  0.00    -0.423 A  
HETATM    7  C   UNL     1     -12.381  12.430  70.662  1.00  0.00    -0.279 A  
HETATM    8  C   UNL     1     -12.838  14.794  70.843  1.00  0.00    -0.423 A  
HETATM    9  C   UNL     1     -12.204  13.733  70.190  1.00  0.00    -0.425 A  
ENDROOT
BRANCH   7  10
HETATM   10  S   UNL     1     -11.591  11.072  69.824  1.00  0.00    -0.355 S  
HETATM   11  O   UNL     1     -12.567  10.555  68.881  1.00  0.00    -0.094 OA 
HETATM   12  O   UNL     1     -10.300  11.541  69.359  1.00  0.00    -0.058 OA 
BRANCH  10  13
HETATM   13  C   UNL     1     -11.252   9.763  70.983  1.00  0.00    -0.381 A  
HETATM   14  C   UNL     1      -9.919   9.461  71.275  1.00  0.00    -0.274 A  
HETATM   15  C   UNL     1      -9.619   8.472  72.213  1.00  0.00    -0.377 A  
HETATM   16  C   UNL     1     -10.637   7.744  72.836  1.00  0.00    -0.366 A  
HETATM   17  N   UNL     1     -10.329   6.863  73.878  1.00  0.00    -0.370 NA 
HETATM   18  C   UNL     1     -11.967   8.089  72.570  1.00  0.00    -0.384 A  
HETATM   19  H2  UNL     1      -9.815   7.377  74.594  1.00  0.00     0.000 HD 
HETATM   20  H1  UNL     1     -11.071   6.331  74.332  1.00  0.00     0.000 HD 
HETATM   21  C   UNL     1     -12.283   9.079  71.628  1.00  0.00    -0.418 A  
ENDBRANCH  10  13
ENDBRANCH   7  10
TORSDOF 2
ENDMDL
MODEL       44
REMARK 921   NORMALIZED FREE ENERGY PREDICTED BY IDOCK:   -5.21 KCAL/MOL
REMARK 922        TOTAL FREE ENERGY PREDICTED BY IDOCK:   -6.24 KCAL/MOL
REMARK 923 INTER-LIGAND FREE ENERGY PREDICTED BY IDOCK:   -5.82 KCAL/MOL
REMARK 924 INTRA-LIGAND FREE ENERGY PREDICTED BY IDOCK:   -0.42 KCAL/MOL
REMARK 927      BINDING AFFINITY PREDICTED BY RF-SCORE:    0.00 PKD
ROOT
HETATM    1  N   UNL     1      -9.977  10.008  62.551  1.00  0.00    -0.627 NA 
HETATM    2  H2  UNL     1      -9.523  10.493  61.777  1.00  0.00     0.000 HD 
HETATM    3  C   UNL     1     -10.100  10.901  63.620  1.00  0.00    -0.355 A  
HETATM    4  H1  UNL     1      -9.513   9.109  62.682  1.00  0.00     0.000 HD 
HETATM    5  C   UNL     1     -10.737  12.132  63.441  1.00  0.00    -0.461 A  
HETATM    6  C   UNL     1     -10.934  13.003  64.518  1.00  0.00    -0.381 A  
HETATM    7  C   UNL     1     -10.524  12.617  65.796  1.00  0.00    -0.277 A  
HETATM    8  C   UNL     1      -9.801  10.485  64.921  1.00  0.00    -0.379 A  
HETATM    9  C   UNL     1      -9.999  11.340  66.010  1.00  0.00    -0.273 A  
ENDROOT
BRANCH   7  10
HETATM   10  S   UNL     1     -10.796  13.704  67.179  1.00  0.00    -0.288 S  
HETATM   11  O   UNL     1     -12.218  13.999  67.190  1.00  0.00    -0.419 OA 
HETATM   12  O   UNL     1     -10.165  13.099  68.337  1.00  0.00    -0.243 OA 
BRANCH  10  13
HETATM   13  C   UNL     1      -9.952  15.248  66.908  1.00  0.00    -0.239 A  
HETATM   14  C   UNL     1      -8.562  15.231  66.765  1.00  0.00    -0.300 A  
HETATM   15  C   UNL     1      -7.874  16.417  66.505  1.00  0.00    -0.323 A  
HETATM   16  C   UNL     1      -8.554  17.637  66.432  1.00  0.00    -0.238 A  
HETATM   17  N   UNL     1      -7.876  18.791  66.026  1.00  0.00    -0.450 NA 
HETATM   18  C   UNL     1      -9.950  17.633  66.530  1.00  0.00    -0.332 A  
HETATM   19  H2  UNL     1      -7.440  18.609  65.122  1.00  0.00     0.000 HD 
HETATM   20  H1  UNL     1      -8.371  19.681  65.973  1.00  0.00     0.000 HD 
HETATM   21  C   UNL     1     -10.654  16.449  66.792  1.00  0.00    -0.238 A  
ENDBRANCH  10  13
ENDBRANCH   7  10
TORSDOF 2
ENDMDL
MODEL       45
REMARK 921   NORMALIZED FREE ENERGY PREDICTED BY IDOCK:   -5.19 KCAL/MOL
REMARK 922        TOTAL FREE ENERGY PREDICTED BY IDOCK:   -6.22 KCAL/MOL
REMARK 923 INTER-LIGAND FREE ENERGY PREDICTED BY IDOCK:   -5.80 KCAL/MOL
REMARK 924 INTRA-LIGAND FREE ENERGY PREDICTED BY IDOCK:   -0.42 KCAL/MOL
REMARK 927      BINDING AFFINITY PREDICTED BY RF-SCORE:    0.00 PKD
ROOT
HETATM    1  N   UNL     1      -8.022  18.320  66.699  1.00  0.00    -0.241 NA 
HETATM    2  H2  UNL     1      -8.448  18.967  67.362  1.00  0.00     0.000 HD 
HETATM    3  C   UNL     1      -8.969  17.346  66.363  1.00  0.00    -0.246 A  
HETATM    4  H1  UNL     1      -7.109  18.045  67.061  1.00  0.00     0.000 HD 
HETATM    5  C   UNL     1     -10.221  17.722  65.867  1.00  0.00    -0.231 A  
HETATM    6  C   UNL     1     -11.148  16.759  65.455  1.00  0.00     0.099 A  
HETATM    7  C   UNL     1     -10.801  15.408  65.504  1.00  0.00    -0.374 A  
HETATM    8  C   UNL     1      -8.599  16.000  66.297  1.00  0.00    -0.363 A  
HETATM    9  C   UNL     1      -9.512  15.026  65.881  1.00  0.00    -0.313 A  
ENDROOT
BRANCH   7  10
HETATM   10  S   UNL     1     -11.963  14.175  64.955  1.00  0.00    -0.430 S  
HETATM   11  O   UNL     1     -12.889  13.971  66.056  1.00  0.00    -0.438 OA 
HETATM   12  O   UNL     1     -12.453  14.589  63.655  1.00  0.00    -0.782 OA 
BRANCH  10  13
HETATM   13  C   UNL     1     -11.123  12.627  64.696  1.00  0.00    -0.313 A  
HETATM   14  C   UNL     1     -10.519  12.397  63.456  1.00  0.00    -0.430 A  
HETATM   15  C   UNL     1      -9.813  11.214  63.235  1.00  0.00    -0.415 A  
HETATM   16  C   UNL     1      -9.739  10.229  64.224  1.00  0.00    -0.308 A  
HETATM   17  N   UNL     1      -8.908   9.118  64.043  1.00  0.00    -0.403 NA 
HETATM   18  C   UNL     1     -10.307  10.492  65.476  1.00  0.00    -0.287 A  
HETATM   19  H2  UNL     1      -7.964   9.450  63.846  1.00  0.00     0.000 HD 
HETATM   20  H1  UNL     1      -8.854   8.399  64.765  1.00  0.00     0.000 HD 
HETATM   21  C   UNL     1     -11.021  11.676  65.712  1.00  0.00    -0.329 A  
ENDBRANCH  10  13
ENDBRANCH   7  10
TORSDOF 2
ENDMDL
MODEL       46
REMARK 921   NORMALIZED FREE ENERGY PREDICTED BY IDOCK:   -5.17 KCAL/MOL
REMARK 922        TOTAL FREE ENERGY PREDICTED BY IDOCK:   -6.20 KCAL/MOL
REMARK 923 INTER-LIGAND FREE ENERGY PREDICTED BY IDOCK:   -5.99 KCAL/MOL
REMARK 924 INTRA-LIGAND FREE ENERGY PREDICTED BY IDOCK:   -0.21 KCAL/MOL
REMARK 927      BINDING AFFINITY PREDICTED BY RF-SCORE:    0.00 PKD
ROOT
HETATM    1  N   UNL     1      -9.537   7.981  67.489  1.00  0.00    -0.148 NA 
HETATM    2  H2  UNL     1      -8.547   7.873  67.272  1.00  0.00     0.000 HD 
HETATM    3  C   UNL     1      -9.970   9.209  66.978  1.00  0.00    -0.230 A  
HETATM    4  H1  UNL     1      -9.676   7.756  68.474  1.00  0.00     0.000 HD 
HETATM    5  C   UNL     1      -9.781   9.517  65.628  1.00  0.00    -0.361 A  
HETATM    6  C   UNL     1     -10.276  10.708  65.087  1.00  0.00    -0.368 A  
HETATM    7  C   UNL     1     -11.002  11.581  65.899  1.00  0.00    -0.243 A  
HETATM    8  C   UNL     1     -10.795  10.037  67.745  1.00  0.00    -0.337 A  
HETATM    9  C   UNL     1     -11.304  11.227  67.217  1.00  0.00    -0.329 A  
ENDROOT
BRANCH   7  10
HETATM   10  S   UNL     1     -11.662  13.086  65.214  1.00  0.00    -0.376 S  
HETATM   11  O   UNL     1     -10.920  13.335  63.991  1.00  0.00    -0.382 OA 
HETATM   12  O   UNL     1     -13.106  12.950  65.179  1.00  0.00    -0.753 OA 
BRANCH  10  13
HETATM   13  C   UNL     1     -11.320  14.448  66.309  1.00  0.00    -0.350 A  
HETATM   14  C   UNL     1     -10.512  15.489  65.844  1.00  0.00    -0.356 A  
HETATM   15  C   UNL     1     -10.262  16.593  66.660  1.00  0.00    -0.304 A  
HETATM   16  C   UNL     1     -10.774  16.653  67.960  1.00  0.00    -0.350 A  
HETATM   17  N   UNL     1     -10.640  17.826  68.711  1.00  0.00    -0.345 NA 
HETATM   18  C   UNL     1     -11.620  15.627  68.395  1.00  0.00    -0.358 A  
HETATM   19  H2  UNL     1     -11.032  18.600  68.173  1.00  0.00     0.000 HD 
HETATM   20  H1  UNL     1     -11.013  17.870  69.659  1.00  0.00     0.000 HD 
HETATM   21  C   UNL     1     -11.879  14.510  67.586  1.00  0.00    -0.395 A  
ENDBRANCH  10  13
ENDBRANCH   7  10
TORSDOF 2
ENDMDL
MODEL       47
REMARK 921   NORMALIZED FREE ENERGY PREDICTED BY IDOCK:   -5.14 KCAL/MOL
REMARK 922        TOTAL FREE ENERGY PREDICTED BY IDOCK:   -6.16 KCAL/MOL
REMARK 923 INTER-LIGAND FREE ENERGY PREDICTED BY IDOCK:   -5.76 KCAL/MOL
REMARK 924 INTRA-LIGAND FREE ENERGY PREDICTED BY IDOCK:   -0.40 KCAL/MOL
REMARK 927      BINDING AFFINITY PREDICTED BY RF-SCORE:    0.00 PKD
ROOT
HETATM    1  N   UNL     1      -9.715   3.241  66.509  1.00  0.00    -0.413 NA 
HETATM    2  H2  UNL     1      -9.727   2.539  67.248  1.00  0.00     0.000 HD 
HETATM    3  C   UNL     1      -9.862   4.502  67.098  1.00  0.00    -0.189 A  
HETATM    4  H1  UNL     1     -10.350   2.941  65.771  1.00  0.00     0.000 HD 
HETATM    5  C   UNL     1      -8.991   4.914  68.110  1.00  0.00    -0.123 A  
HETATM    6  C   UNL     1      -9.078   6.200  68.653  1.00  0.00    -0.125 A  
HETATM    7  C   UNL     1     -10.024   7.095  68.149  1.00  0.00    -0.151 A  
HETATM    8  C   UNL     1     -10.722   5.446  66.530  1.00  0.00    -0.309 A  
HETATM    9  C   UNL     1     -10.817   6.738  67.056  1.00  0.00    -0.453 A  
ENDROOT
BRANCH   7  10
HETATM   10  S   UNL     1     -10.125   8.744  68.814  1.00  0.00    -0.202 S  
HETATM   11  O   UNL     1      -8.811   9.046  69.353  1.00  0.00    -0.137 OA 
HETATM   12  O   UNL     1     -10.708   9.589  67.789  1.00  0.00    -0.261 OA 
BRANCH  10  13
HETATM   13  C   UNL     1     -11.263   8.773  70.184  1.00  0.00    -0.152 A  
HETATM   14  C   UNL     1     -11.718  10.012  70.644  1.00  0.00    -0.421 A  
HETATM   15  C   UNL     1     -12.645  10.069  71.685  1.00  0.00    -0.524 A  
HETATM   16  C   UNL     1     -13.094   8.902  72.309  1.00  0.00    -0.436 A  
HETATM   17  N   UNL     1     -14.129   8.964  73.248  1.00  0.00    -1.248 NA 
HETATM   18  C   UNL     1     -12.666   7.667  71.808  1.00  0.00    -0.356 A  
HETATM   19  H2  UNL     1     -14.929   9.426  72.815  1.00  0.00     0.000 HD 
HETATM   20  H1  UNL     1     -14.456   8.112  73.704  1.00  0.00     0.000 HD 
HETATM   21  C   UNL     1     -11.733   7.594  70.763  1.00  0.00    -0.260 A  
ENDBRANCH  10  13
ENDBRANCH   7  10
TORSDOF 2
ENDMDL
MODEL       48
REMARK 921   NORMALIZED FREE ENERGY PREDICTED BY IDOCK:   -5.13 KCAL/MOL
REMARK 922        TOTAL FREE ENERGY PREDICTED BY IDOCK:   -6.16 KCAL/MOL
REMARK 923 INTER-LIGAND FREE ENERGY PREDICTED BY IDOCK:   -5.78 KCAL/MOL
REMARK 924 INTRA-LIGAND FREE ENERGY PREDICTED BY IDOCK:   -0.38 KCAL/MOL
REMARK 927      BINDING AFFINITY PREDICTED BY RF-SCORE:    0.00 PKD
ROOT
HETATM    1  N   UNL     1      -7.115  20.138  68.432  1.00  0.00    -0.275 NA 
HETATM    2  H2  UNL     1      -7.603  20.876  68.938  1.00  0.00     0.000 HD 
HETATM    3  C   UNL     1      -7.901  18.981  68.475  1.00  0.00    -0.340 A  
HETATM    4  H1  UNL     1      -6.147  20.114  68.754  1.00  0.00     0.000 HD 
HETATM    5  C   UNL     1      -9.227  19.012  68.034  1.00  0.00    -0.355 A  
HETATM    6  C   UNL     1     -10.000  17.847  68.000  1.00  0.00    -0.333 A  
HETATM    7  C   UNL     1      -9.425  16.631  68.374  1.00  0.00    -0.231 A  
HETATM    8  C   UNL     1      -7.311  17.741  68.736  1.00  0.00    -0.271 A  
HETATM    9  C   UNL     1      -8.068  16.566  68.698  1.00  0.00    -0.233 A  
ENDROOT
BRANCH   7  10
HETATM   10  S   UNL     1     -10.391  15.137  68.307  1.00  0.00    -0.235 S  
HETATM   11  O   UNL     1     -11.360  15.328  67.242  1.00  0.00    -0.332 OA 
HETATM   12  O   UNL     1      -9.464  14.023  68.261  1.00  0.00    -0.206 OA 
BRANCH  10  13
HETATM   13  C   UNL     1     -11.316  14.948  69.816  1.00  0.00    -0.283 A  
HETATM   14  C   UNL     1     -11.285  15.987  70.751  1.00  0.00    -0.381 A  
HETATM   15  C   UNL     1     -12.035  15.891  71.923  1.00  0.00    -0.588 A  
HETATM   16  C   UNL     1     -12.787  14.746  72.200  1.00  0.00    -0.331 A  
HETATM   17  N   UNL     1     -13.647  14.724  73.303  1.00  0.00    -0.536 NA 
HETATM   18  C   UNL     1     -12.847  13.734  71.235  1.00  0.00    -0.434 A  
HETATM   19  H2  UNL     1     -14.284  15.518  73.232  1.00  0.00     0.000 HD 
HETATM   20  H1  UNL     1     -14.195  13.887  73.506  1.00  0.00     0.000 HD 
HETATM   21  C   UNL     1     -12.097  13.816  70.053  1.00  0.00    -0.416 A  
ENDBRANCH  10  13
ENDBRANCH   7  10
TORSDOF 2
ENDMDL
MODEL       49
REMARK 921   NORMALIZED FREE ENERGY PREDICTED BY IDOCK:   -5.11 KCAL/MOL
REMARK 922        TOTAL FREE ENERGY PREDICTED BY IDOCK:   -6.14 KCAL/MOL
REMARK 923 INTER-LIGAND FREE ENERGY PREDICTED BY IDOCK:   -5.71 KCAL/MOL
REMARK 924 INTRA-LIGAND FREE ENERGY PREDICTED BY IDOCK:   -0.43 KCAL/MOL
REMARK 927      BINDING AFFINITY PREDICTED BY RF-SCORE:    0.00 PKD
ROOT
HETATM    1  N   UNL     1      -8.855   5.523  65.689  1.00  0.00    -0.153 NA 
HETATM    2  H2  UNL     1      -9.161   5.834  64.767  1.00  0.00     0.000 HD 
HETATM    3  C   UNL     1      -8.958   6.603  66.573  1.00  0.00    -0.145 A  
HETATM    4  H1  UNL     1      -7.971   5.027  65.583  1.00  0.00     0.000 HD 
HETATM    5  C   UNL     1     -10.171   7.282  66.719  1.00  0.00    -0.305 A  
HETATM    6  C   UNL     1     -10.308   8.313  67.654  1.00  0.00    -0.313 A  
HETATM    7  C   UNL     1      -9.231   8.639  68.480  1.00  0.00    -0.138 A  
HETATM    8  C   UNL     1      -7.930   6.864  67.484  1.00  0.00    -0.112 A  
HETATM    9  C   UNL     1      -8.055   7.886  68.430  1.00  0.00    -0.123 A  
ENDROOT
BRANCH   7  10
HETATM   10  S   UNL     1      -9.404   9.929  69.694  1.00  0.00    -0.223 S  
HETATM   11  O   UNL     1      -8.268   9.799  70.589  1.00  0.00    -0.246 OA 
HETATM   12  O   UNL     1      -9.633  11.170  68.978  1.00  0.00    -0.175 OA 
BRANCH  10  13
HETATM   13  C   UNL     1     -10.865   9.646  70.672  1.00  0.00    -0.320 A  
HETATM   14  C   UNL     1     -10.962   8.453  71.393  1.00  0.00    -0.311 A  
HETATM   15  C   UNL     1     -12.073   8.220  72.206  1.00  0.00    -0.439 A  
HETATM   16  C   UNL     1     -13.116   9.147  72.274  1.00  0.00    -0.438 A  
HETATM   17  N   UNL     1     -14.149   8.970  73.202  1.00  0.00    -1.223 NA 
HETATM   18  C   UNL     1     -12.984  10.358  71.585  1.00  0.00    -0.581 A  
HETATM   19  H2  UNL     1     -13.736   8.879  74.130  1.00  0.00     0.000 HD 
HETATM   20  H1  UNL     1     -14.910   9.647  73.252  1.00  0.00     0.000 HD 
HETATM   21  C   UNL     1     -11.874  10.605  70.763  1.00  0.00    -0.459 A  
ENDBRANCH  10  13
ENDBRANCH   7  10
TORSDOF 2
ENDMDL
MODEL       50
REMARK 921   NORMALIZED FREE ENERGY PREDICTED BY IDOCK:   -5.09 KCAL/MOL
REMARK 922        TOTAL FREE ENERGY PREDICTED BY IDOCK:   -6.11 KCAL/MOL
REMARK 923 INTER-LIGAND FREE ENERGY PREDICTED BY IDOCK:   -5.70 KCAL/MOL
REMARK 924 INTRA-LIGAND FREE ENERGY PREDICTED BY IDOCK:   -0.41 KCAL/MOL
REMARK 927      BINDING AFFINITY PREDICTED BY RF-SCORE:    0.00 PKD
ROOT
HETATM    1  N   UNL     1     -14.376   8.939  73.037  1.00  0.00    -1.154 NA 
HETATM    2  H2  UNL     1     -15.225   9.162  72.517  1.00  0.00     0.000 HD 
HETATM    3  C   UNL     1     -13.276   9.162  72.201  1.00  0.00    -0.458 A  
HETATM    4  H1  UNL     1     -14.505   8.033  73.487  1.00  0.00     0.000 HD 
HETATM    5  C   UNL     1     -13.099  10.403  71.584  1.00  0.00    -0.553 A  
HETATM    6  C   UNL     1     -11.965  10.664  70.808  1.00  0.00    -0.477 A  
HETATM    7  C   UNL     1     -10.980   9.684  70.682  1.00  0.00    -0.320 A  
HETATM    8  C   UNL     1     -12.229   8.237  72.157  1.00  0.00    -0.418 A  
HETATM    9  C   UNL     1     -11.085   8.486  71.392  1.00  0.00    -0.328 A  
ENDROOT
BRANCH   7  10
HETATM   10  S   UNL     1      -9.519  10.015  69.720  1.00  0.00    -0.167 S  
HETATM   11  O   UNL     1      -9.766  11.265  69.023  1.00  0.00    -0.160 OA 
HETATM   12  O   UNL     1      -8.377   9.886  70.606  1.00  0.00    -0.180 OA 
BRANCH  10  13
HETATM   13  C   UNL     1      -9.320   8.761  68.472  1.00  0.00    -0.141 A  
HETATM   14  C   UNL     1     -10.441   8.373  67.734  1.00  0.00    -0.284 A  
HETATM   15  C   UNL     1     -10.311   7.426  66.716  1.00  0.00    -0.321 A  
HETATM   16  C   UNL     1      -9.078   6.822  66.454  1.00  0.00    -0.152 A  
HETATM   17  N   UNL     1      -8.931   5.988  65.341  1.00  0.00    -0.351 NA 
HETATM   18  C   UNL     1      -7.955   7.254  67.170  1.00  0.00    -0.110 A  
HETATM   19  H2  UNL     1      -9.221   6.505  64.510  1.00  0.00     0.000 HD 
HETATM   20  H1  UNL     1      -8.031   5.547  65.150  1.00  0.00     0.000 HD 
HETATM   21  C   UNL     1      -8.071   8.204  68.195  1.00  0.00    -0.128 A  
ENDBRANCH  10  13
ENDBRANCH   7  10
TORSDOF 2
ENDMDL
MODEL       51
REMARK 921   NORMALIZED FREE ENERGY PREDICTED BY IDOCK:   -5.09 KCAL/MOL
REMARK 922        TOTAL FREE ENERGY PREDICTED BY IDOCK:   -6.11 KCAL/MOL
REMARK 923 INTER-LIGAND FREE ENERGY PREDICTED BY IDOCK:   -5.73 KCAL/MOL
REMARK 924 INTRA-LIGAND FREE ENERGY PREDICTED BY IDOCK:   -0.37 KCAL/MOL
REMARK 927      BINDING AFFINITY PREDICTED BY RF-SCORE:    0.00 PKD
ROOT
HETATM    1  N   UNL     1      -7.029  17.343  66.429  1.00  0.00    -0.252 NA 
HETATM    2  H2  UNL     1      -7.177  18.318  66.686  1.00  0.00     0.000 HD 
HETATM    3  C   UNL     1      -8.037  16.573  67.020  1.00  0.00    -0.201 A  
HETATM    4  H1  UNL     1      -6.047  17.115  66.589  1.00  0.00     0.000 HD 
HETATM    5  C   UNL     1      -9.382  16.885  66.801  1.00  0.00    -0.267 A  
HETATM    6  C   UNL     1     -10.399  16.079  67.322  1.00  0.00    -0.295 A  
HETATM    7  C   UNL     1     -10.065  14.928  68.037  1.00  0.00    -0.221 A  
HETATM    8  C   UNL     1      -7.723  15.360  67.638  1.00  0.00    -0.180 A  
HETATM    9  C   UNL     1      -8.728  14.539  68.157  1.00  0.00    -0.171 A  
ENDROOT
BRANCH   7  10
HETATM   10  S   UNL     1     -11.352  13.879  68.680  1.00  0.00    -0.300 S  
HETATM   11  O   UNL     1     -12.469  13.997  67.760  1.00  0.00    -0.130 OA 
HETATM   12  O   UNL     1     -10.761  12.583  68.951  1.00  0.00    -0.227 OA 
BRANCH  10  13
HETATM   13  C   UNL     1     -11.911  14.505  70.251  1.00  0.00    -0.308 A  
HETATM   14  C   UNL     1     -12.732  13.691  71.037  1.00  0.00    -0.408 A  
HETATM   15  C   UNL     1     -13.150  14.131  72.294  1.00  0.00    -0.514 A  
HETATM   16  C   UNL     1     -12.795  15.400  72.762  1.00  0.00    -0.427 A  
HETATM   17  N   UNL     1     -13.095  15.769  74.078  1.00  0.00    -0.801 NA 
HETATM   18  C   UNL     1     -11.934  16.184  71.985  1.00  0.00    -0.607 A  
HETATM   19  H2  UNL     1     -12.700  15.070  74.707  1.00  0.00     0.000 HD 
HETATM   20  H1  UNL     1     -12.836  16.695  74.419  1.00  0.00     0.000 HD 
HETATM   21  C   UNL     1     -11.507  15.755  70.720  1.00  0.00    -0.423 A  
ENDBRANCH  10  13
ENDBRANCH   7  10
TORSDOF 2
ENDMDL
MODEL       52
REMARK 921   NORMALIZED FREE ENERGY PREDICTED BY IDOCK:   -5.08 KCAL/MOL
REMARK 922        TOTAL FREE ENERGY PREDICTED BY IDOCK:   -6.10 KCAL/MOL
REMARK 923 INTER-LIGAND FREE ENERGY PREDICTED BY IDOCK:   -5.95 KCAL/MOL
REMARK 924 INTRA-LIGAND FREE ENERGY PREDICTED BY IDOCK:   -0.15 KCAL/MOL
REMARK 927      BINDING AFFINITY PREDICTED BY RF-SCORE:    0.00 PKD
ROOT
HETATM    1  N   UNL     1     -13.230   8.931  73.010  1.00  0.00    -0.855 NA 
HETATM    2  H2  UNL     1     -12.502   8.523  73.595  1.00  0.00     0.000 HD 
HETATM    3  C   UNL     1     -12.617   9.606  71.949  1.00  0.00    -0.396 A  
HETATM    4  H1  UNL     1     -13.893   9.416  73.614  1.00  0.00     0.000 HD 
HETATM    5  C   UNL     1     -11.709   8.942  71.121  1.00  0.00    -0.356 A  
HETATM    6  C   UNL     1     -11.147   9.582  70.012  1.00  0.00    -0.268 A  
HETATM    7  C   UNL     1     -11.529  10.890  69.709  1.00  0.00    -0.313 A  
HETATM    8  C   UNL     1     -13.072  10.871  71.566  1.00  0.00    -0.503 A  
HETATM    9  C   UNL     1     -12.526  11.522  70.455  1.00  0.00    -0.367 A  
ENDROOT
BRANCH   7  10
HETATM   10  S   UNL     1     -10.841  11.706  68.283  1.00  0.00    -0.236 S  
HETATM   11  O   UNL     1      -9.488  11.200  68.140  1.00  0.00    -0.167 OA 
HETATM   12  O   UNL     1     -11.795  11.562  67.199  1.00  0.00    -0.595 OA 
BRANCH  10  13
HETATM   13  C   UNL     1     -10.708  13.454  68.594  1.00  0.00    -0.255 A  
HETATM   14  C   UNL     1     -11.884  14.197  68.735  1.00  0.00    -0.384 A  
HETATM   15  C   UNL     1     -11.815  15.560  69.025  1.00  0.00    -0.373 A  
HETATM   16  C   UNL     1     -10.580  16.208  69.132  1.00  0.00    -0.276 A  
HETATM   17  N   UNL     1     -10.523  17.536  69.567  1.00  0.00    -0.299 NA 
HETATM   18  C   UNL     1      -9.412  15.443  69.036  1.00  0.00    -0.236 A  
HETATM   19  H2  UNL     1     -11.002  17.602  70.466  1.00  0.00     0.000 HD 
HETATM   20  H1  UNL     1      -9.623  18.008  69.645  1.00  0.00     0.000 HD 
HETATM   21  C   UNL     1      -9.466  14.072  68.743  1.00  0.00    -0.076 A  
ENDBRANCH  10  13
ENDBRANCH   7  10
TORSDOF 2
ENDMDL
MODEL       53
REMARK 921   NORMALIZED FREE ENERGY PREDICTED BY IDOCK:   -5.06 KCAL/MOL
REMARK 922        TOTAL FREE ENERGY PREDICTED BY IDOCK:   -6.08 KCAL/MOL
REMARK 923 INTER-LIGAND FREE ENERGY PREDICTED BY IDOCK:   -5.68 KCAL/MOL
REMARK 924 INTRA-LIGAND FREE ENERGY PREDICTED BY IDOCK:   -0.40 KCAL/MOL
REMARK 927      BINDING AFFINITY PREDICTED BY RF-SCORE:    0.00 PKD
ROOT
HETATM    1  N   UNL     1     -10.269   4.269  66.137  1.00  0.00    -0.412 NA 
HETATM    2  H2  UNL     1      -9.426   3.746  66.372  1.00  0.00     0.000 HD 
HETATM    3  C   UNL     1     -10.041   5.621  66.413  1.00  0.00    -0.156 A  
HETATM    4  H1  UNL     1     -11.069   3.788  66.548  1.00  0.00     0.000 HD 
HETATM    5  C   UNL     1      -8.944   6.281  65.851  1.00  0.00    -0.122 A  
HETATM    6  C   UNL     1      -8.747   7.650  66.057  1.00  0.00    -0.178 A  
HETATM    7  C   UNL     1      -9.679   8.373  66.802  1.00  0.00    -0.242 A  
HETATM    8  C   UNL     1     -11.020   6.381  67.058  1.00  0.00    -0.463 A  
HETATM    9  C   UNL     1     -10.842   7.753  67.266  1.00  0.00    -0.225 A  
ENDROOT
BRANCH   7  10
HETATM   10  S   UNL     1      -9.453  10.122  67.047  1.00  0.00    -0.171 S  
HETATM   11  O   UNL     1     -10.073  10.437  68.322  1.00  0.00    -0.146 OA 
HETATM   12  O   UNL     1      -8.049  10.413  66.825  1.00  0.00    -0.116 OA 
BRANCH  10  13
HETATM   13  C   UNL     1     -10.348  11.027  65.802  1.00  0.00    -0.257 A  
HETATM   14  C   UNL     1     -11.392  11.863  66.208  1.00  0.00    -0.394 A  
HETATM   15  C   UNL     1     -12.084  12.621  65.262  1.00  0.00    -0.519 A  
HETATM   16  C   UNL     1     -11.777  12.523  63.902  1.00  0.00    -0.452 A  
HETATM   17  N   UNL     1     -12.375  13.394  62.986  1.00  0.00    -0.945 NA 
HETATM   18  C   UNL     1     -10.699  11.718  63.515  1.00  0.00    -0.501 A  
HETATM   19  H2  UNL     1     -12.197  14.352  63.288  1.00  0.00     0.000 HD 
HETATM   20  H1  UNL     1     -12.151  13.322  61.993  1.00  0.00     0.000 HD 
HETATM   21  C   UNL     1      -9.995  10.949  64.454  1.00  0.00    -0.381 A  
ENDBRANCH  10  13
ENDBRANCH   7  10
TORSDOF 2
ENDMDL
MODEL       54
REMARK 921   NORMALIZED FREE ENERGY PREDICTED BY IDOCK:   -5.05 KCAL/MOL
REMARK 922        TOTAL FREE ENERGY PREDICTED BY IDOCK:   -6.07 KCAL/MOL
REMARK 923 INTER-LIGAND FREE ENERGY PREDICTED BY IDOCK:   -5.67 KCAL/MOL
REMARK 924 INTRA-LIGAND FREE ENERGY PREDICTED BY IDOCK:   -0.40 KCAL/MOL
REMARK 927      BINDING AFFINITY PREDICTED BY RF-SCORE:    0.00 PKD
ROOT
HETATM    1  N   UNL     1      -9.348  11.805  64.947  1.00  0.00    -0.429 NA 
HETATM    2  H2  UNL     1     -10.316  11.914  64.646  1.00  0.00     0.000 HD 
HETATM    3  C   UNL     1      -9.341  11.143  66.180  1.00  0.00    -0.206 A  
HETATM    4  H1  UNL     1      -8.877  12.703  64.842  1.00  0.00     0.000 HD 
HETATM    5  C   UNL     1      -9.986   9.912  66.323  1.00  0.00    -0.322 A  
HETATM    6  C   UNL     1      -9.922   9.204  67.528  1.00  0.00    -0.258 A  
HETATM    7  C   UNL     1      -9.171   9.718  68.586  1.00  0.00    -0.137 A  
HETATM    8  C   UNL     1      -8.503  11.584  67.208  1.00  0.00    -0.152 A  
HETATM    9  C   UNL     1      -8.422  10.884  68.415  1.00  0.00    -0.141 A  
ENDROOT
BRANCH   7  10
HETATM   10  S   UNL     1      -9.059   8.811  70.114  1.00  0.00    -0.178 S  
HETATM   11  O   UNL     1      -8.822   7.426  69.748  1.00  0.00    -0.141 OA 
HETATM   12  O   UNL     1      -8.120   9.514  70.968  1.00  0.00    -0.312 OA 
BRANCH  10  13
HETATM   13  C   UNL     1     -10.626   8.858  70.960  1.00  0.00    -0.247 A  
HETATM   14  C   UNL     1     -10.935   7.821  71.845  1.00  0.00    -0.294 A  
HETATM   15  C   UNL     1     -12.134   7.851  72.559  1.00  0.00    -0.298 A  
HETATM   16  C   UNL     1     -13.056   8.885  72.368  1.00  0.00    -0.418 A  
HETATM   17  N   UNL     1     -14.181   8.981  73.194  1.00  0.00    -1.190 NA 
HETATM   18  C   UNL     1     -12.711   9.941  71.515  1.00  0.00    -0.515 A  
HETATM   19  H2  UNL     1     -13.867   9.003  74.165  1.00  0.00     0.000 HD 
HETATM   20  H1  UNL     1     -14.853   9.735  73.054  1.00  0.00     0.000 HD 
HETATM   21  C   UNL     1     -11.511   9.923  70.790  1.00  0.00    -0.433 A  
ENDBRANCH  10  13
ENDBRANCH   7  10
TORSDOF 2
ENDMDL
MODEL       55
REMARK 921   NORMALIZED FREE ENERGY PREDICTED BY IDOCK:   -5.04 KCAL/MOL
REMARK 922        TOTAL FREE ENERGY PREDICTED BY IDOCK:   -6.06 KCAL/MOL
REMARK 923 INTER-LIGAND FREE ENERGY PREDICTED BY IDOCK:   -5.64 KCAL/MOL
REMARK 924 INTRA-LIGAND FREE ENERGY PREDICTED BY IDOCK:   -0.42 KCAL/MOL
REMARK 927      BINDING AFFINITY PREDICTED BY RF-SCORE:    0.00 PKD
ROOT
HETATM    1  N   UNL     1     -14.284   8.969  72.997  1.00  0.00    -1.154 NA 
HETATM    2  H2  UNL     1     -14.025   8.761  73.961  1.00  0.00     0.000 HD 
HETATM    3  C   UNL     1     -13.115   9.212  72.268  1.00  0.00    -0.438 A  
HETATM    4  H1  UNL     1     -15.036   9.658  73.009  1.00  0.00     0.000 HD 
HETATM    5  C   UNL     1     -12.085   8.268  72.251  1.00  0.00    -0.439 A  
HETATM    6  C   UNL     1     -10.944   8.464  71.467  1.00  0.00    -0.326 A  
HETATM    7  C   UNL     1     -10.852   9.600  70.661  1.00  0.00    -0.320 A  
HETATM    8  C   UNL     1     -13.057  10.282  71.371  1.00  0.00    -0.512 A  
HETATM    9  C   UNL     1     -11.927  10.489  70.574  1.00  0.00    -0.436 A  
ENDROOT
BRANCH   7  10
HETATM   10  S   UNL     1      -9.417   9.846  69.636  1.00  0.00    -0.229 S  
HETATM   11  O   UNL     1      -9.607  11.123  68.971  1.00  0.00    -0.175 OA 
HETATM   12  O   UNL     1      -8.249   9.619  70.465  1.00  0.00    -0.187 OA 
BRANCH  10  13
HETATM   13  C   UNL     1      -9.367   8.604  68.360  1.00  0.00    -0.138 A  
HETATM   14  C   UNL     1      -8.119   8.160  67.913  1.00  0.00    -0.128 A  
HETATM   15  C   UNL     1      -8.043   7.155  66.948  1.00  0.00    -0.116 A  
HETATM   16  C   UNL     1      -9.203   6.615  66.385  1.00  0.00    -0.151 A  
HETATM   17  N   UNL     1      -9.116   5.511  65.530  1.00  0.00    -0.277 NA 
HETATM   18  C   UNL     1     -10.445   7.035  66.875  1.00  0.00    -0.356 A  
HETATM   19  H2  UNL     1      -8.616   4.766  66.016  1.00  0.00     0.000 HD 
HETATM   20  H1  UNL     1      -9.963   5.117  65.119  1.00  0.00     0.000 HD 
HETATM   21  C   UNL     1     -10.536   8.045  67.844  1.00  0.00    -0.259 A  
ENDBRANCH  10  13
ENDBRANCH   7  10
TORSDOF 2
ENDMDL
MODEL       56
REMARK 921   NORMALIZED FREE ENERGY PREDICTED BY IDOCK:   -5.04 KCAL/MOL
REMARK 922        TOTAL FREE ENERGY PREDICTED BY IDOCK:   -6.05 KCAL/MOL
REMARK 923 INTER-LIGAND FREE ENERGY PREDICTED BY IDOCK:   -5.65 KCAL/MOL
REMARK 924 INTRA-LIGAND FREE ENERGY PREDICTED BY IDOCK:   -0.40 KCAL/MOL
REMARK 927      BINDING AFFINITY PREDICTED BY RF-SCORE:    0.00 PKD
ROOT
HETATM    1  N   UNL     1      -6.601  19.135  69.013  1.00  0.00    -0.285 NA 
HETATM    2  H2  UNL     1      -7.097  19.908  69.456  1.00  0.00     0.000 HD 
HETATM    3  C   UNL     1      -7.452  18.025  68.985  1.00  0.00    -0.169 A  
HETATM    4  H1  UNL     1      -5.676  19.064  69.435  1.00  0.00     0.000 HD 
HETATM    5  C   UNL     1      -8.720  18.122  68.406  1.00  0.00    -0.302 A  
HETATM    6  C   UNL     1      -9.551  17.001  68.302  1.00  0.00    -0.273 A  
HETATM    7  C   UNL     1      -9.089  15.762  68.749  1.00  0.00    -0.213 A  
HETATM    8  C   UNL     1      -6.965  16.758  69.320  1.00  0.00    -0.216 A  
HETATM    9  C   UNL     1      -7.779  15.626  69.215  1.00  0.00    -0.223 A  
ENDROOT
BRANCH   7  10
HETATM   10  S   UNL     1     -10.126  14.323  68.596  1.00  0.00    -0.223 S  
HETATM   11  O   UNL     1      -9.240  13.175  68.664  1.00  0.00    -0.109 OA 
HETATM   12  O   UNL     1     -11.211  14.468  69.547  1.00  0.00    -0.251 OA 
BRANCH  10  13
HETATM   13  C   UNL     1     -10.883  14.293  66.984  1.00  0.00    -0.297 A  
HETATM   14  C   UNL     1     -10.058  14.387  65.860  1.00  0.00    -0.344 A  
HETATM   15  C   UNL     1     -10.615  14.320  64.581  1.00  0.00    -0.364 A  
HETATM   16  C   UNL     1     -11.997  14.206  64.408  1.00  0.00    -0.457 A  
HETATM   17  N   UNL     1     -12.526  13.992  63.130  1.00  0.00    -1.070 NA 
HETATM   18  C   UNL     1     -12.806  14.065  65.542  1.00  0.00    -0.453 A  
HETATM   19  H2  UNL     1     -12.081  13.165  62.731  1.00  0.00     0.000 HD 
HETATM   20  H1  UNL     1     -13.535  13.909  63.004  1.00  0.00     0.000 HD 
HETATM   21  C   UNL     1     -12.261  14.132  66.832  1.00  0.00    -0.400 A  
ENDBRANCH  10  13
ENDBRANCH   7  10
TORSDOF 2
ENDMDL
MODEL       57
REMARK 921   NORMALIZED FREE ENERGY PREDICTED BY IDOCK:   -5.03 KCAL/MOL
REMARK 922        TOTAL FREE ENERGY PREDICTED BY IDOCK:   -6.05 KCAL/MOL
REMARK 923 INTER-LIGAND FREE ENERGY PREDICTED BY IDOCK:   -5.63 KCAL/MOL
REMARK 924 INTRA-LIGAND FREE ENERGY PREDICTED BY IDOCK:   -0.42 KCAL/MOL
REMARK 927      BINDING AFFINITY PREDICTED BY RF-SCORE:    0.00 PKD
ROOT
HETATM    1  N   UNL     1      -8.289  19.259  66.674  1.00  0.00    -0.291 NA 
HETATM    2  H2  UNL     1      -8.826  19.789  67.360  1.00  0.00     0.000 HD 
HETATM    3  C   UNL     1      -8.976  18.072  66.398  1.00  0.00    -0.230 A  
HETATM    4  H1  UNL     1      -7.316  19.232  66.979  1.00  0.00     0.000 HD 
HETATM    5  C   UNL     1     -10.308  18.108  65.979  1.00  0.00    -0.360 A  
HETATM    6  C   UNL     1     -10.983  16.935  65.627  1.00  0.00     0.026 A  
HETATM    7  C   UNL     1     -10.302  15.717  65.658  1.00  0.00    -0.385 A  
HETATM    8  C   UNL     1      -8.280  16.862  66.313  1.00  0.00    -0.344 A  
HETATM    9  C   UNL     1      -8.938  15.681  65.956  1.00  0.00    -0.297 A  
ENDROOT
BRANCH   7  10
HETATM   10  S   UNL     1     -11.142  14.220  65.185  1.00  0.00    -0.375 S  
HETATM   11  O   UNL     1     -12.447  14.625  64.693  1.00  0.00    -0.527 OA 
HETATM   12  O   UNL     1     -10.241  13.467  64.334  1.00  0.00    -0.401 OA 
BRANCH  10  13
HETATM   13  C   UNL     1     -11.426  13.207  66.622  1.00  0.00    -0.348 A  
HETATM   14  C   UNL     1     -11.229  11.828  66.513  1.00  0.00    -0.380 A  
HETATM   15  C   UNL     1     -11.398  11.010  67.632  1.00  0.00    -0.355 A  
HETATM   16  C   UNL     1     -11.808  11.547  68.855  1.00  0.00    -0.341 A  
HETATM   17  N   UNL     1     -11.830  10.743  70.000  1.00  0.00    -0.313 NA 
HETATM   18  C   UNL     1     -11.956  12.935  68.962  1.00  0.00    -0.297 A  
HETATM   19  H2  UNL     1     -10.905  10.331  70.122  1.00  0.00     0.000 HD 
HETATM   20  H1  UNL     1     -12.130  11.135  70.892  1.00  0.00     0.000 HD 
HETATM   21  C   UNL     1     -11.791  13.769  67.846  1.00  0.00    -0.413 A  
ENDBRANCH  10  13
ENDBRANCH   7  10
TORSDOF 2
ENDMDL
MODEL       58
REMARK 921   NORMALIZED FREE ENERGY PREDICTED BY IDOCK:   -5.03 KCAL/MOL
REMARK 922        TOTAL FREE ENERGY PREDICTED BY IDOCK:   -6.04 KCAL/MOL
REMARK 923 INTER-LIGAND FREE ENERGY PREDICTED BY IDOCK:   -5.61 KCAL/MOL
REMARK 924 INTRA-LIGAND FREE ENERGY PREDICTED BY IDOCK:   -0.43 KCAL/MOL
REMARK 927      BINDING AFFINITY PREDICTED BY RF-SCORE:    0.00 PKD
ROOT
HETATM    1  N   UNL     1     -13.833  13.840  72.774  1.00  0.00    -0.689 NA 
HETATM    2  H2  UNL     1     -14.669  14.424  72.778  1.00  0.00     0.000 HD 
HETATM    3  C   UNL     1     -13.209  13.972  71.529  1.00  0.00    -0.359 A  
HETATM    4  H1  UNL     1     -14.085  12.917  73.128  1.00  0.00     0.000 HD 
HETATM    5  C   UNL     1     -12.864  15.237  71.044  1.00  0.00    -0.505 A  
HETATM    6  C   UNL     1     -12.171  15.378  69.837  1.00  0.00    -0.363 A  
HETATM    7  C   UNL     1     -11.787  14.238  69.129  1.00  0.00    -0.330 A  
HETATM    8  C   UNL     1     -12.717  12.844  70.867  1.00  0.00    -0.291 A  
HETATM    9  C   UNL     1     -12.017  12.968  69.663  1.00  0.00    -0.367 A  
ENDROOT
BRANCH   7  10
HETATM   10  S   UNL     1     -10.880  14.406  67.606  1.00  0.00    -0.279 S  
HETATM   11  O   UNL     1      -9.948  13.293  67.564  1.00  0.00    -0.218 OA 
HETATM   12  O   UNL     1     -11.849  14.589  66.542  1.00  0.00    -0.383 OA 
BRANCH  10  13
HETATM   13  C   UNL     1      -9.903  15.894  67.645  1.00  0.00    -0.233 A  
HETATM   14  C   UNL     1     -10.336  16.994  66.899  1.00  0.00    -0.303 A  
HETATM   15  C   UNL     1      -9.619  18.191  66.945  1.00  0.00    -0.299 A  
HETATM   16  C   UNL     1      -8.443  18.293  67.693  1.00  0.00    -0.255 A  
HETATM   17  N   UNL     1      -7.817  19.534  67.847  1.00  0.00    -0.287 NA 
HETATM   18  C   UNL     1      -8.047  17.199  68.472  1.00  0.00    -0.260 A  
HETATM   19  H2  UNL     1      -8.499  20.194  68.225  1.00  0.00     0.000 HD 
HETATM   20  H1  UNL     1      -6.959  19.609  68.393  1.00  0.00     0.000 HD 
HETATM   21  C   UNL     1      -8.757  15.990  68.435  1.00  0.00    -0.186 A  
ENDBRANCH  10  13
ENDBRANCH   7  10
TORSDOF 2
ENDMDL
MODEL       59
REMARK 921   NORMALIZED FREE ENERGY PREDICTED BY IDOCK:   -5.01 KCAL/MOL
REMARK 922        TOTAL FREE ENERGY PREDICTED BY IDOCK:   -6.02 KCAL/MOL
REMARK 923 INTER-LIGAND FREE ENERGY PREDICTED BY IDOCK:   -5.67 KCAL/MOL
REMARK 924 INTRA-LIGAND FREE ENERGY PREDICTED BY IDOCK:   -0.36 KCAL/MOL
REMARK 927      BINDING AFFINITY PREDICTED BY RF-SCORE:    0.00 PKD
ROOT
HETATM    1  N   UNL     1     -11.460   6.290  69.414  1.00  0.00    -0.559 NA 
HETATM    2  H2  UNL     1     -12.147   6.686  70.055  1.00  0.00     0.000 HD 
HETATM    3  C   UNL     1     -10.881   7.336  68.686  1.00  0.00    -0.071 A  
HETATM    4  H1  UNL     1     -11.891   5.503  68.929  1.00  0.00     0.000 HD 
HETATM    5  C   UNL     1     -10.291   8.415  69.350  1.00  0.00    -0.217 A  
HETATM    6  C   UNL     1      -9.642   9.429  68.638  1.00  0.00    -0.152 A  
HETATM    7  C   UNL     1      -9.551   9.340  67.248  1.00  0.00    -0.155 A  
HETATM    8  C   UNL     1     -10.681   7.207  67.309  1.00  0.00    -0.399 A  
HETATM    9  C   UNL     1     -10.028   8.208  66.583  1.00  0.00    -0.339 A  
ENDROOT
BRANCH   7  10
HETATM   10  S   UNL     1      -8.703  10.610  66.333  1.00  0.00    -0.154 S  
HETATM   11  O   UNL     1      -8.088  11.479  67.320  1.00  0.00    -0.138 OA 
HETATM   12  O   UNL     1      -7.888   9.951  65.330  1.00  0.00    -0.119 OA 
BRANCH  10  13
HETATM   13  C   UNL     1      -9.882  11.600  65.439  1.00  0.00    -0.238 A  
HETATM   14  C   UNL     1      -9.995  12.955  65.763  1.00  0.00    -0.261 A  
HETATM   15  C   UNL     1     -10.877  13.769  65.050  1.00  0.00    -0.377 A  
HETATM   16  C   UNL     1     -11.686  13.238  64.042  1.00  0.00    -0.430 A  
HETATM   17  N   UNL     1     -12.454  14.089  63.240  1.00  0.00    -1.112 NA 
HETATM   18  C   UNL     1     -11.528  11.890  63.696  1.00  0.00    -0.551 A  
HETATM   19  H2  UNL     1     -11.834  14.785  62.824  1.00  0.00     0.000 HD 
HETATM   20  H1  UNL     1     -13.044  13.701  62.504  1.00  0.00     0.000 HD 
HETATM   21  C   UNL     1     -10.647  11.060  64.405  1.00  0.00    -0.395 A  
ENDBRANCH  10  13
ENDBRANCH   7  10
TORSDOF 2
ENDMDL
MODEL       60
REMARK 921   NORMALIZED FREE ENERGY PREDICTED BY IDOCK:   -4.99 KCAL/MOL
REMARK 922        TOTAL FREE ENERGY PREDICTED BY IDOCK:   -6.00 KCAL/MOL
REMARK 923 INTER-LIGAND FREE ENERGY PREDICTED BY IDOCK:   -5.67 KCAL/MOL
REMARK 924 INTRA-LIGAND FREE ENERGY PREDICTED BY IDOCK:   -0.33 KCAL/MOL
REMARK 927      BINDING AFFINITY PREDICTED BY RF-SCORE:    0.00 PKD
ROOT
HETATM    1  N   UNL     1      -9.801  18.124  65.859  1.00  0.00    -0.547 NA 
HETATM    2  H2  UNL     1     -10.603  18.707  66.098  1.00  0.00     0.000 HD 
HETATM    3  C   UNL     1     -10.261  16.827  65.604  1.00  0.00    -0.236 A  
HETATM    4  H1  UNL     1      -9.071  18.284  66.553  1.00  0.00     0.000 HD 
HETATM    5  C   UNL     1     -11.262  16.608  64.654  1.00  0.00    -0.023 A  
HETATM    6  C   UNL     1     -11.677  15.311  64.334  1.00  0.00    -0.289 A  
HETATM    7  C   UNL     1     -11.054  14.221  64.944  1.00  0.00    -0.390 A  
HETATM    8  C   UNL     1      -9.573  15.725  66.118  1.00  0.00    -0.364 A  
HETATM    9  C   UNL     1      -9.970  14.422  65.803  1.00  0.00    -0.354 A  
ENDROOT
BRANCH   7  10
HETATM   10  S   UNL     1     -11.554  12.565  64.524  1.00  0.00    -0.371 S  
HETATM   11  O   UNL     1     -13.005  12.582  64.466  1.00  0.00    -0.752 OA 
HETATM   12  O   UNL     1     -10.780  12.159  63.366  1.00  0.00    -0.430 OA 
BRANCH  10  13
HETATM   13  C   UNL     1     -11.104  11.447  65.835  1.00  0.00    -0.162 A  
HETATM   14  C   UNL     1     -11.653  11.654  67.103  1.00  0.00    -0.291 A  
HETATM   15  C   UNL     1     -11.358  10.769  68.142  1.00  0.00    -0.377 A  
HETATM   16  C   UNL     1     -10.480   9.700  67.943  1.00  0.00    -0.246 A  
HETATM   17  N   UNL     1     -10.309   8.740  68.946  1.00  0.00    -0.211 NA 
HETATM   18  C   UNL     1      -9.974   9.478  66.657  1.00  0.00    -0.314 A  
HETATM   19  H2  UNL     1     -11.225   8.364  69.193  1.00  0.00     0.000 HD 
HETATM   20  H1  UNL     1      -9.668   7.960  68.801  1.00  0.00     0.000 HD 
HETATM   21  C   UNL     1     -10.262  10.359  65.604  1.00  0.00    -0.308 A  
ENDBRANCH  10  13
ENDBRANCH   7  10
TORSDOF 2
ENDMDL
MODEL       61
REMARK 921   NORMALIZED FREE ENERGY PREDICTED BY IDOCK:   -4.99 KCAL/MOL
REMARK 922        TOTAL FREE ENERGY PREDICTED BY IDOCK:   -6.00 KCAL/MOL
REMARK 923 INTER-LIGAND FREE ENERGY PREDICTED BY IDOCK:   -5.59 KCAL/MOL
REMARK 924 INTRA-LIGAND FREE ENERGY PREDICTED BY IDOCK:   -0.40 KCAL/MOL
REMARK 927      BINDING AFFINITY PREDICTED BY RF-SCORE:    0.00 PKD
ROOT
HETATM    1  N   UNL     1      -8.680   7.774  65.583  1.00  0.00    -0.276 NA 
HETATM    2  H2  UNL     1      -9.215   6.955  65.869  1.00  0.00     0.000 HD 
HETATM    3  C   UNL     1      -9.495   8.903  65.720  1.00  0.00    -0.202 A  
HETATM    4  H1  UNL     1      -8.231   7.569  64.691  1.00  0.00     0.000 HD 
HETATM    5  C   UNL     1     -10.110   9.185  66.943  1.00  0.00    -0.328 A  
HETATM    6  C   UNL     1     -10.866  10.349  67.115  1.00  0.00    -0.301 A  
HETATM    7  C   UNL     1     -10.973  11.259  66.062  1.00  0.00    -0.174 A  
HETATM    8  C   UNL     1      -9.519   9.877  64.718  1.00  0.00    -0.356 A  
HETATM    9  C   UNL     1     -10.263  11.050  64.877  1.00  0.00    -0.373 A  
ENDROOT
BRANCH   7  10
HETATM   10  S   UNL     1     -11.908  12.759  66.280  1.00  0.00    -0.404 S  
HETATM   11  O   UNL     1     -12.831  12.827  65.161  1.00  0.00    -0.726 OA 
HETATM   12  O   UNL     1     -12.407  12.765  67.641  1.00  0.00    -0.250 OA 
BRANCH  10  13
HETATM   13  C   UNL     1     -10.828  14.169  66.144  1.00  0.00    -0.296 A  
HETATM   14  C   UNL     1     -11.321  15.327  65.536  1.00  0.00    -0.220 A  
HETATM   15  C   UNL     1     -10.517  16.465  65.455  1.00  0.00    -0.333 A  
HETATM   16  C   UNL     1      -9.203  16.449  65.933  1.00  0.00    -0.199 A  
HETATM   17  N   UNL     1      -8.461  17.635  65.979  1.00  0.00    -0.528 NA 
HETATM   18  C   UNL     1      -8.740  15.298  66.581  1.00  0.00    -0.327 A  
HETATM   19  H2  UNL     1      -8.991  18.326  66.511  1.00  0.00     0.000 HD 
HETATM   20  H1  UNL     1      -7.503  17.623  66.328  1.00  0.00     0.000 HD 
HETATM   21  C   UNL     1      -9.536  14.147  66.669  1.00  0.00    -0.301 A  
ENDBRANCH  10  13
ENDBRANCH   7  10
TORSDOF 2
ENDMDL
MODEL       62
REMARK 921   NORMALIZED FREE ENERGY PREDICTED BY IDOCK:   -4.98 KCAL/MOL
REMARK 922        TOTAL FREE ENERGY PREDICTED BY IDOCK:   -5.99 KCAL/MOL
REMARK 923 INTER-LIGAND FREE ENERGY PREDICTED BY IDOCK:   -5.76 KCAL/MOL
REMARK 924 INTRA-LIGAND FREE ENERGY PREDICTED BY IDOCK:   -0.23 KCAL/MOL
REMARK 927      BINDING AFFINITY PREDICTED BY RF-SCORE:    0.00 PKD
ROOT
HETATM    1  N   UNL     1      -6.028  14.908  67.394  1.00  0.00    -0.321 NA 
HETATM    2  H2  UNL     1      -5.649  14.210  66.753  1.00  0.00     0.000 HD 
HETATM    3  C   UNL     1      -7.362  14.583  67.661  1.00  0.00    -0.183 A  
HETATM    4  H1  UNL     1      -5.784  15.833  67.041  1.00  0.00     0.000 HD 
HETATM    5  C   UNL     1      -7.696  13.315  68.145  1.00  0.00    -0.143 A  
HETATM    6  C   UNL     1      -9.016  13.002  68.488  1.00  0.00    -0.048 A  
HETATM    7  C   UNL     1     -10.003  13.983  68.382  1.00  0.00    -0.236 A  
HETATM    8  C   UNL     1      -8.339  15.582  67.670  1.00  0.00    -0.167 A  
HETATM    9  C   UNL     1      -9.662  15.288  68.017  1.00  0.00    -0.211 A  
ENDROOT
BRANCH   7  10
HETATM   10  S   UNL     1     -11.681  13.605  68.843  1.00  0.00    -0.357 S  
HETATM   11  O   UNL     1     -12.530  14.305  67.896  1.00  0.00    -0.099 OA 
HETATM   12  O   UNL     1     -11.777  12.165  68.986  1.00  0.00    -0.283 OA 
BRANCH  10  13
HETATM   13  C   UNL     1     -12.033  14.285  70.450  1.00  0.00    -0.332 A  
HETATM   14  C   UNL     1     -11.541  15.558  70.757  1.00  0.00    -0.399 A  
HETATM   15  C   UNL     1     -11.838  16.140  71.990  1.00  0.00    -0.615 A  
HETATM   16  C   UNL     1     -12.585  15.447  72.947  1.00  0.00    -0.419 A  
HETATM   17  N   UNL     1     -12.998  16.096  74.116  1.00  0.00    -0.944 NA 
HETATM   18  C   UNL     1     -13.111  14.194  72.609  1.00  0.00    -0.564 A  
HETATM   19  H2  UNL     1     -13.511  16.938  73.853  1.00  0.00     0.000 HD 
HETATM   20  H1  UNL     1     -13.543  15.590  74.814  1.00  0.00     0.000 HD 
HETATM   21  C   UNL     1     -12.820  13.597  71.374  1.00  0.00    -0.442 A  
ENDBRANCH  10  13
ENDBRANCH   7  10
TORSDOF 2
ENDMDL
MODEL       63
REMARK 921   NORMALIZED FREE ENERGY PREDICTED BY IDOCK:   -4.97 KCAL/MOL
REMARK 922        TOTAL FREE ENERGY PREDICTED BY IDOCK:   -5.98 KCAL/MOL
REMARK 923 INTER-LIGAND FREE ENERGY PREDICTED BY IDOCK:   -5.75 KCAL/MOL
REMARK 924 INTRA-LIGAND FREE ENERGY PREDICTED BY IDOCK:   -0.23 KCAL/MOL
REMARK 927      BINDING AFFINITY PREDICTED BY RF-SCORE:    0.00 PKD
ROOT
HETATM    1  N   UNL     1     -10.417   7.804  70.159  1.00  0.00    -0.226 NA 
HETATM    2  H2  UNL     1      -9.429   7.644  70.351  1.00  0.00     0.000 HD 
HETATM    3  C   UNL     1     -10.611   9.175  69.957  1.00  0.00    -0.227 A  
HETATM    4  H1  UNL     1     -10.965   7.304  70.860  1.00  0.00     0.000 HD 
HETATM    5  C   UNL     1      -9.862   9.860  68.997  1.00  0.00    -0.193 A  
HETATM    6  C   UNL     1     -10.098  11.212  68.732  1.00  0.00    -0.211 A  
HETATM    7  C   UNL     1     -11.124  11.875  69.409  1.00  0.00    -0.153 A  
HETATM    8  C   UNL     1     -11.705   9.822  70.540  1.00  0.00    -0.343 A  
HETATM    9  C   UNL     1     -11.960  11.172  70.280  1.00  0.00    -0.460 A  
ENDROOT
BRANCH   7  10
HETATM   10  S   UNL     1     -11.453  13.589  69.059  1.00  0.00    -0.323 S  
HETATM   11  O   UNL     1     -10.165  14.202  68.785  1.00  0.00    -0.233 OA 
HETATM   12  O   UNL     1     -12.511  13.634  68.067  1.00  0.00    -0.085 OA 
BRANCH  10  13
HETATM   13  C   UNL     1     -12.105  14.388  70.511  1.00  0.00    -0.334 A  
HETATM   14  C   UNL     1     -11.298  15.312  71.181  1.00  0.00    -0.402 A  
HETATM   15  C   UNL     1     -11.794  15.990  72.295  1.00  0.00    -0.628 A  
HETATM   16  C   UNL     1     -13.077  15.724  72.782  1.00  0.00    -0.503 A  
HETATM   17  N   UNL     1     -13.615  16.512  73.805  1.00  0.00    -0.653 NA 
HETATM   18  C   UNL     1     -13.891  14.831  72.074  1.00  0.00    -0.548 A  
HETATM   19  H2  UNL     1     -13.576  17.489  73.513  1.00  0.00     0.000 HD 
HETATM   20  H1  UNL     1     -14.551  16.318  74.160  1.00  0.00     0.000 HD 
HETATM   21  C   UNL     1     -13.405  14.142  70.953  1.00  0.00    -0.223 A  
ENDBRANCH  10  13
ENDBRANCH   7  10
TORSDOF 2
ENDMDL
MODEL       64
REMARK 921   NORMALIZED FREE ENERGY PREDICTED BY IDOCK:   -4.97 KCAL/MOL
REMARK 922        TOTAL FREE ENERGY PREDICTED BY IDOCK:   -5.97 KCAL/MOL
REMARK 923 INTER-LIGAND FREE ENERGY PREDICTED BY IDOCK:   -5.64 KCAL/MOL
REMARK 924 INTRA-LIGAND FREE ENERGY PREDICTED BY IDOCK:   -0.34 KCAL/MOL
REMARK 927      BINDING AFFINITY PREDICTED BY RF-SCORE:    0.00 PKD
ROOT
HETATM    1  N   UNL     1     -14.186   8.939  73.245  1.00  0.00    -1.237 NA 
HETATM    2  H2  UNL     1     -14.958   9.518  72.915  1.00  0.00     0.000 HD 
HETATM    3  C   UNL     1     -13.250   8.821  72.211  1.00  0.00    -0.412 A  
HETATM    4  H1  UNL     1     -14.575   8.105  73.683  1.00  0.00     0.000 HD 
HETATM    5  C   UNL     1     -12.716   9.964  71.609  1.00  0.00    -0.527 A  
HETATM    6  C   UNL     1     -11.725   9.863  70.628  1.00  0.00    -0.404 A  
HETATM    7  C   UNL     1     -11.236   8.604  70.275  1.00  0.00    -0.184 A  
HETATM    8  C   UNL     1     -12.670   7.582  71.927  1.00  0.00    -0.318 A  
HETATM    9  C   UNL     1     -11.672   7.464  70.954  1.00  0.00    -0.325 A  
ENDROOT
BRANCH   7  10
HETATM   10  S   UNL     1      -9.954   8.465  69.047  1.00  0.00    -0.194 S  
HETATM   11  O   UNL     1     -10.301   9.396  67.989  1.00  0.00    -0.196 OA 
HETATM   12  O   UNL     1      -8.681   8.579  69.734  1.00  0.00    -0.129 OA 
BRANCH  10  13
HETATM   13  C   UNL     1      -9.981   6.836  68.328  1.00  0.00    -0.146 A  
HETATM   14  C   UNL     1     -10.618   6.663  67.096  1.00  0.00    -0.401 A  
HETATM   15  C   UNL     1     -10.618   5.409  66.483  1.00  0.00    -0.353 A  
HETATM   16  C   UNL     1     -10.026   4.307  67.107  1.00  0.00    -0.104 A  
HETATM   17  N   UNL     1      -9.904   3.096  66.418  1.00  0.00    -0.375 NA 
HETATM   18  C   UNL     1      -9.351   4.505  68.317  1.00  0.00    -0.190 A  
HETATM   19  H2  UNL     1      -9.414   3.272  65.540  1.00  0.00     0.000 HD 
HETATM   20  H1  UNL     1      -9.472   2.292  66.873  1.00  0.00     0.000 HD 
HETATM   21  C   UNL     1      -9.344   5.759  68.945  1.00  0.00    -0.141 A  
ENDBRANCH  10  13
ENDBRANCH   7  10
TORSDOF 2
ENDMDL
MODEL       65
REMARK 921   NORMALIZED FREE ENERGY PREDICTED BY IDOCK:   -4.95 KCAL/MOL
REMARK 922        TOTAL FREE ENERGY PREDICTED BY IDOCK:   -5.95 KCAL/MOL
REMARK 923 INTER-LIGAND FREE ENERGY PREDICTED BY IDOCK:   -5.58 KCAL/MOL
REMARK 924 INTRA-LIGAND FREE ENERGY PREDICTED BY IDOCK:   -0.37 KCAL/MOL
REMARK 927      BINDING AFFINITY PREDICTED BY RF-SCORE:    0.00 PKD
ROOT
HETATM    1  N   UNL     1     -11.570   8.411  72.819  1.00  0.00    -0.297 NA 
HETATM    2  H2  UNL     1     -10.720   8.374  73.380  1.00  0.00     0.000 HD 
HETATM    3  C   UNL     1     -11.341   9.255  71.727  1.00  0.00    -0.367 A  
HETATM    4  H1  UNL     1     -12.359   8.580  73.443  1.00  0.00     0.000 HD 
HETATM    5  C   UNL     1     -10.260   9.024  70.872  1.00  0.00    -0.324 A  
HETATM    6  C   UNL     1     -10.063   9.813  69.734  1.00  0.00    -0.268 A  
HETATM    7  C   UNL     1     -10.982  10.819  69.429  1.00  0.00    -0.254 A  
HETATM    8  C   UNL     1     -12.309  10.188  71.345  1.00  0.00    -0.515 A  
HETATM    9  C   UNL     1     -12.132  10.980  70.207  1.00  0.00    -0.448 A  
ENDROOT
BRANCH   7  10
HETATM   10  S   UNL     1     -10.757  11.811  67.968  1.00  0.00    -0.220 S  
HETATM   11  O   UNL     1      -9.446  11.471  67.444  1.00  0.00    -0.164 OA 
HETATM   12  O   UNL     1     -11.940  11.644  67.144  1.00  0.00    -0.614 OA 
BRANCH  10  13
HETATM   13  C   UNL     1     -10.704  13.535  68.411  1.00  0.00    -0.259 A  
HETATM   14  C   UNL     1      -9.456  14.153  68.527  1.00  0.00    -0.202 A  
HETATM   15  C   UNL     1      -9.379  15.515  68.827  1.00  0.00    -0.209 A  
HETATM   16  C   UNL     1     -10.537  16.262  69.060  1.00  0.00    -0.286 A  
HETATM   17  N   UNL     1     -10.454  17.650  69.213  1.00  0.00    -0.379 NA 
HETATM   18  C   UNL     1     -11.781  15.641  68.894  1.00  0.00    -0.396 A  
HETATM   19  H2  UNL     1      -9.978  18.037  68.397  1.00  0.00     0.000 HD 
HETATM   20  H1  UNL     1     -11.299  18.196  69.383  1.00  0.00     0.000 HD 
HETATM   21  C   UNL     1     -11.873  14.274  68.594  1.00  0.00    -0.379 A  
ENDBRANCH  10  13
ENDBRANCH   7  10
TORSDOF 2
ENDMDL
MODEL       66
REMARK 921   NORMALIZED FREE ENERGY PREDICTED BY IDOCK:   -4.92 KCAL/MOL
REMARK 922        TOTAL FREE ENERGY PREDICTED BY IDOCK:   -5.92 KCAL/MOL
REMARK 923 INTER-LIGAND FREE ENERGY PREDICTED BY IDOCK:   -5.63 KCAL/MOL
REMARK 924 INTRA-LIGAND FREE ENERGY PREDICTED BY IDOCK:   -0.29 KCAL/MOL
REMARK 927      BINDING AFFINITY PREDICTED BY RF-SCORE:    0.00 PKD
ROOT
HETATM    1  N   UNL     1     -13.753  14.044  72.633  1.00  0.00    -0.683 NA 
HETATM    2  H2  UNL     1     -13.324  13.381  73.279  1.00  0.00     0.000 HD 
HETATM    3  C   UNL     1     -12.905  14.197  71.531  1.00  0.00    -0.354 A  
HETATM    4  H1  UNL     1     -14.057  14.859  73.166  1.00  0.00     0.000 HD 
HETATM    5  C   UNL     1     -12.488  13.081  70.801  1.00  0.00    -0.384 A  
HETATM    6  C   UNL     1     -11.703  13.226  69.653  1.00  0.00    -0.369 A  
HETATM    7  C   UNL     1     -11.365  14.506  69.210  1.00  0.00    -0.285 A  
HETATM    8  C   UNL     1     -12.654  15.470  71.011  1.00  0.00    -0.513 A  
HETATM    9  C   UNL     1     -11.877  15.632  69.859  1.00  0.00    -0.374 A  
ENDROOT
BRANCH   7  10
HETATM   10  S   UNL     1     -10.390  14.704  67.734  1.00  0.00    -0.238 S  
HETATM   11  O   UNL     1     -11.158  15.565  66.852  1.00  0.00    -0.306 OA 
HETATM   12  O   UNL     1      -9.052  15.085  68.145  1.00  0.00    -0.172 OA 
BRANCH  10  13
HETATM   13  C   UNL     1     -10.224  13.136  66.906  1.00  0.00    -0.245 A  
HETATM   14  C   UNL     1     -10.939  12.929  65.723  1.00  0.00    -0.303 A  
HETATM   15  C   UNL     1     -10.796  11.730  65.024  1.00  0.00    -0.350 A  
HETATM   16  C   UNL     1      -9.978  10.708  65.516  1.00  0.00    -0.272 A  
HETATM   17  N   UNL     1      -9.729   9.574  64.735  1.00  0.00    -0.416 NA 
HETATM   18  C   UNL     1      -9.232  10.946  66.676  1.00  0.00    -0.184 A  
HETATM   19  H2  UNL     1      -9.359   9.878  63.834  1.00  0.00     0.000 HD 
HETATM   20  H1  UNL     1      -9.133   8.828  65.094  1.00  0.00     0.000 HD 
HETATM   21  C   UNL     1      -9.367  12.146  67.389  1.00  0.00    -0.181 A  
ENDBRANCH  10  13
ENDBRANCH   7  10
TORSDOF 2
ENDMDL
MODEL       67
REMARK 921   NORMALIZED FREE ENERGY PREDICTED BY IDOCK:   -4.91 KCAL/MOL
REMARK 922        TOTAL FREE ENERGY PREDICTED BY IDOCK:   -5.91 KCAL/MOL
REMARK 923 INTER-LIGAND FREE ENERGY PREDICTED BY IDOCK:   -5.51 KCAL/MOL
REMARK 924 INTRA-LIGAND FREE ENERGY PREDICTED BY IDOCK:   -0.40 KCAL/MOL
REMARK 927      BINDING AFFINITY PREDICTED BY RF-SCORE:    0.00 PKD
ROOT
HETATM    1  N   UNL     1     -12.433  13.952  63.406  1.00  0.00    -1.110 NA 
HETATM    2  H2  UNL     1     -12.198  14.940  63.499  1.00  0.00     0.000 HD 
HETATM    3  C   UNL     1     -11.434  13.201  64.034  1.00  0.00    -0.406 A  
HETATM    4  H1  UNL     1     -12.677  13.771  62.432  1.00  0.00     0.000 HD 
HETATM    5  C   UNL     1     -11.100  13.448  65.369  1.00  0.00    -0.301 A  
HETATM    6  C   UNL     1     -10.157  12.655  66.032  1.00  0.00    -0.274 A  
HETATM    7  C   UNL     1      -9.574  11.579  65.362  1.00  0.00    -0.224 A  
HETATM    8  C   UNL     1     -10.926  12.054  63.419  1.00  0.00    -0.475 A  
HETATM    9  C   UNL     1      -9.989  11.246  64.070  1.00  0.00    -0.362 A  
ENDROOT
BRANCH   7  10
HETATM   10  S   UNL     1      -8.395  10.545  66.205  1.00  0.00    -0.158 S  
HETATM   11  O   UNL     1      -7.594   9.915  65.171  1.00  0.00    -0.120 OA 
HETATM   12  O   UNL     1      -7.762  11.355  67.229  1.00  0.00    -0.130 OA 
BRANCH  10  13
HETATM   13  C   UNL     1      -9.245   9.238  67.066  1.00  0.00    -0.138 A  
HETATM   14  C   UNL     1      -9.351   9.317  68.457  1.00  0.00    -0.143 A  
HETATM   15  C   UNL     1     -10.051   8.333  69.158  1.00  0.00    -0.205 A  
HETATM   16  C   UNL     1     -10.611   7.240  68.490  1.00  0.00    -0.175 A  
HETATM   17  N   UNL     1     -11.431   6.343  69.183  1.00  0.00    -0.608 NA 
HETATM   18  C   UNL     1     -10.537   7.199  67.093  1.00  0.00    -0.417 A  
HETATM   19  H2  UNL     1     -12.184   6.871  69.626  1.00  0.00     0.000 HD 
HETATM   20  H1  UNL     1     -11.840   5.546  68.696  1.00  0.00     0.000 HD 
HETATM   21  C   UNL     1      -9.836   8.179  66.376  1.00  0.00    -0.261 A  
ENDBRANCH  10  13
ENDBRANCH   7  10
TORSDOF 2
ENDMDL
MODEL       68
REMARK 921   NORMALIZED FREE ENERGY PREDICTED BY IDOCK:   -4.91 KCAL/MOL
REMARK 922        TOTAL FREE ENERGY PREDICTED BY IDOCK:   -5.91 KCAL/MOL
REMARK 923 INTER-LIGAND FREE ENERGY PREDICTED BY IDOCK:   -5.51 KCAL/MOL
REMARK 924 INTRA-LIGAND FREE ENERGY PREDICTED BY IDOCK:   -0.39 KCAL/MOL
REMARK 927      BINDING AFFINITY PREDICTED BY RF-SCORE:    0.00 PKD
ROOT
HETATM    1  N   UNL     1     -13.150  12.308  64.463  1.00  0.00    -0.754 NA 
HETATM    2  H2  UNL     1     -14.031  12.153  64.951  1.00  0.00     0.000 HD 
HETATM    3  C   UNL     1     -12.510  13.408  65.045  1.00  0.00    -0.428 A  
HETATM    4  H1  UNL     1     -13.331  12.290  63.459  1.00  0.00     0.000 HD 
HETATM    5  C   UNL     1     -12.261  13.432  66.420  1.00  0.00    -0.435 A  
HETATM    6  C   UNL     1     -11.555  14.489  67.003  1.00  0.00    -0.402 A  
HETATM    7  C   UNL     1     -11.061  15.513  66.193  1.00  0.00    -0.177 A  
HETATM    8  C   UNL     1     -11.911  14.379  64.238  1.00  0.00    -0.433 A  
HETATM    9  C   UNL     1     -11.196  15.439  64.804  1.00  0.00    -0.404 A  
ENDROOT
BRANCH   7  10
HETATM   10  S   UNL     1     -10.136  16.850  66.920  1.00  0.00    -0.296 S  
HETATM   11  O   UNL     1      -9.780  17.738  65.829  1.00  0.00    -0.534 OA 
HETATM   12  O   UNL     1     -10.904  17.346  68.047  1.00  0.00    -0.384 OA 
BRANCH  10  13
HETATM   13  C   UNL     1      -8.611  16.230  67.598  1.00  0.00    -0.173 A  
HETATM   14  C   UNL     1      -8.043  16.903  68.684  1.00  0.00    -0.253 A  
HETATM   15  C   UNL     1      -6.872  16.417  69.268  1.00  0.00    -0.218 A  
HETATM   16  C   UNL     1      -6.231  15.287  68.754  1.00  0.00    -0.090 A  
HETATM   17  N   UNL     1      -5.146  14.727  69.436  1.00  0.00    -0.088 NA 
HETATM   18  C   UNL     1      -6.836  14.596  67.697  1.00  0.00    -0.204 A  
HETATM   19  H2  UNL     1      -5.436  14.526  70.394  1.00  0.00     0.000 HD 
HETATM   20  H1  UNL     1      -4.678  13.902  69.060  1.00  0.00     0.000 HD 
HETATM   21  C   UNL     1      -8.011  15.073  67.099  1.00  0.00    -0.238 A  
ENDBRANCH  10  13
ENDBRANCH   7  10
TORSDOF 2
ENDMDL
MODEL       69
REMARK 921   NORMALIZED FREE ENERGY PREDICTED BY IDOCK:   -4.89 KCAL/MOL
REMARK 922        TOTAL FREE ENERGY PREDICTED BY IDOCK:   -5.88 KCAL/MOL
REMARK 923 INTER-LIGAND FREE ENERGY PREDICTED BY IDOCK:   -5.54 KCAL/MOL
REMARK 924 INTRA-LIGAND FREE ENERGY PREDICTED BY IDOCK:   -0.34 KCAL/MOL
REMARK 927      BINDING AFFINITY PREDICTED BY RF-SCORE:    0.00 PKD
ROOT
HETATM    1  N   UNL     1      -5.644  14.674  67.642  1.00  0.00    -0.340 NA 
HETATM    2  H2  UNL     1      -5.167  14.886  68.518  1.00  0.00     0.000 HD 
HETATM    3  C   UNL     1      -7.020  14.617  67.892  1.00  0.00    -0.159 A  
HETATM    4  H1  UNL     1      -5.169  13.888  67.200  1.00  0.00     0.000 HD 
HETATM    5  C   UNL     1      -7.672  15.695  68.498  1.00  0.00    -0.131 A  
HETATM    6  C   UNL     1      -9.058  15.683  68.685  1.00  0.00    -0.205 A  
HETATM    7  C   UNL     1      -9.803  14.596  68.223  1.00  0.00    -0.222 A  
HETATM    8  C   UNL     1      -7.792  13.594  67.337  1.00  0.00    -0.162 A  
HETATM    9  C   UNL     1      -9.180  13.571  67.507  1.00  0.00    -0.219 A  
ENDROOT
BRANCH   7  10
HETATM   10  S   UNL     1     -11.571  14.583  68.430  1.00  0.00    -0.338 S  
HETATM   11  O   UNL     1     -11.920  15.861  69.025  1.00  0.00    -0.378 OA 
HETATM   12  O   UNL     1     -12.153  14.183  67.163  1.00  0.00    -0.426 OA 
BRANCH  10  13
HETATM   13  C   UNL     1     -12.032  13.325  69.603  1.00  0.00    -0.314 A  
HETATM   14  C   UNL     1     -12.637  13.721  70.799  1.00  0.00    -0.410 A  
HETATM   15  C   UNL     1     -13.053  12.759  71.720  1.00  0.00    -0.455 A  
HETATM   16  C   UNL     1     -12.832  11.399  71.484  1.00  0.00    -0.403 A  
HETATM   17  N   UNL     1     -13.383  10.441  72.341  1.00  0.00    -0.553 NA 
HETATM   18  C   UNL     1     -12.268  11.014  70.261  1.00  0.00    -0.447 A  
HETATM   19  H2  UNL     1     -14.390  10.599  72.397  1.00  0.00     0.000 HD 
HETATM   20  H1  UNL     1     -13.221   9.449  72.169  1.00  0.00     0.000 HD 
HETATM   21  C   UNL     1     -11.844  11.971  69.327  1.00  0.00    -0.377 A  
ENDBRANCH  10  13
ENDBRANCH   7  10
TORSDOF 2
ENDMDL
MODEL       70
REMARK 921   NORMALIZED FREE ENERGY PREDICTED BY IDOCK:   -4.86 KCAL/MOL
REMARK 922        TOTAL FREE ENERGY PREDICTED BY IDOCK:   -5.85 KCAL/MOL
REMARK 923 INTER-LIGAND FREE ENERGY PREDICTED BY IDOCK:   -5.43 KCAL/MOL
REMARK 924 INTRA-LIGAND FREE ENERGY PREDICTED BY IDOCK:   -0.42 KCAL/MOL
REMARK 927      BINDING AFFINITY PREDICTED BY RF-SCORE:    0.00 PKD
ROOT
HETATM    1  N   UNL     1     -11.556  16.526  63.757  1.00  0.00    -1.433 NA 
HETATM    2  H2  UNL     1     -12.539  16.692  63.545  1.00  0.00     0.000 HD 
HETATM    3  C   UNL     1     -11.477  15.508  64.713  1.00  0.00    -0.313 A  
HETATM    4  H1  UNL     1     -11.108  17.427  63.926  1.00  0.00     0.000 HD 
HETATM    5  C   UNL     1     -12.090  14.273  64.482  1.00  0.00    -0.499 A  
HETATM    6  C   UNL     1     -11.955  13.222  65.394  1.00  0.00    -0.432 A  
HETATM    7  C   UNL     1     -11.165  13.398  66.531  1.00  0.00    -0.307 A  
HETATM    8  C   UNL     1     -10.600  15.627  65.795  1.00  0.00    -0.374 A  
HETATM    9  C   UNL     1     -10.448  14.583  66.713  1.00  0.00    -0.270 A  
ENDROOT
BRANCH   7  10
HETATM   10  S   UNL     1     -10.963  12.057  67.685  1.00  0.00    -0.254 S  
HETATM   11  O   UNL     1     -11.077  12.641  69.010  1.00  0.00    -0.253 OA 
HETATM   12  O   UNL     1     -11.860  10.993  67.275  1.00  0.00    -0.468 OA 
BRANCH  10  13
HETATM   13  C   UNL     1      -9.316  11.392  67.555  1.00  0.00    -0.164 A  
HETATM   14  C   UNL     1      -8.713  10.878  68.707  1.00  0.00    -0.158 A  
HETATM   15  C   UNL     1      -7.442  10.308  68.631  1.00  0.00    -0.086 A  
HETATM   16  C   UNL     1      -6.740  10.283  67.423  1.00  0.00    -0.072 A  
HETATM   17  N   UNL     1      -5.534   9.579  67.329  1.00  0.00    -0.036 NA 
HETATM   18  C   UNL     1      -7.374  10.757  66.269  1.00  0.00    -0.138 A  
HETATM   19  H2  UNL     1      -5.698   8.617  67.627  1.00  0.00     0.000 HD 
HETATM   20  H1  UNL     1      -5.021   9.561  66.447  1.00  0.00     0.000 HD 
HETATM   21  C   UNL     1      -8.651  11.335  66.330  1.00  0.00    -0.174 A  
ENDBRANCH  10  13
ENDBRANCH   7  10
TORSDOF 2
ENDMDL
MODEL       71
REMARK 921   NORMALIZED FREE ENERGY PREDICTED BY IDOCK:   -4.86 KCAL/MOL
REMARK 922        TOTAL FREE ENERGY PREDICTED BY IDOCK:   -5.85 KCAL/MOL
REMARK 923 INTER-LIGAND FREE ENERGY PREDICTED BY IDOCK:   -5.44 KCAL/MOL
REMARK 924 INTRA-LIGAND FREE ENERGY PREDICTED BY IDOCK:   -0.41 KCAL/MOL
REMARK 927      BINDING AFFINITY PREDICTED BY RF-SCORE:    0.00 PKD
ROOT
HETATM    1  N   UNL     1     -11.853  14.532  70.111  1.00  0.00    -0.290 NA 
HETATM    2  H2  UNL     1     -11.436  15.049  70.884  1.00  0.00     0.000 HD 
HETATM    3  C   UNL     1     -12.171  13.246  70.561  1.00  0.00    -0.340 A  
HETATM    4  H1  UNL     1     -11.265  14.658  69.287  1.00  0.00     0.000 HD 
HETATM    5  C   UNL     1     -12.976  13.073  71.690  1.00  0.00    -0.417 A  
HETATM    6  C   UNL     1     -13.365  11.795  72.106  1.00  0.00    -0.334 A  
HETATM    7  C   UNL     1     -12.974  10.682  71.360  1.00  0.00    -0.443 A  
HETATM    8  C   UNL     1     -11.886  12.133  69.765  1.00  0.00    -0.397 A  
HETATM    9  C   UNL     1     -12.274  10.850  70.162  1.00  0.00    -0.423 A  
ENDROOT
BRANCH   7  10
HETATM   10  S   UNL     1     -13.486   9.054  71.864  1.00  0.00    -0.452 S  
HETATM   11  O   UNL     1     -13.932   9.176  73.240  1.00  0.00    -0.227 OA 
HETATM   12  O   UNL     1     -14.387   8.548  70.846  1.00  0.00    -0.089 OA 
BRANCH  10  13
HETATM   13  C   UNL     1     -12.085   7.955  71.872  1.00  0.00    -0.312 A  
HETATM   14  C   UNL     1     -11.068   8.181  72.804  1.00  0.00    -0.407 A  
HETATM   15  C   UNL     1      -9.977   7.312  72.868  1.00  0.00    -0.257 A  
HETATM   16  C   UNL     1      -9.864   6.239  71.978  1.00  0.00    -0.157 A  
HETATM   17  N   UNL     1      -8.846   5.295  72.149  1.00  0.00    -0.130 NA 
HETATM   18  C   UNL     1     -10.912   5.998  71.082  1.00  0.00    -0.341 A  
HETATM   19  H2  UNL     1      -8.907   4.923  73.097  1.00  0.00     0.000 HD 
HETATM   20  H1  UNL     1      -8.763   4.512  71.500  1.00  0.00     0.000 HD 
HETATM   21  C   UNL     1     -12.013   6.863  71.006  1.00  0.00    -0.422 A  
ENDBRANCH  10  13
ENDBRANCH   7  10
TORSDOF 2
ENDMDL
MODEL       72
REMARK 921   NORMALIZED FREE ENERGY PREDICTED BY IDOCK:   -4.85 KCAL/MOL
REMARK 922        TOTAL FREE ENERGY PREDICTED BY IDOCK:   -5.85 KCAL/MOL
REMARK 923 INTER-LIGAND FREE ENERGY PREDICTED BY IDOCK:   -5.44 KCAL/MOL
REMARK 924 INTRA-LIGAND FREE ENERGY PREDICTED BY IDOCK:   -0.40 KCAL/MOL
REMARK 927      BINDING AFFINITY PREDICTED BY RF-SCORE:    0.00 PKD
ROOT
HETATM    1  N   UNL     1     -10.072   9.905  70.679  1.00  0.00    -0.365 NA 
HETATM    2  H2  UNL     1     -10.927   9.535  71.094  1.00  0.00     0.000 HD 
HETATM    3  C   UNL     1     -10.376  10.391  69.403  1.00  0.00    -0.237 A  
HETATM    4  H1  UNL     1      -9.331   9.215  70.804  1.00  0.00     0.000 HD 
HETATM    5  C   UNL     1     -11.391  11.336  69.232  1.00  0.00    -0.354 A  
HETATM    6  C   UNL     1     -11.655  11.887  67.973  1.00  0.00    -0.401 A  
HETATM    7  C   UNL     1     -10.865  11.516  66.883  1.00  0.00    -0.284 A  
HETATM    8  C   UNL     1      -9.526  10.119  68.328  1.00  0.00    -0.147 A  
HETATM    9  C   UNL     1      -9.770  10.668  67.065  1.00  0.00    -0.207 A  
ENDROOT
BRANCH   7  10
HETATM   10  S   UNL     1     -11.172  12.233  65.283  1.00  0.00    -0.338 S  
HETATM   11  O   UNL     1     -10.168  11.680  64.391  1.00  0.00    -0.264 OA 
HETATM   12  O   UNL     1     -12.583  12.060  64.993  1.00  0.00    -0.415 OA 
BRANCH  10  13
HETATM   13  C   UNL     1     -10.893  13.991  65.345  1.00  0.00    -0.328 A  
HETATM   14  C   UNL     1     -11.686  14.819  64.545  1.00  0.00    -0.398 A  
HETATM   15  C   UNL     1     -11.524  16.204  64.605  1.00  0.00    -0.225 A  
HETATM   16  C   UNL     1     -10.545  16.777  65.422  1.00  0.00    -0.203 A  
HETATM   17  N   UNL     1     -10.493  18.165  65.583  1.00  0.00    -0.624 NA 
HETATM   18  C   UNL     1      -9.791  15.939  66.252  1.00  0.00    -0.325 A  
HETATM   19  H2  UNL     1     -11.408  18.488  65.900  1.00  0.00     0.000 HD 
HETATM   20  H1  UNL     1      -9.779  18.583  66.179  1.00  0.00     0.000 HD 
HETATM   21  C   UNL     1      -9.942  14.545  66.202  1.00  0.00    -0.330 A  
ENDBRANCH  10  13
ENDBRANCH   7  10
TORSDOF 2
ENDMDL
MODEL       73
REMARK 921   NORMALIZED FREE ENERGY PREDICTED BY IDOCK:   -4.85 KCAL/MOL
REMARK 922        TOTAL FREE ENERGY PREDICTED BY IDOCK:   -5.84 KCAL/MOL
REMARK 923 INTER-LIGAND FREE ENERGY PREDICTED BY IDOCK:   -5.45 KCAL/MOL
REMARK 924 INTRA-LIGAND FREE ENERGY PREDICTED BY IDOCK:   -0.39 KCAL/MOL
REMARK 927      BINDING AFFINITY PREDICTED BY RF-SCORE:    0.00 PKD
ROOT
HETATM    1  N   UNL     1     -10.829   4.336  64.852  1.00  0.00    -0.701 NA 
HETATM    2  H2  UNL     1     -11.030   3.342  64.964  1.00  0.00     0.000 HD 
HETATM    3  C   UNL     1     -10.529   4.869  66.111  1.00  0.00    -0.302 A  
HETATM    4  H1  UNL     1     -11.565   4.749  64.280  1.00  0.00     0.000 HD 
HETATM    5  C   UNL     1      -9.521   4.302  66.895  1.00  0.00    -0.205 A  
HETATM    6  C   UNL     1      -9.159   4.871  68.121  1.00  0.00    -0.134 A  
HETATM    7  C   UNL     1      -9.788   6.042  68.546  1.00  0.00    -0.130 A  
HETATM    8  C   UNL     1     -11.066   6.100  66.497  1.00  0.00     0.024 A  
HETATM    9  C   UNL     1     -10.709   6.686  67.716  1.00  0.00    -0.352 A  
ENDROOT
BRANCH   7  10
HETATM   10  S   UNL     1      -9.316   6.791  70.090  1.00  0.00    -0.158 S  
HETATM   11  O   UNL     1      -8.888   5.704  70.954  1.00  0.00    -0.136 OA 
HETATM   12  O   UNL     1      -8.411   7.883  69.785  1.00  0.00    -0.128 OA 
BRANCH  10  13
HETATM   13  C   UNL     1     -10.740   7.531  70.862  1.00  0.00    -0.235 A  
HETATM   14  C   UNL     1     -11.831   6.714  71.168  1.00  0.00    -0.414 A  
HETATM   15  C   UNL     1     -12.944   7.253  71.816  1.00  0.00    -0.368 A  
HETATM   16  C   UNL     1     -13.003   8.615  72.123  1.00  0.00    -0.387 A  
HETATM   17  N   UNL     1     -14.055   9.112  72.900  1.00  0.00    -1.088 NA 
HETATM   18  C   UNL     1     -11.884   9.412  71.854  1.00  0.00    -0.402 A  
HETATM   19  H2  UNL     1     -14.091   8.582  73.771  1.00  0.00     0.000 HD 
HETATM   20  H1  UNL     1     -14.098  10.106  73.124  1.00  0.00     0.000 HD 
HETATM   21  C   UNL     1     -10.760   8.884  71.203  1.00  0.00    -0.333 A  
ENDBRANCH  10  13
ENDBRANCH   7  10
TORSDOF 2
ENDMDL
MODEL       74
REMARK 921   NORMALIZED FREE ENERGY PREDICTED BY IDOCK:   -4.83 KCAL/MOL
REMARK 922        TOTAL FREE ENERGY PREDICTED BY IDOCK:   -5.82 KCAL/MOL
REMARK 923 INTER-LIGAND FREE ENERGY PREDICTED BY IDOCK:   -5.49 KCAL/MOL
REMARK 924 INTRA-LIGAND FREE ENERGY PREDICTED BY IDOCK:   -0.33 KCAL/MOL
REMARK 927      BINDING AFFINITY PREDICTED BY RF-SCORE:    0.00 PKD
ROOT
HETATM    1  N   UNL     1      -5.563  11.693  66.344  1.00  0.00    -0.413 NA 
HETATM    2  H2  UNL     1      -5.054  11.774  67.224  1.00  0.00     0.000 HD 
HETATM    3  C   UNL     1      -6.932  11.802  66.615  1.00  0.00     0.027 A  
HETATM    4  H1  UNL     1      -5.202  10.884  65.838  1.00  0.00     0.000 HD 
HETATM    5  C   UNL     1      -7.427  12.909  67.308  1.00  0.00    -0.092 A  
HETATM    6  C   UNL     1      -8.801  13.069  67.518  1.00  0.00    -0.195 A  
HETATM    7  C   UNL     1      -9.689  12.128  66.994  1.00  0.00    -0.202 A  
HETATM    8  C   UNL     1      -7.840  10.934  66.001  1.00  0.00    -0.121 A  
HETATM    9  C   UNL     1      -9.217  11.084  66.195  1.00  0.00    -0.209 A  
ENDROOT
BRANCH   7  10
HETATM   10  S   UNL     1     -11.441  12.336  67.231  1.00  0.00    -0.362 S  
HETATM   11  O   UNL     1     -11.955  12.894  65.993  1.00  0.00    -0.410 OA 
HETATM   12  O   UNL     1     -11.962  11.082  67.740  1.00  0.00    -0.609 OA 
BRANCH  10  13
HETATM   13  C   UNL     1     -11.739  13.546  68.503  1.00  0.00    -0.357 A  
HETATM   14  C   UNL     1     -12.022  13.097  69.796  1.00  0.00    -0.382 A  
HETATM   15  C   UNL     1     -12.214  14.019  70.827  1.00  0.00    -0.438 A  
HETATM   16  C   UNL     1     -12.173  15.393  70.574  1.00  0.00    -0.394 A  
HETATM   17  N   UNL     1     -12.220  16.301  71.638  1.00  0.00    -0.614 NA 
HETATM   18  C   UNL     1     -11.842  15.828  69.286  1.00  0.00    -0.358 A  
HETATM   19  H2  UNL     1     -11.472  16.070  72.292  1.00  0.00     0.000 HD 
HETATM   20  H1  UNL     1     -12.191  17.303  71.454  1.00  0.00     0.000 HD 
HETATM   21  C   UNL     1     -11.648  14.914  68.240  1.00  0.00    -0.356 A  
ENDBRANCH  10  13
ENDBRANCH   7  10
TORSDOF 2
ENDMDL
MODEL       75
REMARK 921   NORMALIZED FREE ENERGY PREDICTED BY IDOCK:   -4.81 KCAL/MOL
REMARK 922        TOTAL FREE ENERGY PREDICTED BY IDOCK:   -5.80 KCAL/MOL
REMARK 923 INTER-LIGAND FREE ENERGY PREDICTED BY IDOCK:   -5.43 KCAL/MOL
REMARK 924 INTRA-LIGAND FREE ENERGY PREDICTED BY IDOCK:   -0.36 KCAL/MOL
REMARK 927      BINDING AFFINITY PREDICTED BY RF-SCORE:    0.00 PKD
ROOT
HETATM    1  N   UNL     1     -10.179   9.376  71.230  1.00  0.00    -0.308 NA 
HETATM    2  H2  UNL     1     -10.872   8.633  71.321  1.00  0.00     0.000 HD 
HETATM    3  C   UNL     1     -10.417  10.056  70.031  1.00  0.00    -0.287 A  
HETATM    4  H1  UNL     1      -9.259   8.981  71.425  1.00  0.00     0.000 HD 
HETATM    5  C   UNL     1     -11.678  10.597  69.765  1.00  0.00    -0.385 A  
HETATM    6  C   UNL     1     -11.909  11.344  68.605  1.00  0.00    -0.377 A  
HETATM    7  C   UNL     1     -10.854  11.585  67.723  1.00  0.00    -0.221 A  
HETATM    8  C   UNL     1      -9.350  10.403  69.197  1.00  0.00    -0.211 A  
HETATM    9  C   UNL     1      -9.562  11.156  68.038  1.00  0.00    -0.181 A  
ENDROOT
BRANCH   7  10
HETATM   10  S   UNL     1     -11.129  12.559  66.259  1.00  0.00    -0.311 S  
HETATM   11  O   UNL     1     -10.068  12.208  65.332  1.00  0.00    -0.250 OA 
HETATM   12  O   UNL     1     -12.519  12.389  65.879  1.00  0.00    -0.583 OA 
BRANCH  10  13
HETATM   13  C   UNL     1     -10.929  14.288  66.638  1.00  0.00    -0.310 A  
HETATM   14  C   UNL     1     -11.484  14.778  67.824  1.00  0.00    -0.363 A  
HETATM   15  C   UNL     1     -11.306  16.117  68.173  1.00  0.00    -0.270 A  
HETATM   16  C   UNL     1     -10.616  16.992  67.329  1.00  0.00    -0.267 A  
HETATM   17  N   UNL     1     -10.319  18.290  67.758  1.00  0.00    -0.383 NA 
HETATM   18  C   UNL     1     -10.026  16.478  66.168  1.00  0.00    -0.363 A  
HETATM   19  H2  UNL     1      -9.814  18.229  68.642  1.00  0.00     0.000 HD 
HETATM   20  H1  UNL     1      -9.817  18.928  67.142  1.00  0.00     0.000 HD 
HETATM   21  C   UNL     1     -10.198  15.134  65.804  1.00  0.00    -0.365 A  
ENDBRANCH  10  13
ENDBRANCH   7  10
TORSDOF 2
ENDMDL
MODEL       76
REMARK 921   NORMALIZED FREE ENERGY PREDICTED BY IDOCK:   -4.80 KCAL/MOL
REMARK 922        TOTAL FREE ENERGY PREDICTED BY IDOCK:   -5.79 KCAL/MOL
REMARK 923 INTER-LIGAND FREE ENERGY PREDICTED BY IDOCK:   -5.36 KCAL/MOL
REMARK 924 INTRA-LIGAND FREE ENERGY PREDICTED BY IDOCK:   -0.42 KCAL/MOL
REMARK 927      BINDING AFFINITY PREDICTED BY RF-SCORE:    0.00 PKD
ROOT
HETATM    1  N   UNL     1     -13.226  13.921  72.803  1.00  0.00    -0.526 NA 
HETATM    2  H2  UNL     1     -14.100  14.429  72.934  1.00  0.00     0.000 HD 
HETATM    3  C   UNL     1     -12.875  13.991  71.450  1.00  0.00    -0.359 A  
HETATM    4  H1  UNL     1     -13.308  13.017  73.267  1.00  0.00     0.000 HD 
HETATM    5  C   UNL     1     -12.762  15.230  70.814  1.00  0.00    -0.491 A  
HETATM    6  C   UNL     1     -12.337  15.319  69.484  1.00  0.00    -0.210 A  
HETATM    7  C   UNL     1     -11.985  14.155  68.798  1.00  0.00    -0.332 A  
HETATM    8  C   UNL     1     -12.409  12.853  70.787  1.00  0.00    -0.385 A  
HETATM    9  C   UNL     1     -11.975  12.925  69.459  1.00  0.00    -0.346 A  
ENDROOT
BRANCH   7  10
HETATM   10  S   UNL     1     -11.415  14.258  67.114  1.00  0.00    -0.376 S  
HETATM   11  O   UNL     1     -12.600  14.173  66.279  1.00  0.00    -0.449 OA 
HETATM   12  O   UNL     1     -10.537  15.409  67.023  1.00  0.00    -0.296 OA 
BRANCH  10  13
HETATM   13  C   UNL     1     -10.411  12.839  66.729  1.00  0.00    -0.241 A  
HETATM   14  C   UNL     1      -9.082  12.828  67.161  1.00  0.00    -0.219 A  
HETATM   15  C   UNL     1      -8.280  11.712  66.916  1.00  0.00    -0.169 A  
HETATM   16  C   UNL     1      -8.776  10.618  66.201  1.00  0.00    -0.170 A  
HETATM   17  N   UNL     1      -8.013   9.450  66.090  1.00  0.00    -0.109 NA 
HETATM   18  C   UNL     1     -10.122  10.623  65.815  1.00  0.00    -0.327 A  
HETATM   19  H2  UNL     1      -7.766   9.137  67.030  1.00  0.00     0.000 HD 
HETATM   20  H1  UNL     1      -8.375   8.652  65.568  1.00  0.00     0.000 HD 
HETATM   21  C   UNL     1     -10.939  11.738  66.054  1.00  0.00    -0.355 A  
ENDBRANCH  10  13
ENDBRANCH   7  10
TORSDOF 2
ENDMDL
MODEL       77
REMARK 921   NORMALIZED FREE ENERGY PREDICTED BY IDOCK:   -4.79 KCAL/MOL
REMARK 922        TOTAL FREE ENERGY PREDICTED BY IDOCK:   -5.77 KCAL/MOL
REMARK 923 INTER-LIGAND FREE ENERGY PREDICTED BY IDOCK:   -5.88 KCAL/MOL
REMARK 924 INTRA-LIGAND FREE ENERGY PREDICTED BY IDOCK:    0.11 KCAL/MOL
REMARK 927      BINDING AFFINITY PREDICTED BY RF-SCORE:    0.00 PKD
ROOT
HETATM    1  N   UNL     1     -10.896  11.445  63.359  1.00  0.00    -0.683 NA 
HETATM    2  H2  UNL     1     -10.779  12.450  63.229  1.00  0.00     0.000 HD 
HETATM    3  C   UNL     1     -10.714  11.152  64.715  1.00  0.00    -0.264 A  
HETATM    4  H1  UNL     1     -10.343  10.964  62.650  1.00  0.00     0.000 HD 
HETATM    5  C   UNL     1     -11.472  11.811  65.687  1.00  0.00    -0.249 A  
HETATM    6  C   UNL     1     -11.355  11.474  67.040  1.00  0.00    -0.340 A  
HETATM    7  C   UNL     1     -10.498  10.439  67.417  1.00  0.00    -0.249 A  
HETATM    8  C   UNL     1      -9.950  10.046  65.098  1.00  0.00    -0.350 A  
HETATM    9  C   UNL     1      -9.829   9.691  66.445  1.00  0.00    -0.309 A  
ENDROOT
BRANCH   7  10
HETATM   10  S   UNL     1     -10.363   9.982  69.132  1.00  0.00    -0.231 S  
HETATM   11  O   UNL     1     -10.876   8.627  69.233  1.00  0.00    -0.180 OA 
HETATM   12  O   UNL     1      -9.009  10.285  69.557  1.00  0.00    -0.197 OA 
BRANCH  10  13
HETATM   13  C   UNL     1     -11.431  11.012  70.117  1.00  0.00    -0.296 A  
HETATM   14  C   UNL     1     -11.420  12.391  69.890  1.00  0.00    -0.172 A  
HETATM   15  C   UNL     1     -12.278  13.222  70.612  1.00  0.00    -0.417 A  
HETATM   16  C   UNL     1     -13.121  12.698  71.597  1.00  0.00    -0.323 A  
HETATM   17  N   UNL     1     -14.077  13.517  72.207  1.00  0.00    -0.599 NA 
HETATM   18  C   UNL     1     -13.155  11.311  71.781  1.00  0.00    -0.527 A  
HETATM   19  H2  UNL     1     -14.654  13.937  71.478  1.00  0.00     0.000 HD 
HETATM   20  H1  UNL     1     -14.691  13.135  72.926  1.00  0.00     0.000 HD 
HETATM   21  C   UNL     1     -12.298  10.464  71.063  1.00  0.00    -0.490 A  
ENDBRANCH  10  13
ENDBRANCH   7  10
TORSDOF 2
ENDMDL
MODEL       78
REMARK 921   NORMALIZED FREE ENERGY PREDICTED BY IDOCK:   -4.78 KCAL/MOL
REMARK 922        TOTAL FREE ENERGY PREDICTED BY IDOCK:   -5.77 KCAL/MOL
REMARK 923 INTER-LIGAND FREE ENERGY PREDICTED BY IDOCK:   -5.39 KCAL/MOL
REMARK 924 INTRA-LIGAND FREE ENERGY PREDICTED BY IDOCK:   -0.37 KCAL/MOL
REMARK 927      BINDING AFFINITY PREDICTED BY RF-SCORE:    0.00 PKD
ROOT
HETATM    1  N   UNL     1      -5.577  13.514  67.494  1.00  0.00    -0.349 NA 
HETATM    2  H2  UNL     1      -4.957  14.019  68.126  1.00  0.00     0.000 HD 
HETATM    3  C   UNL     1      -6.893  13.915  67.752  1.00  0.00    -0.175 A  
HETATM    4  H1  UNL     1      -5.326  12.526  67.521  1.00  0.00     0.000 HD 
HETATM    5  C   UNL     1      -7.237  15.269  67.715  1.00  0.00    -0.184 A  
HETATM    6  C   UNL     1      -8.563  15.677  67.896  1.00  0.00    -0.163 A  
HETATM    7  C   UNL     1      -9.559  14.716  68.076  1.00  0.00    -0.212 A  
HETATM    8  C   UNL     1      -7.916  12.965  67.819  1.00  0.00    -0.162 A  
HETATM    9  C   UNL     1      -9.247  13.357  67.992  1.00  0.00    -0.209 A  
ENDROOT
BRANCH   7  10
HETATM   10  S   UNL     1     -11.253  15.223  68.278  1.00  0.00    -0.326 S  
HETATM   11  O   UNL     1     -11.301  16.631  67.923  1.00  0.00    -0.199 OA 
HETATM   12  O   UNL     1     -12.081  14.262  67.574  1.00  0.00    -0.385 OA 
BRANCH  10  13
HETATM   13  C   UNL     1     -11.717  15.110  69.994  1.00  0.00    -0.307 A  
HETATM   14  C   UNL     1     -11.490  16.216  70.819  1.00  0.00    -0.408 A  
HETATM   15  C   UNL     1     -11.884  16.177  72.157  1.00  0.00    -0.626 A  
HETATM   16  C   UNL     1     -12.463  15.027  72.700  1.00  0.00    -0.364 A  
HETATM   17  N   UNL     1     -12.985  15.052  73.998  1.00  0.00    -0.524 NA 
HETATM   18  C   UNL     1     -12.727  13.945  71.852  1.00  0.00    -0.364 A  
HETATM   19  H2  UNL     1     -13.662  15.814  74.058  1.00  0.00     0.000 HD 
HETATM   20  H1  UNL     1     -13.408  14.213  74.394  1.00  0.00     0.000 HD 
HETATM   21  C   UNL     1     -12.336  13.969  70.505  1.00  0.00    -0.437 A  
ENDBRANCH  10  13
ENDBRANCH   7  10
TORSDOF 2
ENDMDL
MODEL       79
REMARK 921   NORMALIZED FREE ENERGY PREDICTED BY IDOCK:   -4.77 KCAL/MOL
REMARK 922        TOTAL FREE ENERGY PREDICTED BY IDOCK:   -5.75 KCAL/MOL
REMARK 923 INTER-LIGAND FREE ENERGY PREDICTED BY IDOCK:   -5.95 KCAL/MOL
REMARK 924 INTRA-LIGAND FREE ENERGY PREDICTED BY IDOCK:    0.20 KCAL/MOL
REMARK 927      BINDING AFFINITY PREDICTED BY RF-SCORE:    0.00 PKD
ROOT
HETATM    1  N   UNL     1     -13.403  16.160  73.836  1.00  0.00    -0.918 NA 
HETATM    2  H2  UNL     1     -13.485  15.604  74.687  1.00  0.00     0.000 HD 
HETATM    3  C   UNL     1     -12.870  15.349  72.828  1.00  0.00    -0.427 A  
HETATM    4  H1  UNL     1     -12.955  17.045  74.075  1.00  0.00     0.000 HD 
HETATM    5  C   UNL     1     -13.483  14.137  72.501  1.00  0.00    -0.634 A  
HETATM    6  C   UNL     1     -13.007  13.353  71.445  1.00  0.00    -0.412 A  
HETATM    7  C   UNL     1     -11.929  13.809  70.684  1.00  0.00    -0.266 A  
HETATM    8  C   UNL     1     -11.869  15.842  71.987  1.00  0.00    -0.582 A  
HETATM    9  C   UNL     1     -11.386  15.074  70.922  1.00  0.00    -0.305 A  
ENDROOT
BRANCH   7  10
HETATM   10  S   UNL     1     -11.332  12.834  69.320  1.00  0.00    -0.215 S  
HETATM   11  O   UNL     1     -12.324  12.959  68.267  1.00  0.00    -0.073 OA 
HETATM   12  O   UNL     1      -9.956  13.222  69.078  1.00  0.00    -0.001 OA 
BRANCH  10  13
HETATM   13  C   UNL     1     -11.287  11.114  69.781  1.00  0.00    -0.278 A  
HETATM   14  C   UNL     1     -10.525  10.237  69.004  1.00  0.00    -0.238 A  
HETATM   15  C   UNL     1     -10.431   8.892  69.365  1.00  0.00    -0.228 A  
HETATM   16  C   UNL     1     -11.127   8.397  70.472  1.00  0.00    -0.252 A  
HETATM   17  N   UNL     1     -10.907   7.085  70.906  1.00  0.00    -0.236 NA 
HETATM   18  C   UNL     1     -11.847   9.296  71.267  1.00  0.00    -0.415 A  
HETATM   19  H2  UNL     1      -9.907   6.964  71.073  1.00  0.00     0.000 HD 
HETATM   20  H1  UNL     1     -11.415   6.724  71.714  1.00  0.00     0.000 HD 
HETATM   21  C   UNL     1     -11.952  10.649  70.916  1.00  0.00    -0.469 A  
ENDBRANCH  10  13
ENDBRANCH   7  10
TORSDOF 2
ENDMDL
MODEL       80
REMARK 921   NORMALIZED FREE ENERGY PREDICTED BY IDOCK:   -4.76 KCAL/MOL
REMARK 922        TOTAL FREE ENERGY PREDICTED BY IDOCK:   -5.74 KCAL/MOL
REMARK 923 INTER-LIGAND FREE ENERGY PREDICTED BY IDOCK:   -5.48 KCAL/MOL
REMARK 924 INTRA-LIGAND FREE ENERGY PREDICTED BY IDOCK:   -0.27 KCAL/MOL
REMARK 927      BINDING AFFINITY PREDICTED BY RF-SCORE:    0.00 PKD
ROOT
HETATM    1  N   UNL     1     -11.119   5.373  66.174  1.00  0.00    -0.784 NA 
HETATM    2  H2  UNL     1     -11.996   4.887  66.360  1.00  0.00     0.000 HD 
HETATM    3  C   UNL     1     -10.968   6.389  67.124  1.00  0.00    -0.399 A  
HETATM    4  H1  UNL     1     -11.077   5.589  65.178  1.00  0.00     0.000 HD 
HETATM    5  C   UNL     1     -11.025   6.093  68.489  1.00  0.00    -0.404 A  
HETATM    6  C   UNL     1     -10.801   7.084  69.449  1.00  0.00    -0.253 A  
HETATM    7  C   UNL     1     -10.476   8.378  69.036  1.00  0.00    -0.201 A  
HETATM    8  C   UNL     1     -10.531   7.657  66.732  1.00  0.00    -0.319 A  
HETATM    9  C   UNL     1     -10.295   8.658  67.680  1.00  0.00    -0.317 A  
ENDROOT
BRANCH   7  10
HETATM   10  S   UNL     1     -10.160   9.642  70.250  1.00  0.00    -0.279 S  
HETATM   11  O   UNL     1     -10.937   9.282  71.422  1.00  0.00    -0.308 OA 
HETATM   12  O   UNL     1      -8.721   9.800  70.346  1.00  0.00    -0.195 OA 
BRANCH  10  13
HETATM   13  C   UNL     1     -10.791  11.204  69.673  1.00  0.00    -0.142 A  
HETATM   14  C   UNL     1     -11.943  11.718  70.273  1.00  0.00    -0.429 A  
HETATM   15  C   UNL     1     -12.438  12.962  69.877  1.00  0.00    -0.034 A  
HETATM   16  C   UNL     1     -11.821  13.684  68.852  1.00  0.00    -0.364 A  
HETATM   17  N   UNL     1     -12.237  14.989  68.567  1.00  0.00    -0.602 NA 
HETATM   18  C   UNL     1     -10.641  13.179  68.293  1.00  0.00    -0.260 A  
HETATM   19  H2  UNL     1     -12.185  15.538  69.425  1.00  0.00     0.000 HD 
HETATM   20  H1  UNL     1     -11.787  15.516  67.818  1.00  0.00     0.000 HD 
HETATM   21  C   UNL     1     -10.133  11.930  68.680  1.00  0.00    -0.186 A  
ENDBRANCH  10  13
ENDBRANCH   7  10
TORSDOF 2
ENDMDL
MODEL       81
REMARK 921   NORMALIZED FREE ENERGY PREDICTED BY IDOCK:   -4.75 KCAL/MOL
REMARK 922        TOTAL FREE ENERGY PREDICTED BY IDOCK:   -5.74 KCAL/MOL
REMARK 923 INTER-LIGAND FREE ENERGY PREDICTED BY IDOCK:   -5.30 KCAL/MOL
REMARK 924 INTRA-LIGAND FREE ENERGY PREDICTED BY IDOCK:   -0.43 KCAL/MOL
REMARK 927      BINDING AFFINITY PREDICTED BY RF-SCORE:    0.00 PKD
ROOT
HETATM    1  N   UNL     1      -8.695   5.243  70.399  1.00  0.00    -0.124 NA 
HETATM    2  H2  UNL     1      -8.296   4.836  71.244  1.00  0.00     0.000 HD 
HETATM    3  C   UNL     1      -9.783   6.043  70.766  1.00  0.00    -0.175 A  
HETATM    4  H1  UNL     1      -8.812   4.500  69.710  1.00  0.00     0.000 HD 
HETATM    5  C   UNL     1      -9.623   7.061  71.710  1.00  0.00    -0.161 A  
HETATM    6  C   UNL     1     -10.682   7.917  72.030  1.00  0.00    -0.299 A  
HETATM    7  C   UNL     1     -11.902   7.776  71.367  1.00  0.00    -0.297 A  
HETATM    8  C   UNL     1     -10.972   5.990  70.034  1.00  0.00    -0.450 A  
HETATM    9  C   UNL     1     -12.038   6.844  70.335  1.00  0.00    -0.250 A  
ENDROOT
BRANCH   7  10
HETATM   10  S   UNL     1     -13.248   8.878  71.745  1.00  0.00    -0.400 S  
HETATM   11  O   UNL     1     -14.382   8.418  70.962  1.00  0.00    -0.202 OA 
HETATM   12  O   UNL     1     -13.344   8.966  73.190  1.00  0.00    -0.229 OA 
BRANCH  10  13
HETATM   13  C   UNL     1     -12.862  10.520  71.176  1.00  0.00    -0.416 A  
HETATM   14  C   UNL     1     -13.273  11.608  71.953  1.00  0.00    -0.475 A  
HETATM   15  C   UNL     1     -12.946  12.906  71.559  1.00  0.00    -0.388 A  
HETATM   16  C   UNL     1     -12.249  13.140  70.370  1.00  0.00    -0.316 A  
HETATM   17  N   UNL     1     -11.801  14.430  70.064  1.00  0.00    -0.296 NA 
HETATM   18  C   UNL     1     -11.803  12.040  69.627  1.00  0.00    -0.401 A  
HETATM   19  H2  UNL     1     -11.235  14.767  70.842  1.00  0.00     0.000 HD 
HETATM   20  H1  UNL     1     -11.293  14.600  69.196  1.00  0.00     0.000 HD 
HETATM   21  C   UNL     1     -12.125  10.730  70.010  1.00  0.00    -0.423 A  
ENDBRANCH  10  13
ENDBRANCH   7  10
TORSDOF 2
ENDMDL
MODEL       82
REMARK 921   NORMALIZED FREE ENERGY PREDICTED BY IDOCK:   -4.74 KCAL/MOL
REMARK 922        TOTAL FREE ENERGY PREDICTED BY IDOCK:   -5.72 KCAL/MOL
REMARK 923 INTER-LIGAND FREE ENERGY PREDICTED BY IDOCK:   -5.30 KCAL/MOL
REMARK 924 INTRA-LIGAND FREE ENERGY PREDICTED BY IDOCK:   -0.41 KCAL/MOL
REMARK 927      BINDING AFFINITY PREDICTED BY RF-SCORE:    0.00 PKD
ROOT
HETATM    1  N   UNL     1      -5.433  12.025  69.995  1.00  0.00    -0.096 NA 
HETATM    2  H2  UNL     1      -5.415  13.019  70.222  1.00  0.00     0.000 HD 
HETATM    3  C   UNL     1      -6.665  11.731  69.400  1.00  0.00    -0.098 A  
HETATM    4  H1  UNL     1      -5.119  11.505  70.814  1.00  0.00     0.000 HD 
HETATM    5  C   UNL     1      -7.094  12.444  68.278  1.00  0.00    -0.098 A  
HETATM    6  C   UNL     1      -8.286  12.109  67.628  1.00  0.00    -0.163 A  
HETATM    7  C   UNL     1      -9.035  11.024  68.084  1.00  0.00    -0.152 A  
HETATM    8  C   UNL     1      -7.366  10.580  69.772  1.00  0.00    -0.139 A  
HETATM    9  C   UNL     1      -8.556  10.227  69.127  1.00  0.00    -0.167 A  
ENDROOT
BRANCH   7  10
HETATM   10  S   UNL     1     -10.540  10.571  67.247  1.00  0.00    -0.272 S  
HETATM   11  O   UNL     1     -10.208   9.440  66.399  1.00  0.00    -0.268 OA 
HETATM   12  O   UNL     1     -11.578  10.451  68.253  1.00  0.00    -0.321 OA 
BRANCH  10  13
HETATM   13  C   UNL     1     -11.050  11.891  66.167  1.00  0.00    -0.326 A  
HETATM   14  C   UNL     1     -10.668  11.837  64.823  1.00  0.00    -0.355 A  
HETATM   15  C   UNL     1     -11.090  12.832  63.939  1.00  0.00    -0.477 A  
HETATM   16  C   UNL     1     -11.855  13.912  64.390  1.00  0.00    -0.429 A  
HETATM   17  N   UNL     1     -12.393  14.819  63.470  1.00  0.00    -0.992 NA 
HETATM   18  C   UNL     1     -12.270  13.928  65.726  1.00  0.00    -0.488 A  
HETATM   19  H2  UNL     1     -12.941  14.297  62.786  1.00  0.00     0.000 HD 
HETATM   20  H1  UNL     1     -12.951  15.607  63.799  1.00  0.00     0.000 HD 
HETATM   21  C   UNL     1     -11.853  12.936  66.626  1.00  0.00    -0.461 A  
ENDBRANCH  10  13
ENDBRANCH   7  10
TORSDOF 2
ENDMDL
MODEL       83
REMARK 921   NORMALIZED FREE ENERGY PREDICTED BY IDOCK:   -4.73 KCAL/MOL
REMARK 922        TOTAL FREE ENERGY PREDICTED BY IDOCK:   -5.71 KCAL/MOL
REMARK 923 INTER-LIGAND FREE ENERGY PREDICTED BY IDOCK:   -5.29 KCAL/MOL
REMARK 924 INTRA-LIGAND FREE ENERGY PREDICTED BY IDOCK:   -0.42 KCAL/MOL
REMARK 927      BINDING AFFINITY PREDICTED BY RF-SCORE:    0.00 PKD
ROOT
HETATM    1  N   UNL     1     -12.448  14.812  63.228  1.00  0.00    -0.561 NA 
HETATM    2  H2  UNL     1     -11.737  14.644  62.518  1.00  0.00     0.000 HD 
HETATM    3  C   UNL     1     -11.910  14.484  64.477  1.00  0.00    -0.446 A  
HETATM    4  H1  UNL     1     -13.320  14.385  62.916  1.00  0.00     0.000 HD 
HETATM    5  C   UNL     1     -10.715  15.070  64.906  1.00  0.00    -0.420 A  
HETATM    6  C   UNL     1     -10.205  14.810  66.182  1.00  0.00    -0.310 A  
HETATM    7  C   UNL     1     -10.921  13.986  67.052  1.00  0.00    -0.297 A  
HETATM    8  C   UNL     1     -12.667  13.757  65.399  1.00  0.00    -0.513 A  
HETATM    9  C   UNL     1     -12.175  13.494  66.682  1.00  0.00    -0.411 A  
ENDROOT
BRANCH   7  10
HETATM   10  S   UNL     1     -10.296  13.671  68.689  1.00  0.00    -0.182 S  
HETATM   11  O   UNL     1      -8.858  13.861  68.618  1.00  0.00    -0.161 OA 
HETATM   12  O   UNL     1     -11.093  14.453  69.615  1.00  0.00    -0.250 OA 
BRANCH  10  13
HETATM   13  C   UNL     1     -10.569  11.965  69.122  1.00  0.00    -0.044 A  
HETATM   14  C   UNL     1     -11.474  11.676  70.147  1.00  0.00    -0.206 A  
HETATM   15  C   UNL     1     -11.746  10.348  70.480  1.00  0.00    -0.434 A  
HETATM   16  C   UNL     1     -11.090   9.298  69.831  1.00  0.00    -0.181 A  
HETATM   17  N   UNL     1     -11.478   7.976  70.071  1.00  0.00    -0.469 NA 
HETATM   18  C   UNL     1     -10.222   9.601  68.775  1.00  0.00    -0.213 A  
HETATM   19  H2  UNL     1     -12.478   7.895  69.885  1.00  0.00     0.000 HD 
HETATM   20  H1  UNL     1     -10.999   7.210  69.597  1.00  0.00     0.000 HD 
HETATM   21  C   UNL     1      -9.938  10.931  68.430  1.00  0.00    -0.188 A  
ENDBRANCH  10  13
ENDBRANCH   7  10
TORSDOF 2
ENDMDL
MODEL       84
REMARK 921   NORMALIZED FREE ENERGY PREDICTED BY IDOCK:   -4.70 KCAL/MOL
REMARK 922        TOTAL FREE ENERGY PREDICTED BY IDOCK:   -5.68 KCAL/MOL
REMARK 923 INTER-LIGAND FREE ENERGY PREDICTED BY IDOCK:   -5.35 KCAL/MOL
REMARK 924 INTRA-LIGAND FREE ENERGY PREDICTED BY IDOCK:   -0.33 KCAL/MOL
REMARK 927      BINDING AFFINITY PREDICTED BY RF-SCORE:    0.00 PKD
ROOT
HETATM    1  N   UNL     1     -12.473   8.052  72.612  1.00  0.00    -0.593 NA 
HETATM    2  H2  UNL     1     -13.478   7.967  72.763  1.00  0.00     0.000 HD 
HETATM    3  C   UNL     1     -12.256   9.000  71.606  1.00  0.00    -0.348 A  
HETATM    4  H1  UNL     1     -12.081   7.114  72.528  1.00  0.00     0.000 HD 
HETATM    5  C   UNL     1     -12.793  10.286  71.721  1.00  0.00    -0.565 A  
HETATM    6  C   UNL     1     -12.521  11.266  70.761  1.00  0.00    -0.471 A  
HETATM    7  C   UNL     1     -11.671  10.965  69.696  1.00  0.00    -0.331 A  
HETATM    8  C   UNL     1     -11.320   8.753  70.599  1.00  0.00    -0.289 A  
HETATM    9  C   UNL     1     -11.031   9.725  69.635  1.00  0.00    -0.269 A  
ENDROOT
BRANCH   7  10
HETATM   10  S   UNL     1     -11.295  12.213  68.483  1.00  0.00    -0.302 S  
HETATM   11  O   UNL     1     -12.154  11.945  67.344  1.00  0.00    -0.577 OA 
HETATM   12  O   UNL     1     -11.348  13.499  69.153  1.00  0.00    -0.260 OA 
BRANCH  10  13
HETATM   13  C   UNL     1      -9.617  12.021  67.919  1.00  0.00    -0.196 A  
HETATM   14  C   UNL     1      -9.362  11.111  66.888  1.00  0.00    -0.189 A  
HETATM   15  C   UNL     1      -8.065  10.970  66.390  1.00  0.00    -0.166 A  
HETATM   16  C   UNL     1      -7.004  11.694  66.941  1.00  0.00    -0.123 A  
HETATM   17  N   UNL     1      -5.742  11.653  66.338  1.00  0.00    -0.426 NA 
HETATM   18  C   UNL     1      -7.282  12.635  67.940  1.00  0.00    -0.116 A  
HETATM   19  H2  UNL     1      -5.844  11.922  65.359  1.00  0.00     0.000 HD 
HETATM   20  H1  UNL     1      -4.968  12.181  66.740  1.00  0.00     0.000 HD 
HETATM   21  C   UNL     1      -8.579  12.787  68.450  1.00  0.00    -0.123 A  
ENDBRANCH  10  13
ENDBRANCH   7  10
TORSDOF 2
ENDMDL
MODEL       85
REMARK 921   NORMALIZED FREE ENERGY PREDICTED BY IDOCK:   -4.70 KCAL/MOL
REMARK 922        TOTAL FREE ENERGY PREDICTED BY IDOCK:   -5.67 KCAL/MOL
REMARK 923 INTER-LIGAND FREE ENERGY PREDICTED BY IDOCK:   -5.30 KCAL/MOL
REMARK 924 INTRA-LIGAND FREE ENERGY PREDICTED BY IDOCK:   -0.37 KCAL/MOL
REMARK 927      BINDING AFFINITY PREDICTED BY RF-SCORE:    0.00 PKD
ROOT
HETATM    1  N   UNL     1     -14.149  14.017  72.676  1.00  0.00    -0.651 NA 
HETATM    2  H2  UNL     1     -13.967  13.735  73.639  1.00  0.00     0.000 HD 
HETATM    3  C   UNL     1     -13.286  13.303  71.837  1.00  0.00    -0.431 A  
HETATM    4  H1  UNL     1     -14.176  15.036  72.640  1.00  0.00     0.000 HD 
HETATM    5  C   UNL     1     -13.249  11.907  71.886  1.00  0.00    -0.467 A  
HETATM    6  C   UNL     1     -12.448  11.179  71.001  1.00  0.00    -0.506 A  
HETATM    7  C   UNL     1     -11.707  11.855  70.030  1.00  0.00    -0.286 A  
HETATM    8  C   UNL     1     -12.629  13.954  70.789  1.00  0.00    -0.424 A  
HETATM    9  C   UNL     1     -11.830  13.240  69.891  1.00  0.00    -0.380 A  
ENDROOT
BRANCH   7  10
HETATM   10  S   UNL     1     -10.706  10.937  68.880  1.00  0.00    -0.231 S  
HETATM   11  O   UNL     1     -11.608  10.465  67.844  1.00  0.00    -0.406 OA 
HETATM   12  O   UNL     1      -9.567  11.767  68.536  1.00  0.00    -0.200 OA 
BRANCH  10  13
HETATM   13  C   UNL     1     -10.040   9.491  69.679  1.00  0.00    -0.212 A  
HETATM   14  C   UNL     1     -10.774   8.303  69.624  1.00  0.00    -0.196 A  
HETATM   15  C   UNL     1     -10.259   7.140  70.200  1.00  0.00    -0.204 A  
HETATM   16  C   UNL     1      -9.035   7.157  70.875  1.00  0.00    -0.151 A  
HETATM   17  N   UNL     1      -8.464   5.959  71.317  1.00  0.00    -0.127 NA 
HETATM   18  C   UNL     1      -8.289   8.342  70.881  1.00  0.00    -0.149 A  
HETATM   19  H2  UNL     1      -8.385   5.326  70.521  1.00  0.00     0.000 HD 
HETATM   20  H1  UNL     1      -7.571   5.972  71.810  1.00  0.00     0.000 HD 
HETATM   21  C   UNL     1      -8.795   9.518  70.308  1.00  0.00    -0.281 A  
ENDBRANCH  10  13
ENDBRANCH   7  10
TORSDOF 2
ENDMDL
MODEL       86
REMARK 921   NORMALIZED FREE ENERGY PREDICTED BY IDOCK:   -4.69 KCAL/MOL
REMARK 922        TOTAL FREE ENERGY PREDICTED BY IDOCK:   -5.66 KCAL/MOL
REMARK 923 INTER-LIGAND FREE ENERGY PREDICTED BY IDOCK:   -5.28 KCAL/MOL
REMARK 924 INTRA-LIGAND FREE ENERGY PREDICTED BY IDOCK:   -0.38 KCAL/MOL
REMARK 927      BINDING AFFINITY PREDICTED BY RF-SCORE:    0.00 PKD
ROOT
HETATM    1  N   UNL     1     -13.358  16.059  73.776  1.00  0.00    -0.879 NA 
HETATM    2  H2  UNL     1     -13.604  15.207  74.279  1.00  0.00     0.000 HD 
HETATM    3  C   UNL     1     -12.831  15.699  72.531  1.00  0.00    -0.435 A  
HETATM    4  H1  UNL     1     -12.827  16.661  74.406  1.00  0.00     0.000 HD 
HETATM    5  C   UNL     1     -13.559  14.876  71.668  1.00  0.00    -0.506 A  
HETATM    6  C   UNL     1     -13.078  14.570  70.391  1.00  0.00    -0.133 A  
HETATM    7  C   UNL     1     -11.873  15.129  69.960  1.00  0.00    -0.325 A  
HETATM    8  C   UNL     1     -11.688  16.339  72.042  1.00  0.00    -0.528 A  
HETATM    9  C   UNL     1     -11.198  16.051  70.764  1.00  0.00    -0.381 A  
ENDROOT
BRANCH   7  10
HETATM   10  S   UNL     1     -11.266  14.771  68.325  1.00  0.00    -0.300 S  
HETATM   11  O   UNL     1     -12.400  14.264  67.573  1.00  0.00    -0.287 OA 
HETATM   12  O   UNL     1     -10.546  15.942  67.863  1.00  0.00    -0.282 OA 
BRANCH  10  13
HETATM   13  C   UNL     1     -10.069  13.455  68.401  1.00  0.00    -0.244 A  
HETATM   14  C   UNL     1     -10.527  12.150  68.604  1.00  0.00    -0.237 A  
HETATM   15  C   UNL     1      -9.620  11.089  68.622  1.00  0.00    -0.198 A  
HETATM   16  C   UNL     1      -8.248  11.318  68.486  1.00  0.00    -0.150 A  
HETATM   17  N   UNL     1      -7.368  10.238  68.359  1.00  0.00    -0.083 NA 
HETATM   18  C   UNL     1      -7.808  12.624  68.237  1.00  0.00    -0.144 A  
HETATM   19  H2  UNL     1      -7.677   9.660  67.577  1.00  0.00     0.000 HD 
HETATM   20  H1  UNL     1      -6.366  10.406  68.260  1.00  0.00     0.000 HD 
HETATM   21  C   UNL     1      -8.708  13.699  68.217  1.00  0.00    -0.171 A  
ENDBRANCH  10  13
ENDBRANCH   7  10
TORSDOF 2
ENDMDL
MODEL       87
REMARK 921   NORMALIZED FREE ENERGY PREDICTED BY IDOCK:   -4.68 KCAL/MOL
REMARK 922        TOTAL FREE ENERGY PREDICTED BY IDOCK:   -5.66 KCAL/MOL
REMARK 923 INTER-LIGAND FREE ENERGY PREDICTED BY IDOCK:   -5.39 KCAL/MOL
REMARK 924 INTRA-LIGAND FREE ENERGY PREDICTED BY IDOCK:   -0.27 KCAL/MOL
REMARK 927      BINDING AFFINITY PREDICTED BY RF-SCORE:    0.00 PKD
ROOT
HETATM    1  N   UNL     1      -5.339  17.203  70.681  1.00  0.00    -0.243 NA 
HETATM    2  H2  UNL     1      -4.624  16.595  70.281  1.00  0.00     0.000 HD 
HETATM    3  C   UNL     1      -6.379  17.329  69.753  1.00  0.00    -0.141 A  
HETATM    4  H1  UNL     1      -4.880  18.034  71.055  1.00  0.00     0.000 HD 
HETATM    5  C   UNL     1      -7.007  16.191  69.240  1.00  0.00    -0.210 A  
HETATM    6  C   UNL     1      -8.098  16.303  68.371  1.00  0.00    -0.183 A  
HETATM    7  C   UNL     1      -8.588  17.569  68.045  1.00  0.00    -0.250 A  
HETATM    8  C   UNL     1      -6.953  18.579  69.507  1.00  0.00    -0.044 A  
HETATM    9  C   UNL     1      -8.048  18.708  68.647  1.00  0.00    -0.352 A  
ENDROOT
BRANCH   7  10
HETATM   10  S   UNL     1      -9.993  17.723  66.963  1.00  0.00    -0.338 S  
HETATM   11  O   UNL     1     -11.022  18.403  67.729  1.00  0.00    -0.323 OA 
HETATM   12  O   UNL     1      -9.519  18.286  65.713  1.00  0.00    -0.467 OA 
BRANCH  10  13
HETATM   13  C   UNL     1     -10.629  16.108  66.567  1.00  0.00    -0.268 A  
HETATM   14  C   UNL     1     -11.246  15.369  67.580  1.00  0.00    -0.302 A  
HETATM   15  C   UNL     1     -11.797  14.119  67.292  1.00  0.00    -0.452 A  
HETATM   16  C   UNL     1     -11.700  13.572  66.009  1.00  0.00    -0.359 A  
HETATM   17  N   UNL     1     -12.382  12.391  65.700  1.00  0.00    -0.621 NA 
HETATM   18  C   UNL     1     -11.122  14.343  64.994  1.00  0.00    -0.385 A  
HETATM   19  H2  UNL     1     -13.369  12.520  65.922  1.00  0.00     0.000 HD 
HETATM   20  H1  UNL     1     -12.311  11.992  64.763  1.00  0.00     0.000 HD 
HETATM   21  C   UNL     1     -10.563  15.600  65.269  1.00  0.00    -0.448 A  
ENDBRANCH  10  13
ENDBRANCH   7  10
TORSDOF 2
ENDMDL
MODEL       88
REMARK 921   NORMALIZED FREE ENERGY PREDICTED BY IDOCK:   -4.68 KCAL/MOL
REMARK 922        TOTAL FREE ENERGY PREDICTED BY IDOCK:   -5.66 KCAL/MOL
REMARK 923 INTER-LIGAND FREE ENERGY PREDICTED BY IDOCK:   -5.27 KCAL/MOL
REMARK 924 INTRA-LIGAND FREE ENERGY PREDICTED BY IDOCK:   -0.38 KCAL/MOL
REMARK 927      BINDING AFFINITY PREDICTED BY RF-SCORE:    0.00 PKD
ROOT
HETATM    1  N   UNL     1      -8.180  20.202  65.945  1.00  0.00    -0.542 NA 
HETATM    2  H2  UNL     1      -7.967  20.966  66.586  1.00  0.00     0.000 HD 
HETATM    3  C   UNL     1      -8.700  19.136  66.686  1.00  0.00    -0.320 A  
HETATM    4  H1  UNL     1      -7.374  20.062  65.336  1.00  0.00     0.000 HD 
HETATM    5  C   UNL     1      -9.804  19.328  67.521  1.00  0.00    -0.429 A  
HETATM    6  C   UNL     1     -10.380  18.255  68.208  1.00  0.00    -0.379 A  
HETATM    7  C   UNL     1      -9.868  16.969  68.026  1.00  0.00    -0.275 A  
HETATM    8  C   UNL     1      -8.275  17.829  66.429  1.00  0.00    -0.290 A  
HETATM    9  C   UNL     1      -8.845  16.745  67.102  1.00  0.00    -0.217 A  
ENDROOT
BRANCH   7  10
HETATM   10  S   UNL     1     -10.612  15.592  68.874  1.00  0.00    -0.253 S  
HETATM   11  O   UNL     1      -9.790  15.344  70.045  1.00  0.00    -0.259 OA 
HETATM   12  O   UNL     1     -12.025  15.884  69.021  1.00  0.00    -0.378 OA 
BRANCH  10  13
HETATM   13  C   UNL     1     -10.513  14.133  67.858  1.00  0.00    -0.237 A  
HETATM   14  C   UNL     1      -9.402  13.297  67.999  1.00  0.00    -0.218 A  
HETATM   15  C   UNL     1      -9.315  12.122  67.252  1.00  0.00    -0.183 A  
HETATM   16  C   UNL     1     -10.307  11.789  66.325  1.00  0.00    -0.224 A  
HETATM   17  N   UNL     1     -10.282  10.541  65.692  1.00  0.00    -0.262 NA 
HETATM   18  C   UNL     1     -11.437  12.610  66.227  1.00  0.00    -0.415 A  
HETATM   19  H2  UNL     1     -10.254   9.816  66.410  1.00  0.00     0.000 HD 
HETATM   20  H1  UNL     1     -11.006  10.298  65.015  1.00  0.00     0.000 HD 
HETATM   21  C   UNL     1     -11.536  13.795  66.971  1.00  0.00    -0.391 A  
ENDBRANCH  10  13
ENDBRANCH   7  10
TORSDOF 2
ENDMDL
MODEL       89
REMARK 921   NORMALIZED FREE ENERGY PREDICTED BY IDOCK:   -4.67 KCAL/MOL
REMARK 922        TOTAL FREE ENERGY PREDICTED BY IDOCK:   -5.65 KCAL/MOL
REMARK 923 INTER-LIGAND FREE ENERGY PREDICTED BY IDOCK:   -5.24 KCAL/MOL
REMARK 924 INTRA-LIGAND FREE ENERGY PREDICTED BY IDOCK:   -0.40 KCAL/MOL
REMARK 927      BINDING AFFINITY PREDICTED BY RF-SCORE:    0.00 PKD
ROOT
HETATM    1  N   UNL     1     -12.314  13.691  70.194  1.00  0.00    -0.326 NA 
HETATM    2  H2  UNL     1     -12.432  13.812  69.188  1.00  0.00     0.000 HD 
HETATM    3  C   UNL     1     -12.315  12.321  70.476  1.00  0.00    -0.264 A  
HETATM    4  H1  UNL     1     -12.965  14.315  70.670  1.00  0.00     0.000 HD 
HETATM    5  C   UNL     1     -11.422  11.466  69.824  1.00  0.00    -0.376 A  
HETATM    6  C   UNL     1     -11.359  10.108  70.151  1.00  0.00    -0.372 A  
HETATM    7  C   UNL     1     -12.172   9.610  71.171  1.00  0.00    -0.350 A  
HETATM    8  C   UNL     1     -13.036  11.829  71.568  1.00  0.00    -0.446 A  
HETATM    9  C   UNL     1     -12.978  10.476  71.914  1.00  0.00    -0.553 A  
ENDROOT
BRANCH   7  10
HETATM   10  S   UNL     1     -12.080   7.888  71.616  1.00  0.00    -0.311 S  
HETATM   11  O   UNL     1     -11.515   7.844  72.953  1.00  0.00    -0.403 OA 
HETATM   12  O   UNL     1     -13.380   7.302  71.352  1.00  0.00    -0.383 OA 
BRANCH  10  13
HETATM   13  C   UNL     1     -10.933   7.048  70.544  1.00  0.00    -0.265 A  
HETATM   14  C   UNL     1     -11.431   6.415  69.401  1.00  0.00    -0.374 A  
HETATM   15  C   UNL     1     -10.554   5.787  68.515  1.00  0.00    -0.299 A  
HETATM   16  C   UNL     1      -9.182   5.742  68.779  1.00  0.00    -0.118 A  
HETATM   17  N   UNL     1      -8.301   5.241  67.814  1.00  0.00    -0.099 NA 
HETATM   18  C   UNL     1      -8.692   6.420  69.901  1.00  0.00    -0.142 A  
HETATM   19  H2  UNL     1      -8.447   5.757  66.946  1.00  0.00     0.000 HD 
HETATM   20  H1  UNL     1      -7.300   5.208  68.006  1.00  0.00     0.000 HD 
HETATM   21  C   UNL     1      -9.562   7.054  70.800  1.00  0.00    -0.164 A  
ENDBRANCH  10  13
ENDBRANCH   7  10
TORSDOF 2
ENDMDL
MODEL       90
REMARK 921   NORMALIZED FREE ENERGY PREDICTED BY IDOCK:   -4.67 KCAL/MOL
REMARK 922        TOTAL FREE ENERGY PREDICTED BY IDOCK:   -5.64 KCAL/MOL
REMARK 923 INTER-LIGAND FREE ENERGY PREDICTED BY IDOCK:   -5.26 KCAL/MOL
REMARK 924 INTRA-LIGAND FREE ENERGY PREDICTED BY IDOCK:   -0.38 KCAL/MOL
REMARK 927      BINDING AFFINITY PREDICTED BY RF-SCORE:    0.00 PKD
ROOT
HETATM    1  N   UNL     1     -13.168  15.042  73.681  1.00  0.00    -0.583 NA 
HETATM    2  H2  UNL     1     -12.958  14.140  74.108  1.00  0.00     0.000 HD 
HETATM    3  C   UNL     1     -12.598  15.068  72.403  1.00  0.00    -0.342 A  
HETATM    4  H1  UNL     1     -12.950  15.775  74.356  1.00  0.00     0.000 HD 
HETATM    5  C   UNL     1     -12.897  14.064  71.478  1.00  0.00    -0.440 A  
HETATM    6  C   UNL     1     -12.395  14.118  70.173  1.00  0.00    -0.413 A  
HETATM    7  C   UNL     1     -11.620  15.210  69.781  1.00  0.00    -0.311 A  
HETATM    8  C   UNL     1     -11.918  16.206  71.960  1.00  0.00    -0.607 A  
HETATM    9  C   UNL     1     -11.417  16.279  70.657  1.00  0.00    -0.297 A  
ENDROOT
BRANCH   7  10
HETATM   10  S   UNL     1     -11.000  15.303  68.114  1.00  0.00    -0.304 S  
HETATM   11  O   UNL     1     -11.779  14.355  67.338  1.00  0.00    -0.362 OA 
HETATM   12  O   UNL     1     -10.969  16.705  67.741  1.00  0.00    -0.320 OA 
BRANCH  10  13
HETATM   13  C   UNL     1      -9.311  14.743  68.066  1.00  0.00    -0.196 A  
HETATM   14  C   UNL     1      -9.040  13.493  67.500  1.00  0.00    -0.214 A  
HETATM   15  C   UNL     1      -7.722  13.044  67.405  1.00  0.00    -0.159 A  
HETATM   16  C   UNL     1      -6.667  13.809  67.910  1.00  0.00    -0.158 A  
HETATM   17  N   UNL     1      -5.344  13.416  67.676  1.00  0.00    -0.298 NA 
HETATM   18  C   UNL     1      -6.947  15.077  68.431  1.00  0.00    -0.109 A  
HETATM   19  H2  UNL     1      -5.213  13.309  66.670  1.00  0.00     0.000 HD 
HETATM   20  H1  UNL     1      -4.574  13.974  68.045  1.00  0.00     0.000 HD 
HETATM   21  C   UNL     1      -8.267  15.541  68.534  1.00  0.00    -0.148 A  
ENDBRANCH  10  13
ENDBRANCH   7  10
TORSDOF 2
ENDMDL
MODEL       91
REMARK 921   NORMALIZED FREE ENERGY PREDICTED BY IDOCK:   -4.66 KCAL/MOL
REMARK 922        TOTAL FREE ENERGY PREDICTED BY IDOCK:   -5.63 KCAL/MOL
REMARK 923 INTER-LIGAND FREE ENERGY PREDICTED BY IDOCK:   -5.37 KCAL/MOL
REMARK 924 INTRA-LIGAND FREE ENERGY PREDICTED BY IDOCK:   -0.26 KCAL/MOL
REMARK 927      BINDING AFFINITY PREDICTED BY RF-SCORE:    0.00 PKD
ROOT
HETATM    1  N   UNL     1      -5.612  12.435  66.763  1.00  0.00    -0.463 NA 
HETATM    2  H2  UNL     1      -5.045  12.766  67.544  1.00  0.00     0.000 HD 
HETATM    3  C   UNL     1      -6.927  12.271  67.211  1.00  0.00    -0.142 A  
HETATM    4  H1  UNL     1      -5.120  11.661  66.316  1.00  0.00     0.000 HD 
HETATM    5  C   UNL     1      -7.601  13.331  67.823  1.00  0.00    -0.161 A  
HETATM    6  C   UNL     1      -8.940  13.205  68.207  1.00  0.00    -0.175 A  
HETATM    7  C   UNL     1      -9.622  12.017  67.938  1.00  0.00    -0.196 A  
HETATM    8  C   UNL     1      -7.656  11.135  66.848  1.00  0.00    -0.145 A  
HETATM    9  C   UNL     1      -8.998  10.996  67.217  1.00  0.00    -0.138 A  
ENDROOT
BRANCH   7  10
HETATM   10  S   UNL     1     -11.335  11.856  68.395  1.00  0.00    -0.303 S  
HETATM   11  O   UNL     1     -11.744  13.155  68.901  1.00  0.00    -0.285 OA 
HETATM   12  O   UNL     1     -12.030  11.257  67.272  1.00  0.00    -0.529 OA 
BRANCH  10  13
HETATM   13  C   UNL     1     -11.493  10.705  69.745  1.00  0.00    -0.302 A  
HETATM   14  C   UNL     1     -12.582  10.840  70.610  1.00  0.00    -0.446 A  
HETATM   15  C   UNL     1     -12.762   9.927  71.651  1.00  0.00    -0.527 A  
HETATM   16  C   UNL     1     -11.839   8.900  71.868  1.00  0.00    -0.370 A  
HETATM   17  N   UNL     1     -12.108   7.908  72.818  1.00  0.00    -0.614 NA 
HETATM   18  C   UNL     1     -10.780   8.748  70.966  1.00  0.00    -0.290 A  
HETATM   19  H2  UNL     1     -13.012   7.489  72.599  1.00  0.00     0.000 HD 
HETATM   20  H1  UNL     1     -11.434   7.159  72.977  1.00  0.00     0.000 HD 
HETATM   21  C   UNL     1     -10.586   9.659  69.917  1.00  0.00    -0.281 A  
ENDBRANCH  10  13
ENDBRANCH   7  10
TORSDOF 2
ENDMDL
MODEL       92
REMARK 921   NORMALIZED FREE ENERGY PREDICTED BY IDOCK:   -4.64 KCAL/MOL
REMARK 922        TOTAL FREE ENERGY PREDICTED BY IDOCK:   -5.61 KCAL/MOL
REMARK 923 INTER-LIGAND FREE ENERGY PREDICTED BY IDOCK:   -5.19 KCAL/MOL
REMARK 924 INTRA-LIGAND FREE ENERGY PREDICTED BY IDOCK:   -0.42 KCAL/MOL
REMARK 927      BINDING AFFINITY PREDICTED BY RF-SCORE:    0.00 PKD
ROOT
HETATM    1  N   UNL     1      -5.325  13.707  69.019  1.00  0.00    -0.069 NA 
HETATM    2  H2  UNL     1      -4.881  14.430  69.585  1.00  0.00     0.000 HD 
HETATM    3  C   UNL     1      -6.560  14.192  68.574  1.00  0.00    -0.096 A  
HETATM    4  H1  UNL     1      -5.272  12.825  69.527  1.00  0.00     0.000 HD 
HETATM    5  C   UNL     1      -6.633  15.401  67.877  1.00  0.00    -0.169 A  
HETATM    6  C   UNL     1      -7.849  15.860  67.360  1.00  0.00    -0.195 A  
HETATM    7  C   UNL     1      -8.996  15.078  67.509  1.00  0.00    -0.183 A  
HETATM    8  C   UNL     1      -7.691  13.373  68.613  1.00  0.00    -0.088 A  
HETATM    9  C   UNL     1      -8.913  13.813  68.094  1.00  0.00    -0.190 A  
ENDROOT
BRANCH   7  10
HETATM   10  S   UNL     1     -10.544  15.639  66.830  1.00  0.00    -0.299 S  
HETATM   11  O   UNL     1     -11.486  15.666  67.935  1.00  0.00    -0.329 OA 
HETATM   12  O   UNL     1     -10.273  16.843  66.069  1.00  0.00    -0.335 OA 
BRANCH  10  13
HETATM   13  C   UNL     1     -11.157  14.444  65.660  1.00  0.00    -0.321 A  
HETATM   14  C   UNL     1     -10.272  13.929  64.709  1.00  0.00    -0.353 A  
HETATM   15  C   UNL     1     -10.708  12.957  63.807  1.00  0.00    -0.320 A  
HETATM   16  C   UNL     1     -12.036  12.522  63.811  1.00  0.00    -0.529 A  
HETATM   17  N   UNL     1     -12.422  11.446  63.004  1.00  0.00    -0.854 NA 
HETATM   18  C   UNL     1     -12.899  13.011  64.799  1.00  0.00    -0.336 A  
HETATM   19  H2  UNL     1     -11.820  10.650  63.219  1.00  0.00     0.000 HD 
HETATM   20  H1  UNL     1     -13.391  11.128  63.007  1.00  0.00     0.000 HD 
HETATM   21  C   UNL     1     -12.475  13.989  65.711  1.00  0.00    -0.523 A  
ENDBRANCH  10  13
ENDBRANCH   7  10
TORSDOF 2
ENDMDL
MODEL       93
REMARK 921   NORMALIZED FREE ENERGY PREDICTED BY IDOCK:   -4.64 KCAL/MOL
REMARK 922        TOTAL FREE ENERGY PREDICTED BY IDOCK:   -5.61 KCAL/MOL
REMARK 923 INTER-LIGAND FREE ENERGY PREDICTED BY IDOCK:   -5.21 KCAL/MOL
REMARK 924 INTRA-LIGAND FREE ENERGY PREDICTED BY IDOCK:   -0.40 KCAL/MOL
REMARK 927      BINDING AFFINITY PREDICTED BY RF-SCORE:    0.00 PKD
ROOT
HETATM    1  N   UNL     1     -10.221   9.015  66.015  1.00  0.00    -0.334 NA 
HETATM    2  H2  UNL     1     -10.263   8.981  64.997  1.00  0.00     0.000 HD 
HETATM    3  C   UNL     1     -10.153  10.356  66.409  1.00  0.00    -0.228 A  
HETATM    4  H1  UNL     1      -9.514   8.351  66.329  1.00  0.00     0.000 HD 
HETATM    5  C   UNL     1     -11.123  11.267  65.979  1.00  0.00    -0.181 A  
HETATM    6  C   UNL     1     -11.111  12.592  66.426  1.00  0.00    -0.325 A  
HETATM    7  C   UNL     1     -10.141  12.998  67.344  1.00  0.00    -0.231 A  
HETATM    8  C   UNL     1      -9.263  10.750  67.411  1.00  0.00    -0.156 A  
HETATM    9  C   UNL     1      -9.243  12.069  67.875  1.00  0.00    -0.190 A  
ENDROOT
BRANCH   7  10
HETATM   10  S   UNL     1     -10.134  14.675  67.941  1.00  0.00    -0.227 S  
HETATM   11  O   UNL     1      -8.758  14.975  68.294  1.00  0.00    -0.156 OA 
HETATM   12  O   UNL     1     -10.832  15.487  66.963  1.00  0.00    -0.320 OA 
BRANCH  10  13
HETATM   13  C   UNL     1     -11.085  14.785  69.443  1.00  0.00    -0.281 A  
HETATM   14  C   UNL     1     -11.892  13.701  69.800  1.00  0.00    -0.392 A  
HETATM   15  C   UNL     1     -12.615  13.735  70.993  1.00  0.00    -0.446 A  
HETATM   16  C   UNL     1     -12.579  14.862  71.819  1.00  0.00    -0.331 A  
HETATM   17  N   UNL     1     -13.188  14.826  73.079  1.00  0.00    -0.495 NA 
HETATM   18  C   UNL     1     -11.731  15.920  71.473  1.00  0.00    -0.545 A  
HETATM   19  H2  UNL     1     -12.809  14.033  73.597  1.00  0.00     0.000 HD 
HETATM   20  H1  UNL     1     -13.162  15.648  73.681  1.00  0.00     0.000 HD 
HETATM   21  C   UNL     1     -11.000  15.900  70.277  1.00  0.00    -0.370 A  
ENDBRANCH  10  13
ENDBRANCH   7  10
TORSDOF 2
ENDMDL
MODEL       94
REMARK 921   NORMALIZED FREE ENERGY PREDICTED BY IDOCK:   -4.64 KCAL/MOL
REMARK 922        TOTAL FREE ENERGY PREDICTED BY IDOCK:   -5.61 KCAL/MOL
REMARK 923 INTER-LIGAND FREE ENERGY PREDICTED BY IDOCK:   -5.21 KCAL/MOL
REMARK 924 INTRA-LIGAND FREE ENERGY PREDICTED BY IDOCK:   -0.39 KCAL/MOL
REMARK 927      BINDING AFFINITY PREDICTED BY RF-SCORE:    0.00 PKD
ROOT
HETATM    1  N   UNL     1      -5.243  19.504  70.212  1.00  0.00    -0.196 NA 
HETATM    2  H2  UNL     1      -5.604  19.992  71.031  1.00  0.00     0.000 HD 
HETATM    3  C   UNL     1      -6.321  18.923  69.535  1.00  0.00    -0.259 A  
HETATM    4  H1  UNL     1      -4.450  18.932  70.503  1.00  0.00     0.000 HD 
HETATM    5  C   UNL     1      -7.408  19.706  69.135  1.00  0.00    -0.339 A  
HETATM    6  C   UNL     1      -8.456  19.154  68.391  1.00  0.00    -0.384 A  
HETATM    7  C   UNL     1      -8.394  17.812  68.011  1.00  0.00    -0.249 A  
HETATM    8  C   UNL     1      -6.223  17.616  69.049  1.00  0.00    -0.213 A  
HETATM    9  C   UNL     1      -7.258  17.051  68.297  1.00  0.00    -0.196 A  
ENDROOT
BRANCH   7  10
HETATM   10  S   UNL     1      -9.709  17.106  67.040  1.00  0.00    -0.276 S  
HETATM   11  O   UNL     1     -10.761  18.106  66.993  1.00  0.00    -0.353 OA 
HETATM   12  O   UNL     1      -9.121  16.606  65.812  1.00  0.00    -0.503 OA 
BRANCH  10  13
HETATM   13  C   UNL     1     -10.384  15.687  67.877  1.00  0.00    -0.259 A  
HETATM   14  C   UNL     1      -9.863  14.426  67.574  1.00  0.00    -0.220 A  
HETATM   15  C   UNL     1     -10.337  13.298  68.246  1.00  0.00    -0.252 A  
HETATM   16  C   UNL     1     -11.362  13.406  69.191  1.00  0.00    -0.280 A  
HETATM   17  N   UNL     1     -11.724  12.294  69.960  1.00  0.00    -0.503 NA 
HETATM   18  C   UNL     1     -11.840  14.680  69.518  1.00  0.00    -0.374 A  
HETATM   19  H2  UNL     1     -10.889  11.941  70.428  1.00  0.00     0.000 HD 
HETATM   20  H1  UNL     1     -12.472  12.373  70.649  1.00  0.00     0.000 HD 
HETATM   21  C   UNL     1     -11.374  15.822  68.850  1.00  0.00    -0.356 A  
ENDBRANCH  10  13
ENDBRANCH   7  10
TORSDOF 2
ENDMDL
MODEL       95
REMARK 921   NORMALIZED FREE ENERGY PREDICTED BY IDOCK:   -4.61 KCAL/MOL
REMARK 922        TOTAL FREE ENERGY PREDICTED BY IDOCK:   -5.57 KCAL/MOL
REMARK 923 INTER-LIGAND FREE ENERGY PREDICTED BY IDOCK:   -5.40 KCAL/MOL
REMARK 924 INTRA-LIGAND FREE ENERGY PREDICTED BY IDOCK:   -0.17 KCAL/MOL
REMARK 927      BINDING AFFINITY PREDICTED BY RF-SCORE:    0.00 PKD
ROOT
HETATM    1  N   UNL     1     -10.822   5.647  67.391  1.00  0.00    -0.325 NA 
HETATM    2  H2  UNL     1     -10.047   5.196  66.904  1.00  0.00     0.000 HD 
HETATM    3  C   UNL     1     -10.525   7.007  67.528  1.00  0.00    -0.250 A  
HETATM    4  H1  UNL     1     -11.055   5.086  68.211  1.00  0.00     0.000 HD 
HETATM    5  C   UNL     1     -10.206   7.775  66.405  1.00  0.00    -0.053 A  
HETATM    6  C   UNL     1      -9.982   9.152  66.516  1.00  0.00    -0.359 A  
HETATM    7  C   UNL     1     -10.118   9.770  67.760  1.00  0.00    -0.180 A  
HETATM    8  C   UNL     1     -10.768   7.660  68.739  1.00  0.00    -0.106 A  
HETATM    9  C   UNL     1     -10.556   9.037  68.866  1.00  0.00    -0.203 A  
ENDROOT
BRANCH   7  10
HETATM   10  S   UNL     1      -9.864  11.526  67.909  1.00  0.00    -0.190 S  
HETATM   11  O   UNL     1     -10.570  11.938  69.109  1.00  0.00    -0.159 OA 
HETATM   12  O   UNL     1      -8.440  11.771  67.776  1.00  0.00    -0.134 OA 
BRANCH  10  13
HETATM   13  C   UNL     1     -10.638  12.366  66.542  1.00  0.00    -0.235 A  
HETATM   14  C   UNL     1     -10.118  12.170  65.260  1.00  0.00    -0.291 A  
HETATM   15  C   UNL     1     -10.729  12.777  64.161  1.00  0.00    -0.441 A  
HETATM   16  C   UNL     1     -11.833  13.618  64.330  1.00  0.00    -0.424 A  
HETATM   17  N   UNL     1     -12.523  14.099  63.213  1.00  0.00    -1.098 NA 
HETATM   18  C   UNL     1     -12.372  13.767  65.614  1.00  0.00    -0.517 A  
HETATM   19  H2  UNL     1     -12.808  13.302  62.643  1.00  0.00     0.000 HD 
HETATM   20  H1  UNL     1     -13.328  14.713  63.336  1.00  0.00     0.000 HD 
HETATM   21  C   UNL     1     -11.767  13.165  66.727  1.00  0.00    -0.439 A  
ENDBRANCH  10  13
ENDBRANCH   7  10
TORSDOF 2
ENDMDL
MODEL       96
REMARK 921   NORMALIZED FREE ENERGY PREDICTED BY IDOCK:   -4.61 KCAL/MOL
REMARK 922        TOTAL FREE ENERGY PREDICTED BY IDOCK:   -5.57 KCAL/MOL
REMARK 923 INTER-LIGAND FREE ENERGY PREDICTED BY IDOCK:   -5.15 KCAL/MOL
REMARK 924 INTRA-LIGAND FREE ENERGY PREDICTED BY IDOCK:   -0.42 KCAL/MOL
REMARK 927      BINDING AFFINITY PREDICTED BY RF-SCORE:    0.00 PKD
ROOT
HETATM    1  N   UNL     1     -11.826  13.032  70.489  1.00  0.00    -0.537 NA 
HETATM    2  H2  UNL     1     -11.803  13.275  69.499  1.00  0.00     0.000 HD 
HETATM    3  C   UNL     1     -11.948  11.643  70.600  1.00  0.00    -0.257 A  
HETATM    4  H1  UNL     1     -12.494  13.647  70.954  1.00  0.00     0.000 HD 
HETATM    5  C   UNL     1     -11.032  10.801  69.964  1.00  0.00    -0.280 A  
HETATM    6  C   UNL     1     -11.097   9.414  70.128  1.00  0.00    -0.277 A  
HETATM    7  C   UNL     1     -12.067   8.868  70.971  1.00  0.00    -0.233 A  
HETATM    8  C   UNL     1     -12.836  11.088  71.527  1.00  0.00    -0.555 A  
HETATM    9  C   UNL     1     -12.908   9.704  71.709  1.00  0.00    -0.514 A  
ENDROOT
BRANCH   7  10
HETATM   10  S   UNL     1     -12.141   7.105  71.211  1.00  0.00    -0.365 S  
HETATM   11  O   UNL     1     -13.374   6.845  71.932  1.00  0.00    -0.294 OA 
HETATM   12  O   UNL     1     -11.901   6.482  69.923  1.00  0.00    -0.381 OA 
BRANCH  10  13
HETATM   13  C   UNL     1     -10.806   6.583  72.268  1.00  0.00    -0.232 A  
HETATM   14  C   UNL     1     -10.377   5.255  72.190  1.00  0.00    -0.268 A  
HETATM   15  C   UNL     1      -9.303   4.825  72.971  1.00  0.00    -0.140 A  
HETATM   16  C   UNL     1      -8.676   5.695  73.868  1.00  0.00    -0.117 A  
HETATM   17  N   UNL     1      -7.512   5.294  74.533  1.00  0.00    -0.085 NA 
HETATM   18  C   UNL     1      -9.086   7.033  73.901  1.00  0.00    -0.229 A  
HETATM   19  H2  UNL     1      -6.827   5.000  73.836  1.00  0.00     0.000 HD 
HETATM   20  H1  UNL     1      -7.055   5.929  75.188  1.00  0.00     0.000 HD 
HETATM   21  C   UNL     1     -10.164   7.479  73.123  1.00  0.00    -0.382 A  
ENDBRANCH  10  13
ENDBRANCH   7  10
TORSDOF 2
ENDMDL
MODEL       97
REMARK 921   NORMALIZED FREE ENERGY PREDICTED BY IDOCK:   -4.60 KCAL/MOL
REMARK 922        TOTAL FREE ENERGY PREDICTED BY IDOCK:   -5.56 KCAL/MOL
REMARK 923 INTER-LIGAND FREE ENERGY PREDICTED BY IDOCK:   -5.17 KCAL/MOL
REMARK 924 INTRA-LIGAND FREE ENERGY PREDICTED BY IDOCK:   -0.39 KCAL/MOL
REMARK 927      BINDING AFFINITY PREDICTED BY RF-SCORE:    0.00 PKD
ROOT
HETATM    1  N   UNL     1     -12.437   6.247  72.253  1.00  0.00    -0.528 NA 
HETATM    2  H2  UNL     1     -13.152   6.815  72.706  1.00  0.00     0.000 HD 
HETATM    3  C   UNL     1     -11.717   7.063  71.374  1.00  0.00    -0.306 A  
HETATM    4  H1  UNL     1     -12.874   5.389  71.917  1.00  0.00     0.000 HD 
HETATM    5  C   UNL     1     -11.117   8.239  71.833  1.00  0.00    -0.357 A  
HETATM    6  C   UNL     1     -10.332   9.024  70.984  1.00  0.00    -0.348 A  
HETATM    7  C   UNL     1     -10.113   8.605  69.670  1.00  0.00    -0.201 A  
HETATM    8  C   UNL     1     -11.394   6.602  70.094  1.00  0.00    -0.440 A  
HETATM    9  C   UNL     1     -10.603   7.372  69.235  1.00  0.00    -0.220 A  
ENDROOT
BRANCH   7  10
HETATM   10  S   UNL     1      -9.091   9.582  68.588  1.00  0.00    -0.133 S  
HETATM   11  O   UNL     1      -8.213  10.356  69.448  1.00  0.00    -0.157 OA 
HETATM   12  O   UNL     1      -8.535   8.687  67.591  1.00  0.00    -0.123 OA 
BRANCH  10  13
HETATM   13  C   UNL     1     -10.098  10.749  67.697  1.00  0.00    -0.176 A  
HETATM   14  C   UNL     1     -10.047  10.742  66.300  1.00  0.00    -0.285 A  
HETATM   15  C   UNL     1     -10.858  11.612  65.570  1.00  0.00    -0.334 A  
HETATM   16  C   UNL     1     -11.692  12.527  66.219  1.00  0.00    -0.404 A  
HETATM   17  N   UNL     1     -12.605  13.287  65.479  1.00  0.00    -0.473 NA 
HETATM   18  C   UNL     1     -11.768  12.490  67.616  1.00  0.00    -0.423 A  
HETATM   19  H2  UNL     1     -13.186  12.651  64.933  1.00  0.00     0.000 HD 
HETATM   20  H1  UNL     1     -13.213  13.955  65.953  1.00  0.00     0.000 HD 
HETATM   21  C   UNL     1     -10.958  11.623  68.363  1.00  0.00    -0.265 A  
ENDBRANCH  10  13
ENDBRANCH   7  10
TORSDOF 2
ENDMDL
MODEL       98
REMARK 921   NORMALIZED FREE ENERGY PREDICTED BY IDOCK:   -4.57 KCAL/MOL
REMARK 922        TOTAL FREE ENERGY PREDICTED BY IDOCK:   -5.52 KCAL/MOL
REMARK 923 INTER-LIGAND FREE ENERGY PREDICTED BY IDOCK:   -5.13 KCAL/MOL
REMARK 924 INTRA-LIGAND FREE ENERGY PREDICTED BY IDOCK:   -0.39 KCAL/MOL
REMARK 927      BINDING AFFINITY PREDICTED BY RF-SCORE:    0.00 PKD
ROOT
HETATM    1  N   UNL     1      -7.883  10.494  69.547  1.00  0.00    -0.266 NA 
HETATM    2  H2  UNL     1      -8.086   9.529  69.288  1.00  0.00     0.000 HD 
HETATM    3  C   UNL     1      -8.570  11.339  68.668  1.00  0.00    -0.139 A  
HETATM    4  H1  UNL     1      -6.875  10.588  69.668  1.00  0.00     0.000 HD 
HETATM    5  C   UNL     1      -9.951  11.211  68.502  1.00  0.00    -0.204 A  
HETATM    6  C   UNL     1     -10.662  12.098  67.686  1.00  0.00    -0.252 A  
HETATM    7  C   UNL     1      -9.986  13.147  67.062  1.00  0.00    -0.244 A  
HETATM    8  C   UNL     1      -7.932  12.460  68.129  1.00  0.00    -0.153 A  
HETATM    9  C   UNL     1      -8.629  13.360  67.318  1.00  0.00    -0.216 A  
ENDROOT
BRANCH   7  10
HETATM   10  S   UNL     1     -10.885  14.299  66.045  1.00  0.00    -0.310 S  
HETATM   11  O   UNL     1     -10.297  14.214  64.719  1.00  0.00    -0.426 OA 
HETATM   12  O   UNL     1     -12.298  14.036  66.236  1.00  0.00    -0.456 OA 
BRANCH  10  13
HETATM   13  C   UNL     1     -10.609  15.960  66.624  1.00  0.00    -0.305 A  
HETATM   14  C   UNL     1     -10.377  16.964  65.680  1.00  0.00    -0.254 A  
HETATM   15  C   UNL     1     -10.203  18.285  66.098  1.00  0.00    -0.393 A  
HETATM   16  C   UNL     1     -10.212  18.613  67.457  1.00  0.00    -0.386 A  
HETATM   17  N   UNL     1     -10.184  19.954  67.852  1.00  0.00    -0.432 NA 
HETATM   18  C   UNL     1     -10.492  17.605  68.387  1.00  0.00    -0.360 A  
HETATM   19  H2  UNL     1     -10.957  20.441  67.397  1.00  0.00     0.000 HD 
HETATM   20  H1  UNL     1     -10.191  20.194  68.844  1.00  0.00     0.000 HD 
HETATM   21  C   UNL     1     -10.668  16.274  67.982  1.00  0.00    -0.331 A  
ENDBRANCH  10  13
ENDBRANCH   7  10
TORSDOF 2
ENDMDL
MODEL       99
REMARK 921   NORMALIZED FREE ENERGY PREDICTED BY IDOCK:   -4.55 KCAL/MOL
REMARK 922        TOTAL FREE ENERGY PREDICTED BY IDOCK:   -5.51 KCAL/MOL
REMARK 923 INTER-LIGAND FREE ENERGY PREDICTED BY IDOCK:   -5.09 KCAL/MOL
REMARK 924 INTRA-LIGAND FREE ENERGY PREDICTED BY IDOCK:   -0.42 KCAL/MOL
REMARK 927      BINDING AFFINITY PREDICTED BY RF-SCORE:    0.00 PKD
ROOT
HETATM    1  N   UNL     1     -13.483  13.917  72.850  1.00  0.00    -0.650 NA 
HETATM    2  H2  UNL     1     -14.250  14.552  72.631  1.00  0.00     0.000 HD 
HETATM    3  C   UNL     1     -12.930  13.462  71.648  1.00  0.00    -0.355 A  
HETATM    4  H1  UNL     1     -13.809  13.251  73.551  1.00  0.00     0.000 HD 
HETATM    5  C   UNL     1     -12.483  14.375  70.688  1.00  0.00    -0.419 A  
HETATM    6  C   UNL     1     -11.858  13.936  69.516  1.00  0.00    -0.383 A  
HETATM    7  C   UNL     1     -11.645  12.570  69.323  1.00  0.00    -0.319 A  
HETATM    8  C   UNL     1     -12.606  12.112  71.491  1.00  0.00    -0.267 A  
HETATM    9  C   UNL     1     -11.975  11.658  70.328  1.00  0.00    -0.445 A  
ENDROOT
BRANCH   7  10
HETATM   10  S   UNL     1     -10.825  12.001  67.848  1.00  0.00    -0.228 S  
HETATM   11  O   UNL     1     -11.863  11.829  66.848  1.00  0.00    -0.591 OA 
HETATM   12  O   UNL     1      -9.710  12.895  67.600  1.00  0.00    -0.202 OA 
BRANCH  10  13
HETATM   13  C   UNL     1     -10.114  10.394  68.134  1.00  0.00    -0.155 A  
HETATM   14  C   UNL     1      -8.909  10.315  68.838  1.00  0.00    -0.157 A  
HETATM   15  C   UNL     1      -8.348   9.068  69.119  1.00  0.00    -0.123 A  
HETATM   16  C   UNL     1      -8.953   7.892  68.666  1.00  0.00    -0.134 A  
HETATM   17  N   UNL     1      -8.463   6.649  69.080  1.00  0.00    -0.129 NA 
HETATM   18  C   UNL     1     -10.184   7.984  68.004  1.00  0.00    -0.260 A  
HETATM   19  H2  UNL     1      -8.447   6.632  70.100  1.00  0.00     0.000 HD 
HETATM   20  H1  UNL     1      -8.904   5.791  68.749  1.00  0.00     0.000 HD 
HETATM   21  C   UNL     1     -10.758   9.230  67.713  1.00  0.00    -0.270 A  
ENDBRANCH  10  13
ENDBRANCH   7  10
TORSDOF 2
ENDMDL
MODEL      100
REMARK 921   NORMALIZED FREE ENERGY PREDICTED BY IDOCK:   -4.55 KCAL/MOL
REMARK 922        TOTAL FREE ENERGY PREDICTED BY IDOCK:   -5.50 KCAL/MOL
REMARK 923 INTER-LIGAND FREE ENERGY PREDICTED BY IDOCK:   -5.18 KCAL/MOL
REMARK 924 INTRA-LIGAND FREE ENERGY PREDICTED BY IDOCK:   -0.32 KCAL/MOL
REMARK 927      BINDING AFFINITY PREDICTED BY RF-SCORE:    0.00 PKD
ROOT
HETATM    1  N   UNL     1      -8.003   7.941  64.257  1.00  0.00    -0.170 NA 
HETATM    2  H2  UNL     1      -7.002   8.133  64.247  1.00  0.00     0.000 HD 
HETATM    3  C   UNL     1      -8.595   8.740  65.242  1.00  0.00    -0.187 A  
HETATM    4  H1  UNL     1      -8.136   6.930  64.267  1.00  0.00     0.000 HD 
HETATM    5  C   UNL     1      -8.414  10.126  65.229  1.00  0.00    -0.165 A  
HETATM    6  C   UNL     1      -9.062  10.943  66.161  1.00  0.00    -0.201 A  
HETATM    7  C   UNL     1      -9.930  10.369  67.090  1.00  0.00    -0.195 A  
HETATM    8  C   UNL     1      -9.553   8.198  66.103  1.00  0.00    -0.188 A  
HETATM    9  C   UNL     1     -10.215   9.002  67.035  1.00  0.00    -0.336 A  
ENDROOT
BRANCH   7  10
HETATM   10  S   UNL     1     -10.782  11.403  68.263  1.00  0.00    -0.219 S  
HETATM   11  O   UNL     1      -9.834  12.426  68.666  1.00  0.00    -0.178 OA 
HETATM   12  O   UNL     1     -12.053  11.775  67.671  1.00  0.00    -0.598 OA 
BRANCH  10  13
HETATM   13  C   UNL     1     -11.175  10.462  69.723  1.00  0.00    -0.293 A  
HETATM   14  C   UNL     1     -12.506  10.419  70.148  1.00  0.00    -0.247 A  
HETATM   15  C   UNL     1     -12.856   9.654  71.262  1.00  0.00    -0.438 A  
HETATM   16  C   UNL     1     -11.883   8.963  71.990  1.00  0.00    -0.368 A  
HETATM   17  N   UNL     1     -12.265   8.085  73.010  1.00  0.00    -0.645 NA 
HETATM   18  C   UNL     1     -10.562   8.977  71.525  1.00  0.00    -0.415 A  
HETATM   19  H2  UNL     1     -12.921   7.407  72.623  1.00  0.00     0.000 HD 
HETATM   20  H1  UNL     1     -11.554   7.581  73.542  1.00  0.00     0.000 HD 
HETATM   21  C   UNL     1     -10.196   9.742  70.409  1.00  0.00    -0.343 A  
ENDBRANCH  10  13
ENDBRANCH   7  10
TORSDOF 2
ENDMDL
MODEL      101
REMARK 921   NORMALIZED FREE ENERGY PREDICTED BY IDOCK:   -4.50 KCAL/MOL
REMARK 922        TOTAL FREE ENERGY PREDICTED BY IDOCK:   -5.45 KCAL/MOL
REMARK 923 INTER-LIGAND FREE ENERGY PREDICTED BY IDOCK:   -5.09 KCAL/MOL
REMARK 924 INTRA-LIGAND FREE ENERGY PREDICTED BY IDOCK:   -0.37 KCAL/MOL
REMARK 927      BINDING AFFINITY PREDICTED BY RF-SCORE:    0.00 PKD
ROOT
HETATM    1  N   UNL     1      -8.670   6.003  69.751  1.00  0.00    -0.129 NA 
HETATM    2  H2  UNL     1      -8.696   5.865  70.761  1.00  0.00     0.000 HD 
HETATM    3  C   UNL     1      -9.259   7.239  69.461  1.00  0.00    -0.149 A  
HETATM    4  H1  UNL     1      -9.009   5.153  69.302  1.00  0.00     0.000 HD 
HETATM    5  C   UNL     1      -8.794   8.404  70.076  1.00  0.00    -0.137 A  
HETATM    6  C   UNL     1      -9.323   9.654  69.738  1.00  0.00    -0.238 A  
HETATM    7  C   UNL     1     -10.300   9.740  68.745  1.00  0.00    -0.208 A  
HETATM    8  C   UNL     1     -10.152   7.356  68.392  1.00  0.00    -0.196 A  
HETATM    9  C   UNL     1     -10.685   8.599  68.036  1.00  0.00    -0.137 A  
ENDROOT
BRANCH   7  10
HETATM   10  S   UNL     1     -10.959  11.329  68.286  1.00  0.00    -0.247 S  
HETATM   11  O   UNL     1      -9.819  12.154  67.930  1.00  0.00    -0.187 OA 
HETATM   12  O   UNL     1     -12.023  11.097  67.327  1.00  0.00    -0.452 OA 
BRANCH  10  13
HETATM   13  C   UNL     1     -11.727  12.095  69.699  1.00  0.00    -0.325 A  
HETATM   14  C   UNL     1     -11.751  13.490  69.768  1.00  0.00    -0.363 A  
HETATM   15  C   UNL     1     -12.386  14.123  70.838  1.00  0.00    -0.438 A  
HETATM   16  C   UNL     1     -12.961  13.377  71.872  1.00  0.00    -0.326 A  
HETATM   17  N   UNL     1     -13.718  14.017  72.858  1.00  0.00    -0.632 NA 
HETATM   18  C   UNL     1     -12.970  11.981  71.766  1.00  0.00    -0.445 A  
HETATM   19  H2  UNL     1     -14.454  14.556  72.400  1.00  0.00     0.000 HD 
HETATM   20  H1  UNL     1     -14.137  13.473  73.612  1.00  0.00     0.000 HD 
HETATM   21  C   UNL     1     -12.336  11.332  70.697  1.00  0.00    -0.477 A  
ENDBRANCH  10  13
ENDBRANCH   7  10
TORSDOF 2
ENDMDL
MODEL      102
REMARK 921   NORMALIZED FREE ENERGY PREDICTED BY IDOCK:   -4.50 KCAL/MOL
REMARK 922        TOTAL FREE ENERGY PREDICTED BY IDOCK:   -5.45 KCAL/MOL
REMARK 923 INTER-LIGAND FREE ENERGY PREDICTED BY IDOCK:   -5.09 KCAL/MOL
REMARK 924 INTRA-LIGAND FREE ENERGY PREDICTED BY IDOCK:   -0.36 KCAL/MOL
REMARK 927      BINDING AFFINITY PREDICTED BY RF-SCORE:    0.00 PKD
ROOT
HETATM    1  N   UNL     1     -14.349   8.740  73.086  1.00  0.00    -1.126 NA 
HETATM    2  H2  UNL     1     -15.020   9.460  72.819  1.00  0.00     0.000 HD 
HETATM    3  C   UNL     1     -13.223   8.861  72.264  1.00  0.00    -0.447 A  
HETATM    4  H1  UNL     1     -14.843   7.850  73.154  1.00  0.00     0.000 HD 
HETATM    5  C   UNL     1     -12.546  10.080  72.171  1.00  0.00    -0.275 A  
HETATM    6  C   UNL     1     -11.375  10.196  71.414  1.00  0.00    -0.134 A  
HETATM    7  C   UNL     1     -10.857   9.067  70.776  1.00  0.00    -0.251 A  
HETATM    8  C   UNL     1     -12.629   7.722  71.715  1.00  0.00    -0.356 A  
HETATM    9  C   UNL     1     -11.454   7.818  70.962  1.00  0.00    -0.298 A  
ENDROOT
BRANCH   7  10
HETATM   10  S   UNL     1      -9.352   9.196  69.834  1.00  0.00    -0.201 S  
HETATM   11  O   UNL     1      -8.408   9.914  70.672  1.00  0.00    -0.180 OA 
HETATM   12  O   UNL     1      -9.032   7.868  69.343  1.00  0.00    -0.144 OA 
BRANCH  10  13
HETATM   13  C   UNL     1      -9.628  10.202  68.390  1.00  0.00    -0.143 A  
HETATM   14  C   UNL     1      -8.518  10.745  67.736  1.00  0.00    -0.120 A  
HETATM   15  C   UNL     1      -8.696  11.500  66.576  1.00  0.00    -0.183 A  
HETATM   16  C   UNL     1      -9.977  11.760  66.080  1.00  0.00    -0.226 A  
HETATM   17  N   UNL     1     -10.133  12.390  64.841  1.00  0.00    -0.374 NA 
HETATM   18  C   UNL     1     -11.075  11.171  66.718  1.00  0.00    -0.280 A  
HETATM   19  H2  UNL     1      -9.618  11.855  64.141  1.00  0.00     0.000 HD 
HETATM   20  H1  UNL     1     -11.067  12.580  64.480  1.00  0.00     0.000 HD 
HETATM   21  C   UNL     1     -10.911  10.411  67.886  1.00  0.00    -0.354 A  
ENDBRANCH  10  13
ENDBRANCH   7  10
TORSDOF 2
ENDMDL
MODEL      103
REMARK 921   NORMALIZED FREE ENERGY PREDICTED BY IDOCK:   -4.49 KCAL/MOL
REMARK 922        TOTAL FREE ENERGY PREDICTED BY IDOCK:   -5.44 KCAL/MOL
REMARK 923 INTER-LIGAND FREE ENERGY PREDICTED BY IDOCK:   -5.02 KCAL/MOL
REMARK 924 INTRA-LIGAND FREE ENERGY PREDICTED BY IDOCK:   -0.42 KCAL/MOL
REMARK 927      BINDING AFFINITY PREDICTED BY RF-SCORE:    0.00 PKD
ROOT
HETATM    1  N   UNL     1      -7.275   5.492  74.505  1.00  0.00    -0.082 NA 
HETATM    2  H2  UNL     1      -6.538   5.129  73.902  1.00  0.00     0.000 HD 
HETATM    3  C   UNL     1      -8.348   5.888  73.700  1.00  0.00    -0.113 A  
HETATM    4  H1  UNL     1      -6.857   6.148  75.164  1.00  0.00     0.000 HD 
HETATM    5  C   UNL     1      -8.922   4.989  72.797  1.00  0.00    -0.124 A  
HETATM    6  C   UNL     1     -10.043   5.347  72.041  1.00  0.00    -0.240 A  
HETATM    7  C   UNL     1     -10.618   6.607  72.222  1.00  0.00    -0.214 A  
HETATM    8  C   UNL     1      -9.004   7.097  73.949  1.00  0.00    -0.237 A  
HETATM    9  C   UNL     1     -10.130   7.468  73.208  1.00  0.00    -0.386 A  
ENDROOT
BRANCH   7  10
HETATM   10  S   UNL     1     -12.062   7.063  71.286  1.00  0.00    -0.377 S  
HETATM   11  O   UNL     1     -11.877   6.508  69.957  1.00  0.00    -0.404 OA 
HETATM   12  O   UNL     1     -13.224   6.699  72.075  1.00  0.00    -0.214 OA 
BRANCH  10  13
HETATM   13  C   UNL     1     -12.127   8.833  71.100  1.00  0.00    -0.267 A  
HETATM   14  C   UNL     1     -11.279   9.435  70.167  1.00  0.00    -0.253 A  
HETATM   15  C   UNL     1     -11.337  10.815  69.963  1.00  0.00    -0.397 A  
HETATM   16  C   UNL     1     -12.203  11.614  70.716  1.00  0.00    -0.344 A  
HETATM   17  N   UNL     1     -12.356  12.968  70.400  1.00  0.00    -0.315 NA 
HETATM   18  C   UNL     1     -13.079  10.992  71.613  1.00  0.00    -0.543 A  
HETATM   19  H2  UNL     1     -12.620  13.042  69.417  1.00  0.00     0.000 HD 
HETATM   20  H1  UNL     1     -12.988  13.551  70.949  1.00  0.00     0.000 HD 
HETATM   21  C   UNL     1     -13.031   9.607  71.828  1.00  0.00    -0.514 A  
ENDBRANCH  10  13
ENDBRANCH   7  10
TORSDOF 2
ENDMDL
MODEL      104
REMARK 921   NORMALIZED FREE ENERGY PREDICTED BY IDOCK:   -4.45 KCAL/MOL
REMARK 922        TOTAL FREE ENERGY PREDICTED BY IDOCK:   -5.40 KCAL/MOL
REMARK 923 INTER-LIGAND FREE ENERGY PREDICTED BY IDOCK:   -5.03 KCAL/MOL
REMARK 924 INTRA-LIGAND FREE ENERGY PREDICTED BY IDOCK:   -0.37 KCAL/MOL
REMARK 927      BINDING AFFINITY PREDICTED BY RF-SCORE:    0.00 PKD
ROOT
HETATM    1  N   UNL     1     -12.466  12.194  63.191  1.00  0.00    -0.786 NA 
HETATM    2  H2  UNL     1     -12.843  11.252  63.295  1.00  0.00     0.000 HD 
HETATM    3  C   UNL     1     -12.217  12.712  64.467  1.00  0.00    -0.443 A  
HETATM    4  H1  UNL     1     -13.057  12.705  62.535  1.00  0.00     0.000 HD 
HETATM    5  C   UNL     1     -11.408  12.012  65.366  1.00  0.00    -0.375 A  
HETATM    6  C   UNL     1     -11.089  12.554  66.616  1.00  0.00    -0.327 A  
HETATM    7  C   UNL     1     -11.553  13.827  66.951  1.00  0.00    -0.370 A  
HETATM    8  C   UNL     1     -12.577  14.028  64.773  1.00  0.00    -0.326 A  
HETATM    9  C   UNL     1     -12.259  14.587  66.015  1.00  0.00    -0.266 A  
ENDROOT
BRANCH   7  10
HETATM   10  S   UNL     1     -11.129  14.538  68.527  1.00  0.00    -0.269 S  
HETATM   11  O   UNL     1     -12.141  15.542  68.805  1.00  0.00    -0.291 OA 
HETATM   12  O   UNL     1     -10.913  13.442  69.453  1.00  0.00    -0.157 OA 
BRANCH  10  13
HETATM   13  C   UNL     1      -9.573  15.395  68.404  1.00  0.00    -0.200 A  
HETATM   14  C   UNL     1      -9.366  16.244  67.313  1.00  0.00    -0.231 A  
HETATM   15  C   UNL     1      -8.176  16.967  67.210  1.00  0.00    -0.205 A  
HETATM   16  C   UNL     1      -7.164  16.817  68.163  1.00  0.00    -0.164 A  
HETATM   17  N   UNL     1      -6.042  17.653  68.128  1.00  0.00    -0.161 NA 
HETATM   18  C   UNL     1      -7.404  16.000  69.273  1.00  0.00    -0.231 A  
HETATM   19  H2  UNL     1      -6.362  18.622  68.145  1.00  0.00     0.000 HD 
HETATM   20  H1  UNL     1      -5.304  17.544  68.823  1.00  0.00     0.000 HD 
HETATM   21  C   UNL     1      -8.594  15.267  69.389  1.00  0.00    -0.226 A  
ENDBRANCH  10  13
ENDBRANCH   7  10
TORSDOF 2
ENDMDL
MODEL      105
REMARK 921   NORMALIZED FREE ENERGY PREDICTED BY IDOCK:   -4.45 KCAL/MOL
REMARK 922        TOTAL FREE ENERGY PREDICTED BY IDOCK:   -5.39 KCAL/MOL
REMARK 923 INTER-LIGAND FREE ENERGY PREDICTED BY IDOCK:   -5.00 KCAL/MOL
REMARK 924 INTRA-LIGAND FREE ENERGY PREDICTED BY IDOCK:   -0.40 KCAL/MOL
REMARK 927      BINDING AFFINITY PREDICTED BY RF-SCORE:    0.00 PKD
ROOT
HETATM    1  N   UNL     1     -13.110  13.823  65.095  1.00  0.00    -0.751 NA 
HETATM    2  H2  UNL     1     -13.877  13.385  64.585  1.00  0.00     0.000 HD 
HETATM    3  C   UNL     1     -12.089  12.879  65.251  1.00  0.00    -0.453 A  
HETATM    4  H1  UNL     1     -13.497  14.302  65.908  1.00  0.00     0.000 HD 
HETATM    5  C   UNL     1     -11.558  12.223  64.137  1.00  0.00    -0.463 A  
HETATM    6  C   UNL     1     -10.487  11.334  64.271  1.00  0.00    -0.419 A  
HETATM    7  C   UNL     1      -9.917  11.131  65.528  1.00  0.00    -0.249 A  
HETATM    8  C   UNL     1     -11.434  12.750  66.479  1.00  0.00    -0.409 A  
HETATM    9  C   UNL     1     -10.357  11.871  66.628  1.00  0.00    -0.242 A  
ENDROOT
BRANCH   7  10
HETATM   10  S   UNL     1      -8.534  10.023  65.705  1.00  0.00    -0.144 S  
HETATM   11  O   UNL     1      -7.885   9.974  64.407  1.00  0.00    -0.138 OA 
HETATM   12  O   UNL     1      -7.791  10.440  66.880  1.00  0.00    -0.110 OA 
BRANCH  10  13
HETATM   13  C   UNL     1      -9.119   8.377  66.051  1.00  0.00    -0.183 A  
HETATM   14  C   UNL     1     -10.333   8.231  66.728  1.00  0.00    -0.361 A  
HETATM   15  C   UNL     1     -10.844   6.956  66.974  1.00  0.00    -0.436 A  
HETATM   16  C   UNL     1     -10.132   5.814  66.592  1.00  0.00    -0.193 A  
HETATM   17  N   UNL     1     -10.721   4.551  66.711  1.00  0.00    -0.166 NA 
HETATM   18  C   UNL     1      -8.942   5.976  65.873  1.00  0.00    -0.144 A  
HETATM   19  H2  UNL     1     -11.610   4.561  66.210  1.00  0.00     0.000 HD 
HETATM   20  H1  UNL     1     -10.202   3.718  66.433  1.00  0.00     0.000 HD 
HETATM   21  C   UNL     1      -8.417   7.251  65.620  1.00  0.00    -0.138 A  
ENDBRANCH  10  13
ENDBRANCH   7  10
TORSDOF 2
ENDMDL
MODEL      106
REMARK 921   NORMALIZED FREE ENERGY PREDICTED BY IDOCK:   -4.45 KCAL/MOL
REMARK 922        TOTAL FREE ENERGY PREDICTED BY IDOCK:   -5.39 KCAL/MOL
REMARK 923 INTER-LIGAND FREE ENERGY PREDICTED BY IDOCK:   -4.98 KCAL/MOL
REMARK 924 INTRA-LIGAND FREE ENERGY PREDICTED BY IDOCK:   -0.41 KCAL/MOL
REMARK 927      BINDING AFFINITY PREDICTED BY RF-SCORE:    0.00 PKD
ROOT
HETATM    1  N   UNL     1     -11.524   7.488  73.206  1.00  0.00    -0.632 NA 
HETATM    2  H2  UNL     1     -10.781   6.930  73.627  1.00  0.00     0.000 HD 
HETATM    3  C   UNL     1     -11.063   7.980  71.980  1.00  0.00    -0.293 A  
HETATM    4  H1  UNL     1     -11.886   8.127  73.913  1.00  0.00     0.000 HD 
HETATM    5  C   UNL     1     -10.567   7.105  71.010  1.00  0.00    -0.239 A  
HETATM    6  C   UNL     1     -10.175   7.574  69.752  1.00  0.00    -0.211 A  
HETATM    7  C   UNL     1     -10.318   8.929  69.450  1.00  0.00    -0.213 A  
HETATM    8  C   UNL     1     -11.305   9.309  71.621  1.00  0.00    -0.467 A  
HETATM    9  C   UNL     1     -10.926   9.793  70.365  1.00  0.00    -0.371 A  
ENDROOT
BRANCH   7  10
HETATM   10  S   UNL     1      -9.848   9.533  67.842  1.00  0.00    -0.163 S  
HETATM   11  O   UNL     1      -8.399   9.463  67.790  1.00  0.00    -0.114 OA 
HETATM   12  O   UNL     1     -10.652   8.827  66.862  1.00  0.00    -0.276 OA 
BRANCH  10  13
HETATM   13  C   UNL     1     -10.286  11.253  67.692  1.00  0.00    -0.181 A  
HETATM   14  C   UNL     1      -9.349  12.214  68.082  1.00  0.00    -0.204 A  
HETATM   15  C   UNL     1      -9.642  13.571  67.934  1.00  0.00    -0.218 A  
HETATM   16  C   UNL     1     -10.883  13.986  67.442  1.00  0.00    -0.282 A  
HETATM   17  N   UNL     1     -11.107  15.338  67.161  1.00  0.00    -0.336 NA 
HETATM   18  C   UNL     1     -11.792  13.013  67.011  1.00  0.00    -0.437 A  
HETATM   19  H2  UNL     1     -10.381  15.659  66.520  1.00  0.00     0.000 HD 
HETATM   20  H1  UNL     1     -12.012  15.640  66.802  1.00  0.00     0.000 HD 
HETATM   21  C   UNL     1     -11.512  11.646  67.155  1.00  0.00    -0.344 A  
ENDBRANCH  10  13
ENDBRANCH   7  10
TORSDOF 2
ENDMDL
MODEL      107
REMARK 921   NORMALIZED FREE ENERGY PREDICTED BY IDOCK:   -4.39 KCAL/MOL
REMARK 922        TOTAL FREE ENERGY PREDICTED BY IDOCK:   -5.33 KCAL/MOL
REMARK 923 INTER-LIGAND FREE ENERGY PREDICTED BY IDOCK:   -4.92 KCAL/MOL
REMARK 924 INTRA-LIGAND FREE ENERGY PREDICTED BY IDOCK:   -0.41 KCAL/MOL
REMARK 927      BINDING AFFINITY PREDICTED BY RF-SCORE:    0.00 PKD
ROOT
HETATM    1  N   UNL     1      -9.811   8.338  72.347  1.00  0.00    -0.278 NA 
HETATM    2  H2  UNL     1      -9.641   9.139  72.955  1.00  0.00     0.000 HD 
HETATM    3  C   UNL     1      -9.712   8.765  71.018  1.00  0.00    -0.230 A  
HETATM    4  H1  UNL     1     -10.652   7.862  72.674  1.00  0.00     0.000 HD 
HETATM    5  C   UNL     1      -8.561   9.418  70.571  1.00  0.00    -0.265 A  
HETATM    6  C   UNL     1      -8.417   9.782  69.228  1.00  0.00    -0.152 A  
HETATM    7  C   UNL     1      -9.422   9.451  68.317  1.00  0.00    -0.137 A  
HETATM    8  C   UNL     1     -10.652   8.343  70.074  1.00  0.00    -0.235 A  
HETATM    9  C   UNL     1     -10.520   8.691  68.726  1.00  0.00    -0.209 A  
ENDROOT
BRANCH   7  10
HETATM   10  S   UNL     1      -9.236   9.883  66.600  1.00  0.00    -0.157 S  
HETATM   11  O   UNL     1      -7.901  10.437  66.462  1.00  0.00    -0.115 OA 
HETATM   12  O   UNL     1      -9.635   8.729  65.817  1.00  0.00    -0.219 OA 
BRANCH  10  13
HETATM   13  C   UNL     1     -10.378  11.183  66.178  1.00  0.00    -0.250 A  
HETATM   14  C   UNL     1     -10.753  11.331  64.840  1.00  0.00    -0.337 A  
HETATM   15  C   UNL     1     -11.681  12.310  64.481  1.00  0.00    -0.421 A  
HETATM   16  C   UNL     1     -12.210  13.179  65.440  1.00  0.00    -0.461 A  
HETATM   17  N   UNL     1     -13.246  14.055  65.094  1.00  0.00    -0.680 NA 
HETATM   18  C   UNL     1     -11.862  12.989  66.782  1.00  0.00    -0.451 A  
HETATM   19  H2  UNL     1     -14.010  13.508  64.696  1.00  0.00     0.000 HD 
HETATM   20  H1  UNL     1     -13.631  14.689  65.793  1.00  0.00     0.000 HD 
HETATM   21  C   UNL     1     -10.930  12.011  67.156  1.00  0.00    -0.320 A  
ENDBRANCH  10  13
ENDBRANCH   7  10
TORSDOF 2
ENDMDL
MODEL      108
REMARK 921   NORMALIZED FREE ENERGY PREDICTED BY IDOCK:   -4.37 KCAL/MOL
REMARK 922        TOTAL FREE ENERGY PREDICTED BY IDOCK:   -5.31 KCAL/MOL
REMARK 923 INTER-LIGAND FREE ENERGY PREDICTED BY IDOCK:   -4.91 KCAL/MOL
REMARK 924 INTRA-LIGAND FREE ENERGY PREDICTED BY IDOCK:   -0.40 KCAL/MOL
REMARK 927      BINDING AFFINITY PREDICTED BY RF-SCORE:    0.00 PKD
ROOT
HETATM    1  N   UNL     1     -10.401  17.430  66.652  1.00  0.00    -0.320 NA 
HETATM    2  H2  UNL     1     -11.387  17.639  66.500  1.00  0.00     0.000 HD 
HETATM    3  C   UNL     1     -10.285  16.082  67.011  1.00  0.00    -0.282 A  
HETATM    4  H1  UNL     1     -10.008  18.157  67.250  1.00  0.00     0.000 HD 
HETATM    5  C   UNL     1     -10.823  15.086  66.192  1.00  0.00    -0.329 A  
HETATM    6  C   UNL     1     -10.649  13.733  66.498  1.00  0.00    -0.279 A  
HETATM    7  C   UNL     1      -9.894  13.374  67.617  1.00  0.00    -0.226 A  
HETATM    8  C   UNL     1      -9.440  15.705  68.058  1.00  0.00    -0.194 A  
HETATM    9  C   UNL     1      -9.249  14.356  68.373  1.00  0.00    -0.195 A  
ENDROOT
BRANCH   7  10
HETATM   10  S   UNL     1      -9.642  11.654  68.001  1.00  0.00    -0.189 S  
HETATM   11  O   UNL     1     -10.005  10.914  66.805  1.00  0.00    -0.193 OA 
HETATM   12  O   UNL     1      -8.312  11.526  68.565  1.00  0.00    -0.148 OA 
BRANCH  10  13
HETATM   13  C   UNL     1     -10.771  11.150  69.282  1.00  0.00    -0.199 A  
HETATM   14  C   UNL     1     -10.739   9.820  69.712  1.00  0.00    -0.283 A  
HETATM   15  C   UNL     1     -11.578   9.403  70.746  1.00  0.00    -0.364 A  
HETATM   16  C   UNL     1     -12.488  10.288  71.331  1.00  0.00    -0.424 A  
HETATM   17  N   UNL     1     -13.216   9.898  72.460  1.00  0.00    -0.533 NA 
HETATM   18  C   UNL     1     -12.477  11.627  70.923  1.00  0.00    -0.440 A  
HETATM   19  H2  UNL     1     -12.558   9.591  73.177  1.00  0.00     0.000 HD 
HETATM   20  H1  UNL     1     -13.881  10.544  72.886  1.00  0.00     0.000 HD 
HETATM   21  C   UNL     1     -11.640  12.060  69.884  1.00  0.00    -0.315 A  
ENDBRANCH  10  13
ENDBRANCH   7  10
TORSDOF 2
ENDMDL
MODEL      109
REMARK 921   NORMALIZED FREE ENERGY PREDICTED BY IDOCK:   -4.36 KCAL/MOL
REMARK 922        TOTAL FREE ENERGY PREDICTED BY IDOCK:   -5.29 KCAL/MOL
REMARK 923 INTER-LIGAND FREE ENERGY PREDICTED BY IDOCK:   -4.88 KCAL/MOL
REMARK 924 INTRA-LIGAND FREE ENERGY PREDICTED BY IDOCK:   -0.41 KCAL/MOL
REMARK 927      BINDING AFFINITY PREDICTED BY RF-SCORE:    0.00 PKD
ROOT
HETATM    1  N   UNL     1      -5.802  11.952  68.298  1.00  0.00    -0.049 NA 
HETATM    2  H2  UNL     1      -5.136  12.465  68.876  1.00  0.00     0.000 HD 
HETATM    3  C   UNL     1      -6.959  12.727  68.165  1.00  0.00    -0.096 A  
HETATM    4  H1  UNL     1      -5.860  10.996  68.648  1.00  0.00     0.000 HD 
HETATM    5  C   UNL     1      -6.879  14.037  67.684  1.00  0.00    -0.195 A  
HETATM    6  C   UNL     1      -8.035  14.796  67.474  1.00  0.00    -0.207 A  
HETATM    7  C   UNL     1      -9.285  14.222  67.711  1.00  0.00    -0.194 A  
HETATM    8  C   UNL     1      -8.219  12.133  68.286  1.00  0.00    -0.168 A  
HETATM    9  C   UNL     1      -9.384  12.876  68.072  1.00  0.00    -0.213 A  
ENDROOT
BRANCH   7  10
HETATM   10  S   UNL     1     -10.764  15.169  67.419  1.00  0.00    -0.292 S  
HETATM   11  O   UNL     1     -11.207  14.829  66.078  1.00  0.00    -0.337 OA 
HETATM   12  O   UNL     1     -11.643  14.962  68.554  1.00  0.00    -0.297 OA 
BRANCH  10  13
HETATM   13  C   UNL     1     -10.376  16.907  67.408  1.00  0.00    -0.309 A  
HETATM   14  C   UNL     1     -10.175  17.536  66.175  1.00  0.00    -0.339 A  
HETATM   15  C   UNL     1      -9.915  18.906  66.128  1.00  0.00    -0.395 A  
HETATM   16  C   UNL     1      -9.805  19.655  67.304  1.00  0.00    -0.371 A  
HETATM   17  N   UNL     1      -9.691  21.048  67.237  1.00  0.00    -0.590 NA 
HETATM   18  C   UNL     1     -10.055  19.022  68.527  1.00  0.00    -0.467 A  
HETATM   19  H2  UNL     1     -10.476  21.410  66.695  1.00  0.00     0.000 HD 
HETATM   20  H1  UNL     1      -9.611  21.594  68.095  1.00  0.00     0.000 HD 
HETATM   21  C   UNL     1     -10.316  17.646  68.590  1.00  0.00    -0.359 A  
ENDBRANCH  10  13
ENDBRANCH   7  10
TORSDOF 2
ENDMDL
MODEL      110
REMARK 921   NORMALIZED FREE ENERGY PREDICTED BY IDOCK:   -4.35 KCAL/MOL
REMARK 922        TOTAL FREE ENERGY PREDICTED BY IDOCK:   -5.29 KCAL/MOL
REMARK 923 INTER-LIGAND FREE ENERGY PREDICTED BY IDOCK:   -5.42 KCAL/MOL
REMARK 924 INTRA-LIGAND FREE ENERGY PREDICTED BY IDOCK:    0.13 KCAL/MOL
REMARK 927      BINDING AFFINITY PREDICTED BY RF-SCORE:    0.00 PKD
ROOT
HETATM    1  N   UNL     1     -13.498  11.304  72.242  1.00  0.00    -0.521 NA 
HETATM    2  H2  UNL     1     -14.240  11.788  71.736  1.00  0.00     0.000 HD 
HETATM    3  C   UNL     1     -12.560  10.842  71.312  1.00  0.00    -0.426 A  
HETATM    4  H1  UNL     1     -13.930  10.658  72.902  1.00  0.00     0.000 HD 
HETATM    5  C   UNL     1     -11.968  11.727  70.407  1.00  0.00    -0.422 A  
HETATM    6  C   UNL     1     -10.974  11.293  69.525  1.00  0.00    -0.249 A  
HETATM    7  C   UNL     1     -10.541   9.967  69.577  1.00  0.00    -0.244 A  
HETATM    8  C   UNL     1     -12.035   9.552  71.428  1.00  0.00    -0.464 A  
HETATM    9  C   UNL     1     -11.035   9.105  70.559  1.00  0.00    -0.307 A  
ENDROOT
BRANCH   7  10
HETATM   10  S   UNL     1      -9.255   9.411  68.478  1.00  0.00    -0.131 S  
HETATM   11  O   UNL     1      -8.038  10.078  68.906  1.00  0.00    -0.098 OA 
HETATM   12  O   UNL     1      -9.319   7.963  68.434  1.00  0.00    -0.141 OA 
BRANCH  10  13
HETATM   13  C   UNL     1      -9.593   9.971  66.822  1.00  0.00    -0.181 A  
HETATM   14  C   UNL     1      -9.020   9.274  65.754  1.00  0.00    -0.234 A  
HETATM   15  C   UNL     1      -9.302   9.658  64.442  1.00  0.00    -0.212 A  
HETATM   16  C   UNL     1     -10.116  10.763  64.179  1.00  0.00    -0.353 A  
HETATM   17  N   UNL     1     -10.508  11.046  62.866  1.00  0.00    -0.797 NA 
HETATM   18  C   UNL     1     -10.721  11.422  65.256  1.00  0.00    -0.326 A  
HETATM   19  H2  UNL     1     -10.955  10.215  62.477  1.00  0.00     0.000 HD 
HETATM   20  H1  UNL     1     -11.102  11.852  62.674  1.00  0.00     0.000 HD 
HETATM   21  C   UNL     1     -10.446  11.048  66.579  1.00  0.00    -0.309 A  
ENDBRANCH  10  13
ENDBRANCH   7  10
TORSDOF 2
ENDMDL
MODEL      111
REMARK 921   NORMALIZED FREE ENERGY PREDICTED BY IDOCK:   -4.31 KCAL/MOL
REMARK 922        TOTAL FREE ENERGY PREDICTED BY IDOCK:   -5.24 KCAL/MOL
REMARK 923 INTER-LIGAND FREE ENERGY PREDICTED BY IDOCK:   -4.84 KCAL/MOL
REMARK 924 INTRA-LIGAND FREE ENERGY PREDICTED BY IDOCK:   -0.41 KCAL/MOL
REMARK 927      BINDING AFFINITY PREDICTED BY RF-SCORE:    0.00 PKD
ROOT
HETATM    1  N   UNL     1      -7.666   8.572  70.687  1.00  0.00    -0.074 NA 
HETATM    2  H2  UNL     1      -8.079   7.710  70.332  1.00  0.00     0.000 HD 
HETATM    3  C   UNL     1      -8.113   9.634  69.894  1.00  0.00    -0.171 A  
HETATM    4  H1  UNL     1      -6.668   8.416  70.824  1.00  0.00     0.000 HD 
HETATM    5  C   UNL     1      -9.481   9.848  69.707  1.00  0.00    -0.254 A  
HETATM    6  C   UNL     1      -9.943  10.950  68.980  1.00  0.00    -0.206 A  
HETATM    7  C   UNL     1      -9.025  11.869  68.469  1.00  0.00    -0.115 A  
HETATM    8  C   UNL     1      -7.218  10.622  69.475  1.00  0.00    -0.140 A  
HETATM    9  C   UNL     1      -7.664  11.734  68.754  1.00  0.00    -0.091 A  
ENDROOT
BRANCH   7  10
HETATM   10  S   UNL     1      -9.603  13.291  67.567  1.00  0.00    -0.226 S  
HETATM   11  O   UNL     1     -10.469  14.022  68.474  1.00  0.00    -0.238 OA 
HETATM   12  O   UNL     1      -8.442  13.936  66.984  1.00  0.00    -0.199 OA 
BRANCH  10  13
HETATM   13  C   UNL     1     -10.615  12.767  66.199  1.00  0.00    -0.266 A  
HETATM   14  C   UNL     1     -11.914  13.272  66.101  1.00  0.00    -0.470 A  
HETATM   15  C   UNL     1     -12.718  12.918  65.016  1.00  0.00    -0.474 A  
HETATM   16  C   UNL     1     -12.257  12.025  64.044  1.00  0.00    -0.403 A  
HETATM   17  N   UNL     1     -13.013  11.795  62.890  1.00  0.00    -0.784 NA 
HETATM   18  C   UNL     1     -10.937  11.564  64.130  1.00  0.00    -0.434 A  
HETATM   19  H2  UNL     1     -13.199  12.693  62.442  1.00  0.00     0.000 HD 
HETATM   20  H1  UNL     1     -12.677  11.143  62.181  1.00  0.00     0.000 HD 
HETATM   21  C   UNL     1     -10.119  11.911  65.215  1.00  0.00    -0.290 A  
ENDBRANCH  10  13
ENDBRANCH   7  10
TORSDOF 2
ENDMDL
MODEL      112
REMARK 921   NORMALIZED FREE ENERGY PREDICTED BY IDOCK:   -4.31 KCAL/MOL
REMARK 922        TOTAL FREE ENERGY PREDICTED BY IDOCK:   -5.24 KCAL/MOL
REMARK 923 INTER-LIGAND FREE ENERGY PREDICTED BY IDOCK:   -4.87 KCAL/MOL
REMARK 924 INTRA-LIGAND FREE ENERGY PREDICTED BY IDOCK:   -0.37 KCAL/MOL
REMARK 927      BINDING AFFINITY PREDICTED BY RF-SCORE:    0.00 PKD
ROOT
HETATM    1  N   UNL     1     -11.350  12.441  66.118  1.00  0.00    -0.333 NA 
HETATM    2  H2  UNL     1     -12.356  12.312  66.013  1.00  0.00     0.000 HD 
HETATM    3  C   UNL     1     -11.099  13.804  66.314  1.00  0.00    -0.302 A  
HETATM    4  H1  UNL     1     -10.882  11.934  65.367  1.00  0.00     0.000 HD 
HETATM    5  C   UNL     1     -11.740  14.498  67.343  1.00  0.00    -0.425 A  
HETATM    6  C   UNL     1     -11.441  15.840  67.599  1.00  0.00    -0.119 A  
HETATM    7  C   UNL     1     -10.460  16.481  66.840  1.00  0.00    -0.282 A  
HETATM    8  C   UNL     1     -10.043  14.426  65.642  1.00  0.00    -0.377 A  
HETATM    9  C   UNL     1      -9.726  15.765  65.891  1.00  0.00    -0.389 A  
ENDROOT
BRANCH   7  10
HETATM   10  S   UNL     1     -10.051  18.181  67.175  1.00  0.00    -0.370 S  
HETATM   11  O   UNL     1      -9.664  18.764  65.902  1.00  0.00    -0.485 OA 
HETATM   12  O   UNL     1     -11.146  18.749  67.938  1.00  0.00    -0.193 OA 
BRANCH  10  13
HETATM   13  C   UNL     1      -8.620  18.260  68.233  1.00  0.00    -0.285 A  
HETATM   14  C   UNL     1      -8.202  19.512  68.693  1.00  0.00    -0.369 A  
HETATM   15  C   UNL     1      -7.112  19.605  69.561  1.00  0.00    -0.268 A  
HETATM   16  C   UNL     1      -6.402  18.464  69.942  1.00  0.00    -0.059 A  
HETATM   17  N   UNL     1      -5.409  18.554  70.924  1.00  0.00    -0.260 NA 
HETATM   18  C   UNL     1      -6.861  17.213  69.512  1.00  0.00    -0.092 A  
HETATM   19  H2  UNL     1      -5.818  18.974  71.759  1.00  0.00     0.000 HD 
HETATM   20  H1  UNL     1      -4.890  17.721  71.202  1.00  0.00     0.000 HD 
HETATM   21  C   UNL     1      -7.953  17.104  68.639  1.00  0.00    -0.265 A  
ENDBRANCH  10  13
ENDBRANCH   7  10
TORSDOF 2
ENDMDL
MODEL      113
REMARK 921   NORMALIZED FREE ENERGY PREDICTED BY IDOCK:   -4.30 KCAL/MOL
REMARK 922        TOTAL FREE ENERGY PREDICTED BY IDOCK:   -5.23 KCAL/MOL
REMARK 923 INTER-LIGAND FREE ENERGY PREDICTED BY IDOCK:   -4.81 KCAL/MOL
REMARK 924 INTRA-LIGAND FREE ENERGY PREDICTED BY IDOCK:   -0.42 KCAL/MOL
REMARK 927      BINDING AFFINITY PREDICTED BY RF-SCORE:    0.00 PKD
ROOT
HETATM    1  N   UNL     1     -11.213   2.504  73.479  1.00  0.00    -0.215 NA 
HETATM    2  H2  UNL     1     -10.584   1.748  73.212  1.00  0.00     0.000 HD 
HETATM    3  C   UNL     1     -10.558   3.721  73.260  1.00  0.00    -0.188 A  
HETATM    4  H1  UNL     1     -11.603   2.287  74.397  1.00  0.00     0.000 HD 
HETATM    5  C   UNL     1     -10.024   4.018  72.004  1.00  0.00    -0.246 A  
HETATM    6  C   UNL     1      -9.435   5.261  71.750  1.00  0.00    -0.183 A  
HETATM    7  C   UNL     1      -9.416   6.229  72.755  1.00  0.00    -0.147 A  
HETATM    8  C   UNL     1     -10.632   4.739  74.215  1.00  0.00    -0.330 A  
HETATM    9  C   UNL     1     -10.054   5.990  73.974  1.00  0.00    -0.265 A  
ENDROOT
BRANCH   7  10
HETATM   10  S   UNL     1      -8.694   7.825  72.434  1.00  0.00    -0.151 S  
HETATM   11  O   UNL     1      -8.588   8.489  73.721  1.00  0.00    -0.307 OA 
HETATM   12  O   UNL     1      -7.512   7.611  71.621  1.00  0.00    -0.073 OA 
BRANCH  10  13
HETATM   13  C   UNL     1      -9.804   8.801  71.441  1.00  0.00    -0.283 A  
HETATM   14  C   UNL     1      -9.322   9.354  70.252  1.00  0.00    -0.294 A  
HETATM   15  C   UNL     1     -10.178  10.086  69.427  1.00  0.00    -0.239 A  
HETATM   16  C   UNL     1     -11.506  10.314  69.797  1.00  0.00    -0.256 A  
HETATM   17  N   UNL     1     -12.389  10.920  68.897  1.00  0.00    -0.759 NA 
HETATM   18  C   UNL     1     -11.988   9.715  70.967  1.00  0.00    -0.427 A  
HETATM   19  H2  UNL     1     -12.383  10.383  68.029  1.00  0.00     0.000 HD 
HETATM   20  H1  UNL     1     -13.358  11.087  69.167  1.00  0.00     0.000 HD 
HETATM   21  C   UNL     1     -11.139   8.978  71.806  1.00  0.00    -0.444 A  
ENDBRANCH  10  13
ENDBRANCH   7  10
TORSDOF 2
ENDMDL
MODEL      114
REMARK 921   NORMALIZED FREE ENERGY PREDICTED BY IDOCK:   -4.28 KCAL/MOL
REMARK 922        TOTAL FREE ENERGY PREDICTED BY IDOCK:   -5.20 KCAL/MOL
REMARK 923 INTER-LIGAND FREE ENERGY PREDICTED BY IDOCK:   -4.84 KCAL/MOL
REMARK 924 INTRA-LIGAND FREE ENERGY PREDICTED BY IDOCK:   -0.37 KCAL/MOL
REMARK 927      BINDING AFFINITY PREDICTED BY RF-SCORE:    0.00 PKD
ROOT
HETATM    1  N   UNL     1     -10.445  14.781  66.778  1.00  0.00    -0.278 NA 
HETATM    2  H2  UNL     1     -10.899  15.533  67.296  1.00  0.00     0.000 HD 
HETATM    3  C   UNL     1     -10.344  13.666  67.617  1.00  0.00    -0.239 A  
HETATM    4  H1  UNL     1      -9.614  15.161  66.324  1.00  0.00     0.000 HD 
HETATM    5  C   UNL     1     -11.482  13.146  68.239  1.00  0.00    -0.349 A  
HETATM    6  C   UNL     1     -11.408  11.987  69.018  1.00  0.00    -0.331 A  
HETATM    7  C   UNL     1     -10.188  11.322  69.144  1.00  0.00    -0.100 A  
HETATM    8  C   UNL     1      -9.159  12.926  67.661  1.00  0.00    -0.194 A  
HETATM    9  C   UNL     1      -9.071  11.761  68.430  1.00  0.00    -0.176 A  
ENDROOT
BRANCH   7  10
HETATM   10  S   UNL     1     -10.088   9.830  70.111  1.00  0.00    -0.258 S  
HETATM   11  O   UNL     1      -8.705   9.713  70.535  1.00  0.00    -0.218 OA 
HETATM   12  O   UNL     1     -11.154   9.878  71.094  1.00  0.00    -0.350 OA 
BRANCH  10  13
HETATM   13  C   UNL     1     -10.432   8.419  69.080  1.00  0.00    -0.206 A  
HETATM   14  C   UNL     1     -10.397   8.584  67.693  1.00  0.00    -0.317 A  
HETATM   15  C   UNL     1     -10.616   7.488  66.856  1.00  0.00    -0.367 A  
HETATM   16  C   UNL     1     -10.916   6.231  67.388  1.00  0.00    -0.356 A  
HETATM   17  N   UNL     1     -10.986   5.115  66.546  1.00  0.00    -0.449 NA 
HETATM   18  C   UNL     1     -10.901   6.070  68.778  1.00  0.00    -0.391 A  
HETATM   19  H2  UNL     1     -10.110   5.046  66.028  1.00  0.00     0.000 HD 
HETATM   20  H1  UNL     1     -11.206   4.197  66.934  1.00  0.00     0.000 HD 
HETATM   21  C   UNL     1     -10.684   7.162  69.631  1.00  0.00    -0.256 A  
ENDBRANCH  10  13
ENDBRANCH   7  10
TORSDOF 2
ENDMDL
MODEL      115
REMARK 921   NORMALIZED FREE ENERGY PREDICTED BY IDOCK:   -4.27 KCAL/MOL
REMARK 922        TOTAL FREE ENERGY PREDICTED BY IDOCK:   -5.20 KCAL/MOL
REMARK 923 INTER-LIGAND FREE ENERGY PREDICTED BY IDOCK:   -5.00 KCAL/MOL
REMARK 924 INTRA-LIGAND FREE ENERGY PREDICTED BY IDOCK:   -0.19 KCAL/MOL
REMARK 927      BINDING AFFINITY PREDICTED BY RF-SCORE:    0.00 PKD
ROOT
HETATM    1  N   UNL     1     -11.835  12.291  70.277  1.00  0.00    -0.524 NA 
HETATM    2  H2  UNL     1     -11.875  12.540  69.289  1.00  0.00     0.000 HD 
HETATM    3  C   UNL     1     -11.577  10.920  70.376  1.00  0.00    -0.323 A  
HETATM    4  H1  UNL     1     -12.645  12.698  70.744  1.00  0.00     0.000 HD 
HETATM    5  C   UNL     1     -10.466  10.363  69.736  1.00  0.00    -0.284 A  
HETATM    6  C   UNL     1     -10.155   9.008  69.889  1.00  0.00    -0.213 A  
HETATM    7  C   UNL     1     -10.942   8.212  70.723  1.00  0.00    -0.244 A  
HETATM    8  C   UNL     1     -12.284  10.137  71.293  1.00  0.00    -0.496 A  
HETATM    9  C   UNL     1     -11.981   8.783  71.463  1.00  0.00    -0.386 A  
ENDROOT
BRANCH   7  10
HETATM   10  S   UNL     1     -10.538   6.493  70.947  1.00  0.00    -0.239 S  
HETATM   11  O   UNL     1      -9.214   6.462  71.542  1.00  0.00    -0.145 OA 
HETATM   12  O   UNL     1     -11.659   5.868  71.623  1.00  0.00    -0.241 OA 
BRANCH  10  13
HETATM   13  C   UNL     1     -10.409   5.691  69.362  1.00  0.00    -0.273 A  
HETATM   14  C   UNL     1     -11.015   6.298  68.258  1.00  0.00    -0.408 A  
HETATM   15  C   UNL     1     -10.894   5.721  66.993  1.00  0.00    -0.328 A  
HETATM   16  C   UNL     1     -10.210   4.514  66.820  1.00  0.00    -0.132 A  
HETATM   17  N   UNL     1      -9.970   4.025  65.531  1.00  0.00    -0.324 NA 
HETATM   18  C   UNL     1      -9.568   3.943  67.925  1.00  0.00    -0.193 A  
HETATM   19  H2  UNL     1      -9.490   4.749  64.996  1.00  0.00     0.000 HD 
HETATM   20  H1  UNL     1      -9.471   3.144  65.405  1.00  0.00     0.000 HD 
HETATM   21  C   UNL     1      -9.682   4.511  69.202  1.00  0.00    -0.250 A  
ENDBRANCH  10  13
ENDBRANCH   7  10
TORSDOF 2
ENDMDL
MODEL      116
REMARK 921   NORMALIZED FREE ENERGY PREDICTED BY IDOCK:   -4.27 KCAL/MOL
REMARK 922        TOTAL FREE ENERGY PREDICTED BY IDOCK:   -5.19 KCAL/MOL
REMARK 923 INTER-LIGAND FREE ENERGY PREDICTED BY IDOCK:   -4.78 KCAL/MOL
REMARK 924 INTRA-LIGAND FREE ENERGY PREDICTED BY IDOCK:   -0.41 KCAL/MOL
REMARK 927      BINDING AFFINITY PREDICTED BY RF-SCORE:    0.00 PKD
ROOT
HETATM    1  N   UNL     1      -5.736  11.532  70.120  1.00  0.00    -0.120 NA 
HETATM    2  H2  UNL     1      -5.396  10.742  69.571  1.00  0.00     0.000 HD 
HETATM    3  C   UNL     1      -6.568  12.309  69.306  1.00  0.00    -0.099 A  
HETATM    4  H1  UNL     1      -4.941  11.957  70.597  1.00  0.00     0.000 HD 
HETATM    5  C   UNL     1      -7.658  11.727  68.653  1.00  0.00    -0.125 A  
HETATM    6  C   UNL     1      -8.542  12.505  67.899  1.00  0.00    -0.179 A  
HETATM    7  C   UNL     1      -8.354  13.886  67.832  1.00  0.00    -0.167 A  
HETATM    8  C   UNL     1      -6.462  13.702  69.321  1.00  0.00    -0.110 A  
HETATM    9  C   UNL     1      -7.342  14.495  68.579  1.00  0.00    -0.120 A  
ENDROOT
BRANCH   7  10
HETATM   10  S   UNL     1      -9.489  14.891  66.898  1.00  0.00    -0.250 S  
HETATM   11  O   UNL     1     -10.415  15.459  67.861  1.00  0.00    -0.247 OA 
HETATM   12  O   UNL     1      -8.701  15.757  66.042  1.00  0.00    -0.313 OA 
BRANCH  10  13
HETATM   13  C   UNL     1     -10.449  13.861  65.807  1.00  0.00    -0.307 A  
HETATM   14  C   UNL     1     -11.766  13.559  66.165  1.00  0.00    -0.397 A  
HETATM   15  C   UNL     1     -12.561  12.793  65.310  1.00  0.00    -0.460 A  
HETATM   16  C   UNL     1     -12.042  12.283  64.117  1.00  0.00    -0.436 A  
HETATM   17  N   UNL     1     -12.888  11.644  63.203  1.00  0.00    -0.865 NA 
HETATM   18  C   UNL     1     -10.738  12.632  63.749  1.00  0.00    -0.454 A  
HETATM   19  H2  UNL     1     -13.656  12.278  62.977  1.00  0.00     0.000 HD 
HETATM   20  H1  UNL     1     -12.510  11.271  62.333  1.00  0.00     0.000 HD 
HETATM   21  C   UNL     1      -9.927  13.400  64.598  1.00  0.00    -0.132 A  
ENDBRANCH  10  13
ENDBRANCH   7  10
TORSDOF 2
ENDMDL
MODEL      117
REMARK 921   NORMALIZED FREE ENERGY PREDICTED BY IDOCK:   -4.24 KCAL/MOL
REMARK 922        TOTAL FREE ENERGY PREDICTED BY IDOCK:   -5.16 KCAL/MOL
REMARK 923 INTER-LIGAND FREE ENERGY PREDICTED BY IDOCK:   -4.72 KCAL/MOL
REMARK 924 INTRA-LIGAND FREE ENERGY PREDICTED BY IDOCK:   -0.44 KCAL/MOL
REMARK 927      BINDING AFFINITY PREDICTED BY RF-SCORE:    0.00 PKD
ROOT
HETATM    1  N   UNL     1     -12.663  12.852  65.393  1.00  0.00    -0.621 NA 
HETATM    2  H2  UNL     1     -12.745  13.779  65.811  1.00  0.00     0.000 HD 
HETATM    3  C   UNL     1     -11.727  12.118  66.130  1.00  0.00    -0.315 A  
HETATM    4  H1  UNL     1     -12.553  12.964  64.386  1.00  0.00     0.000 HD 
HETATM    5  C   UNL     1     -11.879  11.965  67.510  1.00  0.00    -0.249 A  
HETATM    6  C   UNL     1     -10.993  11.171  68.247  1.00  0.00    -0.278 A  
HETATM    7  C   UNL     1      -9.969  10.491  67.585  1.00  0.00    -0.173 A  
HETATM    8  C   UNL     1     -10.769  11.342  65.471  1.00  0.00    -0.283 A  
HETATM    9  C   UNL     1      -9.881  10.537  66.191  1.00  0.00    -0.271 A  
ENDROOT
BRANCH   7  10
HETATM   10  S   UNL     1      -8.854   9.455  68.508  1.00  0.00    -0.128 S  
HETATM   11  O   UNL     1      -8.385   8.438  67.582  1.00  0.00    -0.127 OA 
HETATM   12  O   UNL     1      -7.908  10.325  69.180  1.00  0.00    -0.104 OA 
BRANCH  10  13
HETATM   13  C   UNL     1      -9.745   8.606  69.795  1.00  0.00    -0.176 A  
HETATM   14  C   UNL     1      -9.607   9.061  71.110  1.00  0.00    -0.356 A  
HETATM   15  C   UNL     1     -10.327   8.448  72.137  1.00  0.00    -0.397 A  
HETATM   16  C   UNL     1     -11.153   7.351  71.876  1.00  0.00    -0.242 A  
HETATM   17  N   UNL     1     -11.979   6.842  72.884  1.00  0.00    -0.387 NA 
HETATM   18  C   UNL     1     -11.318   6.936  70.549  1.00  0.00    -0.374 A  
HETATM   19  H2  UNL     1     -12.556   7.603  73.243  1.00  0.00     0.000 HD 
HETATM   20  H1  UNL     1     -12.581   6.041  72.693  1.00  0.00     0.000 HD 
HETATM   21  C   UNL     1     -10.600   7.542  69.507  1.00  0.00    -0.239 A  
ENDBRANCH  10  13
ENDBRANCH   7  10
TORSDOF 2
ENDMDL
MODEL      118
REMARK 921   NORMALIZED FREE ENERGY PREDICTED BY IDOCK:   -4.22 KCAL/MOL
REMARK 922        TOTAL FREE ENERGY PREDICTED BY IDOCK:   -5.13 KCAL/MOL
REMARK 923 INTER-LIGAND FREE ENERGY PREDICTED BY IDOCK:   -4.77 KCAL/MOL
REMARK 924 INTRA-LIGAND FREE ENERGY PREDICTED BY IDOCK:   -0.36 KCAL/MOL
REMARK 927      BINDING AFFINITY PREDICTED BY RF-SCORE:    0.00 PKD
ROOT
HETATM    1  N   UNL     1     -10.575   5.507  69.932  1.00  0.00    -0.318 NA 
HETATM    2  H2  UNL     1     -10.992   5.815  70.809  1.00  0.00     0.000 HD 
HETATM    3  C   UNL     1     -10.373   6.629  69.122  1.00  0.00    -0.194 A  
HETATM    4  H1  UNL     1     -11.110   4.711  69.584  1.00  0.00     0.000 HD 
HETATM    5  C   UNL     1      -9.640   7.720  69.598  1.00  0.00    -0.163 A  
HETATM    6  C   UNL     1      -9.365   8.816  68.773  1.00  0.00    -0.141 A  
HETATM    7  C   UNL     1      -9.797   8.800  67.446  1.00  0.00    -0.194 A  
HETATM    8  C   UNL     1     -10.696   6.582  67.763  1.00  0.00    -0.368 A  
HETATM    9  C   UNL     1     -10.422   7.666  66.923  1.00  0.00    -0.388 A  
ENDROOT
BRANCH   7  10
HETATM   10  S   UNL     1      -9.429  10.177  66.379  1.00  0.00    -0.185 S  
HETATM   11  O   UNL     1      -7.998  10.402  66.485  1.00  0.00    -0.115 OA 
HETATM   12  O   UNL     1     -10.031   9.900  65.089  1.00  0.00    -0.318 OA 
BRANCH  10  13
HETATM   13  C   UNL     1     -10.228  11.646  66.991  1.00  0.00    -0.212 A  
HETATM   14  C   UNL     1     -11.424  12.052  66.391  1.00  0.00    -0.417 A  
HETATM   15  C   UNL     1     -12.100  13.172  66.877  1.00  0.00    -0.377 A  
HETATM   16  C   UNL     1     -11.573  13.925  67.930  1.00  0.00    -0.342 A  
HETATM   17  N   UNL     1     -12.330  14.954  68.502  1.00  0.00    -0.586 NA 
HETATM   18  C   UNL     1     -10.400  13.480  68.551  1.00  0.00    -0.242 A  
HETATM   19  H2  UNL     1     -13.227  14.567  68.798  1.00  0.00     0.000 HD 
HETATM   20  H1  UNL     1     -11.945  15.503  69.270  1.00  0.00     0.000 HD 
HETATM   21  C   UNL     1      -9.709  12.357  68.073  1.00  0.00    -0.210 A  
ENDBRANCH  10  13
ENDBRANCH   7  10
TORSDOF 2
ENDMDL
MODEL      119
REMARK 921   NORMALIZED FREE ENERGY PREDICTED BY IDOCK:   -4.21 KCAL/MOL
REMARK 922        TOTAL FREE ENERGY PREDICTED BY IDOCK:   -5.12 KCAL/MOL
REMARK 923 INTER-LIGAND FREE ENERGY PREDICTED BY IDOCK:   -4.74 KCAL/MOL
REMARK 924 INTRA-LIGAND FREE ENERGY PREDICTED BY IDOCK:   -0.39 KCAL/MOL
REMARK 927      BINDING AFFINITY PREDICTED BY RF-SCORE:    0.00 PKD
ROOT
HETATM    1  N   UNL     1     -12.430  12.895  63.359  1.00  0.00    -0.725 NA 
HETATM    2  H2  UNL     1     -12.672  12.207  62.646  1.00  0.00     0.000 HD 
HETATM    3  C   UNL     1     -11.757  12.238  64.394  1.00  0.00    -0.365 A  
HETATM    4  H1  UNL     1     -13.259  13.455  63.558  1.00  0.00     0.000 HD 
HETATM    5  C   UNL     1     -10.621  11.470  64.121  1.00  0.00    -0.420 A  
HETATM    6  C   UNL     1      -9.894  10.871  65.155  1.00  0.00    -0.329 A  
HETATM    7  C   UNL     1     -10.287  11.077  66.479  1.00  0.00    -0.245 A  
HETATM    8  C   UNL     1     -12.066  12.526  65.726  1.00  0.00    -0.443 A  
HETATM    9  C   UNL     1     -11.345  11.941  66.772  1.00  0.00    -0.393 A  
ENDROOT
BRANCH   7  10
HETATM   10  S   UNL     1      -9.352  10.343  67.804  1.00  0.00    -0.145 S  
HETATM   11  O   UNL     1      -7.957  10.636  67.528  1.00  0.00    -0.109 OA 
HETATM   12  O   UNL     1      -9.956  10.773  69.051  1.00  0.00    -0.196 OA 
BRANCH  10  13
HETATM   13  C   UNL     1      -9.525   8.572  67.756  1.00  0.00    -0.145 A  
HETATM   14  C   UNL     1      -8.515   7.789  68.322  1.00  0.00    -0.124 A  
HETATM   15  C   UNL     1      -8.641   6.399  68.343  1.00  0.00    -0.115 A  
HETATM   16  C   UNL     1      -9.748   5.772  67.763  1.00  0.00    -0.119 A  
HETATM   17  N   UNL     1      -9.933   4.394  67.920  1.00  0.00    -0.079 NA 
HETATM   18  C   UNL     1     -10.774   6.570  67.242  1.00  0.00    -0.427 A  
HETATM   19  H2  UNL     1      -9.926   4.180  68.918  1.00  0.00     0.000 HD 
HETATM   20  H1  UNL     1     -10.740   3.937  67.496  1.00  0.00     0.000 HD 
HETATM   21  C   UNL     1     -10.660   7.967  67.214  1.00  0.00    -0.360 A  
ENDBRANCH  10  13
ENDBRANCH   7  10
TORSDOF 2
ENDMDL
MODEL      120
REMARK 921   NORMALIZED FREE ENERGY PREDICTED BY IDOCK:   -4.19 KCAL/MOL
REMARK 922        TOTAL FREE ENERGY PREDICTED BY IDOCK:   -5.10 KCAL/MOL
REMARK 923 INTER-LIGAND FREE ENERGY PREDICTED BY IDOCK:   -4.70 KCAL/MOL
REMARK 924 INTRA-LIGAND FREE ENERGY PREDICTED BY IDOCK:   -0.40 KCAL/MOL
REMARK 927      BINDING AFFINITY PREDICTED BY RF-SCORE:    0.00 PKD
ROOT
HETATM    1  N   UNL     1     -13.819  13.841  72.766  1.00  0.00    -0.689 NA 
HETATM    2  H2  UNL     1     -14.673  14.398  72.758  1.00  0.00     0.000 HD 
HETATM    3  C   UNL     1     -13.179  13.999  71.532  1.00  0.00    -0.359 A  
HETATM    4  H1  UNL     1     -14.047  12.909  73.112  1.00  0.00     0.000 HD 
HETATM    5  C   UNL     1     -12.866  15.275  71.058  1.00  0.00    -0.505 A  
HETATM    6  C   UNL     1     -12.159  15.445  69.863  1.00  0.00    -0.382 A  
HETATM    7  C   UNL     1     -11.727  14.321  69.156  1.00  0.00    -0.320 A  
HETATM    8  C   UNL     1     -12.641  12.889  70.873  1.00  0.00    -0.355 A  
HETATM    9  C   UNL     1     -11.925  13.041  69.682  1.00  0.00    -0.367 A  
ENDROOT
BRANCH   7  10
HETATM   10  S   UNL     1     -10.801  14.524  67.649  1.00  0.00    -0.279 S  
HETATM   11  O   UNL     1     -10.827  13.235  66.981  1.00  0.00    -0.265 OA 
HETATM   12  O   UNL     1     -11.314  15.705  66.981  1.00  0.00    -0.209 OA 
BRANCH  10  13
HETATM   13  C   UNL     1      -9.097  14.873  68.030  1.00  0.00    -0.180 A  
HETATM   14  C   UNL     1      -8.636  16.184  67.877  1.00  0.00    -0.169 A  
HETATM   15  C   UNL     1      -7.318  16.501  68.210  1.00  0.00    -0.169 A  
HETATM   16  C   UNL     1      -6.435  15.513  68.655  1.00  0.00    -0.102 A  
HETATM   17  N   UNL     1      -5.166  15.870  69.124  1.00  0.00    -0.104 NA 
HETATM   18  C   UNL     1      -6.923  14.215  68.848  1.00  0.00    -0.109 A  
HETATM   19  H2  UNL     1      -5.279  16.560  69.867  1.00  0.00     0.000 HD 
HETATM   20  H1  UNL     1      -4.521  15.149  69.448  1.00  0.00     0.000 HD 
HETATM   21  C   UNL     1      -8.244  13.882  68.516  1.00  0.00    -0.131 A  
ENDBRANCH  10  13
ENDBRANCH   7  10
TORSDOF 2
ENDMDL
MODEL      121
REMARK 921   NORMALIZED FREE ENERGY PREDICTED BY IDOCK:   -4.13 KCAL/MOL
REMARK 922        TOTAL FREE ENERGY PREDICTED BY IDOCK:   -5.03 KCAL/MOL
REMARK 923 INTER-LIGAND FREE ENERGY PREDICTED BY IDOCK:   -4.73 KCAL/MOL
REMARK 924 INTRA-LIGAND FREE ENERGY PREDICTED BY IDOCK:   -0.30 KCAL/MOL
REMARK 927      BINDING AFFINITY PREDICTED BY RF-SCORE:    0.00 PKD
ROOT
HETATM    1  N   UNL     1     -12.399  14.224  68.984  1.00  0.00    -0.562 NA 
HETATM    2  H2  UNL     1     -12.064  14.862  69.706  1.00  0.00     0.000 HD 
HETATM    3  C   UNL     1     -11.976  12.930  69.309  1.00  0.00    -0.260 A  
HETATM    4  H1  UNL     1     -12.175  14.625  68.074  1.00  0.00     0.000 HD 
HETATM    5  C   UNL     1     -12.282  12.380  70.556  1.00  0.00    -0.382 A  
HETATM    6  C   UNL     1     -11.932  11.062  70.865  1.00  0.00    -0.391 A  
HETATM    7  C   UNL     1     -11.304  10.274  69.899  1.00  0.00    -0.290 A  
HETATM    8  C   UNL     1     -11.452  12.094  68.319  1.00  0.00    -0.360 A  
HETATM    9  C   UNL     1     -11.103  10.771  68.608  1.00  0.00    -0.312 A  
ENDROOT
BRANCH   7  10
HETATM   10  S   UNL     1     -10.880   8.586  70.271  1.00  0.00    -0.231 S  
HETATM   11  O   UNL     1      -9.705   8.640  71.123  1.00  0.00    -0.187 OA 
HETATM   12  O   UNL     1     -12.087   7.926  70.730  1.00  0.00    -0.220 OA 
BRANCH  10  13
HETATM   13  C   UNL     1     -10.394   7.743  68.779  1.00  0.00    -0.204 A  
HETATM   14  C   UNL     1      -9.118   7.987  68.262  1.00  0.00    -0.135 A  
HETATM   15  C   UNL     1      -8.688   7.308  67.121  1.00  0.00    -0.121 A  
HETATM   16  C   UNL     1      -9.536   6.416  66.457  1.00  0.00    -0.156 A  
HETATM   17  N   UNL     1      -9.044   5.635  65.406  1.00  0.00    -0.331 NA 
HETATM   18  C   UNL     1     -10.792   6.145  67.013  1.00  0.00    -0.435 A  
HETATM   19  H2  UNL     1      -8.230   5.119  65.741  1.00  0.00     0.000 HD 
HETATM   20  H1  UNL     1      -9.662   4.985  64.921  1.00  0.00     0.000 HD 
HETATM   21  C   UNL     1     -11.237   6.821  68.158  1.00  0.00    -0.154 A  
ENDBRANCH  10  13
ENDBRANCH   7  10
TORSDOF 2
ENDMDL
MODEL      122
REMARK 921   NORMALIZED FREE ENERGY PREDICTED BY IDOCK:   -4.12 KCAL/MOL
REMARK 922        TOTAL FREE ENERGY PREDICTED BY IDOCK:   -5.03 KCAL/MOL
REMARK 923 INTER-LIGAND FREE ENERGY PREDICTED BY IDOCK:   -4.62 KCAL/MOL
REMARK 924 INTRA-LIGAND FREE ENERGY PREDICTED BY IDOCK:   -0.41 KCAL/MOL
REMARK 927      BINDING AFFINITY PREDICTED BY RF-SCORE:    0.00 PKD
ROOT
HETATM    1  N   UNL     1      -7.883  18.925  66.131  1.00  0.00    -0.380 NA 
HETATM    2  H2  UNL     1      -7.461  18.819  65.209  1.00  0.00     0.000 HD 
HETATM    3  C   UNL     1      -8.744  17.844  66.348  1.00  0.00    -0.224 A  
HETATM    4  H1  UNL     1      -8.225  19.882  66.219  1.00  0.00     0.000 HD 
HETATM    5  C   UNL     1      -8.275  16.533  66.228  1.00  0.00    -0.360 A  
HETATM    6  C   UNL     1      -9.104  15.444  66.516  1.00  0.00    -0.334 A  
HETATM    7  C   UNL     1     -10.405  15.674  66.969  1.00  0.00    -0.289 A  
HETATM    8  C   UNL     1     -10.007  18.055  66.910  1.00  0.00    -0.340 A  
HETATM    9  C   UNL     1     -10.845  16.977  67.211  1.00  0.00    -0.123 A  
ENDROOT
BRANCH   7  10
HETATM   10  S   UNL     1     -11.460  14.296  67.367  1.00  0.00    -0.365 S  
HETATM   11  O   UNL     1     -11.830  14.458  68.762  1.00  0.00    -0.309 OA 
HETATM   12  O   UNL     1     -12.484  14.223  66.342  1.00  0.00    -0.441 OA 
BRANCH  10  13
HETATM   13  C   UNL     1     -10.538  12.777  67.252  1.00  0.00    -0.233 A  
HETATM   14  C   UNL     1     -10.549  12.082  66.040  1.00  0.00    -0.303 A  
HETATM   15  C   UNL     1      -9.799  10.912  65.902  1.00  0.00    -0.285 A  
HETATM   16  C   UNL     1      -9.070  10.398  66.978  1.00  0.00    -0.139 A  
HETATM   17  N   UNL     1      -8.210   9.312  66.785  1.00  0.00    -0.115 NA 
HETATM   18  C   UNL     1      -9.031  11.129  68.171  1.00  0.00    -0.159 A  
HETATM   19  H2  UNL     1      -7.558   9.546  66.036  1.00  0.00     0.000 HD 
HETATM   20  H1  UNL     1      -7.679   8.936  67.570  1.00  0.00     0.000 HD 
HETATM   21  C   UNL     1      -9.780  12.305  68.324  1.00  0.00    -0.219 A  
ENDBRANCH  10  13
ENDBRANCH   7  10
TORSDOF 2
ENDMDL
MODEL      123
REMARK 921   NORMALIZED FREE ENERGY PREDICTED BY IDOCK:   -4.11 KCAL/MOL
REMARK 922        TOTAL FREE ENERGY PREDICTED BY IDOCK:   -5.02 KCAL/MOL
REMARK 923 INTER-LIGAND FREE ENERGY PREDICTED BY IDOCK:   -4.65 KCAL/MOL
REMARK 924 INTRA-LIGAND FREE ENERGY PREDICTED BY IDOCK:   -0.37 KCAL/MOL
REMARK 927      BINDING AFFINITY PREDICTED BY RF-SCORE:    0.00 PKD
ROOT
HETATM    1  N   UNL     1      -8.778  20.547  66.561  1.00  0.00    -0.549 NA 
HETATM    2  H2  UNL     1      -8.018  20.412  65.895  1.00  0.00     0.000 HD 
HETATM    3  C   UNL     1      -9.197  19.291  67.013  1.00  0.00    -0.307 A  
HETATM    4  H1  UNL     1      -9.449  21.198  66.153  1.00  0.00     0.000 HD 
HETATM    5  C   UNL     1      -8.277  18.400  67.572  1.00  0.00    -0.255 A  
HETATM    6  C   UNL     1      -8.694  17.172  68.096  1.00  0.00    -0.232 A  
HETATM    7  C   UNL     1     -10.053  16.852  68.096  1.00  0.00    -0.299 A  
HETATM    8  C   UNL     1     -10.560  19.004  67.125  1.00  0.00    -0.545 A  
HETATM    9  C   UNL     1     -10.994  17.785  67.654  1.00  0.00    -0.100 A  
ENDROOT
BRANCH   7  10
HETATM   10  S   UNL     1     -10.598  15.305  68.788  1.00  0.00    -0.250 S  
HETATM   11  O   UNL     1     -10.065  15.253  70.138  1.00  0.00    -0.238 OA 
HETATM   12  O   UNL     1     -12.028  15.209  68.562  1.00  0.00    -0.304 OA 
BRANCH  10  13
HETATM   13  C   UNL     1      -9.865  13.952  67.892  1.00  0.00    -0.228 A  
HETATM   14  C   UNL     1     -10.609  13.347  66.875  1.00  0.00    -0.273 A  
HETATM   15  C   UNL     1     -10.047  12.314  66.123  1.00  0.00    -0.265 A  
HETATM   16  C   UNL     1      -8.761  11.842  66.403  1.00  0.00    -0.118 A  
HETATM   17  N   UNL     1      -8.157  10.912  65.550  1.00  0.00    -0.335 NA 
HETATM   18  C   UNL     1      -8.011  12.489  67.392  1.00  0.00    -0.180 A  
HETATM   19  H2  UNL     1      -8.162  11.291  64.603  1.00  0.00     0.000 HD 
HETATM   20  H1  UNL     1      -7.218  10.568  65.755  1.00  0.00     0.000 HD 
HETATM   21  C   UNL     1      -8.563  13.527  68.157  1.00  0.00    -0.173 A  
ENDBRANCH  10  13
ENDBRANCH   7  10
TORSDOF 2
ENDMDL
MODEL      124
REMARK 921   NORMALIZED FREE ENERGY PREDICTED BY IDOCK:   -4.10 KCAL/MOL
REMARK 922        TOTAL FREE ENERGY PREDICTED BY IDOCK:   -5.01 KCAL/MOL
REMARK 923 INTER-LIGAND FREE ENERGY PREDICTED BY IDOCK:   -4.62 KCAL/MOL
REMARK 924 INTRA-LIGAND FREE ENERGY PREDICTED BY IDOCK:   -0.38 KCAL/MOL
REMARK 927      BINDING AFFINITY PREDICTED BY RF-SCORE:    0.00 PKD
ROOT
HETATM    1  N   UNL     1     -13.769  14.000  73.142  1.00  0.00    -0.296 NA 
HETATM    2  H2  UNL     1     -14.387  14.779  72.913  1.00  0.00     0.000 HD 
HETATM    3  C   UNL     1     -13.225  13.505  71.951  1.00  0.00    -0.422 A  
HETATM    4  H1  UNL     1     -14.261  13.377  73.781  1.00  0.00     0.000 HD 
HETATM    5  C   UNL     1     -12.550  14.359  71.075  1.00  0.00    -0.419 A  
HETATM    6  C   UNL     1     -11.936  13.863  69.920  1.00  0.00    -0.405 A  
HETATM    7  C   UNL     1     -11.966  12.492  69.662  1.00  0.00    -0.272 A  
HETATM    8  C   UNL     1     -13.146  12.126  71.737  1.00  0.00    -0.457 A  
HETATM    9  C   UNL     1     -12.530  11.614  70.591  1.00  0.00    -0.386 A  
ENDROOT
BRANCH   7  10
HETATM   10  S   UNL     1     -11.163  11.846  68.210  1.00  0.00    -0.288 S  
HETATM   11  O   UNL     1     -11.894  10.647  67.841  1.00  0.00    -0.485 OA 
HETATM   12  O   UNL     1     -11.028  12.940  67.267  1.00  0.00    -0.251 OA 
BRANCH  10  13
HETATM   13  C   UNL     1      -9.506  11.335  68.613  1.00  0.00    -0.175 A  
HETATM   14  C   UNL     1      -9.335  10.200  69.412  1.00  0.00    -0.235 A  
HETATM   15  C   UNL     1      -8.049   9.745  69.708  1.00  0.00    -0.174 A  
HETATM   16  C   UNL     1      -6.923  10.437  69.255  1.00  0.00    -0.080 A  
HETATM   17  N   UNL     1      -5.647   9.891  69.434  1.00  0.00    -0.034 NA 
HETATM   18  C   UNL     1      -7.108  11.544  68.418  1.00  0.00    -0.081 A  
HETATM   19  H2  UNL     1      -5.638   8.955  69.027  1.00  0.00     0.000 HD 
HETATM   20  H1  UNL     1      -4.825  10.396  69.103  1.00  0.00     0.000 HD 
HETATM   21  C   UNL     1      -8.394  12.013  68.112  1.00  0.00    -0.165 A  
ENDBRANCH  10  13
ENDBRANCH   7  10
TORSDOF 2
ENDMDL
MODEL      125
REMARK 921   NORMALIZED FREE ENERGY PREDICTED BY IDOCK:   -4.09 KCAL/MOL
REMARK 922        TOTAL FREE ENERGY PREDICTED BY IDOCK:   -4.99 KCAL/MOL
REMARK 923 INTER-LIGAND FREE ENERGY PREDICTED BY IDOCK:   -4.62 KCAL/MOL
REMARK 924 INTRA-LIGAND FREE ENERGY PREDICTED BY IDOCK:   -0.37 KCAL/MOL
REMARK 927      BINDING AFFINITY PREDICTED BY RF-SCORE:    0.00 PKD
ROOT
HETATM    1  N   UNL     1     -10.287  17.548  65.676  1.00  0.00    -0.633 NA 
HETATM    2  H2  UNL     1     -10.857  17.689  64.842  1.00  0.00     0.000 HD 
HETATM    3  C   UNL     1     -10.651  16.328  66.258  1.00  0.00    -0.255 A  
HETATM    4  H1  UNL     1     -10.306  18.406  66.226  1.00  0.00     0.000 HD 
HETATM    5  C   UNL     1     -10.625  15.152  65.504  1.00  0.00    -0.383 A  
HETATM    6  C   UNL     1     -10.912  13.916  66.092  1.00  0.00    -0.293 A  
HETATM    7  C   UNL     1     -11.189  13.854  67.458  1.00  0.00    -0.303 A  
HETATM    8  C   UNL     1     -10.817  16.233  67.642  1.00  0.00    -0.293 A  
HETATM    9  C   UNL     1     -11.097  15.004  68.247  1.00  0.00    -0.292 A  
ENDROOT
BRANCH   7  10
HETATM   10  S   UNL     1     -11.528  12.283  68.223  1.00  0.00    -0.338 S  
HETATM   11  O   UNL     1     -12.220  12.577  69.466  1.00  0.00    -0.204 OA 
HETATM   12  O   UNL     1     -12.150  11.437  67.222  1.00  0.00    -0.464 OA 
BRANCH  10  13
HETATM   13  C   UNL     1      -9.998  11.483  68.663  1.00  0.00    -0.199 A  
HETATM   14  C   UNL     1      -8.802  12.031  68.192  1.00  0.00    -0.182 A  
HETATM   15  C   UNL     1      -7.583  11.457  68.556  1.00  0.00    -0.129 A  
HETATM   16  C   UNL     1      -7.542  10.308  69.351  1.00  0.00    -0.137 A  
HETATM   17  N   UNL     1      -6.317   9.830  69.828  1.00  0.00    -0.046 NA 
HETATM   18  C   UNL     1      -8.745   9.797  69.853  1.00  0.00    -0.238 A  
HETATM   19  H2  UNL     1      -5.849  10.586  70.328  1.00  0.00     0.000 HD 
HETATM   20  H1  UNL     1      -6.287   8.992  70.407  1.00  0.00     0.000 HD 
HETATM   21  C   UNL     1      -9.977  10.364  69.495  1.00  0.00    -0.229 A  
ENDBRANCH  10  13
ENDBRANCH   7  10
TORSDOF 2
ENDMDL
MODEL      126
REMARK 921   NORMALIZED FREE ENERGY PREDICTED BY IDOCK:   -4.07 KCAL/MOL
REMARK 922        TOTAL FREE ENERGY PREDICTED BY IDOCK:   -4.97 KCAL/MOL
REMARK 923 INTER-LIGAND FREE ENERGY PREDICTED BY IDOCK:   -4.55 KCAL/MOL
REMARK 924 INTRA-LIGAND FREE ENERGY PREDICTED BY IDOCK:   -0.42 KCAL/MOL
REMARK 927      BINDING AFFINITY PREDICTED BY RF-SCORE:    0.00 PKD
ROOT
HETATM    1  N   UNL     1     -11.386  15.662  67.606  1.00  0.00    -0.280 NA 
HETATM    2  H2  UNL     1     -12.173  15.614  68.253  1.00  0.00     0.000 HD 
HETATM    3  C   UNL     1     -10.956  14.358  67.338  1.00  0.00    -0.299 A  
HETATM    4  H1  UNL     1     -10.728  16.360  67.952  1.00  0.00     0.000 HD 
HETATM    5  C   UNL     1     -11.857  13.401  66.862  1.00  0.00    -0.453 A  
HETATM    6  C   UNL     1     -11.426  12.116  66.518  1.00  0.00    -0.430 A  
HETATM    7  C   UNL     1     -10.070  11.799  66.614  1.00  0.00    -0.204 A  
HETATM    8  C   UNL     1      -9.591  14.059  67.319  1.00  0.00    -0.238 A  
HETATM    9  C   UNL     1      -9.142  12.781  66.970  1.00  0.00    -0.220 A  
ENDROOT
BRANCH   7  10
HETATM   10  S   UNL     1      -9.505  10.176  66.151  1.00  0.00    -0.201 S  
HETATM   11  O   UNL     1     -10.193   9.843  64.916  1.00  0.00    -0.176 OA 
HETATM   12  O   UNL     1      -8.055  10.190  66.201  1.00  0.00    -0.116 OA 
BRANCH  10  13
HETATM   13  C   UNL     1     -10.028   8.985  67.368  1.00  0.00    -0.209 A  
HETATM   14  C   UNL     1     -10.155   9.403  68.696  1.00  0.00    -0.208 A  
HETATM   15  C   UNL     1     -10.608   8.507  69.666  1.00  0.00    -0.221 A  
HETATM   16  C   UNL     1     -10.893   7.179  69.337  1.00  0.00    -0.206 A  
HETATM   17  N   UNL     1     -11.484   6.335  70.284  1.00  0.00    -0.388 NA 
HETATM   18  C   UNL     1     -10.807   6.787  67.996  1.00  0.00    -0.306 A  
HETATM   19  H2  UNL     1     -12.341   6.776  70.619  1.00  0.00     0.000 HD 
HETATM   20  H1  UNL     1     -11.692   5.366  70.044  1.00  0.00     0.000 HD 
HETATM   21  C   UNL     1     -10.353   7.676  67.010  1.00  0.00    -0.400 A  
ENDBRANCH  10  13
ENDBRANCH   7  10
TORSDOF 2
ENDMDL
MODEL      127
REMARK 921   NORMALIZED FREE ENERGY PREDICTED BY IDOCK:   -4.07 KCAL/MOL
REMARK 922        TOTAL FREE ENERGY PREDICTED BY IDOCK:   -4.97 KCAL/MOL
REMARK 923 INTER-LIGAND FREE ENERGY PREDICTED BY IDOCK:   -4.55 KCAL/MOL
REMARK 924 INTRA-LIGAND FREE ENERGY PREDICTED BY IDOCK:   -0.42 KCAL/MOL
REMARK 927      BINDING AFFINITY PREDICTED BY RF-SCORE:    0.00 PKD
ROOT
HETATM    1  N   UNL     1     -10.670   4.650  66.685  1.00  0.00    -0.313 NA 
HETATM    2  H2  UNL     1      -9.914   4.556  66.007  1.00  0.00     0.000 HD 
HETATM    3  C   UNL     1     -10.525   5.878  67.340  1.00  0.00    -0.248 A  
HETATM    4  H1  UNL     1     -10.730   3.784  67.221  1.00  0.00     0.000 HD 
HETATM    5  C   UNL     1     -10.444   7.064  66.605  1.00  0.00    -0.209 A  
HETATM    6  C   UNL     1     -10.375   8.304  67.249  1.00  0.00    -0.372 A  
HETATM    7  C   UNL     1     -10.428   8.357  68.643  1.00  0.00    -0.166 A  
HETATM    8  C   UNL     1     -10.691   5.958  68.725  1.00  0.00    -0.354 A  
HETATM    9  C   UNL     1     -10.633   7.191  69.383  1.00  0.00    -0.246 A  
ENDROOT
BRANCH   7  10
HETATM   10  S   UNL     1     -10.371   9.932  69.471  1.00  0.00    -0.246 S  
HETATM   11  O   UNL     1     -11.695  10.147  70.027  1.00  0.00    -0.256 OA 
HETATM   12  O   UNL     1      -9.206   9.925  70.336  1.00  0.00    -0.180 OA 
BRANCH  10  13
HETATM   13  C   UNL     1     -10.095  11.229  68.283  1.00  0.00    -0.188 A  
HETATM   14  C   UNL     1     -11.204  11.902  67.763  1.00  0.00    -0.330 A  
HETATM   15  C   UNL     1     -11.021  12.955  66.865  1.00  0.00    -0.294 A  
HETATM   16  C   UNL     1      -9.739  13.319  66.441  1.00  0.00    -0.276 A  
HETATM   17  N   UNL     1      -9.561  14.465  65.659  1.00  0.00    -0.537 NA 
HETATM   18  C   UNL     1      -8.636  12.669  67.006  1.00  0.00    -0.181 A  
HETATM   19  H2  UNL     1      -9.977  15.258  66.150  1.00  0.00     0.000 HD 
HETATM   20  H1  UNL     1      -8.626  14.731  65.350  1.00  0.00     0.000 HD 
HETATM   21  C   UNL     1      -8.805  11.608  67.908  1.00  0.00    -0.155 A  
ENDBRANCH  10  13
ENDBRANCH   7  10
TORSDOF 2
ENDMDL
MODEL      128
REMARK 921   NORMALIZED FREE ENERGY PREDICTED BY IDOCK:   -4.05 KCAL/MOL
REMARK 922        TOTAL FREE ENERGY PREDICTED BY IDOCK:   -4.94 KCAL/MOL
REMARK 923 INTER-LIGAND FREE ENERGY PREDICTED BY IDOCK:   -4.66 KCAL/MOL
REMARK 924 INTRA-LIGAND FREE ENERGY PREDICTED BY IDOCK:   -0.28 KCAL/MOL
REMARK 927      BINDING AFFINITY PREDICTED BY RF-SCORE:    0.00 PKD
ROOT
HETATM    1  N   UNL     1     -10.938  12.621  68.804  1.00  0.00    -0.246 NA 
HETATM    2  H2  UNL     1     -11.010  13.425  69.426  1.00  0.00     0.000 HD 
HETATM    3  C   UNL     1     -11.091  11.458  69.567  1.00  0.00    -0.211 A  
HETATM    4  H1  UNL     1     -10.115  12.744  68.214  1.00  0.00     0.000 HD 
HETATM    5  C   UNL     1     -12.218  11.288  70.375  1.00  0.00    -0.453 A  
HETATM    6  C   UNL     1     -12.421  10.100  71.084  1.00  0.00    -0.490 A  
HETATM    7  C   UNL     1     -11.505   9.056  70.950  1.00  0.00    -0.291 A  
HETATM    8  C   UNL     1     -10.247  10.364  69.356  1.00  0.00    -0.257 A  
HETATM    9  C   UNL     1     -10.441   9.166  70.051  1.00  0.00    -0.244 A  
ENDROOT
BRANCH   7  10
HETATM   10  S   UNL     1     -11.768   7.528  71.825  1.00  0.00    -0.296 S  
HETATM   11  O   UNL     1     -11.314   7.755  73.185  1.00  0.00    -0.374 OA 
HETATM   12  O   UNL     1     -13.134   7.111  71.569  1.00  0.00    -0.381 OA 
BRANCH  10  13
HETATM   13  C   UNL     1     -10.728   6.254  71.141  1.00  0.00    -0.249 A  
HETATM   14  C   UNL     1      -9.757   5.675  71.964  1.00  0.00    -0.182 A  
HETATM   15  C   UNL     1      -8.956   4.642  71.474  1.00  0.00    -0.165 A  
HETATM   16  C   UNL     1      -9.080   4.206  70.152  1.00  0.00    -0.113 A  
HETATM   17  N   UNL     1      -8.378   3.076  69.719  1.00  0.00    -0.050 NA 
HETATM   18  C   UNL     1     -10.088   4.762  69.354  1.00  0.00    -0.241 A  
HETATM   19  H2  UNL     1      -8.606   2.298  70.339  1.00  0.00     0.000 HD 
HETATM   20  H1  UNL     1      -8.468   2.759  68.754  1.00  0.00     0.000 HD 
HETATM   21  C   UNL     1     -10.899   5.801  69.833  1.00  0.00    -0.417 A  
ENDBRANCH  10  13
ENDBRANCH   7  10
TORSDOF 2
ENDMDL
MODEL      129
REMARK 921   NORMALIZED FREE ENERGY PREDICTED BY IDOCK:   -4.04 KCAL/MOL
REMARK 922        TOTAL FREE ENERGY PREDICTED BY IDOCK:   -4.94 KCAL/MOL
REMARK 923 INTER-LIGAND FREE ENERGY PREDICTED BY IDOCK:   -4.97 KCAL/MOL
REMARK 924 INTRA-LIGAND FREE ENERGY PREDICTED BY IDOCK:    0.03 KCAL/MOL
REMARK 927      BINDING AFFINITY PREDICTED BY RF-SCORE:    0.00 PKD
ROOT
HETATM    1  N   UNL     1      -8.224   8.571  62.396  1.00  0.00    -0.175 NA 
HETATM    2  H2  UNL     1      -7.526   9.066  61.841  1.00  0.00     0.000 HD 
HETATM    3  C   UNL     1      -8.770   9.470  63.319  1.00  0.00    -0.227 A  
HETATM    4  H1  UNL     1      -7.817   7.692  62.714  1.00  0.00     0.000 HD 
HETATM    5  C   UNL     1      -9.328  10.675  62.885  1.00  0.00    -0.349 A  
HETATM    6  C   UNL     1      -9.945  11.547  63.787  1.00  0.00    -0.384 A  
HETATM    7  C   UNL     1     -10.039  11.189  65.133  1.00  0.00    -0.281 A  
HETATM    8  C   UNL     1      -8.974   9.077  64.645  1.00  0.00    -0.112 A  
HETATM    9  C   UNL     1      -9.596   9.934  65.558  1.00  0.00    -0.341 A  
ENDROOT
BRANCH   7  10
HETATM   10  S   UNL     1     -10.848  12.278  66.286  1.00  0.00    -0.291 S  
HETATM   11  O   UNL     1      -9.988  13.440  66.418  1.00  0.00    -0.279 OA 
HETATM   12  O   UNL     1     -12.222  12.430  65.847  1.00  0.00    -0.629 OA 
BRANCH  10  13
HETATM   13  C   UNL     1     -10.925  11.509  67.890  1.00  0.00    -0.233 A  
HETATM   14  C   UNL     1     -12.152  11.484  68.558  1.00  0.00    -0.159 A  
HETATM   15  C   UNL     1     -12.258  10.849  69.796  1.00  0.00    -0.381 A  
HETATM   16  C   UNL     1     -11.137  10.275  70.404  1.00  0.00    -0.319 A  
HETATM   17  N   UNL     1     -11.286   9.516  71.570  1.00  0.00    -0.383 NA 
HETATM   18  C   UNL     1      -9.925  10.266  69.703  1.00  0.00    -0.240 A  
HETATM   19  H2  UNL     1     -11.969   8.780  71.391  1.00  0.00     0.000 HD 
HETATM   20  H1  UNL     1     -10.468   9.098  72.013  1.00  0.00     0.000 HD 
HETATM   21  C   UNL     1      -9.805  10.901  68.458  1.00  0.00    -0.188 A  
ENDBRANCH  10  13
ENDBRANCH   7  10
TORSDOF 2
ENDMDL
MODEL      130
REMARK 921   NORMALIZED FREE ENERGY PREDICTED BY IDOCK:   -4.04 KCAL/MOL
REMARK 922        TOTAL FREE ENERGY PREDICTED BY IDOCK:   -4.94 KCAL/MOL
REMARK 923 INTER-LIGAND FREE ENERGY PREDICTED BY IDOCK:   -4.58 KCAL/MOL
REMARK 924 INTRA-LIGAND FREE ENERGY PREDICTED BY IDOCK:   -0.36 KCAL/MOL
REMARK 927      BINDING AFFINITY PREDICTED BY RF-SCORE:    0.00 PKD
ROOT
HETATM    1  N   UNL     1      -5.931  16.863  68.858  1.00  0.00    -0.152 NA 
HETATM    2  H2  UNL     1      -5.947  17.119  69.845  1.00  0.00     0.000 HD 
HETATM    3  C   UNL     1      -6.791  15.776  68.670  1.00  0.00    -0.122 A  
HETATM    4  H1  UNL     1      -4.958  16.808  68.557  1.00  0.00     0.000 HD 
HETATM    5  C   UNL     1      -8.124  15.851  69.082  1.00  0.00    -0.239 A  
HETATM    6  C   UNL     1      -9.014  14.801  68.831  1.00  0.00    -0.167 A  
HETATM    7  C   UNL     1      -8.571  13.681  68.126  1.00  0.00    -0.176 A  
HETATM    8  C   UNL     1      -6.397  14.700  67.869  1.00  0.00    -0.173 A  
HETATM    9  C   UNL     1      -7.276  13.646  67.603  1.00  0.00    -0.179 A  
ENDROOT
BRANCH   7  10
HETATM   10  S   UNL     1      -9.702  12.351  67.777  1.00  0.00    -0.207 S  
HETATM   11  O   UNL     1      -8.884  11.176  67.532  1.00  0.00    -0.137 OA 
HETATM   12  O   UNL     1     -10.699  12.341  68.830  1.00  0.00    -0.228 OA 
BRANCH  10  13
HETATM   13  C   UNL     1     -10.583  12.689  66.266  1.00  0.00    -0.252 A  
HETATM   14  C   UNL     1     -10.809  14.022  65.912  1.00  0.00    -0.288 A  
HETATM   15  C   UNL     1     -11.456  14.322  64.712  1.00  0.00    -0.394 A  
HETATM   16  C   UNL     1     -11.923  13.304  63.876  1.00  0.00    -0.483 A  
HETATM   17  N   UNL     1     -12.435  13.616  62.612  1.00  0.00    -0.616 NA 
HETATM   18  C   UNL     1     -11.648  11.975  64.220  1.00  0.00    -0.435 A  
HETATM   19  H2  UNL     1     -11.733  14.155  62.104  1.00  0.00     0.000 HD 
HETATM   20  H1  UNL     1     -12.776  12.873  62.003  1.00  0.00     0.000 HD 
HETATM   21  C   UNL     1     -11.000  11.658  65.423  1.00  0.00    -0.328 A  
ENDBRANCH  10  13
ENDBRANCH   7  10
TORSDOF 2
ENDMDL
MODEL      131
REMARK 921   NORMALIZED FREE ENERGY PREDICTED BY IDOCK:   -4.01 KCAL/MOL
REMARK 922        TOTAL FREE ENERGY PREDICTED BY IDOCK:   -4.90 KCAL/MOL
REMARK 923 INTER-LIGAND FREE ENERGY PREDICTED BY IDOCK:   -4.51 KCAL/MOL
REMARK 924 INTRA-LIGAND FREE ENERGY PREDICTED BY IDOCK:   -0.39 KCAL/MOL
REMARK 927      BINDING AFFINITY PREDICTED BY RF-SCORE:    0.00 PKD
ROOT
HETATM    1  N   UNL     1     -10.527  11.360  63.201  1.00  0.00    -0.635 NA 
HETATM    2  H2  UNL     1     -10.780  10.639  62.526  1.00  0.00     0.000 HD 
HETATM    3  C   UNL     1     -10.109  10.732  64.380  1.00  0.00    -0.353 A  
HETATM    4  H1  UNL     1     -11.274  12.053  63.225  1.00  0.00     0.000 HD 
HETATM    5  C   UNL     1      -9.085   9.782  64.347  1.00  0.00    -0.296 A  
HETATM    6  C   UNL     1      -8.605   9.203  65.527  1.00  0.00    -0.192 A  
HETATM    7  C   UNL     1      -9.131   9.610  66.754  1.00  0.00    -0.146 A  
HETATM    8  C   UNL     1     -10.541  11.209  65.620  1.00  0.00    -0.286 A  
HETATM    9  C   UNL     1     -10.066  10.646  66.809  1.00  0.00    -0.272 A  
ENDROOT
BRANCH   7  10
HETATM   10  S   UNL     1      -8.507   8.901  68.264  1.00  0.00    -0.130 S  
HETATM   11  O   UNL     1      -7.712   7.751  67.874  1.00  0.00    -0.116 OA 
HETATM   12  O   UNL     1      -7.911   9.976  69.034  1.00  0.00    -0.092 OA 
BRANCH  10  13
HETATM   13  C   UNL     1      -9.860   8.283  69.244  1.00  0.00    -0.186 A  
HETATM   14  C   UNL     1     -10.267   6.959  69.056  1.00  0.00    -0.189 A  
HETATM   15  C   UNL     1     -11.293   6.429  69.840  1.00  0.00    -0.500 A  
HETATM   16  C   UNL     1     -11.954   7.220  70.784  1.00  0.00    -0.272 A  
HETATM   17  N   UNL     1     -12.876   6.639  71.661  1.00  0.00    -0.282 NA 
HETATM   18  C   UNL     1     -11.505   8.530  70.994  1.00  0.00    -0.313 A  
HETATM   19  H2  UNL     1     -12.415   5.871  72.150  1.00  0.00     0.000 HD 
HETATM   20  H1  UNL     1     -13.358   7.217  72.350  1.00  0.00     0.000 HD 
HETATM   21  C   UNL     1     -10.476   9.076  70.212  1.00  0.00    -0.248 A  
ENDBRANCH  10  13
ENDBRANCH   7  10
TORSDOF 2
ENDMDL
MODEL      132
REMARK 921   NORMALIZED FREE ENERGY PREDICTED BY IDOCK:   -4.00 KCAL/MOL
REMARK 922        TOTAL FREE ENERGY PREDICTED BY IDOCK:   -4.89 KCAL/MOL
REMARK 923 INTER-LIGAND FREE ENERGY PREDICTED BY IDOCK:   -4.49 KCAL/MOL
REMARK 924 INTRA-LIGAND FREE ENERGY PREDICTED BY IDOCK:   -0.40 KCAL/MOL
REMARK 927      BINDING AFFINITY PREDICTED BY RF-SCORE:    0.00 PKD
ROOT
HETATM    1  N   UNL     1      -7.293  17.283  68.510  1.00  0.00    -0.224 NA 
HETATM    2  H2  UNL     1      -7.753  17.914  69.167  1.00  0.00     0.000 HD 
HETATM    3  C   UNL     1      -8.253  16.403  67.999  1.00  0.00    -0.169 A  
HETATM    4  H1  UNL     1      -6.447  16.922  68.952  1.00  0.00     0.000 HD 
HETATM    5  C   UNL     1      -9.411  16.897  67.393  1.00  0.00    -0.238 A  
HETATM    6  C   UNL     1     -10.342  16.032  66.810  1.00  0.00    -0.300 A  
HETATM    7  C   UNL     1     -10.089  14.659  66.799  1.00  0.00    -0.265 A  
HETATM    8  C   UNL     1      -7.963  15.041  67.877  1.00  0.00    -0.146 A  
HETATM    9  C   UNL     1      -8.879  14.163  67.289  1.00  0.00    -0.227 A  
ENDROOT
BRANCH   7  10
HETATM   10  S   UNL     1     -11.253  13.550  66.033  1.00  0.00    -0.299 S  
HETATM   11  O   UNL     1     -12.517  13.751  66.720  1.00  0.00    -0.366 OA 
HETATM   12  O   UNL     1     -11.161  13.747  64.599  1.00  0.00    -0.349 OA 
BRANCH  10  13
HETATM   13  C   UNL     1     -10.767  11.864  66.333  1.00  0.00    -0.266 A  
HETATM   14  C   UNL     1     -11.311  11.200  67.436  1.00  0.00    -0.329 A  
HETATM   15  C   UNL     1     -10.987   9.863  67.673  1.00  0.00    -0.263 A  
HETATM   16  C   UNL     1     -10.085   9.188  66.845  1.00  0.00    -0.258 A  
HETATM   17  N   UNL     1      -9.884   7.813  67.006  1.00  0.00    -0.197 NA 
HETATM   18  C   UNL     1      -9.585   9.850  65.718  1.00  0.00    -0.312 A  
HETATM   19  H2  UNL     1     -10.789   7.345  66.948  1.00  0.00     0.000 HD 
HETATM   20  H1  UNL     1      -9.226   7.320  66.402  1.00  0.00     0.000 HD 
HETATM   21  C   UNL     1      -9.901  11.193  65.468  1.00  0.00    -0.281 A  
ENDBRANCH  10  13
ENDBRANCH   7  10
TORSDOF 2
ENDMDL
MODEL      133
REMARK 921   NORMALIZED FREE ENERGY PREDICTED BY IDOCK:   -3.99 KCAL/MOL
REMARK 922        TOTAL FREE ENERGY PREDICTED BY IDOCK:   -4.89 KCAL/MOL
REMARK 923 INTER-LIGAND FREE ENERGY PREDICTED BY IDOCK:   -4.49 KCAL/MOL
REMARK 924 INTRA-LIGAND FREE ENERGY PREDICTED BY IDOCK:   -0.40 KCAL/MOL
REMARK 927      BINDING AFFINITY PREDICTED BY RF-SCORE:    0.00 PKD
ROOT
HETATM    1  N   UNL     1      -9.807   3.351  66.439  1.00  0.00    -0.411 NA 
HETATM    2  H2  UNL     1      -9.579   2.691  67.183  1.00  0.00     0.000 HD 
HETATM    3  C   UNL     1      -9.840   4.638  66.988  1.00  0.00    -0.205 A  
HETATM    4  H1  UNL     1     -10.610   2.990  65.925  1.00  0.00     0.000 HD 
HETATM    5  C   UNL     1      -8.739   5.133  67.693  1.00  0.00    -0.103 A  
HETATM    6  C   UNL     1      -8.729   6.444  68.180  1.00  0.00    -0.116 A  
HETATM    7  C   UNL     1      -9.818   7.280  67.924  1.00  0.00    -0.144 A  
HETATM    8  C   UNL     1     -10.867   5.521  66.644  1.00  0.00    -0.257 A  
HETATM    9  C   UNL     1     -10.869   6.837  67.116  1.00  0.00    -0.462 A  
ENDROOT
BRANCH   7  10
HETATM   10  S   UNL     1      -9.803   8.959  68.514  1.00  0.00    -0.172 S  
HETATM   11  O   UNL     1     -10.884   9.059  69.479  1.00  0.00    -0.229 OA 
HETATM   12  O   UNL     1      -8.442   9.270  68.907  1.00  0.00    -0.124 OA 
BRANCH  10  13
HETATM   13  C   UNL     1     -10.198  10.071  67.181  1.00  0.00    -0.228 A  
HETATM   14  C   UNL     1     -11.162  11.059  67.402  1.00  0.00    -0.355 A  
HETATM   15  C   UNL     1     -11.462  11.977  66.393  1.00  0.00    -0.417 A  
HETATM   16  C   UNL     1     -10.843  11.893  65.143  1.00  0.00    -0.300 A  
HETATM   17  N   UNL     1     -11.042  12.903  64.195  1.00  0.00    -0.376 NA 
HETATM   18  C   UNL     1      -9.846  10.929  64.952  1.00  0.00    -0.339 A  
HETATM   19  H2  UNL     1     -10.795  13.797  64.620  1.00  0.00     0.000 HD 
HETATM   20  H1  UNL     1     -10.591  12.842  63.283  1.00  0.00     0.000 HD 
HETATM   21  C   UNL     1      -9.535  10.000  65.955  1.00  0.00    -0.251 A  
ENDBRANCH  10  13
ENDBRANCH   7  10
TORSDOF 2
ENDMDL
MODEL      134
REMARK 921   NORMALIZED FREE ENERGY PREDICTED BY IDOCK:   -3.99 KCAL/MOL
REMARK 922        TOTAL FREE ENERGY PREDICTED BY IDOCK:   -4.88 KCAL/MOL
REMARK 923 INTER-LIGAND FREE ENERGY PREDICTED BY IDOCK:   -5.11 KCAL/MOL
REMARK 924 INTRA-LIGAND FREE ENERGY PREDICTED BY IDOCK:    0.23 KCAL/MOL
REMARK 927      BINDING AFFINITY PREDICTED BY RF-SCORE:    0.00 PKD
ROOT
HETATM    1  N   UNL     1     -10.445   2.685  74.415  1.00  0.00    -0.156 NA 
HETATM    2  H2  UNL     1      -9.511   2.280  74.483  1.00  0.00     0.000 HD 
HETATM    3  C   UNL     1     -10.424   3.680  73.431  1.00  0.00    -0.179 A  
HETATM    4  H1  UNL     1     -10.769   2.901  75.358  1.00  0.00     0.000 HD 
HETATM    5  C   UNL     1      -9.979   3.384  72.139  1.00  0.00    -0.230 A  
HETATM    6  C   UNL     1     -10.025   4.347  71.126  1.00  0.00    -0.243 A  
HETATM    7  C   UNL     1     -10.558   5.607  71.401  1.00  0.00    -0.253 A  
HETATM    8  C   UNL     1     -11.057   4.905  73.657  1.00  0.00    -0.370 A  
HETATM    9  C   UNL     1     -11.118   5.876  72.653  1.00  0.00    -0.322 A  
ENDROOT
BRANCH   7  10
HETATM   10  S   UNL     1     -10.647   6.832  70.112  1.00  0.00    -0.231 S  
HETATM   11  O   UNL     1      -9.278   7.219  69.824  1.00  0.00    -0.142 OA 
HETATM   12  O   UNL     1     -11.492   6.295  69.062  1.00  0.00    -0.363 OA 
BRANCH  10  13
HETATM   13  C   UNL     1     -11.477   8.286  70.717  1.00  0.00    -0.252 A  
HETATM   14  C   UNL     1     -11.062   9.534  70.244  1.00  0.00    -0.317 A  
HETATM   15  C   UNL     1     -11.721  10.692  70.663  1.00  0.00    -0.454 A  
HETATM   16  C   UNL     1     -12.767  10.624  71.589  1.00  0.00    -0.426 A  
HETATM   17  N   UNL     1     -13.512  11.770  71.886  1.00  0.00    -0.299 NA 
HETATM   18  C   UNL     1     -13.202   9.365  72.018  1.00  0.00    -0.529 A  
HETATM   19  H2  UNL     1     -13.878  12.152  71.013  1.00  0.00     0.000 HD 
HETATM   20  H1  UNL     1     -14.274  11.721  72.562  1.00  0.00     0.000 HD 
HETATM   21  C   UNL     1     -12.548   8.194  71.607  1.00  0.00    -0.347 A  
ENDBRANCH  10  13
ENDBRANCH   7  10
TORSDOF 2
ENDMDL
MODEL      135
REMARK 921   NORMALIZED FREE ENERGY PREDICTED BY IDOCK:   -3.95 KCAL/MOL
REMARK 922        TOTAL FREE ENERGY PREDICTED BY IDOCK:   -4.83 KCAL/MOL
REMARK 923 INTER-LIGAND FREE ENERGY PREDICTED BY IDOCK:   -4.42 KCAL/MOL
REMARK 924 INTRA-LIGAND FREE ENERGY PREDICTED BY IDOCK:   -0.41 KCAL/MOL
REMARK 927      BINDING AFFINITY PREDICTED BY RF-SCORE:    0.00 PKD
ROOT
HETATM    1  N   UNL     1     -10.824   4.618  65.241  1.00  0.00    -0.727 NA 
HETATM    2  H2  UNL     1     -11.716   4.965  64.890  1.00  0.00     0.000 HD 
HETATM    3  C   UNL     1     -10.351   5.514  66.206  1.00  0.00    -0.163 A  
HETATM    4  H1  UNL     1     -10.241   4.366  64.443  1.00  0.00     0.000 HD 
HETATM    5  C   UNL     1     -11.149   5.859  67.300  1.00  0.00    -0.133 A  
HETATM    6  C   UNL     1     -10.661   6.693  68.311  1.00  0.00    -0.317 A  
HETATM    7  C   UNL     1      -9.346   7.155  68.243  1.00  0.00    -0.130 A  
HETATM    8  C   UNL     1      -9.005   5.892  66.213  1.00  0.00    -0.153 A  
HETATM    9  C   UNL     1      -8.499   6.720  67.220  1.00  0.00    -0.120 A  
ENDROOT
BRANCH   7  10
HETATM   10  S   UNL     1      -8.704   8.195  69.538  1.00  0.00    -0.143 S  
HETATM   11  O   UNL     1      -8.218   7.300  70.574  1.00  0.00    -0.120 OA 
HETATM   12  O   UNL     1      -7.809   9.155  68.921  1.00  0.00    -0.091 OA 
BRANCH  10  13
HETATM   13  C   UNL     1     -10.026   9.146  70.259  1.00  0.00    -0.208 A  
HETATM   14  C   UNL     1     -10.404  10.339  69.635  1.00  0.00    -0.281 A  
HETATM   15  C   UNL     1     -11.466  11.085  70.147  1.00  0.00    -0.383 A  
HETATM   16  C   UNL     1     -12.133  10.679  71.307  1.00  0.00    -0.299 A  
HETATM   17  N   UNL     1     -13.285  11.354  71.724  1.00  0.00    -0.439 NA 
HETATM   18  C   UNL     1     -11.775   9.460  71.893  1.00  0.00    -0.376 A  
HETATM   19  H2  UNL     1     -13.953  11.358  70.952  1.00  0.00     0.000 HD 
HETATM   20  H1  UNL     1     -13.771  11.058  72.570  1.00  0.00     0.000 HD 
HETATM   21  C   UNL     1     -10.709   8.700  71.391  1.00  0.00    -0.338 A  
ENDBRANCH  10  13
ENDBRANCH   7  10
TORSDOF 2
ENDMDL
MODEL      136
REMARK 921   NORMALIZED FREE ENERGY PREDICTED BY IDOCK:   -3.94 KCAL/MOL
REMARK 922        TOTAL FREE ENERGY PREDICTED BY IDOCK:   -4.83 KCAL/MOL
REMARK 923 INTER-LIGAND FREE ENERGY PREDICTED BY IDOCK:   -4.43 KCAL/MOL
REMARK 924 INTRA-LIGAND FREE ENERGY PREDICTED BY IDOCK:   -0.40 KCAL/MOL
REMARK 927      BINDING AFFINITY PREDICTED BY RF-SCORE:    0.00 PKD
ROOT
HETATM    1  N   UNL     1     -11.337   6.611  67.609  1.00  0.00    -0.697 NA 
HETATM    2  H2  UNL     1     -12.320   6.844  67.751  1.00  0.00     0.000 HD 
HETATM    3  C   UNL     1     -10.606   7.803  67.550  1.00  0.00    -0.248 A  
HETATM    4  H1  UNL     1     -11.275   5.931  66.851  1.00  0.00     0.000 HD 
HETATM    5  C   UNL     1     -10.690   8.734  68.589  1.00  0.00    -0.109 A  
HETATM    6  C   UNL     1      -9.907   9.893  68.580  1.00  0.00    -0.168 A  
HETATM    7  C   UNL     1      -9.001  10.100  67.538  1.00  0.00    -0.131 A  
HETATM    8  C   UNL     1      -9.615   7.971  66.579  1.00  0.00    -0.295 A  
HETATM    9  C   UNL     1      -8.818   9.120  66.560  1.00  0.00    -0.156 A  
ENDROOT
BRANCH   7  10
HETATM   10  S   UNL     1      -7.979  11.558  67.531  1.00  0.00    -0.141 S  
HETATM   11  O   UNL     1      -7.858  11.976  68.916  1.00  0.00    -0.075 OA 
HETATM   12  O   UNL     1      -6.794  11.253  66.752  1.00  0.00    -0.125 OA 
BRANCH  10  13
HETATM   13  C   UNL     1      -8.811  12.874  66.667  1.00  0.00    -0.091 A  
HETATM   14  C   UNL     1      -9.775  12.539  65.713  1.00  0.00    -0.196 A  
HETATM   15  C   UNL     1     -10.479  13.546  65.051  1.00  0.00    -0.390 A  
HETATM   16  C   UNL     1     -10.200  14.894  65.297  1.00  0.00    -0.373 A  
HETATM   17  N   UNL     1     -11.010  15.889  64.739  1.00  0.00    -0.692 NA 
HETATM   18  C   UNL     1      -9.266  15.215  66.289  1.00  0.00    -0.336 A  
HETATM   19  H2  UNL     1     -11.977  15.705  65.007  1.00  0.00     0.000 HD 
HETATM   20  H1  UNL     1     -10.807  16.872  64.918  1.00  0.00     0.000 HD 
HETATM   21  C   UNL     1      -8.551  14.213  66.961  1.00  0.00    -0.204 A  
ENDBRANCH  10  13
ENDBRANCH   7  10
TORSDOF 2
ENDMDL
MODEL      137
REMARK 921   NORMALIZED FREE ENERGY PREDICTED BY IDOCK:   -3.94 KCAL/MOL
REMARK 922        TOTAL FREE ENERGY PREDICTED BY IDOCK:   -4.83 KCAL/MOL
REMARK 923 INTER-LIGAND FREE ENERGY PREDICTED BY IDOCK:   -4.43 KCAL/MOL
REMARK 924 INTRA-LIGAND FREE ENERGY PREDICTED BY IDOCK:   -0.39 KCAL/MOL
REMARK 927      BINDING AFFINITY PREDICTED BY RF-SCORE:    0.00 PKD
ROOT
HETATM    1  N   UNL     1     -10.980   5.522  65.997  1.00  0.00    -0.736 NA 
HETATM    2  H2  UNL     1     -10.127   5.605  65.445  1.00  0.00     0.000 HD 
HETATM    3  C   UNL     1     -10.853   6.331  67.132  1.00  0.00    -0.381 A  
HETATM    4  H1  UNL     1     -11.204   4.531  66.095  1.00  0.00     0.000 HD 
HETATM    5  C   UNL     1     -10.547   7.689  66.998  1.00  0.00    -0.406 A  
HETATM    6  C   UNL     1     -10.492   8.525  68.118  1.00  0.00    -0.236 A  
HETATM    7  C   UNL     1     -10.785   8.004  69.379  1.00  0.00    -0.159 A  
HETATM    8  C   UNL     1     -11.253   5.855  68.383  1.00  0.00     0.027 A  
HETATM    9  C   UNL     1     -11.211   6.680  69.511  1.00  0.00    -0.383 A  
ENDROOT
BRANCH   7  10
HETATM   10  S   UNL     1     -10.746   9.066  70.807  1.00  0.00    -0.264 S  
HETATM   11  O   UNL     1     -10.607  10.420  70.303  1.00  0.00    -0.262 OA 
HETATM   12  O   UNL     1     -11.875   8.709  71.645  1.00  0.00    -0.285 OA 
BRANCH  10  13
HETATM   13  C   UNL     1      -9.289   8.725  71.773  1.00  0.00    -0.280 A  
HETATM   14  C   UNL     1      -9.451   8.236  73.073  1.00  0.00    -0.298 A  
HETATM   15  C   UNL     1      -8.330   7.915  73.840  1.00  0.00    -0.300 A  
HETATM   16  C   UNL     1      -7.040   8.119  73.343  1.00  0.00    -0.131 A  
HETATM   17  N   UNL     1      -5.932   7.658  74.062  1.00  0.00    -0.071 NA 
HETATM   18  C   UNL     1      -6.892   8.565  72.024  1.00  0.00    -0.096 A  
HETATM   19  H2  UNL     1      -6.056   6.661  74.239  1.00  0.00     0.000 HD 
HETATM   20  H1  UNL     1      -4.991   7.807  73.699  1.00  0.00     0.000 HD 
HETATM   21  C   UNL     1      -8.010   8.892  71.241  1.00  0.00    -0.172 A  
ENDBRANCH  10  13
ENDBRANCH   7  10
TORSDOF 2
ENDMDL
MODEL      138
REMARK 921   NORMALIZED FREE ENERGY PREDICTED BY IDOCK:   -3.90 KCAL/MOL
REMARK 922        TOTAL FREE ENERGY PREDICTED BY IDOCK:   -4.78 KCAL/MOL
REMARK 923 INTER-LIGAND FREE ENERGY PREDICTED BY IDOCK:   -4.56 KCAL/MOL
REMARK 924 INTRA-LIGAND FREE ENERGY PREDICTED BY IDOCK:   -0.23 KCAL/MOL
REMARK 927      BINDING AFFINITY PREDICTED BY RF-SCORE:    0.00 PKD
ROOT
HETATM    1  N   UNL     1      -8.261   9.739  65.018  1.00  0.00    -0.135 NA 
HETATM    2  H2  UNL     1      -8.555   9.243  64.178  1.00  0.00     0.000 HD 
HETATM    3  C   UNL     1      -8.655   8.990  66.133  1.00  0.00    -0.135 A  
HETATM    4  H1  UNL     1      -8.542  10.716  64.929  1.00  0.00     0.000 HD 
HETATM    5  C   UNL     1      -8.269   7.652  66.255  1.00  0.00    -0.120 A  
HETATM    6  C   UNL     1      -8.591   6.914  67.399  1.00  0.00    -0.121 A  
HETATM    7  C   UNL     1      -9.272   7.536  68.447  1.00  0.00    -0.139 A  
HETATM    8  C   UNL     1      -9.233   9.624  67.236  1.00  0.00    -0.154 A  
HETATM    9  C   UNL     1      -9.554   8.902  68.390  1.00  0.00    -0.157 A  
ENDROOT
BRANCH   7  10
HETATM   10  S   UNL     1      -9.662   6.614  69.919  1.00  0.00    -0.157 S  
HETATM   11  O   UNL     1     -10.065   5.291  69.476  1.00  0.00    -0.207 OA 
HETATM   12  O   UNL     1      -8.549   6.770  70.837  1.00  0.00    -0.135 OA 
BRANCH  10  13
HETATM   13  C   UNL     1     -11.073   7.337  70.729  1.00  0.00    -0.266 A  
HETATM   14  C   UNL     1     -12.283   6.636  70.710  1.00  0.00    -0.302 A  
HETATM   15  C   UNL     1     -13.396   7.153  71.374  1.00  0.00    -0.380 A  
HETATM   16  C   UNL     1     -13.333   8.390  72.023  1.00  0.00    -0.343 A  
HETATM   17  N   UNL     1     -14.408   8.825  72.806  1.00  0.00    -1.038 NA 
HETATM   18  C   UNL     1     -12.104   9.057  72.074  1.00  0.00    -0.440 A  
HETATM   19  H2  UNL     1     -14.612   8.105  73.500  1.00  0.00     0.000 HD 
HETATM   20  H1  UNL     1     -14.361   9.727  73.279  1.00  0.00     0.000 HD 
HETATM   21  C   UNL     1     -10.977   8.551  71.410  1.00  0.00    -0.329 A  
ENDBRANCH  10  13
ENDBRANCH   7  10
TORSDOF 2
ENDMDL
MODEL      139
REMARK 921   NORMALIZED FREE ENERGY PREDICTED BY IDOCK:   -3.90 KCAL/MOL
REMARK 922        TOTAL FREE ENERGY PREDICTED BY IDOCK:   -4.78 KCAL/MOL
REMARK 923 INTER-LIGAND FREE ENERGY PREDICTED BY IDOCK:   -4.34 KCAL/MOL
REMARK 924 INTRA-LIGAND FREE ENERGY PREDICTED BY IDOCK:   -0.44 KCAL/MOL
REMARK 927      BINDING AFFINITY PREDICTED BY RF-SCORE:    0.00 PKD
ROOT
HETATM    1  N   UNL     1     -10.605  10.920  63.629  1.00  0.00    -0.545 NA 
HETATM    2  H2  UNL     1     -10.454  11.904  63.411  1.00  0.00     0.000 HD 
HETATM    3  C   UNL     1     -10.328  10.722  64.987  1.00  0.00    -0.287 A  
HETATM    4  H1  UNL     1     -10.134  10.358  62.921  1.00  0.00     0.000 HD 
HETATM    5  C   UNL     1     -10.974  11.492  65.958  1.00  0.00    -0.316 A  
HETATM    6  C   UNL     1     -10.764  11.254  67.320  1.00  0.00    -0.295 A  
HETATM    7  C   UNL     1      -9.928  10.207  67.712  1.00  0.00    -0.168 A  
HETATM    8  C   UNL     1      -9.588   9.610  65.397  1.00  0.00    -0.361 A  
HETATM    9  C   UNL     1      -9.375   9.353  66.755  1.00  0.00    -0.202 A  
ENDROOT
BRANCH   7  10
HETATM   10  S   UNL     1      -9.676   9.876  69.443  1.00  0.00    -0.226 S  
HETATM   11  O   UNL     1      -8.335  10.337  69.753  1.00  0.00    -0.165 OA 
HETATM   12  O   UNL     1     -10.818  10.412  70.158  1.00  0.00    -0.283 OA 
BRANCH  10  13
HETATM   13  C   UNL     1      -9.696   8.118  69.731  1.00  0.00    -0.173 A  
HETATM   14  C   UNL     1     -10.916   7.443  69.641  1.00  0.00    -0.186 A  
HETATM   15  C   UNL     1     -10.960   6.059  69.815  1.00  0.00    -0.471 A  
HETATM   16  C   UNL     1      -9.802   5.340  70.124  1.00  0.00    -0.220 A  
HETATM   17  N   UNL     1      -9.833   3.941  70.150  1.00  0.00    -0.167 NA 
HETATM   18  C   UNL     1      -8.580   6.022  70.164  1.00  0.00    -0.135 A  
HETATM   19  H2  UNL     1     -10.189   3.610  69.253  1.00  0.00     0.000 HD 
HETATM   20  H1  UNL     1      -8.988   3.417  70.376  1.00  0.00     0.000 HD 
HETATM   21  C   UNL     1      -8.521   7.412  69.993  1.00  0.00    -0.138 A  
ENDBRANCH  10  13
ENDBRANCH   7  10
TORSDOF 2
ENDMDL
MODEL      140
REMARK 921   NORMALIZED FREE ENERGY PREDICTED BY IDOCK:   -3.90 KCAL/MOL
REMARK 922        TOTAL FREE ENERGY PREDICTED BY IDOCK:   -4.78 KCAL/MOL
REMARK 923 INTER-LIGAND FREE ENERGY PREDICTED BY IDOCK:   -4.36 KCAL/MOL
REMARK 924 INTRA-LIGAND FREE ENERGY PREDICTED BY IDOCK:   -0.42 KCAL/MOL
REMARK 927      BINDING AFFINITY PREDICTED BY RF-SCORE:    0.00 PKD
ROOT
HETATM    1  N   UNL     1     -11.119  14.820  64.210  1.00  0.00    -0.606 NA 
HETATM    2  H2  UNL     1     -12.004  14.755  63.708  1.00  0.00     0.000 HD 
HETATM    3  C   UNL     1     -10.788  13.547  64.687  1.00  0.00    -0.405 A  
HETATM    4  H1  UNL     1     -11.172  15.612  64.850  1.00  0.00     0.000 HD 
HETATM    5  C   UNL     1     -10.716  12.462  63.809  1.00  0.00    -0.492 A  
HETATM    6  C   UNL     1     -10.312  11.200  64.259  1.00  0.00    -0.413 A  
HETATM    7  C   UNL     1      -9.938  11.035  65.594  1.00  0.00    -0.248 A  
HETATM    8  C   UNL     1     -10.303  13.390  65.988  1.00  0.00    -0.297 A  
HETATM    9  C   UNL     1      -9.888  12.137  66.451  1.00  0.00    -0.242 A  
ENDROOT
BRANCH   7  10
HETATM   10  S   UNL     1      -9.395   9.441  66.171  1.00  0.00    -0.225 S  
HETATM   11  O   UNL     1     -10.598   8.686  66.473  1.00  0.00    -0.199 OA 
HETATM   12  O   UNL     1      -8.436   8.935  65.207  1.00  0.00    -0.149 OA 
BRANCH  10  13
HETATM   13  C   UNL     1      -8.505   9.624  67.702  1.00  0.00    -0.125 A  
HETATM   14  C   UNL     1      -9.183   9.377  68.899  1.00  0.00    -0.140 A  
HETATM   15  C   UNL     1      -8.503   9.466  70.115  1.00  0.00    -0.224 A  
HETATM   16  C   UNL     1      -7.158   9.846  70.157  1.00  0.00    -0.145 A  
HETATM   17  N   UNL     1      -6.452   9.789  71.363  1.00  0.00    -0.311 NA 
HETATM   18  C   UNL     1      -6.480  10.045  68.948  1.00  0.00    -0.048 A  
HETATM   19  H2  UNL     1      -6.533   8.843  71.739  1.00  0.00     0.000 HD 
HETATM   20  H1  UNL     1      -5.471  10.066  71.393  1.00  0.00     0.000 HD 
HETATM   21  C   UNL     1      -7.151   9.960  67.719  1.00  0.00    -0.087 A  
ENDBRANCH  10  13
ENDBRANCH   7  10
TORSDOF 2
ENDMDL
MODEL      141
REMARK 921   NORMALIZED FREE ENERGY PREDICTED BY IDOCK:   -3.88 KCAL/MOL
REMARK 922        TOTAL FREE ENERGY PREDICTED BY IDOCK:   -4.76 KCAL/MOL
REMARK 923 INTER-LIGAND FREE ENERGY PREDICTED BY IDOCK:   -4.49 KCAL/MOL
REMARK 924 INTRA-LIGAND FREE ENERGY PREDICTED BY IDOCK:   -0.27 KCAL/MOL
REMARK 927      BINDING AFFINITY PREDICTED BY RF-SCORE:    0.00 PKD
ROOT
HETATM    1  N   UNL     1      -9.021  17.985  66.874  1.00  0.00    -0.255 NA 
HETATM    2  H2  UNL     1      -8.078  18.138  66.516  1.00  0.00     0.000 HD 
HETATM    3  C   UNL     1      -9.494  16.772  66.361  1.00  0.00    -0.282 A  
HETATM    4  H1  UNL     1      -9.557  18.843  66.744  1.00  0.00     0.000 HD 
HETATM    5  C   UNL     1      -8.760  15.596  66.540  1.00  0.00    -0.342 A  
HETATM    6  C   UNL     1      -9.258  14.365  66.100  1.00  0.00    -0.152 A  
HETATM    7  C   UNL     1     -10.522  14.307  65.510  1.00  0.00    -0.346 A  
HETATM    8  C   UNL     1     -10.801  16.678  65.875  1.00  0.00    -0.067 A  
HETATM    9  C   UNL     1     -11.317  15.454  65.438  1.00  0.00    -0.197 A  
ENDROOT
BRANCH   7  10
HETATM   10  S   UNL     1     -11.177  12.742  64.973  1.00  0.00    -0.310 S  
HETATM   11  O   UNL     1     -12.570  12.723  65.383  1.00  0.00    -0.607 OA 
HETATM   12  O   UNL     1     -10.824  12.580  63.575  1.00  0.00    -0.440 OA 
BRANCH  10  13
HETATM   13  C   UNL     1     -10.366  11.417  65.843  1.00  0.00    -0.250 A  
HETATM   14  C   UNL     1      -9.728  10.423  65.096  1.00  0.00    -0.353 A  
HETATM   15  C   UNL     1      -9.044   9.395  65.747  1.00  0.00    -0.249 A  
HETATM   16  C   UNL     1      -9.025   9.319  67.143  1.00  0.00    -0.126 A  
HETATM   17  N   UNL     1      -8.216   8.373  67.781  1.00  0.00    -0.125 NA 
HETATM   18  C   UNL     1      -9.628  10.347  67.878  1.00  0.00    -0.157 A  
HETATM   19  H2  UNL     1      -7.258   8.493  67.451  1.00  0.00     0.000 HD 
HETATM   20  H1  UNL     1      -8.203   8.318  68.799  1.00  0.00     0.000 HD 
HETATM   21  C   UNL     1     -10.320  11.385  67.237  1.00  0.00    -0.230 A  
ENDBRANCH  10  13
ENDBRANCH   7  10
TORSDOF 2
ENDMDL
MODEL      142
REMARK 921   NORMALIZED FREE ENERGY PREDICTED BY IDOCK:   -3.86 KCAL/MOL
REMARK 922        TOTAL FREE ENERGY PREDICTED BY IDOCK:   -4.74 KCAL/MOL
REMARK 923 INTER-LIGAND FREE ENERGY PREDICTED BY IDOCK:   -4.47 KCAL/MOL
REMARK 924 INTRA-LIGAND FREE ENERGY PREDICTED BY IDOCK:   -0.26 KCAL/MOL
REMARK 927      BINDING AFFINITY PREDICTED BY RF-SCORE:    0.00 PKD
ROOT
HETATM    1  N   UNL     1      -7.930   6.555  65.513  1.00  0.00    -0.111 NA 
HETATM    2  H2  UNL     1      -6.919   6.646  65.411  1.00  0.00     0.000 HD 
HETATM    3  C   UNL     1      -8.505   7.820  65.346  1.00  0.00    -0.110 A  
HETATM    4  H1  UNL     1      -8.119   6.011  66.355  1.00  0.00     0.000 HD 
HETATM    5  C   UNL     1      -8.246   8.565  64.193  1.00  0.00    -0.141 A  
HETATM    6  C   UNL     1      -8.874   9.796  63.977  1.00  0.00    -0.258 A  
HETATM    7  C   UNL     1      -9.801  10.266  64.910  1.00  0.00    -0.336 A  
HETATM    8  C   UNL     1      -9.517   8.250  66.208  1.00  0.00    -0.271 A  
HETATM    9  C   UNL     1     -10.160   9.475  66.003  1.00  0.00    -0.319 A  
ENDROOT
BRANCH   7  10
HETATM   10  S   UNL     1     -10.628  11.818  64.632  1.00  0.00    -0.327 S  
HETATM   11  O   UNL     1      -9.796  12.561  63.702  1.00  0.00    -0.323 OA 
HETATM   12  O   UNL     1     -12.009  11.521  64.301  1.00  0.00    -0.151 OA 
BRANCH  10  13
HETATM   13  C   UNL     1     -10.674  12.756  66.145  1.00  0.00    -0.275 A  
HETATM   14  C   UNL     1      -9.882  13.904  66.240  1.00  0.00    -0.318 A  
HETATM   15  C   UNL     1      -9.930  14.688  67.394  1.00  0.00    -0.231 A  
HETATM   16  C   UNL     1     -10.728  14.316  68.480  1.00  0.00    -0.255 A  
HETATM   17  N   UNL     1     -10.879  15.184  69.566  1.00  0.00    -0.252 NA 
HETATM   18  C   UNL     1     -11.551  13.191  68.352  1.00  0.00    -0.372 A  
HETATM   19  H2  UNL     1     -11.209  16.084  69.216  1.00  0.00     0.000 HD 
HETATM   20  H1  UNL     1     -11.461  14.912  70.359  1.00  0.00     0.000 HD 
HETATM   21  C   UNL     1     -11.512  12.393  67.199  1.00  0.00    -0.423 A  
ENDBRANCH  10  13
ENDBRANCH   7  10
TORSDOF 2
ENDMDL
MODEL      143
REMARK 921   NORMALIZED FREE ENERGY PREDICTED BY IDOCK:   -3.86 KCAL/MOL
REMARK 922        TOTAL FREE ENERGY PREDICTED BY IDOCK:   -4.73 KCAL/MOL
REMARK 923 INTER-LIGAND FREE ENERGY PREDICTED BY IDOCK:   -4.34 KCAL/MOL
REMARK 924 INTRA-LIGAND FREE ENERGY PREDICTED BY IDOCK:   -0.39 KCAL/MOL
REMARK 927      BINDING AFFINITY PREDICTED BY RF-SCORE:    0.00 PKD
ROOT
HETATM    1  N   UNL     1      -7.620  10.791  64.567  1.00  0.00    -0.341 NA 
HETATM    2  H2  UNL     1      -8.067  11.688  64.753  1.00  0.00     0.000 HD 
HETATM    3  C   UNL     1      -8.175   9.836  65.426  1.00  0.00    -0.131 A  
HETATM    4  H1  UNL     1      -6.610  10.935  64.542  1.00  0.00     0.000 HD 
HETATM    5  C   UNL     1      -9.558   9.638  65.460  1.00  0.00    -0.351 A  
HETATM    6  C   UNL     1     -10.120   8.635  66.257  1.00  0.00    -0.215 A  
HETATM    7  C   UNL     1      -9.284   7.796  66.995  1.00  0.00    -0.145 A  
HETATM    8  C   UNL     1      -7.350   8.917  66.080  1.00  0.00    -0.090 A  
HETATM    9  C   UNL     1      -7.896   7.903  66.874  1.00  0.00    -0.104 A  
ENDROOT
BRANCH   7  10
HETATM   10  S   UNL     1      -9.986   6.497  67.990  1.00  0.00    -0.143 S  
HETATM   11  O   UNL     1     -11.020   5.878  67.179  1.00  0.00    -0.295 OA 
HETATM   12  O   UNL     1      -8.888   5.703  68.506  1.00  0.00    -0.109 OA 
BRANCH  10  13
HETATM   13  C   UNL     1     -10.799   7.198  69.411  1.00  0.00    -0.206 A  
HETATM   14  C   UNL     1     -11.767   6.433  70.069  1.00  0.00    -0.345 A  
HETATM   15  C   UNL     1     -12.390   6.934  71.213  1.00  0.00    -0.422 A  
HETATM   16  C   UNL     1     -12.091   8.214  71.688  1.00  0.00    -0.304 A  
HETATM   17  N   UNL     1     -12.611   8.644  72.914  1.00  0.00    -0.574 NA 
HETATM   18  C   UNL     1     -11.087   8.950  71.048  1.00  0.00    -0.340 A  
HETATM   19  H2  UNL     1     -12.351   7.965  73.630  1.00  0.00     0.000 HD 
HETATM   20  H1  UNL     1     -12.393   9.578  73.261  1.00  0.00     0.000 HD 
HETATM   21  C   UNL     1     -10.454   8.460  69.897  1.00  0.00    -0.222 A  
ENDBRANCH  10  13
ENDBRANCH   7  10
TORSDOF 2
ENDMDL
MODEL      144
REMARK 921   NORMALIZED FREE ENERGY PREDICTED BY IDOCK:   -3.84 KCAL/MOL
REMARK 922        TOTAL FREE ENERGY PREDICTED BY IDOCK:   -4.71 KCAL/MOL
REMARK 923 INTER-LIGAND FREE ENERGY PREDICTED BY IDOCK:   -4.33 KCAL/MOL
REMARK 924 INTRA-LIGAND FREE ENERGY PREDICTED BY IDOCK:   -0.39 KCAL/MOL
REMARK 927      BINDING AFFINITY PREDICTED BY RF-SCORE:    0.00 PKD
ROOT
HETATM    1  N   UNL     1      -8.306   4.724  65.893  1.00  0.00    -0.114 NA 
HETATM    2  H2  UNL     1      -7.514   4.170  66.216  1.00  0.00     0.000 HD 
HETATM    3  C   UNL     1      -8.852   5.395  66.993  1.00  0.00    -0.110 A  
HETATM    4  H1  UNL     1      -8.895   4.131  65.308  1.00  0.00     0.000 HD 
HETATM    5  C   UNL     1      -8.045   6.208  67.794  1.00  0.00    -0.113 A  
HETATM    6  C   UNL     1      -8.592   6.944  68.850  1.00  0.00    -0.131 A  
HETATM    7  C   UNL     1      -9.968   6.896  69.080  1.00  0.00    -0.162 A  
HETATM    8  C   UNL     1     -10.237   5.448  67.166  1.00  0.00    -0.266 A  
HETATM    9  C   UNL     1     -10.801   6.186  68.212  1.00  0.00    -0.387 A  
ENDROOT
BRANCH   7  10
HETATM   10  S   UNL     1     -10.678   7.851  70.404  1.00  0.00    -0.235 S  
HETATM   11  O   UNL     1     -11.953   7.229  70.714  1.00  0.00    -0.314 OA 
HETATM   12  O   UNL     1      -9.664   7.992  71.431  1.00  0.00    -0.158 OA 
BRANCH  10  13
HETATM   13  C   UNL     1     -11.035   9.500  69.834  1.00  0.00    -0.238 A  
HETATM   14  C   UNL     1     -10.640   9.857  68.542  1.00  0.00    -0.248 A  
HETATM   15  C   UNL     1     -10.945  11.126  68.047  1.00  0.00    -0.307 A  
HETATM   16  C   UNL     1     -11.604  12.066  68.844  1.00  0.00    -0.321 A  
HETATM   17  N   UNL     1     -12.033  13.277  68.289  1.00  0.00    -0.339 NA 
HETATM   18  C   UNL     1     -12.036  11.679  70.119  1.00  0.00    -0.441 A  
HETATM   19  H2  UNL     1     -12.620  13.071  67.481  1.00  0.00     0.000 HD 
HETATM   20  H1  UNL     1     -12.513  13.963  68.872  1.00  0.00     0.000 HD 
HETATM   21  C   UNL     1     -11.735  10.408  70.629  1.00  0.00    -0.444 A  
ENDBRANCH  10  13
ENDBRANCH   7  10
TORSDOF 2
ENDMDL
MODEL      145
REMARK 921   NORMALIZED FREE ENERGY PREDICTED BY IDOCK:   -3.82 KCAL/MOL
REMARK 922        TOTAL FREE ENERGY PREDICTED BY IDOCK:   -4.70 KCAL/MOL
REMARK 923 INTER-LIGAND FREE ENERGY PREDICTED BY IDOCK:   -4.29 KCAL/MOL
REMARK 924 INTRA-LIGAND FREE ENERGY PREDICTED BY IDOCK:   -0.40 KCAL/MOL
REMARK 927      BINDING AFFINITY PREDICTED BY RF-SCORE:    0.00 PKD
ROOT
HETATM    1  N   UNL     1     -11.787  15.738  68.515  1.00  0.00    -0.469 NA 
HETATM    2  H2  UNL     1     -12.540  15.747  69.203  1.00  0.00     0.000 HD 
HETATM    3  C   UNL     1     -11.257  14.445  68.459  1.00  0.00    -0.265 A  
HETATM    4  H1  UNL     1     -11.179  16.536  68.696  1.00  0.00     0.000 HD 
HETATM    5  C   UNL     1     -12.090  13.351  68.210  1.00  0.00    -0.271 A  
HETATM    6  C   UNL     1     -11.563  12.062  68.076  1.00  0.00    -0.407 A  
HETATM    7  C   UNL     1     -10.182  11.875  68.151  1.00  0.00    -0.199 A  
HETATM    8  C   UNL     1      -9.873  14.255  68.417  1.00  0.00    -0.233 A  
HETATM    9  C   UNL     1      -9.329  12.974  68.276  1.00  0.00    -0.199 A  
ENDROOT
BRANCH   7  10
HETATM   10  S   UNL     1      -9.498  10.243  67.952  1.00  0.00    -0.142 S  
HETATM   11  O   UNL     1     -10.124   9.682  66.768  1.00  0.00    -0.208 OA 
HETATM   12  O   UNL     1      -8.054  10.366  68.028  1.00  0.00    -0.108 OA 
BRANCH  10  13
HETATM   13  C   UNL     1      -9.978   9.216  69.325  1.00  0.00    -0.187 A  
HETATM   14  C   UNL     1     -10.502   7.948  69.056  1.00  0.00    -0.210 A  
HETATM   15  C   UNL     1     -10.846   7.099  70.109  1.00  0.00    -0.279 A  
HETATM   16  C   UNL     1     -10.715   7.517  71.437  1.00  0.00    -0.223 A  
HETATM   17  N   UNL     1     -10.923   6.608  72.480  1.00  0.00    -0.237 NA 
HETATM   18  C   UNL     1     -10.145   8.770  71.692  1.00  0.00    -0.390 A  
HETATM   19  H2  UNL     1     -10.312   5.804  72.332  1.00  0.00     0.000 HD 
HETATM   20  H1  UNL     1     -10.828   6.913  73.448  1.00  0.00     0.000 HD 
HETATM   21  C   UNL     1      -9.797   9.634  70.644  1.00  0.00    -0.268 A  
ENDBRANCH  10  13
ENDBRANCH   7  10
TORSDOF 2
ENDMDL
MODEL      146
REMARK 921   NORMALIZED FREE ENERGY PREDICTED BY IDOCK:   -3.82 KCAL/MOL
REMARK 922        TOTAL FREE ENERGY PREDICTED BY IDOCK:   -4.69 KCAL/MOL
REMARK 923 INTER-LIGAND FREE ENERGY PREDICTED BY IDOCK:   -4.28 KCAL/MOL
REMARK 924 INTRA-LIGAND FREE ENERGY PREDICTED BY IDOCK:   -0.41 KCAL/MOL
REMARK 927      BINDING AFFINITY PREDICTED BY RF-SCORE:    0.00 PKD
ROOT
HETATM    1  N   UNL     1      -6.675  11.597  68.140  1.00  0.00    -0.061 NA 
HETATM    2  H2  UNL     1      -6.288  11.654  69.082  1.00  0.00     0.000 HD 
HETATM    3  C   UNL     1      -7.399  12.767  67.889  1.00  0.00    -0.120 A  
HETATM    4  H1  UNL     1      -7.117  10.684  68.030  1.00  0.00     0.000 HD 
HETATM    5  C   UNL     1      -6.793  14.018  68.040  1.00  0.00    -0.148 A  
HETATM    6  C   UNL     1      -7.482  15.192  67.719  1.00  0.00    -0.179 A  
HETATM    7  C   UNL     1      -8.777  15.110  67.205  1.00  0.00    -0.216 A  
HETATM    8  C   UNL     1      -8.649  12.699  67.268  1.00  0.00    -0.196 A  
HETATM    9  C   UNL     1      -9.347  13.864  66.934  1.00  0.00    -0.265 A  
ENDROOT
BRANCH   7  10
HETATM   10  S   UNL     1      -9.652  16.597  66.766  1.00  0.00    -0.270 S  
HETATM   11  O   UNL     1      -9.900  16.515  65.338  1.00  0.00    -0.530 OA 
HETATM   12  O   UNL     1     -10.757  16.740  67.694  1.00  0.00    -0.339 OA 
BRANCH  10  13
HETATM   13  C   UNL     1      -8.603  18.013  67.026  1.00  0.00    -0.245 A  
HETATM   14  C   UNL     1      -8.649  18.656  68.266  1.00  0.00    -0.347 A  
HETATM   15  C   UNL     1      -7.807  19.740  68.519  1.00  0.00    -0.310 A  
HETATM   16  C   UNL     1      -6.947  20.224  67.529  1.00  0.00    -0.283 A  
HETATM   17  N   UNL     1      -6.007  21.212  67.842  1.00  0.00    -0.343 NA 
HETATM   18  C   UNL     1      -6.877  19.542  66.309  1.00  0.00    -0.229 A  
HETATM   19  H2  UNL     1      -5.444  20.885  68.628  1.00  0.00     0.000 HD 
HETATM   20  H1  UNL     1      -5.380  21.566  67.120  1.00  0.00     0.000 HD 
HETATM   21  C   UNL     1      -7.718  18.452  66.041  1.00  0.00    -0.200 A  
ENDBRANCH  10  13
ENDBRANCH   7  10
TORSDOF 2
ENDMDL
MODEL      147
REMARK 921   NORMALIZED FREE ENERGY PREDICTED BY IDOCK:   -3.79 KCAL/MOL
REMARK 922        TOTAL FREE ENERGY PREDICTED BY IDOCK:   -4.66 KCAL/MOL
REMARK 923 INTER-LIGAND FREE ENERGY PREDICTED BY IDOCK:   -4.25 KCAL/MOL
REMARK 924 INTRA-LIGAND FREE ENERGY PREDICTED BY IDOCK:   -0.42 KCAL/MOL
REMARK 927      BINDING AFFINITY PREDICTED BY RF-SCORE:    0.00 PKD
ROOT
HETATM    1  N   UNL     1     -11.516   4.851  73.688  1.00  0.00    -0.414 NA 
HETATM    2  H2  UNL     1     -10.670   4.733  74.245  1.00  0.00     0.000 HD 
HETATM    3  C   UNL     1     -11.155   5.390  72.448  1.00  0.00    -0.229 A  
HETATM    4  H1  UNL     1     -12.218   5.313  74.266  1.00  0.00     0.000 HD 
HETATM    5  C   UNL     1     -10.193   4.757  71.657  1.00  0.00    -0.249 A  
HETATM    6  C   UNL     1      -9.879   5.243  70.383  1.00  0.00    -0.281 A  
HETATM    7  C   UNL     1     -10.564   6.351  69.883  1.00  0.00    -0.243 A  
HETATM    8  C   UNL     1     -11.909   6.425  71.888  1.00  0.00    -0.380 A  
HETATM    9  C   UNL     1     -11.613   6.917  70.613  1.00  0.00    -0.402 A  
ENDROOT
BRANCH   7  10
HETATM   10  S   UNL     1     -10.193   6.960  68.252  1.00  0.00    -0.190 S  
HETATM   11  O   UNL     1      -8.871   6.458  67.922  1.00  0.00    -0.115 OA 
HETATM   12  O   UNL     1     -11.327   6.648  67.403  1.00  0.00    -0.299 OA 
BRANCH  10  13
HETATM   13  C   UNL     1     -10.075   8.737  68.284  1.00  0.00    -0.188 A  
HETATM   14  C   UNL     1      -9.101   9.325  69.096  1.00  0.00    -0.145 A  
HETATM   15  C   UNL     1      -8.951  10.713  69.109  1.00  0.00    -0.139 A  
HETATM   16  C   UNL     1      -9.795  11.531  68.352  1.00  0.00    -0.204 A  
HETATM   17  N   UNL     1      -9.540  12.903  68.260  1.00  0.00    -0.230 NA 
HETATM   18  C   UNL     1     -10.734  10.926  67.508  1.00  0.00    -0.299 A  
HETATM   19  H2  UNL     1      -8.584  13.032  67.929  1.00  0.00     0.000 HD 
HETATM   20  H1  UNL     1     -10.157  13.500  67.708  1.00  0.00     0.000 HD 
HETATM   21  C   UNL     1     -10.897   9.534  67.486  1.00  0.00    -0.239 A  
ENDBRANCH  10  13
ENDBRANCH   7  10
TORSDOF 2
ENDMDL
MODEL      148
REMARK 921   NORMALIZED FREE ENERGY PREDICTED BY IDOCK:   -3.70 KCAL/MOL
REMARK 922        TOTAL FREE ENERGY PREDICTED BY IDOCK:   -4.56 KCAL/MOL
REMARK 923 INTER-LIGAND FREE ENERGY PREDICTED BY IDOCK:   -4.22 KCAL/MOL
REMARK 924 INTRA-LIGAND FREE ENERGY PREDICTED BY IDOCK:   -0.34 KCAL/MOL
REMARK 927      BINDING AFFINITY PREDICTED BY RF-SCORE:    0.00 PKD
ROOT
HETATM    1  N   UNL     1     -13.573  10.778  72.398  1.00  0.00    -0.428 NA 
HETATM    2  H2  UNL     1     -14.423  11.117  71.949  1.00  0.00     0.000 HD 
HETATM    3  C   UNL     1     -12.765  10.186  71.420  1.00  0.00    -0.425 A  
HETATM    4  H1  UNL     1     -13.838  10.254  73.232  1.00  0.00     0.000 HD 
HETATM    5  C   UNL     1     -12.401  10.904  70.278  1.00  0.00    -0.412 A  
HETATM    6  C   UNL     1     -11.532  10.352  69.330  1.00  0.00    -0.292 A  
HETATM    7  C   UNL     1     -10.991   9.084  69.551  1.00  0.00    -0.106 A  
HETATM    8  C   UNL     1     -12.126   8.970  71.680  1.00  0.00    -0.422 A  
HETATM    9  C   UNL     1     -11.249   8.409  70.747  1.00  0.00    -0.290 A  
ENDROOT
BRANCH   7  10
HETATM   10  S   UNL     1      -9.862   8.385  68.367  1.00  0.00    -0.182 S  
HETATM   11  O   UNL     1      -9.113   7.362  69.075  1.00  0.00    -0.135 OA 
HETATM   12  O   UNL     1     -10.629   8.043  67.184  1.00  0.00    -0.320 OA 
BRANCH  10  13
HETATM   13  C   UNL     1      -8.686   9.619  67.851  1.00  0.00    -0.119 A  
HETATM   14  C   UNL     1      -8.091  10.420  68.829  1.00  0.00    -0.125 A  
HETATM   15  C   UNL     1      -7.131  11.366  68.465  1.00  0.00    -0.085 A  
HETATM   16  C   UNL     1      -6.788  11.557  67.123  1.00  0.00    -0.139 A  
HETATM   17  N   UNL     1      -5.723  12.400  66.787  1.00  0.00    -0.480 NA 
HETATM   18  C   UNL     1      -7.357  10.716  66.159  1.00  0.00    -0.138 A  
HETATM   19  H2  UNL     1      -4.893  12.088  67.291  1.00  0.00     0.000 HD 
HETATM   20  H1  UNL     1      -5.473  12.539  65.807  1.00  0.00     0.000 HD 
HETATM   21  C   UNL     1      -8.324   9.762  66.511  1.00  0.00    -0.124 A  
ENDBRANCH  10  13
ENDBRANCH   7  10
TORSDOF 2
ENDMDL
MODEL      149
REMARK 921   NORMALIZED FREE ENERGY PREDICTED BY IDOCK:   -3.70 KCAL/MOL
REMARK 922        TOTAL FREE ENERGY PREDICTED BY IDOCK:   -4.55 KCAL/MOL
REMARK 923 INTER-LIGAND FREE ENERGY PREDICTED BY IDOCK:   -4.14 KCAL/MOL
REMARK 924 INTRA-LIGAND FREE ENERGY PREDICTED BY IDOCK:   -0.42 KCAL/MOL
REMARK 927      BINDING AFFINITY PREDICTED BY RF-SCORE:    0.00 PKD
ROOT
HETATM    1  N   UNL     1     -11.092  14.929  65.141  1.00  0.00    -0.371 NA 
HETATM    2  H2  UNL     1     -10.317  15.116  64.504  1.00  0.00     0.000 HD 
HETATM    3  C   UNL     1     -10.758  13.821  65.927  1.00  0.00    -0.285 A  
HETATM    4  H1  UNL     1     -11.958  14.936  64.603  1.00  0.00     0.000 HD 
HETATM    5  C   UNL     1      -9.571  13.811  66.665  1.00  0.00    -0.295 A  
HETATM    6  C   UNL     1      -9.261  12.743  67.514  1.00  0.00    -0.191 A  
HETATM    7  C   UNL     1     -10.170  11.694  67.655  1.00  0.00    -0.188 A  
HETATM    8  C   UNL     1     -11.704  12.820  66.168  1.00  0.00    -0.458 A  
HETATM    9  C   UNL     1     -11.413  11.750  67.019  1.00  0.00    -0.368 A  
ENDROOT
BRANCH   7  10
HETATM   10  S   UNL     1      -9.800  10.343  68.754  1.00  0.00    -0.194 S  
HETATM   11  O   UNL     1      -8.470  10.598  69.277  1.00  0.00    -0.150 OA 
HETATM   12  O   UNL     1     -10.926  10.199  69.658  1.00  0.00    -0.232 OA 
BRANCH  10  13
HETATM   13  C   UNL     1      -9.709   8.822  67.833  1.00  0.00    -0.157 A  
HETATM   14  C   UNL     1     -10.370   7.698  68.337  1.00  0.00    -0.228 A  
HETATM   15  C   UNL     1     -10.357   6.503  67.617  1.00  0.00    -0.239 A  
HETATM   16  C   UNL     1      -9.650   6.399  66.415  1.00  0.00    -0.113 A  
HETATM   17  N   UNL     1      -9.767   5.245  65.633  1.00  0.00    -0.342 NA 
HETATM   18  C   UNL     1      -9.033   7.544  65.899  1.00  0.00    -0.128 A  
HETATM   19  H2  UNL     1     -10.756   5.083  65.442  1.00  0.00     0.000 HD 
HETATM   20  H1  UNL     1      -9.252   5.169  64.756  1.00  0.00     0.000 HD 
HETATM   21  C   UNL     1      -9.037   8.752  66.612  1.00  0.00    -0.196 A  
ENDBRANCH  10  13
ENDBRANCH   7  10
TORSDOF 2
ENDMDL
MODEL      150
REMARK 921   NORMALIZED FREE ENERGY PREDICTED BY IDOCK:   -3.67 KCAL/MOL
REMARK 922        TOTAL FREE ENERGY PREDICTED BY IDOCK:   -4.53 KCAL/MOL
REMARK 923 INTER-LIGAND FREE ENERGY PREDICTED BY IDOCK:   -4.14 KCAL/MOL
REMARK 924 INTRA-LIGAND FREE ENERGY PREDICTED BY IDOCK:   -0.39 KCAL/MOL
REMARK 927      BINDING AFFINITY PREDICTED BY RF-SCORE:    0.00 PKD
ROOT
HETATM    1  N   UNL     1      -5.660   4.471  73.403  1.00  0.00    -0.008 NA 
HETATM    2  H2  UNL     1      -5.273   3.612  73.013  1.00  0.00     0.000 HD 
HETATM    3  C   UNL     1      -6.563   5.008  72.479  1.00  0.00    -0.052 A  
HETATM    4  H1  UNL     1      -4.889   5.038  73.758  1.00  0.00     0.000 HD 
HETATM    5  C   UNL     1      -7.619   4.232  71.993  1.00  0.00    -0.075 A  
HETATM    6  C   UNL     1      -8.573   4.779  71.129  1.00  0.00    -0.126 A  
HETATM    7  C   UNL     1      -8.489   6.127  70.779  1.00  0.00    -0.131 A  
HETATM    8  C   UNL     1      -6.560   6.379  72.210  1.00  0.00    -0.059 A  
HETATM    9  C   UNL     1      -7.511   6.943  71.354  1.00  0.00    -0.082 A  
ENDROOT
BRANCH   7  10
HETATM   10  S   UNL     1      -9.713   6.841  69.701  1.00  0.00    -0.154 S  
HETATM   11  O   UNL     1      -9.090   8.002  69.092  1.00  0.00    -0.145 OA 
HETATM   12  O   UNL     1     -10.238   5.772  68.873  1.00  0.00    -0.168 OA 
BRANCH  10  13
HETATM   13  C   UNL     1     -11.088   7.439  70.663  1.00  0.00    -0.266 A  
HETATM   14  C   UNL     1     -11.025   8.738  71.175  1.00  0.00    -0.334 A  
HETATM   15  C   UNL     1     -12.105   9.255  71.894  1.00  0.00    -0.440 A  
HETATM   16  C   UNL     1     -13.235   8.473  72.149  1.00  0.00    -0.352 A  
HETATM   17  N   UNL     1     -14.365   9.048  72.740  1.00  0.00    -1.030 NA 
HETATM   18  C   UNL     1     -13.303   7.191  71.590  1.00  0.00    -0.397 A  
HETATM   19  H2  UNL     1     -14.648   9.852  72.179  1.00  0.00     0.000 HD 
HETATM   20  H1  UNL     1     -15.189   8.477  72.927  1.00  0.00     0.000 HD 
HETATM   21  C   UNL     1     -12.226   6.659  70.867  1.00  0.00    -0.324 A  
ENDBRANCH  10  13
ENDBRANCH   7  10
TORSDOF 2
ENDMDL
MODEL      151
REMARK 921   NORMALIZED FREE ENERGY PREDICTED BY IDOCK:   -3.64 KCAL/MOL
REMARK 922        TOTAL FREE ENERGY PREDICTED BY IDOCK:   -4.50 KCAL/MOL
REMARK 923 INTER-LIGAND FREE ENERGY PREDICTED BY IDOCK:   -4.15 KCAL/MOL
REMARK 924 INTRA-LIGAND FREE ENERGY PREDICTED BY IDOCK:   -0.34 KCAL/MOL
REMARK 927      BINDING AFFINITY PREDICTED BY RF-SCORE:    0.00 PKD
ROOT
HETATM    1  N   UNL     1     -12.403  12.410  70.692  1.00  0.00    -0.333 NA 
HETATM    2  H2  UNL     1     -11.823  12.678  71.487  1.00  0.00     0.000 HD 
HETATM    3  C   UNL     1     -11.709  11.451  69.945  1.00  0.00    -0.346 A  
HETATM    4  H1  UNL     1     -12.748  13.260  70.245  1.00  0.00     0.000 HD 
HETATM    5  C   UNL     1     -11.237  10.287  70.557  1.00  0.00    -0.408 A  
HETATM    6  C   UNL     1     -10.610   9.286  69.807  1.00  0.00    -0.244 A  
HETATM    7  C   UNL     1     -10.491   9.437  68.425  1.00  0.00    -0.218 A  
HETATM    8  C   UNL     1     -11.684  11.533  68.550  1.00  0.00    -0.379 A  
HETATM    9  C   UNL     1     -11.067  10.537  67.786  1.00  0.00    -0.382 A  
ENDROOT
BRANCH   7  10
HETATM   10  S   UNL     1      -9.720   8.156  67.457  1.00  0.00    -0.174 S  
HETATM   11  O   UNL     1      -8.857   7.424  68.367  1.00  0.00    -0.123 OA 
HETATM   12  O   UNL     1     -10.772   7.468  66.733  1.00  0.00    -0.319 OA 
BRANCH  10  13
HETATM   13  C   UNL     1      -8.665   8.885  66.222  1.00  0.00    -0.141 A  
HETATM   14  C   UNL     1      -9.241   9.310  65.021  1.00  0.00    -0.242 A  
HETATM   15  C   UNL     1      -8.451   9.928  64.051  1.00  0.00    -0.183 A  
HETATM   16  C   UNL     1      -7.076  10.088  64.243  1.00  0.00    -0.130 A  
HETATM   17  N   UNL     1      -6.325  10.837  63.331  1.00  0.00    -0.366 NA 
HETATM   18  C   UNL     1      -6.521   9.701  65.469  1.00  0.00    -0.078 A  
HETATM   19  H2  UNL     1      -6.749  11.761  63.246  1.00  0.00     0.000 HD 
HETATM   20  H1  UNL     1      -5.321  10.953  63.471  1.00  0.00     0.000 HD 
HETATM   21  C   UNL     1      -7.303   9.078  66.453  1.00  0.00    -0.088 A  
ENDBRANCH  10  13
ENDBRANCH   7  10
TORSDOF 2
ENDMDL
MODEL      152
REMARK 921   NORMALIZED FREE ENERGY PREDICTED BY IDOCK:   -3.64 KCAL/MOL
REMARK 922        TOTAL FREE ENERGY PREDICTED BY IDOCK:   -4.49 KCAL/MOL
REMARK 923 INTER-LIGAND FREE ENERGY PREDICTED BY IDOCK:   -4.74 KCAL/MOL
REMARK 924 INTRA-LIGAND FREE ENERGY PREDICTED BY IDOCK:    0.25 KCAL/MOL
REMARK 927      BINDING AFFINITY PREDICTED BY RF-SCORE:    0.00 PKD
ROOT
HETATM    1  N   UNL     1      -7.366  21.141  66.848  1.00  0.00    -0.714 NA 
HETATM    2  H2  UNL     1      -6.819  21.315  66.005  1.00  0.00     0.000 HD 
HETATM    3  C   UNL     1      -8.020  19.913  66.704  1.00  0.00    -0.314 A  
HETATM    4  H1  UNL     1      -7.897  21.984  67.066  1.00  0.00     0.000 HD 
HETATM    5  C   UNL     1      -7.292  18.757  66.406  1.00  0.00    -0.268 A  
HETATM    6  C   UNL     1      -7.923  17.510  66.334  1.00  0.00    -0.320 A  
HETATM    7  C   UNL     1      -9.289  17.416  66.603  1.00  0.00    -0.265 A  
HETATM    8  C   UNL     1      -9.359  19.782  67.080  1.00  0.00    -0.458 A  
HETATM    9  C   UNL     1     -10.003  18.542  67.022  1.00  0.00    -0.365 A  
ENDROOT
BRANCH   7  10
HETATM   10  S   UNL     1     -10.096  15.830  66.543  1.00  0.00    -0.297 S  
HETATM   11  O   UNL     1     -11.263  15.936  67.400  1.00  0.00    -0.259 OA 
HETATM   12  O   UNL     1     -10.245  15.472  65.145  1.00  0.00    -0.359 OA 
BRANCH  10  13
HETATM   13  C   UNL     1      -9.041  14.588  67.260  1.00  0.00    -0.209 A  
HETATM   14  C   UNL     1      -7.762  14.964  67.682  1.00  0.00    -0.197 A  
HETATM   15  C   UNL     1      -6.927  14.027  68.291  1.00  0.00    -0.107 A  
HETATM   16  C   UNL     1      -7.335  12.698  68.445  1.00  0.00    -0.118 A  
HETATM   17  N   UNL     1      -6.550  11.808  69.186  1.00  0.00    -0.094 NA 
HETATM   18  C   UNL     1      -8.634  12.347  68.061  1.00  0.00    -0.180 A  
HETATM   19  H2  UNL     1      -6.396  12.208  70.112  1.00  0.00     0.000 HD 
HETATM   20  H1  UNL     1      -6.848  10.839  69.298  1.00  0.00     0.000 HD 
HETATM   21  C   UNL     1      -9.484  13.279  67.447  1.00  0.00    -0.218 A  
ENDBRANCH  10  13
ENDBRANCH   7  10
TORSDOF 2
ENDMDL
MODEL      153
REMARK 921   NORMALIZED FREE ENERGY PREDICTED BY IDOCK:   -3.63 KCAL/MOL
REMARK 922        TOTAL FREE ENERGY PREDICTED BY IDOCK:   -4.48 KCAL/MOL
REMARK 923 INTER-LIGAND FREE ENERGY PREDICTED BY IDOCK:   -4.08 KCAL/MOL
REMARK 924 INTRA-LIGAND FREE ENERGY PREDICTED BY IDOCK:   -0.40 KCAL/MOL
REMARK 927      BINDING AFFINITY PREDICTED BY RF-SCORE:    0.00 PKD
ROOT
HETATM    1  N   UNL     1      -9.818   7.033  72.110  1.00  0.00    -0.155 NA 
HETATM    2  H2  UNL     1     -10.622   6.962  72.733  1.00  0.00     0.000 HD 
HETATM    3  C   UNL     1     -10.154   7.886  71.053  1.00  0.00    -0.192 A  
HETATM    4  H1  UNL     1      -9.474   6.091  71.922  1.00  0.00     0.000 HD 
HETATM    5  C   UNL     1     -10.625   9.176  71.311  1.00  0.00    -0.399 A  
HETATM    6  C   UNL     1     -10.892  10.065  70.264  1.00  0.00    -0.370 A  
HETATM    7  C   UNL     1     -10.646   9.670  68.948  1.00  0.00    -0.217 A  
HETATM    8  C   UNL     1      -9.807   7.549  69.742  1.00  0.00    -0.180 A  
HETATM    9  C   UNL     1     -10.059   8.429  68.685  1.00  0.00    -0.210 A  
ENDROOT
BRANCH   7  10
HETATM   10  S   UNL     1     -10.954  10.803  67.611  1.00  0.00    -0.319 S  
HETATM   11  O   UNL     1     -10.774  10.044  66.386  1.00  0.00    -0.118 OA 
HETATM   12  O   UNL     1     -12.217  11.463  67.883  1.00  0.00    -0.592 OA 
BRANCH  10  13
HETATM   13  C   UNL     1      -9.718  12.085  67.608  1.00  0.00    -0.187 A  
HETATM   14  C   UNL     1      -9.990  13.270  66.919  1.00  0.00    -0.250 A  
HETATM   15  C   UNL     1      -9.062  14.313  66.935  1.00  0.00    -0.268 A  
HETATM   16  C   UNL     1      -7.839  14.172  67.597  1.00  0.00    -0.179 A  
HETATM   17  N   UNL     1      -6.985  15.272  67.729  1.00  0.00    -0.148 NA 
HETATM   18  C   UNL     1      -7.600  12.998  68.322  1.00  0.00    -0.135 A  
HETATM   19  H2  UNL     1      -7.505  16.032  68.169  1.00  0.00     0.000 HD 
HETATM   20  H1  UNL     1      -6.092  15.169  68.212  1.00  0.00     0.000 HD 
HETATM   21  C   UNL     1      -8.523  11.942  68.313  1.00  0.00    -0.161 A  
ENDBRANCH  10  13
ENDBRANCH   7  10
TORSDOF 2
ENDMDL
MODEL      154
REMARK 921   NORMALIZED FREE ENERGY PREDICTED BY IDOCK:   -3.62 KCAL/MOL
REMARK 922        TOTAL FREE ENERGY PREDICTED BY IDOCK:   -4.47 KCAL/MOL
REMARK 923 INTER-LIGAND FREE ENERGY PREDICTED BY IDOCK:   -4.06 KCAL/MOL
REMARK 924 INTRA-LIGAND FREE ENERGY PREDICTED BY IDOCK:   -0.40 KCAL/MOL
REMARK 927      BINDING AFFINITY PREDICTED BY RF-SCORE:    0.00 PKD
ROOT
HETATM    1  N   UNL     1     -12.141   6.837  72.490  1.00  0.00    -0.503 NA 
HETATM    2  H2  UNL     1     -11.769   6.365  73.313  1.00  0.00     0.000 HD 
HETATM    3  C   UNL     1     -11.090   7.503  71.851  1.00  0.00    -0.239 A  
HETATM    4  H1  UNL     1     -12.982   7.345  72.764  1.00  0.00     0.000 HD 
HETATM    5  C   UNL     1      -9.939   6.806  71.474  1.00  0.00    -0.189 A  
HETATM    6  C   UNL     1      -8.913   7.442  70.767  1.00  0.00    -0.151 A  
HETATM    7  C   UNL     1      -9.061   8.780  70.399  1.00  0.00    -0.176 A  
HETATM    8  C   UNL     1     -11.269   8.805  71.376  1.00  0.00    -0.362 A  
HETATM    9  C   UNL     1     -10.257   9.453  70.661  1.00  0.00    -0.353 A  
ENDROOT
BRANCH   7  10
HETATM   10  S   UNL     1      -7.775   9.592  69.474  1.00  0.00    -0.113 S  
HETATM   11  O   UNL     1      -7.115  10.494  70.402  1.00  0.00    -0.273 OA 
HETATM   12  O   UNL     1      -7.016   8.562  68.791  1.00  0.00    -0.061 OA 
BRANCH  10  13
HETATM   13  C   UNL     1      -8.495  10.603  68.197  1.00  0.00    -0.122 A  
HETATM   14  C   UNL     1      -8.213  11.972  68.194  1.00  0.00    -0.163 A  
HETATM   15  C   UNL     1      -8.724  12.785  67.181  1.00  0.00    -0.202 A  
HETATM   16  C   UNL     1      -9.556  12.255  66.190  1.00  0.00    -0.240 A  
HETATM   17  N   UNL     1      -9.939  13.048  65.102  1.00  0.00    -0.488 NA 
HETATM   18  C   UNL     1      -9.792  10.876  66.179  1.00  0.00    -0.268 A  
HETATM   19  H2  UNL     1      -9.096  13.412  64.656  1.00  0.00     0.000 HD 
HETATM   20  H1  UNL     1     -10.546  12.662  64.379  1.00  0.00     0.000 HD 
HETATM   21  C   UNL     1      -9.286  10.047  67.191  1.00  0.00    -0.161 A  
ENDBRANCH  10  13
ENDBRANCH   7  10
TORSDOF 2
ENDMDL
MODEL      155
REMARK 921   NORMALIZED FREE ENERGY PREDICTED BY IDOCK:   -3.54 KCAL/MOL
REMARK 922        TOTAL FREE ENERGY PREDICTED BY IDOCK:   -4.38 KCAL/MOL
REMARK 923 INTER-LIGAND FREE ENERGY PREDICTED BY IDOCK:   -3.98 KCAL/MOL
REMARK 924 INTRA-LIGAND FREE ENERGY PREDICTED BY IDOCK:   -0.40 KCAL/MOL
REMARK 927      BINDING AFFINITY PREDICTED BY RF-SCORE:    0.00 PKD
ROOT
HETATM    1  N   UNL     1      -6.032   4.823  69.581  1.00  0.00    -0.017 NA 
HETATM    2  H2  UNL     1      -5.433   4.597  70.374  1.00  0.00     0.000 HD 
HETATM    3  C   UNL     1      -7.184   5.454  70.064  1.00  0.00    -0.063 A  
HETATM    4  H1  UNL     1      -6.109   3.995  68.990  1.00  0.00     0.000 HD 
HETATM    5  C   UNL     1      -7.080   6.589  70.873  1.00  0.00    -0.069 A  
HETATM    6  C   UNL     1      -8.223   7.273  71.300  1.00  0.00    -0.106 A  
HETATM    7  C   UNL     1      -9.480   6.839  70.879  1.00  0.00    -0.157 A  
HETATM    8  C   UNL     1      -8.440   5.103  69.561  1.00  0.00    -0.093 A  
HETATM    9  C   UNL     1      -9.591   5.782  69.972  1.00  0.00    -0.206 A  
ENDROOT
BRANCH   7  10
HETATM   10  S   UNL     1     -10.940   7.720  71.393  1.00  0.00    -0.238 S  
HETATM   11  O   UNL     1     -12.055   6.812  71.188  1.00  0.00    -0.353 OA 
HETATM   12  O   UNL     1     -10.674   8.268  72.709  1.00  0.00    -0.343 OA 
BRANCH  10  13
HETATM   13  C   UNL     1     -11.210   9.116  70.322  1.00  0.00    -0.218 A  
HETATM   14  C   UNL     1     -10.717   9.058  69.015  1.00  0.00    -0.163 A  
HETATM   15  C   UNL     1     -10.952  10.116  68.135  1.00  0.00    -0.313 A  
HETATM   16  C   UNL     1     -11.637  11.259  68.557  1.00  0.00    -0.315 A  
HETATM   17  N   UNL     1     -11.992  12.244  67.629  1.00  0.00    -0.512 NA 
HETATM   18  C   UNL     1     -12.165  11.284  69.853  1.00  0.00    -0.358 A  
HETATM   19  H2  UNL     1     -12.528  11.804  66.881  1.00  0.00     0.000 HD 
HETATM   20  H1  UNL     1     -12.491  13.078  67.937  1.00  0.00     0.000 HD 
HETATM   21  C   UNL     1     -11.936  10.229  70.748  1.00  0.00    -0.456 A  
ENDBRANCH  10  13
ENDBRANCH   7  10
TORSDOF 2
ENDMDL
MODEL      156
REMARK 921   NORMALIZED FREE ENERGY PREDICTED BY IDOCK:   -3.51 KCAL/MOL
REMARK 922        TOTAL FREE ENERGY PREDICTED BY IDOCK:   -4.34 KCAL/MOL
REMARK 923 INTER-LIGAND FREE ENERGY PREDICTED BY IDOCK:   -3.93 KCAL/MOL
REMARK 924 INTRA-LIGAND FREE ENERGY PREDICTED BY IDOCK:   -0.41 KCAL/MOL
REMARK 927      BINDING AFFINITY PREDICTED BY RF-SCORE:    0.00 PKD
ROOT
HETATM    1  N   UNL     1      -5.907   3.750  69.004  1.00  0.00    -0.022 NA 
HETATM    2  H2  UNL     1      -5.165   3.956  68.336  1.00  0.00     0.000 HD 
HETATM    3  C   UNL     1      -6.504   4.957  69.385  1.00  0.00    -0.035 A  
HETATM    4  H1  UNL     1      -5.536   3.114  69.709  1.00  0.00     0.000 HD 
HETATM    5  C   UNL     1      -7.012   5.829  68.418  1.00  0.00    -0.068 A  
HETATM    6  C   UNL     1      -7.678   7.002  68.789  1.00  0.00    -0.110 A  
HETATM    7  C   UNL     1      -7.872   7.283  70.142  1.00  0.00    -0.100 A  
HETATM    8  C   UNL     1      -6.806   5.197  70.728  1.00  0.00    -0.044 A  
HETATM    9  C   UNL     1      -7.478   6.361  71.115  1.00  0.00    -0.085 A  
ENDROOT
BRANCH   7  10
HETATM   10  S   UNL     1      -8.744   8.758  70.624  1.00  0.00    -0.200 S  
HETATM   11  O   UNL     1      -8.131   9.205  71.863  1.00  0.00    -0.330 OA 
HETATM   12  O   UNL     1      -8.784   9.635  69.470  1.00  0.00    -0.155 OA 
BRANCH  10  13
HETATM   13  C   UNL     1     -10.438   8.361  71.002  1.00  0.00    -0.206 A  
HETATM   14  C   UNL     1     -10.956   7.148  70.541  1.00  0.00    -0.287 A  
HETATM   15  C   UNL     1     -12.266   6.785  70.858  1.00  0.00    -0.386 A  
HETATM   16  C   UNL     1     -13.087   7.643  71.596  1.00  0.00    -0.353 A  
HETATM   17  N   UNL     1     -14.343   7.205  72.031  1.00  0.00    -0.637 NA 
HETATM   18  C   UNL     1     -12.541   8.832  72.091  1.00  0.00    -0.463 A  
HETATM   19  H2  UNL     1     -14.218   6.342  72.561  1.00  0.00     0.000 HD 
HETATM   20  H1  UNL     1     -14.942   7.831  72.569  1.00  0.00     0.000 HD 
HETATM   21  C   UNL     1     -11.227   9.210  71.779  1.00  0.00    -0.451 A  
ENDBRANCH  10  13
ENDBRANCH   7  10
TORSDOF 2
ENDMDL
MODEL      157
REMARK 921   NORMALIZED FREE ENERGY PREDICTED BY IDOCK:   -3.50 KCAL/MOL
REMARK 922        TOTAL FREE ENERGY PREDICTED BY IDOCK:   -4.34 KCAL/MOL
REMARK 923 INTER-LIGAND FREE ENERGY PREDICTED BY IDOCK:   -3.92 KCAL/MOL
REMARK 924 INTRA-LIGAND FREE ENERGY PREDICTED BY IDOCK:   -0.42 KCAL/MOL
REMARK 927      BINDING AFFINITY PREDICTED BY RF-SCORE:    0.00 PKD
ROOT
HETATM    1  N   UNL     1      -6.032  10.746  64.414  1.00  0.00    -0.375 NA 
HETATM    2  H2  UNL     1      -6.802  10.547  63.775  1.00  0.00     0.000 HD 
HETATM    3  C   UNL     1      -6.445  10.428  65.713  1.00  0.00    -0.123 A  
HETATM    4  H1  UNL     1      -5.671  11.675  64.201  1.00  0.00     0.000 HD 
HETATM    5  C   UNL     1      -6.939   9.154  66.004  1.00  0.00    -0.085 A  
HETATM    6  C   UNL     1      -7.283   8.799  67.313  1.00  0.00    -0.080 A  
HETATM    7  C   UNL     1      -7.092   9.719  68.345  1.00  0.00    -0.073 A  
HETATM    8  C   UNL     1      -6.154  11.292  66.772  1.00  0.00    -0.131 A  
HETATM    9  C   UNL     1      -6.484  10.950  68.087  1.00  0.00    -0.058 A  
ENDROOT
BRANCH   7  10
HETATM   10  S   UNL     1      -7.499   9.268  70.019  1.00  0.00    -0.111 S  
HETATM   11  O   UNL     1      -7.296   7.833  70.114  1.00  0.00    -0.068 OA 
HETATM   12  O   UNL     1      -6.779  10.169  70.899  1.00  0.00    -0.328 OA 
BRANCH  10  13
HETATM   13  C   UNL     1      -9.230   9.564  70.319  1.00  0.00    -0.258 A  
HETATM   14  C   UNL     1      -9.937  10.358  69.412  1.00  0.00    -0.240 A  
HETATM   15  C   UNL     1     -11.304  10.571  69.592  1.00  0.00    -0.345 A  
HETATM   16  C   UNL     1     -11.972  10.037  70.698  1.00  0.00    -0.313 A  
HETATM   17  N   UNL     1     -13.365  10.135  70.788  1.00  0.00    -0.518 NA 
HETATM   18  C   UNL     1     -11.262   9.206  71.573  1.00  0.00    -0.430 A  
HETATM   19  H2  UNL     1     -13.771   9.735  69.942  1.00  0.00     0.000 HD 
HETATM   20  H1  UNL     1     -13.852   9.745  71.595  1.00  0.00     0.000 HD 
HETATM   21  C   UNL     1      -9.888   8.984  71.404  1.00  0.00    -0.381 A  
ENDBRANCH  10  13
ENDBRANCH   7  10
TORSDOF 2
ENDMDL
MODEL      158
REMARK 921   NORMALIZED FREE ENERGY PREDICTED BY IDOCK:   -3.49 KCAL/MOL
REMARK 922        TOTAL FREE ENERGY PREDICTED BY IDOCK:   -4.32 KCAL/MOL
REMARK 923 INTER-LIGAND FREE ENERGY PREDICTED BY IDOCK:   -4.22 KCAL/MOL
REMARK 924 INTRA-LIGAND FREE ENERGY PREDICTED BY IDOCK:   -0.09 KCAL/MOL
REMARK 927      BINDING AFFINITY PREDICTED BY RF-SCORE:    0.00 PKD
ROOT
HETATM    1  N   UNL     1     -11.877  14.019  63.811  1.00  0.00    -0.682 NA 
HETATM    2  H2  UNL     1     -12.763  13.631  63.489  1.00  0.00     0.000 HD 
HETATM    3  C   UNL     1     -11.865  13.987  65.210  1.00  0.00    -0.359 A  
HETATM    4  H1  UNL     1     -11.710  14.894  63.315  1.00  0.00     0.000 HD 
HETATM    5  C   UNL     1     -12.093  12.787  65.890  1.00  0.00    -0.485 A  
HETATM    6  C   UNL     1     -12.008  12.725  67.285  1.00  0.00    -0.345 A  
HETATM    7  C   UNL     1     -11.653  13.869  68.002  1.00  0.00    -0.333 A  
HETATM    8  C   UNL     1     -11.400  15.089  65.933  1.00  0.00    -0.273 A  
HETATM    9  C   UNL     1     -11.303  15.041  67.327  1.00  0.00    -0.337 A  
ENDROOT
BRANCH   7  10
HETATM   10  S   UNL     1     -11.514  13.795  69.775  1.00  0.00    -0.152 S  
HETATM   11  O   UNL     1     -10.221  14.366  70.106  1.00  0.00     0.365 OA 
HETATM   12  O   UNL     1     -12.728  14.363  70.330  1.00  0.00    -0.348 OA 
BRANCH  10  13
HETATM   13  C   UNL     1     -11.477  12.096  70.307  1.00  0.00     0.151 A  
HETATM   14  C   UNL     1     -10.579  11.223  69.686  1.00  0.00    -0.006 A  
HETATM   15  C   UNL     1     -10.492   9.896  70.111  1.00  0.00    -0.339 A  
HETATM   16  C   UNL     1     -11.326   9.412  71.123  1.00  0.00    -0.351 A  
HETATM   17  N   UNL     1     -11.127   8.127  71.637  1.00  0.00    -0.245 NA 
HETATM   18  C   UNL     1     -12.187  10.308  71.767  1.00  0.00    -0.282 A  
HETATM   19  H2  UNL     1     -10.160   8.052  71.953  1.00  0.00     0.000 HD 
HETATM   20  H1  UNL     1     -11.736   7.773  72.375  1.00  0.00     0.000 HD 
HETATM   21  C   UNL     1     -12.286  11.644  71.351  1.00  0.00    -0.201 A  
ENDBRANCH  10  13
ENDBRANCH   7  10
TORSDOF 2
ENDMDL
MODEL      159
REMARK 921   NORMALIZED FREE ENERGY PREDICTED BY IDOCK:   -3.48 KCAL/MOL
REMARK 922        TOTAL FREE ENERGY PREDICTED BY IDOCK:   -4.31 KCAL/MOL
REMARK 923 INTER-LIGAND FREE ENERGY PREDICTED BY IDOCK:   -3.97 KCAL/MOL
REMARK 924 INTRA-LIGAND FREE ENERGY PREDICTED BY IDOCK:   -0.34 KCAL/MOL
REMARK 927      BINDING AFFINITY PREDICTED BY RF-SCORE:    0.00 PKD
ROOT
HETATM    1  N   UNL     1      -7.280   5.187  74.560  1.00  0.00    -0.081 NA 
HETATM    2  H2  UNL     1      -6.413   5.113  74.028  1.00  0.00     0.000 HD 
HETATM    3  C   UNL     1      -8.237   5.815  73.756  1.00  0.00    -0.110 A  
HETATM    4  H1  UNL     1      -7.059   5.559  75.483  1.00  0.00     0.000 HD 
HETATM    5  C   UNL     1      -8.540   5.305  72.490  1.00  0.00    -0.121 A  
HETATM    6  C   UNL     1      -9.548   5.878  71.708  1.00  0.00    -0.171 A  
HETATM    7  C   UNL     1     -10.287   6.948  72.216  1.00  0.00    -0.196 A  
HETATM    8  C   UNL     1      -9.060   6.810  74.292  1.00  0.00    -0.227 A  
HETATM    9  C   UNL     1     -10.077   7.388  73.526  1.00  0.00    -0.390 A  
ENDROOT
BRANCH   7  10
HETATM   10  S   UNL     1     -11.591   7.666  71.241  1.00  0.00    -0.284 S  
HETATM   11  O   UNL     1     -12.621   6.648  71.127  1.00  0.00    -0.303 OA 
HETATM   12  O   UNL     1     -11.903   8.960  71.818  1.00  0.00    -0.311 OA 
BRANCH  10  13
HETATM   13  C   UNL     1     -11.003   7.990  69.591  1.00  0.00    -0.101 A  
HETATM   14  C   UNL     1     -11.057   6.958  68.651  1.00  0.00    -0.152 A  
HETATM   15  C   UNL     1     -10.648   7.191  67.337  1.00  0.00    -0.372 A  
HETATM   16  C   UNL     1     -10.139   8.436  66.957  1.00  0.00    -0.284 A  
HETATM   17  N   UNL     1      -9.872   8.700  65.609  1.00  0.00    -0.394 NA 
HETATM   18  C   UNL     1     -10.135   9.474  67.896  1.00  0.00    -0.234 A  
HETATM   19  H2  UNL     1     -10.720   8.519  65.071  1.00  0.00     0.000 HD 
HETATM   20  H1  UNL     1      -9.500   9.609  65.331  1.00  0.00     0.000 HD 
HETATM   21  C   UNL     1     -10.542   9.254  69.220  1.00  0.00    -0.234 A  
ENDBRANCH  10  13
ENDBRANCH   7  10
TORSDOF 2
ENDMDL
MODEL      160
REMARK 921   NORMALIZED FREE ENERGY PREDICTED BY IDOCK:   -3.46 KCAL/MOL
REMARK 922        TOTAL FREE ENERGY PREDICTED BY IDOCK:   -4.29 KCAL/MOL
REMARK 923 INTER-LIGAND FREE ENERGY PREDICTED BY IDOCK:   -3.98 KCAL/MOL
REMARK 924 INTRA-LIGAND FREE ENERGY PREDICTED BY IDOCK:   -0.31 KCAL/MOL
REMARK 927      BINDING AFFINITY PREDICTED BY RF-SCORE:    0.00 PKD
ROOT
HETATM    1  N   UNL     1      -7.573   4.323  66.635  1.00  0.00    -0.085 NA 
HETATM    2  H2  UNL     1      -6.618   4.016  66.815  1.00  0.00     0.000 HD 
HETATM    3  C   UNL     1      -8.123   4.782  67.837  1.00  0.00    -0.092 A  
HETATM    4  H1  UNL     1      -8.047   3.597  66.097  1.00  0.00     0.000 HD 
HETATM    5  C   UNL     1      -7.474   5.777  68.574  1.00  0.00    -0.085 A  
HETATM    6  C   UNL     1      -8.050   6.299  69.737  1.00  0.00    -0.120 A  
HETATM    7  C   UNL     1      -9.307   5.848  70.142  1.00  0.00    -0.156 A  
HETATM    8  C   UNL     1      -9.427   4.427  68.193  1.00  0.00    -0.207 A  
HETATM    9  C   UNL     1     -10.020   4.946  69.348  1.00  0.00    -0.282 A  
ENDROOT
BRANCH   7  10
HETATM   10  S   UNL     1     -10.062   6.527  71.604  1.00  0.00    -0.181 S  
HETATM   11  O   UNL     1     -11.177   5.654  71.929  1.00  0.00    -0.249 OA 
HETATM   12  O   UNL     1      -9.006   6.755  72.572  1.00  0.00    -0.131 OA 
BRANCH  10  13
HETATM   13  C   UNL     1     -10.752   8.128  71.240  1.00  0.00    -0.227 A  
HETATM   14  C   UNL     1     -11.959   8.486  71.847  1.00  0.00    -0.409 A  
HETATM   15  C   UNL     1     -12.504   9.751  71.620  1.00  0.00    -0.500 A  
HETATM   16  C   UNL     1     -11.880  10.653  70.753  1.00  0.00    -0.357 A  
HETATM   17  N   UNL     1     -12.356  11.965  70.649  1.00  0.00    -0.349 NA 
HETATM   18  C   UNL     1     -10.649  10.299  70.190  1.00  0.00    -0.303 A  
HETATM   19  H2  UNL     1     -12.376  12.375  71.583  1.00  0.00     0.000 HD 
HETATM   20  H1  UNL     1     -11.901  12.623  70.017  1.00  0.00     0.000 HD 
HETATM   21  C   UNL     1     -10.090   9.031  70.408  1.00  0.00    -0.248 A  
ENDBRANCH  10  13
ENDBRANCH   7  10
TORSDOF 2
ENDMDL
MODEL      161
REMARK 921   NORMALIZED FREE ENERGY PREDICTED BY IDOCK:   -3.45 KCAL/MOL
REMARK 922        TOTAL FREE ENERGY PREDICTED BY IDOCK:   -4.28 KCAL/MOL
REMARK 923 INTER-LIGAND FREE ENERGY PREDICTED BY IDOCK:   -4.17 KCAL/MOL
REMARK 924 INTRA-LIGAND FREE ENERGY PREDICTED BY IDOCK:   -0.10 KCAL/MOL
REMARK 927      BINDING AFFINITY PREDICTED BY RF-SCORE:    0.00 PKD
ROOT
HETATM    1  N   UNL     1     -13.146   9.113  72.895  1.00  0.00    -0.675 NA 
HETATM    2  H2  UNL     1     -12.967   9.111  73.899  1.00  0.00     0.000 HD 
HETATM    3  C   UNL     1     -12.174   8.322  72.273  1.00  0.00    -0.370 A  
HETATM    4  H1  UNL     1     -13.291  10.078  72.598  1.00  0.00     0.000 HD 
HETATM    5  C   UNL     1     -11.974   7.000  72.680  1.00  0.00    -0.002 A  
HETATM    6  C   UNL     1     -11.060   6.175  72.016  1.00  0.00    -0.322 A  
HETATM    7  C   UNL     1     -10.368   6.669  70.909  1.00  0.00    -0.208 A  
HETATM    8  C   UNL     1     -11.559   8.762  71.097  1.00  0.00    -0.344 A  
HETATM    9  C   UNL     1     -10.649   7.947  70.417  1.00  0.00    -0.228 A  
ENDROOT
BRANCH   7  10
HETATM   10  S   UNL     1      -9.223   5.619  70.039  1.00  0.00    -0.147 S  
HETATM   11  O   UNL     1      -7.998   6.386  69.895  1.00  0.00    -0.111 OA 
HETATM   12  O   UNL     1      -9.209   4.337  70.718  1.00  0.00    -0.117 OA 
BRANCH  10  13
HETATM   13  C   UNL     1      -9.827   5.300  68.394  1.00  0.00    -0.153 A  
HETATM   14  C   UNL     1      -9.506   4.080  67.793  1.00  0.00    -0.228 A  
HETATM   15  C   UNL     1     -10.001   3.778  66.523  1.00  0.00     0.066 A  
HETATM   16  C   UNL     1     -10.781   4.702  65.821  1.00  0.00    -0.149 A  
HETATM   17  N   UNL     1     -11.391   4.331  64.618  1.00  0.00    -0.955 NA 
HETATM   18  C   UNL     1     -11.134   5.900  66.455  1.00  0.00     0.108 A  
HETATM   19  H2  UNL     1     -11.952   3.496  64.785  1.00  0.00     0.000 HD 
HETATM   20  H1  UNL     1     -11.960   5.006  64.106  1.00  0.00     0.000 HD 
HETATM   21  C   UNL     1     -10.642   6.216  67.729  1.00  0.00    -0.338 A  
ENDBRANCH  10  13
ENDBRANCH   7  10
TORSDOF 2
ENDMDL
MODEL      162
REMARK 921   NORMALIZED FREE ENERGY PREDICTED BY IDOCK:   -3.44 KCAL/MOL
REMARK 922        TOTAL FREE ENERGY PREDICTED BY IDOCK:   -4.26 KCAL/MOL
REMARK 923 INTER-LIGAND FREE ENERGY PREDICTED BY IDOCK:   -3.90 KCAL/MOL
REMARK 924 INTRA-LIGAND FREE ENERGY PREDICTED BY IDOCK:   -0.36 KCAL/MOL
REMARK 927      BINDING AFFINITY PREDICTED BY RF-SCORE:    0.00 PKD
ROOT
HETATM    1  N   UNL     1      -6.136   3.868  68.785  1.00  0.00    -0.027 NA 
HETATM    2  H2  UNL     1      -5.178   4.127  68.547  1.00  0.00     0.000 HD 
HETATM    3  C   UNL     1      -6.582   4.718  69.803  1.00  0.00    -0.036 A  
HETATM    4  H1  UNL     1      -6.174   2.856  68.905  1.00  0.00     0.000 HD 
HETATM    5  C   UNL     1      -6.530   6.104  69.638  1.00  0.00    -0.039 A  
HETATM    6  C   UNL     1      -7.043   6.963  70.616  1.00  0.00    -0.068 A  
HETATM    7  C   UNL     1      -7.650   6.425  71.752  1.00  0.00    -0.095 A  
HETATM    8  C   UNL     1      -7.293   4.198  70.889  1.00  0.00    -0.041 A  
HETATM    9  C   UNL     1      -7.819   5.044  71.871  1.00  0.00    -0.109 A  
ENDROOT
BRANCH   7  10
HETATM   10  S   UNL     1      -8.332   7.509  72.989  1.00  0.00    -0.141 S  
HETATM   11  O   UNL     1      -8.667   6.668  74.125  1.00  0.00    -0.134 OA 
HETATM   12  O   UNL     1      -7.413   8.620  73.147  1.00  0.00    -0.346 OA 
BRANCH  10  13
HETATM   13  C   UNL     1      -9.859   8.212  72.400  1.00  0.00    -0.276 A  
HETATM   14  C   UNL     1      -9.807   9.124  71.343  1.00  0.00    -0.354 A  
HETATM   15  C   UNL     1     -10.988   9.658  70.826  1.00  0.00    -0.397 A  
HETATM   16  C   UNL     1     -12.227   9.328  71.385  1.00  0.00    -0.349 A  
HETATM   17  N   UNL     1     -13.408   9.754  70.767  1.00  0.00    -0.606 NA 
HETATM   18  C   UNL     1     -12.267   8.378  72.412  1.00  0.00    -0.430 A  
HETATM   19  H2  UNL     1     -13.396   9.437  69.797  1.00  0.00     0.000 HD 
HETATM   20  H1  UNL     1     -14.311   9.513  71.174  1.00  0.00     0.000 HD 
HETATM   21  C   UNL     1     -11.088   7.834  72.941  1.00  0.00    -0.457 A  
ENDBRANCH  10  13
ENDBRANCH   7  10
TORSDOF 2
ENDMDL
MODEL      163
REMARK 921   NORMALIZED FREE ENERGY PREDICTED BY IDOCK:   -3.43 KCAL/MOL
REMARK 922        TOTAL FREE ENERGY PREDICTED BY IDOCK:   -4.26 KCAL/MOL
REMARK 923 INTER-LIGAND FREE ENERGY PREDICTED BY IDOCK:   -4.16 KCAL/MOL
REMARK 924 INTRA-LIGAND FREE ENERGY PREDICTED BY IDOCK:   -0.10 KCAL/MOL
REMARK 927      BINDING AFFINITY PREDICTED BY RF-SCORE:    0.00 PKD
ROOT
HETATM    1  N   UNL     1     -10.548  15.255  65.045  1.00  0.00    -0.430 NA 
HETATM    2  H2  UNL     1     -11.441  15.191  64.557  1.00  0.00     0.000 HD 
HETATM    3  C   UNL     1     -10.217  13.984  65.528  1.00  0.00    -0.343 A  
HETATM    4  H1  UNL     1     -10.585  16.053  65.679  1.00  0.00     0.000 HD 
HETATM    5  C   UNL     1     -10.165  12.891  64.658  1.00  0.00    -0.321 A  
HETATM    6  C   UNL     1      -9.763  11.631  65.113  1.00  0.00    -0.245 A  
HETATM    7  C   UNL     1      -9.370  11.475  66.443  1.00  0.00    -0.209 A  
HETATM    8  C   UNL     1      -9.713  13.835  66.823  1.00  0.00    -0.277 A  
HETATM    9  C   UNL     1      -9.299  12.584  67.290  1.00  0.00    -0.190 A  
ENDROOT
BRANCH   7  10
HETATM   10  S   UNL     1      -8.828   9.882  67.025  1.00  0.00    -0.134 S  
HETATM   11  O   UNL     1      -9.210   8.924  66.003  1.00  0.00    -0.196 OA 
HETATM   12  O   UNL     1      -7.438  10.014  67.420  1.00  0.00    -0.090 OA 
BRANCH  10  13
HETATM   13  C   UNL     1      -9.721   9.443  68.502  1.00  0.00    -0.149 A  
HETATM   14  C   UNL     1     -10.177   8.129  68.637  1.00  0.00    -0.226 A  
HETATM   15  C   UNL     1     -10.840   7.739  69.802  1.00  0.00    -0.211 A  
HETATM   16  C   UNL     1     -11.096   8.660  70.822  1.00  0.00    -0.255 A  
HETATM   17  N   UNL     1     -11.628   8.225  72.041  1.00  0.00    -0.315 NA 
HETATM   18  C   UNL     1     -10.592   9.960  70.693  1.00  0.00    -0.341 A  
HETATM   19  H2  UNL     1     -11.023   7.491  72.412  1.00  0.00     0.000 HD 
HETATM   20  H1  UNL     1     -11.815   8.897  72.784  1.00  0.00     0.000 HD 
HETATM   21  C   UNL     1      -9.926  10.366  69.528  1.00  0.00    -0.229 A  
ENDBRANCH  10  13
ENDBRANCH   7  10
TORSDOF 2
ENDMDL
MODEL      164
REMARK 921   NORMALIZED FREE ENERGY PREDICTED BY IDOCK:   -3.36 KCAL/MOL
REMARK 922        TOTAL FREE ENERGY PREDICTED BY IDOCK:   -4.17 KCAL/MOL
REMARK 923 INTER-LIGAND FREE ENERGY PREDICTED BY IDOCK:   -3.79 KCAL/MOL
REMARK 924 INTRA-LIGAND FREE ENERGY PREDICTED BY IDOCK:   -0.38 KCAL/MOL
REMARK 927      BINDING AFFINITY PREDICTED BY RF-SCORE:    0.00 PKD
ROOT
HETATM    1  N   UNL     1     -13.433  10.326  71.725  1.00  0.00    -0.331 NA 
HETATM    2  H2  UNL     1     -14.018  10.312  70.890  1.00  0.00     0.000 HD 
HETATM    3  C   UNL     1     -12.297   9.547  71.481  1.00  0.00    -0.380 A  
HETATM    4  H1  UNL     1     -14.024  10.134  72.534  1.00  0.00     0.000 HD 
HETATM    5  C   UNL     1     -11.486   9.810  70.373  1.00  0.00    -0.347 A  
HETATM    6  C   UNL     1     -10.307   9.089  70.159  1.00  0.00    -0.237 A  
HETATM    7  C   UNL     1      -9.916   8.122  71.087  1.00  0.00    -0.180 A  
HETATM    8  C   UNL     1     -11.833   8.658  72.455  1.00  0.00    -0.402 A  
HETATM    9  C   UNL     1     -10.652   7.935  72.260  1.00  0.00    -0.331 A  
ENDROOT
BRANCH   7  10
HETATM   10  S   UNL     1      -8.402   7.218  70.840  1.00  0.00    -0.117 S  
HETATM   11  O   UNL     1      -7.535   8.084  70.062  1.00  0.00    -0.071 OA 
HETATM   12  O   UNL     1      -7.974   6.726  72.136  1.00  0.00    -0.096 OA 
BRANCH  10  13
HETATM   13  C   UNL     1      -8.716   5.775  69.844  1.00  0.00    -0.128 A  
HETATM   14  C   UNL     1      -9.216   4.630  70.471  1.00  0.00    -0.193 A  
HETATM   15  C   UNL     1      -9.516   3.497  69.713  1.00  0.00    -0.241 A  
HETATM   16  C   UNL     1      -9.281   3.475  68.335  1.00  0.00    -0.168 A  
HETATM   17  N   UNL     1      -9.722   2.392  67.568  1.00  0.00    -0.346 NA 
HETATM   18  C   UNL     1      -8.825   4.644  67.714  1.00  0.00    -0.115 A  
HETATM   19  H2  UNL     1     -10.723   2.270  67.727  1.00  0.00     0.000 HD 
HETATM   20  H1  UNL     1      -9.550   2.375  66.562  1.00  0.00     0.000 HD 
HETATM   21  C   UNL     1      -8.518   5.789  68.463  1.00  0.00    -0.110 A  
ENDBRANCH  10  13
ENDBRANCH   7  10
TORSDOF 2
ENDMDL
MODEL      165
REMARK 921   NORMALIZED FREE ENERGY PREDICTED BY IDOCK:   -3.35 KCAL/MOL
REMARK 922        TOTAL FREE ENERGY PREDICTED BY IDOCK:   -4.16 KCAL/MOL
REMARK 923 INTER-LIGAND FREE ENERGY PREDICTED BY IDOCK:   -3.74 KCAL/MOL
REMARK 924 INTRA-LIGAND FREE ENERGY PREDICTED BY IDOCK:   -0.42 KCAL/MOL
REMARK 927      BINDING AFFINITY PREDICTED BY RF-SCORE:    0.00 PKD
ROOT
HETATM    1  N   UNL     1      -6.622   5.681  73.394  1.00  0.00    -0.071 NA 
HETATM    2  H2  UNL     1      -6.211   5.064  72.693  1.00  0.00     0.000 HD 
HETATM    3  C   UNL     1      -7.811   6.206  72.875  1.00  0.00    -0.105 A  
HETATM    4  H1  UNL     1      -5.893   6.304  73.740  1.00  0.00     0.000 HD 
HETATM    5  C   UNL     1      -8.811   5.353  72.401  1.00  0.00    -0.132 A  
HETATM    6  C   UNL     1     -10.034   5.860  71.951  1.00  0.00    -0.203 A  
HETATM    7  C   UNL     1     -10.272   7.234  72.015  1.00  0.00    -0.190 A  
HETATM    8  C   UNL     1      -8.109   7.562  73.038  1.00  0.00    -0.141 A  
HETATM    9  C   UNL     1      -9.330   8.084  72.601  1.00  0.00    -0.314 A  
ENDROOT
BRANCH   7  10
HETATM   10  S   UNL     1     -11.836   7.889  71.472  1.00  0.00    -0.299 S  
HETATM   11  O   UNL     1     -12.584   6.764  70.939  1.00  0.00    -0.336 OA 
HETATM   12  O   UNL     1     -12.379   8.677  72.562  1.00  0.00    -0.390 OA 
BRANCH  10  13
HETATM   13  C   UNL     1     -11.581   9.022  70.123  1.00  0.00     0.011 A  
HETATM   14  C   UNL     1     -12.276  10.235  70.132  1.00  0.00    -0.251 A  
HETATM   15  C   UNL     1     -12.064  11.166  69.114  1.00  0.00    -0.352 A  
HETATM   16  C   UNL     1     -11.197  10.883  68.055  1.00  0.00    -0.314 A  
HETATM   17  N   UNL     1     -10.882  11.879  67.124  1.00  0.00    -0.242 NA 
HETATM   18  C   UNL     1     -10.472   9.686  68.083  1.00  0.00    -0.266 A  
HETATM   19  H2  UNL     1     -10.523  12.690  67.628  1.00  0.00     0.000 HD 
HETATM   20  H1  UNL     1     -10.249  11.672  66.350  1.00  0.00     0.000 HD 
HETATM   21  C   UNL     1     -10.676   8.741  69.099  1.00  0.00    -0.150 A  
ENDBRANCH  10  13
ENDBRANCH   7  10
TORSDOF 2
ENDMDL
MODEL      166
REMARK 921   NORMALIZED FREE ENERGY PREDICTED BY IDOCK:   -3.34 KCAL/MOL
REMARK 922        TOTAL FREE ENERGY PREDICTED BY IDOCK:   -4.16 KCAL/MOL
REMARK 923 INTER-LIGAND FREE ENERGY PREDICTED BY IDOCK:   -3.75 KCAL/MOL
REMARK 924 INTRA-LIGAND FREE ENERGY PREDICTED BY IDOCK:   -0.40 KCAL/MOL
REMARK 927      BINDING AFFINITY PREDICTED BY RF-SCORE:    0.00 PKD
ROOT
HETATM    1  N   UNL     1     -12.856  12.714  63.704  1.00  0.00    -0.728 NA 
HETATM    2  H2  UNL     1     -13.660  12.279  64.156  1.00  0.00     0.000 HD 
HETATM    3  C   UNL     1     -11.904  13.011  64.685  1.00  0.00    -0.372 A  
HETATM    4  H1  UNL     1     -13.197  13.446  63.080  1.00  0.00     0.000 HD 
HETATM    5  C   UNL     1     -11.437  12.008  65.540  1.00  0.00    -0.368 A  
HETATM    6  C   UNL     1     -10.431  12.273  66.474  1.00  0.00    -0.254 A  
HETATM    7  C   UNL     1      -9.860  13.546  66.525  1.00  0.00    -0.291 A  
HETATM    8  C   UNL     1     -11.244  14.242  64.673  1.00  0.00    -0.370 A  
HETATM    9  C   UNL     1     -10.230  14.520  65.596  1.00  0.00    -0.379 A  
ENDROOT
BRANCH   7  10
HETATM   10  S   UNL     1      -8.558  13.886  67.692  1.00  0.00    -0.204 S  
HETATM   11  O   UNL     1      -7.662  14.823  67.037  1.00  0.00    -0.168 OA 
HETATM   12  O   UNL     1      -9.185  14.233  68.953  1.00  0.00    -0.154 OA 
BRANCH  10  13
HETATM   13  C   UNL     1      -7.619  12.404  67.998  1.00  0.00    -0.128 A  
HETATM   14  C   UNL     1      -6.526  12.127  67.173  1.00  0.00    -0.135 A  
HETATM   15  C   UNL     1      -5.741  10.998  67.414  1.00  0.00    -0.048 A  
HETATM   16  C   UNL     1      -6.061  10.111  68.447  1.00  0.00    -0.044 A  
HETATM   17  N   UNL     1      -5.185   9.069  68.769  1.00  0.00    -0.033 NA 
HETATM   18  C   UNL     1      -7.130  10.426  69.294  1.00  0.00    -0.090 A  
HETATM   19  H2  UNL     1      -4.266   9.468  68.960  1.00  0.00     0.000 HD 
HETATM   20  H1  UNL     1      -5.419   8.422  69.522  1.00  0.00     0.000 HD 
HETATM   21  C   UNL     1      -7.928  11.556  69.062  1.00  0.00     0.013 A  
ENDBRANCH  10  13
ENDBRANCH   7  10
TORSDOF 2
ENDMDL
MODEL      167
REMARK 921   NORMALIZED FREE ENERGY PREDICTED BY IDOCK:   -3.34 KCAL/MOL
REMARK 922        TOTAL FREE ENERGY PREDICTED BY IDOCK:   -4.15 KCAL/MOL
REMARK 923 INTER-LIGAND FREE ENERGY PREDICTED BY IDOCK:   -3.72 KCAL/MOL
REMARK 924 INTRA-LIGAND FREE ENERGY PREDICTED BY IDOCK:   -0.43 KCAL/MOL
REMARK 927      BINDING AFFINITY PREDICTED BY RF-SCORE:    0.00 PKD
ROOT
HETATM    1  N   UNL     1      -6.204   6.525  74.484  1.00  0.00    -0.072 NA 
HETATM    2  H2  UNL     1      -5.212   6.653  74.283  1.00  0.00     0.000 HD 
HETATM    3  C   UNL     1      -6.941   7.225  73.523  1.00  0.00    -0.068 A  
HETATM    4  H1  UNL     1      -6.355   6.701  75.477  1.00  0.00     0.000 HD 
HETATM    5  C   UNL     1      -6.735   6.984  72.162  1.00  0.00    -0.057 A  
HETATM    6  C   UNL     1      -7.518   7.620  71.193  1.00  0.00    -0.078 A  
HETATM    7  C   UNL     1      -8.544   8.476  71.595  1.00  0.00    -0.187 A  
HETATM    8  C   UNL     1      -8.044   7.993  73.907  1.00  0.00    -0.288 A  
HETATM    9  C   UNL     1      -8.841   8.630  72.951  1.00  0.00    -0.005 A  
ENDROOT
BRANCH   7  10
HETATM   10  S   UNL     1      -9.566   9.269  70.371  1.00  0.00    -0.261 S  
HETATM   11  O   UNL     1     -10.806   9.618  71.042  1.00  0.00    -0.313 OA 
HETATM   12  O   UNL     1      -8.763  10.297  69.736  1.00  0.00    -0.157 OA 
BRANCH  10  13
HETATM   13  C   UNL     1      -9.984   8.107  69.089  1.00  0.00    -0.192 A  
HETATM   14  C   UNL     1     -10.830   7.041  69.407  1.00  0.00    -0.253 A  
HETATM   15  C   UNL     1     -11.215   6.137  68.415  1.00  0.00    -0.215 A  
HETATM   16  C   UNL     1     -10.727   6.257  67.110  1.00  0.00    -0.359 A  
HETATM   17  N   UNL     1     -11.234   5.438  66.096  1.00  0.00    -0.750 NA 
HETATM   18  C   UNL     1      -9.919   7.356  66.795  1.00  0.00    -0.300 A  
HETATM   19  H2  UNL     1     -12.249   5.543  66.073  1.00  0.00     0.000 HD 
HETATM   20  H1  UNL     1     -10.878   5.525  65.144  1.00  0.00     0.000 HD 
HETATM   21  C   UNL     1      -9.524   8.270  67.782  1.00  0.00    -0.171 A  
ENDBRANCH  10  13
ENDBRANCH   7  10
TORSDOF 2
ENDMDL
MODEL      168
REMARK 921   NORMALIZED FREE ENERGY PREDICTED BY IDOCK:   -3.34 KCAL/MOL
REMARK 922        TOTAL FREE ENERGY PREDICTED BY IDOCK:   -4.15 KCAL/MOL
REMARK 923 INTER-LIGAND FREE ENERGY PREDICTED BY IDOCK:   -4.05 KCAL/MOL
REMARK 924 INTRA-LIGAND FREE ENERGY PREDICTED BY IDOCK:   -0.10 KCAL/MOL
REMARK 927      BINDING AFFINITY PREDICTED BY RF-SCORE:    0.00 PKD
ROOT
HETATM    1  N   UNL     1      -5.236  12.976  67.152  1.00  0.00    -0.326 NA 
HETATM    2  H2  UNL     1      -4.760  13.123  68.043  1.00  0.00     0.000 HD 
HETATM    3  C   UNL     1      -6.232  12.011  67.338  1.00  0.00    -0.136 A  
HETATM    4  H1  UNL     1      -4.528  12.853  66.428  1.00  0.00     0.000 HD 
HETATM    5  C   UNL     1      -7.201  12.181  68.331  1.00  0.00    -0.097 A  
HETATM    6  C   UNL     1      -8.246  11.263  68.477  1.00  0.00    -0.150 A  
HETATM    7  C   UNL     1      -8.343  10.186  67.594  1.00  0.00    -0.114 A  
HETATM    8  C   UNL     1      -6.409  10.995  66.396  1.00  0.00    -0.133 A  
HETATM    9  C   UNL     1      -7.453  10.074  66.523  1.00  0.00    -0.105 A  
ENDROOT
BRANCH   7  10
HETATM   10  S   UNL     1      -9.685   9.028  67.754  1.00  0.00    -0.163 S  
HETATM   11  O   UNL     1     -10.468   9.144  66.536  1.00  0.00    -0.228 OA 
HETATM   12  O   UNL     1      -9.114   7.751  68.137  1.00  0.00    -0.130 OA 
BRANCH  10  13
HETATM   13  C   UNL     1     -10.748   9.516  69.097  1.00  0.00    -0.210 A  
HETATM   14  C   UNL     1     -10.966   8.608  70.137  1.00  0.00    -0.234 A  
HETATM   15  C   UNL     1     -11.756   8.976  71.227  1.00  0.00    -0.382 A  
HETATM   16  C   UNL     1     -12.373  10.229  71.273  1.00  0.00    -0.403 A  
HETATM   17  N   UNL     1     -13.038  10.639  72.434  1.00  0.00    -0.428 NA 
HETATM   18  C   UNL     1     -12.108  11.145  70.248  1.00  0.00    -0.462 A  
HETATM   19  H2  UNL     1     -12.389  10.569  73.219  1.00  0.00     0.000 HD 
HETATM   20  H1  UNL     1     -13.489  11.553  72.468  1.00  0.00     0.000 HD 
HETATM   21  C   UNL     1     -11.318  10.789  69.146  1.00  0.00    -0.348 A  
ENDBRANCH  10  13
ENDBRANCH   7  10
TORSDOF 2
ENDMDL
MODEL      169
REMARK 921   NORMALIZED FREE ENERGY PREDICTED BY IDOCK:   -3.32 KCAL/MOL
REMARK 922        TOTAL FREE ENERGY PREDICTED BY IDOCK:   -4.14 KCAL/MOL
REMARK 923 INTER-LIGAND FREE ENERGY PREDICTED BY IDOCK:   -3.73 KCAL/MOL
REMARK 924 INTRA-LIGAND FREE ENERGY PREDICTED BY IDOCK:   -0.40 KCAL/MOL
REMARK 927      BINDING AFFINITY PREDICTED BY RF-SCORE:    0.00 PKD
ROOT
HETATM    1  N   UNL     1      -9.590   2.286  67.436  1.00  0.00    -0.410 NA 
HETATM    2  H2  UNL     1      -9.853   2.289  68.421  1.00  0.00     0.000 HD 
HETATM    3  C   UNL     1      -9.291   3.599  67.056  1.00  0.00    -0.198 A  
HETATM    4  H1  UNL     1     -10.286   1.747  66.920  1.00  0.00     0.000 HD 
HETATM    5  C   UNL     1      -8.338   4.338  67.763  1.00  0.00    -0.098 A  
HETATM    6  C   UNL     1      -7.974   5.623  67.348  1.00  0.00    -0.102 A  
HETATM    7  C   UNL     1      -8.543   6.158  66.191  1.00  0.00    -0.141 A  
HETATM    8  C   UNL     1      -9.763   4.103  65.841  1.00  0.00    -0.208 A  
HETATM    9  C   UNL     1      -9.403   5.383  65.408  1.00  0.00    -0.003 A  
ENDROOT
BRANCH   7  10
HETATM   10  S   UNL     1      -8.066   7.781  65.638  1.00  0.00    -0.135 S  
HETATM   11  O   UNL     1      -6.830   8.099  66.331  1.00  0.00    -0.064 OA 
HETATM   12  O   UNL     1      -8.111   7.777  64.188  1.00  0.00    -0.132 OA 
BRANCH  10  13
HETATM   13  C   UNL     1      -9.275   8.978  66.166  1.00  0.00    -0.216 A  
HETATM   14  C   UNL     1      -9.863   8.819  67.423  1.00  0.00    -0.250 A  
HETATM   15  C   UNL     1     -10.780   9.764  67.887  1.00  0.00    -0.312 A  
HETATM   16  C   UNL     1     -11.154  10.849  67.089  1.00  0.00    -0.240 A  
HETATM   17  N   UNL     1     -11.958  11.863  67.621  1.00  0.00    -0.583 NA 
HETATM   18  C   UNL     1     -10.522  11.021  65.852  1.00  0.00    -0.300 A  
HETATM   19  H2  UNL     1     -11.508  12.222  68.464  1.00  0.00     0.000 HD 
HETATM   20  H1  UNL     1     -12.231  12.655  67.038  1.00  0.00     0.000 HD 
HETATM   21  C   UNL     1      -9.600  10.079  65.373  1.00  0.00    -0.342 A  
ENDBRANCH  10  13
ENDBRANCH   7  10
TORSDOF 2
ENDMDL
MODEL      170
REMARK 921   NORMALIZED FREE ENERGY PREDICTED BY IDOCK:   -3.28 KCAL/MOL
REMARK 922        TOTAL FREE ENERGY PREDICTED BY IDOCK:   -4.09 KCAL/MOL
REMARK 923 INTER-LIGAND FREE ENERGY PREDICTED BY IDOCK:   -3.71 KCAL/MOL
REMARK 924 INTRA-LIGAND FREE ENERGY PREDICTED BY IDOCK:   -0.38 KCAL/MOL
REMARK 927      BINDING AFFINITY PREDICTED BY RF-SCORE:    0.00 PKD
ROOT
HETATM    1  N   UNL     1      -8.868   5.278  63.183  1.00  0.00    -0.330 NA 
HETATM    2  H2  UNL     1      -7.924   5.471  62.847  1.00  0.00     0.000 HD 
HETATM    3  C   UNL     1      -8.785   4.871  64.519  1.00  0.00    -0.148 A  
HETATM    4  H1  UNL     1      -9.338   4.691  62.494  1.00  0.00     0.000 HD 
HETATM    5  C   UNL     1      -8.141   5.676  65.462  1.00  0.00    -0.123 A  
HETATM    6  C   UNL     1      -8.117   5.319  66.815  1.00  0.00    -0.105 A  
HETATM    7  C   UNL     1      -8.781   4.164  67.231  1.00  0.00    -0.107 A  
HETATM    8  C   UNL     1      -9.538   3.783  64.969  1.00  0.00    -0.177 A  
HETATM    9  C   UNL     1      -9.532   3.417  66.319  1.00  0.00    -0.128 A  
ENDROOT
BRANCH   7  10
HETATM   10  S   UNL     1      -8.783   3.715  68.953  1.00  0.00    -0.102 S  
HETATM   11  O   UNL     1      -9.287   2.354  69.018  1.00  0.00    -0.144 OA 
HETATM   12  O   UNL     1      -7.472   4.035  69.487  1.00  0.00    -0.052 OA 
BRANCH  10  13
HETATM   13  C   UNL     1      -9.940   4.735  69.842  1.00  0.00    -0.236 A  
HETATM   14  C   UNL     1      -9.967   4.651  71.237  1.00  0.00    -0.268 A  
HETATM   15  C   UNL     1     -10.829   5.471  71.967  1.00  0.00    -0.287 A  
HETATM   16  C   UNL     1     -11.704   6.347  71.318  1.00  0.00    -0.300 A  
HETATM   17  N   UNL     1     -12.454   7.264  72.062  1.00  0.00    -0.452 NA 
HETATM   18  C   UNL     1     -11.633   6.455  69.924  1.00  0.00    -0.422 A  
HETATM   19  H2  UNL     1     -11.814   7.813  72.637  1.00  0.00     0.000 HD 
HETATM   20  H1  UNL     1     -13.093   7.903  71.588  1.00  0.00     0.000 HD 
HETATM   21  C   UNL     1     -10.773   5.637  69.178  1.00  0.00    -0.325 A  
ENDBRANCH  10  13
ENDBRANCH   7  10
TORSDOF 2
ENDMDL
MODEL      171
REMARK 921   NORMALIZED FREE ENERGY PREDICTED BY IDOCK:   -3.19 KCAL/MOL
REMARK 922        TOTAL FREE ENERGY PREDICTED BY IDOCK:   -3.99 KCAL/MOL
REMARK 923 INTER-LIGAND FREE ENERGY PREDICTED BY IDOCK:   -3.66 KCAL/MOL
REMARK 924 INTRA-LIGAND FREE ENERGY PREDICTED BY IDOCK:   -0.32 KCAL/MOL
REMARK 927      BINDING AFFINITY PREDICTED BY RF-SCORE:    0.00 PKD
ROOT
HETATM    1  N   UNL     1      -9.130  12.197  68.530  1.00  0.00    -0.345 NA 
HETATM    2  H2  UNL     1      -8.594  11.910  67.712  1.00  0.00     0.000 HD 
HETATM    3  C   UNL     1      -9.579  11.047  69.189  1.00  0.00    -0.061 A  
HETATM    4  H1  UNL     1      -9.793  12.917  68.243  1.00  0.00     0.000 HD 
HETATM    5  C   UNL     1      -8.670  10.060  69.583  1.00  0.00    -0.210 A  
HETATM    6  C   UNL     1      -9.094   8.943  70.309  1.00  0.00    -0.201 A  
HETATM    7  C   UNL     1     -10.436   8.833  70.677  1.00  0.00    -0.210 A  
HETATM    8  C   UNL     1     -10.891  10.976  69.663  1.00  0.00    -0.241 A  
HETATM    9  C   UNL     1     -11.330   9.870  70.397  1.00  0.00    -0.376 A  
ENDROOT
BRANCH   7  10
HETATM   10  S   UNL     1     -10.982   7.429  71.626  1.00  0.00    -0.228 S  
HETATM   11  O   UNL     1     -10.952   7.843  73.018  1.00  0.00    -0.393 OA 
HETATM   12  O   UNL     1     -12.217   6.955  71.030  1.00  0.00    -0.373 OA 
BRANCH  10  13
HETATM   13  C   UNL     1      -9.812   6.096  71.460  1.00  0.00    -0.167 A  
HETATM   14  C   UNL     1     -10.084   5.083  70.537  1.00  0.00    -0.323 A  
HETATM   15  C   UNL     1      -9.166   4.049  70.348  1.00  0.00    -0.204 A  
HETATM   16  C   UNL     1      -7.993   3.986  71.107  1.00  0.00    -0.067 A  
HETATM   17  N   UNL     1      -7.016   3.031  70.806  1.00  0.00    -0.033 NA 
HETATM   18  C   UNL     1      -7.711   5.032  71.993  1.00  0.00    -0.104 A  
HETATM   19  H2  UNL     1      -6.761   3.129  69.823  1.00  0.00     0.000 HD 
HETATM   20  H1  UNL     1      -6.161   2.985  71.359  1.00  0.00     0.000 HD 
HETATM   21  C   UNL     1      -8.625   6.077  72.194  1.00  0.00    -0.128 A  
ENDBRANCH  10  13
ENDBRANCH   7  10
TORSDOF 2
ENDMDL
MODEL      172
REMARK 921   NORMALIZED FREE ENERGY PREDICTED BY IDOCK:   -3.18 KCAL/MOL
REMARK 922        TOTAL FREE ENERGY PREDICTED BY IDOCK:   -3.97 KCAL/MOL
REMARK 923 INTER-LIGAND FREE ENERGY PREDICTED BY IDOCK:   -3.59 KCAL/MOL
REMARK 924 INTRA-LIGAND FREE ENERGY PREDICTED BY IDOCK:   -0.39 KCAL/MOL
REMARK 927      BINDING AFFINITY PREDICTED BY RF-SCORE:    0.00 PKD
ROOT
HETATM    1  N   UNL     1     -13.322  12.532  64.843  1.00  0.00    -0.499 NA 
HETATM    2  H2  UNL     1     -14.257  12.373  65.219  1.00  0.00     0.000 HD 
HETATM    3  C   UNL     1     -12.725  13.568  65.569  1.00  0.00    -0.440 A  
HETATM    4  H1  UNL     1     -13.392  12.590  63.827  1.00  0.00     0.000 HD 
HETATM    5  C   UNL     1     -12.629  13.488  66.961  1.00  0.00     0.112 A  
HETATM    6  C   UNL     1     -11.967  14.479  67.693  1.00  0.00    -0.355 A  
HETATM    7  C   UNL     1     -11.361  15.540  67.019  1.00  0.00    -0.106 A  
HETATM    8  C   UNL     1     -12.016  14.573  64.906  1.00  0.00    -0.425 A  
HETATM    9  C   UNL     1     -11.342  15.567  65.622  1.00  0.00    -0.063 A  
ENDROOT
BRANCH   7  10
HETATM   10  S   UNL     1     -10.490  16.792  67.938  1.00  0.00    -0.345 S  
HETATM   11  O   UNL     1     -11.272  18.009  67.807  1.00  0.00    -0.075 OA 
HETATM   12  O   UNL     1     -10.202  16.246  69.250  1.00  0.00    -0.238 OA 
BRANCH  10  13
HETATM   13  C   UNL     1      -8.911  17.111  67.178  1.00  0.00    -0.228 A  
HETATM   14  C   UNL     1      -8.826  18.128  66.223  1.00  0.00    -0.196 A  
HETATM   15  C   UNL     1      -7.594  18.434  65.642  1.00  0.00     0.073 A  
HETATM   16  C   UNL     1      -6.447  17.705  65.969  1.00  0.00    -0.230 A  
HETATM   17  N   UNL     1      -5.198  18.117  65.493  1.00  0.00    -0.174 NA 
HETATM   18  C   UNL     1      -6.538  16.722  66.962  1.00  0.00    -0.239 A  
HETATM   19  H2  UNL     1      -5.052  19.089  65.767  1.00  0.00     0.000 HD 
HETATM   20  H1  UNL     1      -4.361  17.585  65.732  1.00  0.00     0.000 HD 
HETATM   21  C   UNL     1      -7.769  16.403  67.553  1.00  0.00    -0.164 A  
ENDBRANCH  10  13
ENDBRANCH   7  10
TORSDOF 2
ENDMDL
MODEL      173
REMARK 921   NORMALIZED FREE ENERGY PREDICTED BY IDOCK:   -3.13 KCAL/MOL
REMARK 922        TOTAL FREE ENERGY PREDICTED BY IDOCK:   -3.92 KCAL/MOL
REMARK 923 INTER-LIGAND FREE ENERGY PREDICTED BY IDOCK:   -3.68 KCAL/MOL
REMARK 924 INTRA-LIGAND FREE ENERGY PREDICTED BY IDOCK:   -0.24 KCAL/MOL
REMARK 927      BINDING AFFINITY PREDICTED BY RF-SCORE:    0.00 PKD
ROOT
HETATM    1  N   UNL     1     -11.502  13.442  63.272  1.00  0.00    -0.518 NA 
HETATM    2  H2  UNL     1     -12.054  12.760  62.753  1.00  0.00     0.000 HD 
HETATM    3  C   UNL     1     -11.570  13.121  64.632  1.00  0.00    -0.345 A  
HETATM    4  H1  UNL     1     -11.759  14.374  62.950  1.00  0.00     0.000 HD 
HETATM    5  C   UNL     1     -11.216  11.843  65.073  1.00  0.00    -0.350 A  
HETATM    6  C   UNL     1     -11.206  11.531  66.437  1.00  0.00    -0.307 A  
HETATM    7  C   UNL     1     -11.515  12.523  67.369  1.00  0.00    -0.341 A  
HETATM    8  C   UNL     1     -11.764  14.127  65.582  1.00  0.00    -0.357 A  
HETATM    9  C   UNL     1     -11.749  13.835  66.949  1.00  0.00    -0.424 A  
ENDROOT
BRANCH   7  10
HETATM   10  S   UNL     1     -11.478  12.146  69.109  1.00  0.00    -0.310 S  
HETATM   11  O   UNL     1     -10.760  13.236  69.745  1.00  0.00     0.251 OA 
HETATM   12  O   UNL     1     -12.834  11.828  69.514  1.00  0.00     0.301 OA 
BRANCH  10  13
HETATM   13  C   UNL     1     -10.522  10.669  69.386  1.00  0.00    -0.225 A  
HETATM   14  C   UNL     1      -9.196  10.642  68.944  1.00  0.00    -0.189 A  
HETATM   15  C   UNL     1      -8.404   9.518  69.186  1.00  0.00    -0.125 A  
HETATM   16  C   UNL     1      -8.934   8.395  69.827  1.00  0.00    -0.146 A  
HETATM   17  N   UNL     1      -8.094   7.338  70.193  1.00  0.00    -0.126 NA 
HETATM   18  C   UNL     1     -10.249   8.454  70.306  1.00  0.00    -0.204 A  
HETATM   19  H2  UNL     1      -7.338   7.711  70.768  1.00  0.00     0.000 HD 
HETATM   20  H1  UNL     1      -8.481   6.518  70.660  1.00  0.00     0.000 HD 
HETATM   21  C   UNL     1     -11.055   9.576  70.069  1.00  0.00    -0.268 A  
ENDBRANCH  10  13
ENDBRANCH   7  10
TORSDOF 2
ENDMDL
MODEL      174
REMARK 921   NORMALIZED FREE ENERGY PREDICTED BY IDOCK:   -3.13 KCAL/MOL
REMARK 922        TOTAL FREE ENERGY PREDICTED BY IDOCK:   -3.92 KCAL/MOL
REMARK 923 INTER-LIGAND FREE ENERGY PREDICTED BY IDOCK:   -3.68 KCAL/MOL
REMARK 924 INTRA-LIGAND FREE ENERGY PREDICTED BY IDOCK:   -0.24 KCAL/MOL
REMARK 927      BINDING AFFINITY PREDICTED BY RF-SCORE:    0.00 PKD
ROOT
HETATM    1  N   UNL     1      -9.228   3.067  64.604  1.00  0.00    -0.138 NA 
HETATM    2  H2  UNL     1      -8.863   2.189  64.972  1.00  0.00     0.000 HD 
HETATM    3  C   UNL     1      -9.456   3.935  65.678  1.00  0.00    -0.176 A  
HETATM    4  H1  UNL     1      -9.979   2.853  63.948  1.00  0.00     0.000 HD 
HETATM    5  C   UNL     1      -8.427   4.229  66.577  1.00  0.00    -0.108 A  
HETATM    6  C   UNL     1      -8.619   5.153  67.610  1.00  0.00    -0.104 A  
HETATM    7  C   UNL     1      -9.842   5.817  67.718  1.00  0.00    -0.126 A  
HETATM    8  C   UNL     1     -10.630   4.691  65.733  1.00  0.00    -0.264 A  
HETATM    9  C   UNL     1     -10.834   5.624  66.754  1.00  0.00    -0.296 A  
ENDROOT
BRANCH   7  10
HETATM   10  S   UNL     1     -10.087   7.015  69.011  1.00  0.00    -0.186 S  
HETATM   11  O   UNL     1     -11.277   6.598  69.731  1.00  0.00    -0.315 OA 
HETATM   12  O   UNL     1      -8.824   7.165  69.710  1.00  0.00    -0.141 OA 
BRANCH  10  13
HETATM   13  C   UNL     1     -10.448   8.607  68.299  1.00  0.00    -0.184 A  
HETATM   14  C   UNL     1     -10.067   8.845  66.975  1.00  0.00    -0.331 A  
HETATM   15  C   UNL     1     -10.376  10.065  66.371  1.00  0.00    -0.249 A  
HETATM   16  C   UNL     1     -11.024  11.075  67.089  1.00  0.00    -0.283 A  
HETATM   17  N   UNL     1     -11.457  12.232  66.432  1.00  0.00    -0.361 NA 
HETATM   18  C   UNL     1     -11.441  10.806  68.397  1.00  0.00    -0.358 A  
HETATM   19  H2  UNL     1     -12.054  11.955  65.652  1.00  0.00     0.000 HD 
HETATM   20  H1  UNL     1     -11.929  12.969  66.955  1.00  0.00     0.000 HD 
HETATM   21  C   UNL     1     -11.137   9.585  69.017  1.00  0.00    -0.060 A  
ENDBRANCH  10  13
ENDBRANCH   7  10
TORSDOF 2
ENDMDL
MODEL      175
REMARK 921   NORMALIZED FREE ENERGY PREDICTED BY IDOCK:   -3.13 KCAL/MOL
REMARK 922        TOTAL FREE ENERGY PREDICTED BY IDOCK:   -3.92 KCAL/MOL
REMARK 923 INTER-LIGAND FREE ENERGY PREDICTED BY IDOCK:   -3.51 KCAL/MOL
REMARK 924 INTRA-LIGAND FREE ENERGY PREDICTED BY IDOCK:   -0.41 KCAL/MOL
REMARK 927      BINDING AFFINITY PREDICTED BY RF-SCORE:    0.00 PKD
ROOT
HETATM    1  N   UNL     1     -12.339   6.069  72.487  1.00  0.00    -0.527 NA 
HETATM    2  H2  UNL     1     -11.834   5.934  73.362  1.00  0.00     0.000 HD 
HETATM    3  C   UNL     1     -11.404   6.215  71.456  1.00  0.00    -0.280 A  
HETATM    4  H1  UNL     1     -13.056   6.780  72.636  1.00  0.00     0.000 HD 
HETATM    5  C   UNL     1     -10.423   5.241  71.252  1.00  0.00    -0.274 A  
HETATM    6  C   UNL     1      -9.530   5.336  70.179  1.00  0.00    -0.217 A  
HETATM    7  C   UNL     1      -9.647   6.397  69.281  1.00  0.00    -0.137 A  
HETATM    8  C   UNL     1     -11.578   7.204  70.485  1.00  0.00    -0.331 A  
HETATM    9  C   UNL     1     -10.699   7.308  69.402  1.00  0.00    -0.236 A  
ENDROOT
BRANCH   7  10
HETATM   10  S   UNL     1      -8.534   6.512  67.896  1.00  0.00    -0.118 S  
HETATM   11  O   UNL     1      -8.657   7.867  67.388  1.00  0.00    -0.124 OA 
HETATM   12  O   UNL     1      -7.246   6.008  68.331  1.00  0.00    -0.079 OA 
BRANCH  10  13
HETATM   13  C   UNL     1      -9.076   5.424  66.594  1.00  0.00    -0.124 A  
HETATM   14  C   UNL     1     -10.448   5.300  66.358  1.00  0.00    -0.347 A  
HETATM   15  C   UNL     1     -10.904   4.492  65.316  1.00  0.00    -0.095 A  
HETATM   16  C   UNL     1     -10.007   3.764  64.529  1.00  0.00    -0.201 A  
HETATM   17  N   UNL     1     -10.465   3.077  63.400  1.00  0.00    -0.195 NA 
HETATM   18  C   UNL     1      -8.634   3.934  64.746  1.00  0.00    -0.114 A  
HETATM   19  H2  UNL     1     -10.959   3.737  62.799  1.00  0.00     0.000 HD 
HETATM   20  H1  UNL     1      -9.810   2.546  62.826  1.00  0.00     0.000 HD 
HETATM   21  C   UNL     1      -8.161   4.742  65.790  1.00  0.00    -0.112 A  
ENDBRANCH  10  13
ENDBRANCH   7  10
TORSDOF 2
ENDMDL
MODEL      176
REMARK 921   NORMALIZED FREE ENERGY PREDICTED BY IDOCK:   -3.10 KCAL/MOL
REMARK 922        TOTAL FREE ENERGY PREDICTED BY IDOCK:   -3.88 KCAL/MOL
REMARK 923 INTER-LIGAND FREE ENERGY PREDICTED BY IDOCK:   -3.47 KCAL/MOL
REMARK 924 INTRA-LIGAND FREE ENERGY PREDICTED BY IDOCK:   -0.41 KCAL/MOL
REMARK 927      BINDING AFFINITY PREDICTED BY RF-SCORE:    0.00 PKD
ROOT
HETATM    1  N   UNL     1      -9.646   6.738  66.384  1.00  0.00    -0.324 NA 
HETATM    2  H2  UNL     1     -10.463   6.202  66.673  1.00  0.00     0.000 HD 
HETATM    3  C   UNL     1     -10.012   8.085  66.291  1.00  0.00    -0.046 A  
HETATM    4  H1  UNL     1      -9.217   6.265  65.588  1.00  0.00     0.000 HD 
HETATM    5  C   UNL     1     -10.599   8.733  67.382  1.00  0.00    -0.304 A  
HETATM    6  C   UNL     1     -10.900  10.097  67.330  1.00  0.00    -0.295 A  
HETATM    7  C   UNL     1     -10.573  10.829  66.186  1.00  0.00    -0.175 A  
HETATM    8  C   UNL     1      -9.590   8.854  65.204  1.00  0.00     0.233 A  
HETATM    9  C   UNL     1      -9.876  10.221  65.139  1.00  0.00    -0.389 A  
ENDROOT
BRANCH   7  10
HETATM   10  S   UNL     1     -10.926  12.573  66.120  1.00  0.00    -0.296 S  
HETATM   11  O   UNL     1     -10.579  13.006  64.778  1.00  0.00    -0.323 OA 
HETATM   12  O   UNL     1     -12.272  12.763  66.626  1.00  0.00    -0.481 OA 
BRANCH  10  13
HETATM   13  C   UNL     1      -9.850  13.449  67.237  1.00  0.00    -0.233 A  
HETATM   14  C   UNL     1     -10.406  14.015  68.388  1.00  0.00    -0.251 A  
HETATM   15  C   UNL     1      -9.584  14.668  69.308  1.00  0.00    -0.018 A  
HETATM   16  C   UNL     1      -8.213  14.806  69.071  1.00  0.00    -0.141 A  
HETATM   17  N   UNL     1      -7.381  15.331  70.066  1.00  0.00    -0.130 NA 
HETATM   18  C   UNL     1      -7.663  14.194  67.938  1.00  0.00    -0.161 A  
HETATM   19  H2  UNL     1      -7.509  14.781  70.916  1.00  0.00     0.000 HD 
HETATM   20  H1  UNL     1      -6.381  15.432  69.893  1.00  0.00     0.000 HD 
HETATM   21  C   UNL     1      -8.477  13.535  67.005  1.00  0.00    -0.137 A  
ENDBRANCH  10  13
ENDBRANCH   7  10
TORSDOF 2
ENDMDL
MODEL      177
REMARK 921   NORMALIZED FREE ENERGY PREDICTED BY IDOCK:   -3.08 KCAL/MOL
REMARK 922        TOTAL FREE ENERGY PREDICTED BY IDOCK:   -3.87 KCAL/MOL
REMARK 923 INTER-LIGAND FREE ENERGY PREDICTED BY IDOCK:   -3.47 KCAL/MOL
REMARK 924 INTRA-LIGAND FREE ENERGY PREDICTED BY IDOCK:   -0.40 KCAL/MOL
REMARK 927      BINDING AFFINITY PREDICTED BY RF-SCORE:    0.00 PKD
ROOT
HETATM    1  N   UNL     1      -8.940  12.568  66.758  1.00  0.00    -0.242 NA 
HETATM    2  H2  UNL     1      -8.255  12.428  66.016  1.00  0.00     0.000 HD 
HETATM    3  C   UNL     1      -9.188  11.333  67.367  1.00  0.00    -0.162 A  
HETATM    4  H1  UNL     1      -9.711  13.120  66.382  1.00  0.00     0.000 HD 
HETATM    5  C   UNL     1      -8.132  10.576  67.881  1.00  0.00    -0.107 A  
HETATM    6  C   UNL     1      -8.372   9.377  68.560  1.00  0.00    -0.118 A  
HETATM    7  C   UNL     1      -9.687   8.953  68.759  1.00  0.00    -0.164 A  
HETATM    8  C   UNL     1     -10.497  10.952  67.674  1.00  0.00    -0.244 A  
HETATM    9  C   UNL     1     -10.754   9.760  68.359  1.00  0.00    -0.262 A  
ENDROOT
BRANCH   7  10
HETATM   10  S   UNL     1     -10.006   7.442  69.646  1.00  0.00    -0.185 S  
HETATM   11  O   UNL     1      -8.929   7.303  70.611  1.00  0.00    -0.154 OA 
HETATM   12  O   UNL     1     -11.386   7.484  70.092  1.00  0.00    -0.244 OA 
BRANCH  10  13
HETATM   13  C   UNL     1      -9.887   6.054  68.538  1.00  0.00    -0.130 A  
HETATM   14  C   UNL     1      -9.259   4.891  68.993  1.00  0.00    -0.165 A  
HETATM   15  C   UNL     1      -9.190   3.769  68.166  1.00  0.00    -0.214 A  
HETATM   16  C   UNL     1      -9.701   3.805  66.865  1.00  0.00    -0.113 A  
HETATM   17  N   UNL     1      -9.757   2.634  66.103  1.00  0.00    -0.324 NA 
HETATM   18  C   UNL     1     -10.368   4.960  66.440  1.00  0.00    -0.328 A  
HETATM   19  H2  UNL     1     -10.271   1.929  66.632  1.00  0.00     0.000 HD 
HETATM   20  H1  UNL     1     -10.129   2.661  65.154  1.00  0.00     0.000 HD 
HETATM   21  C   UNL     1     -10.444   6.096  67.259  1.00  0.00    -0.317 A  
ENDBRANCH  10  13
ENDBRANCH   7  10
TORSDOF 2
ENDMDL
MODEL      178
REMARK 921   NORMALIZED FREE ENERGY PREDICTED BY IDOCK:   -3.02 KCAL/MOL
REMARK 922        TOTAL FREE ENERGY PREDICTED BY IDOCK:   -3.80 KCAL/MOL
REMARK 923 INTER-LIGAND FREE ENERGY PREDICTED BY IDOCK:   -3.43 KCAL/MOL
REMARK 924 INTRA-LIGAND FREE ENERGY PREDICTED BY IDOCK:   -0.37 KCAL/MOL
REMARK 927      BINDING AFFINITY PREDICTED BY RF-SCORE:    0.00 PKD
ROOT
HETATM    1  N   UNL     1     -11.377   8.343  72.723  1.00  0.00    -0.278 NA 
HETATM    2  H2  UNL     1     -10.624   8.364  73.411  1.00  0.00     0.000 HD 
HETATM    3  C   UNL     1     -10.859   8.753  71.490  1.00  0.00    -0.304 A  
HETATM    4  H1  UNL     1     -12.188   8.814  73.123  1.00  0.00     0.000 HD 
HETATM    5  C   UNL     1      -9.747   8.107  70.942  1.00  0.00    -0.191 A  
HETATM    6  C   UNL     1      -9.266   8.455  69.676  1.00  0.00    -0.160 A  
HETATM    7  C   UNL     1      -9.931   9.433  68.935  1.00  0.00    -0.179 A  
HETATM    8  C   UNL     1     -11.577   9.645  70.689  1.00  0.00    -0.371 A  
HETATM    9  C   UNL     1     -11.114   9.998  69.418  1.00  0.00    -0.265 A  
ENDROOT
BRANCH   7  10
HETATM   10  S   UNL     1      -9.345   9.865  67.310  1.00  0.00    -0.146 S  
HETATM   11  O   UNL     1      -8.420   8.815  66.920  1.00  0.00    -0.110 OA 
HETATM   12  O   UNL     1     -10.507  10.157  66.493  1.00  0.00    -0.222 OA 
BRANCH  10  13
HETATM   13  C   UNL     1      -8.404  11.375  67.388  1.00  0.00    -0.144 A  
HETATM   14  C   UNL     1      -7.025  11.290  67.597  1.00  0.00    -0.085 A  
HETATM   15  C   UNL     1      -6.252  12.452  67.618  1.00  0.00    -0.132 A  
HETATM   16  C   UNL     1      -6.846  13.709  67.477  1.00  0.00    -0.137 A  
HETATM   17  N   UNL     1      -6.046  14.850  67.352  1.00  0.00    -0.327 NA 
HETATM   18  C   UNL     1      -8.220  13.777  67.222  1.00  0.00    -0.173 A  
HETATM   19  H2  UNL     1      -5.401  14.709  66.574  1.00  0.00     0.000 HD 
HETATM   20  H1  UNL     1      -6.479  15.768  67.251  1.00  0.00     0.000 HD 
HETATM   21  C   UNL     1      -9.010  12.618  67.200  1.00  0.00    -0.205 A  
ENDBRANCH  10  13
ENDBRANCH   7  10
TORSDOF 2
ENDMDL
MODEL      179
REMARK 921   NORMALIZED FREE ENERGY PREDICTED BY IDOCK:   -3.01 KCAL/MOL
REMARK 922        TOTAL FREE ENERGY PREDICTED BY IDOCK:   -3.79 KCAL/MOL
REMARK 923 INTER-LIGAND FREE ENERGY PREDICTED BY IDOCK:   -3.37 KCAL/MOL
REMARK 924 INTRA-LIGAND FREE ENERGY PREDICTED BY IDOCK:   -0.41 KCAL/MOL
REMARK 927      BINDING AFFINITY PREDICTED BY RF-SCORE:    0.00 PKD
ROOT
HETATM    1  N   UNL     1      -9.830  12.371  64.938  1.00  0.00    -0.460 NA 
HETATM    2  H2  UNL     1      -9.210  13.090  65.311  1.00  0.00     0.000 HD 
HETATM    3  C   UNL     1      -9.729  11.238  65.753  1.00  0.00    -0.227 A  
HETATM    4  H1  UNL     1      -9.669  12.298  63.934  1.00  0.00     0.000 HD 
HETATM    5  C   UNL     1      -9.949  11.337  67.130  1.00  0.00    -0.219 A  
HETATM    6  C   UNL     1      -9.927  10.200  67.944  1.00  0.00    -0.190 A  
HETATM    7  C   UNL     1      -9.721   8.946  67.366  1.00  0.00    -0.176 A  
HETATM    8  C   UNL     1      -9.638   9.967  65.179  1.00  0.00    -0.367 A  
HETATM    9  C   UNL     1      -9.622   8.819  65.978  1.00  0.00    -0.297 A  
ENDROOT
BRANCH   7  10
HETATM   10  S   UNL     1      -9.719   7.489  68.389  1.00  0.00    -0.159 S  
HETATM   11  O   UNL     1     -11.104   7.246  68.751  1.00  0.00    -0.060 OA 
HETATM   12  O   UNL     1      -8.955   6.471  67.693  1.00  0.00    -0.116 OA 
BRANCH  10  13
HETATM   13  C   UNL     1      -8.841   7.816  69.904  1.00  0.00    -0.142 A  
HETATM   14  C   UNL     1      -7.494   8.180  69.826  1.00  0.00    -0.084 A  
HETATM   15  C   UNL     1      -6.788   8.488  70.991  1.00  0.00    -0.059 A  
HETATM   16  C   UNL     1      -7.400   8.393  72.244  1.00  0.00    -0.093 A  
HETATM   17  N   UNL     1      -6.729   8.844  73.385  1.00  0.00    -0.333 NA 
HETATM   18  C   UNL     1      -8.762   8.073  72.303  1.00  0.00    -0.220 A  
HETATM   19  H2  UNL     1      -6.452   9.815  73.234  1.00  0.00     0.000 HD 
HETATM   20  H1  UNL     1      -7.175   8.775  74.300  1.00  0.00     0.000 HD 
HETATM   21  C   UNL     1      -9.482   7.760  71.141  1.00  0.00    -0.169 A  
ENDBRANCH  10  13
ENDBRANCH   7  10
TORSDOF 2
ENDMDL
MODEL      180
REMARK 921   NORMALIZED FREE ENERGY PREDICTED BY IDOCK:   -2.98 KCAL/MOL
REMARK 922        TOTAL FREE ENERGY PREDICTED BY IDOCK:   -3.75 KCAL/MOL
REMARK 923 INTER-LIGAND FREE ENERGY PREDICTED BY IDOCK:   -3.33 KCAL/MOL
REMARK 924 INTRA-LIGAND FREE ENERGY PREDICTED BY IDOCK:   -0.42 KCAL/MOL
REMARK 927      BINDING AFFINITY PREDICTED BY RF-SCORE:    0.00 PKD
ROOT
HETATM    1  N   UNL     1     -10.151  14.175  66.145  1.00  0.00    -0.302 NA 
HETATM    2  H2  UNL     1      -9.393  14.789  65.849  1.00  0.00     0.000 HD 
HETATM    3  C   UNL     1      -9.616  12.907  66.399  1.00  0.00    -0.252 A  
HETATM    4  H1  UNL     1     -10.926  14.284  65.491  1.00  0.00     0.000 HD 
HETATM    5  C   UNL     1      -8.554  12.756  67.295  1.00  0.00    -0.197 A  
HETATM    6  C   UNL     1      -8.060  11.488  67.617  1.00  0.00    -0.130 A  
HETATM    7  C   UNL     1      -8.664  10.357  67.065  1.00  0.00    -0.130 A  
HETATM    8  C   UNL     1     -10.279  11.762  65.948  1.00  0.00    -0.272 A  
HETATM    9  C   UNL     1      -9.803  10.486  66.266  1.00  0.00    -0.269 A  
ENDROOT
BRANCH   7  10
HETATM   10  S   UNL     1      -8.062   8.736  67.489  1.00  0.00    -0.106 S  
HETATM   11  O   UNL     1      -8.267   7.906  66.315  1.00  0.00    -0.107 OA 
HETATM   12  O   UNL     1      -6.733   8.899  68.047  1.00  0.00    -0.066 OA 
BRANCH  10  13
HETATM   13  C   UNL     1      -9.062   8.043  68.790  1.00  0.00    -0.144 A  
HETATM   14  C   UNL     1      -9.249   8.791  69.956  1.00  0.00    -0.173 A  
HETATM   15  C   UNL     1     -10.064   8.298  70.976  1.00  0.00    -0.230 A  
HETATM   16  C   UNL     1     -10.663   7.039  70.868  1.00  0.00    -0.235 A  
HETATM   17  N   UNL     1     -11.591   6.622  71.828  1.00  0.00    -0.287 NA 
HETATM   18  C   UNL     1     -10.504   6.321  69.677  1.00  0.00    -0.295 A  
HETATM   19  H2  UNL     1     -12.328   7.325  71.891  1.00  0.00     0.000 HD 
HETATM   20  H1  UNL     1     -12.027   5.703  71.749  1.00  0.00     0.000 HD 
HETATM   21  C   UNL     1      -9.687   6.804  68.644  1.00  0.00    -0.131 A  
ENDBRANCH  10  13
ENDBRANCH   7  10
TORSDOF 2
ENDMDL
MODEL      181
REMARK 921   NORMALIZED FREE ENERGY PREDICTED BY IDOCK:   -2.98 KCAL/MOL
REMARK 922        TOTAL FREE ENERGY PREDICTED BY IDOCK:   -3.75 KCAL/MOL
REMARK 923 INTER-LIGAND FREE ENERGY PREDICTED BY IDOCK:   -3.38 KCAL/MOL
REMARK 924 INTRA-LIGAND FREE ENERGY PREDICTED BY IDOCK:   -0.37 KCAL/MOL
REMARK 927      BINDING AFFINITY PREDICTED BY RF-SCORE:    0.00 PKD
ROOT
HETATM    1  N   UNL     1      -8.672   6.003  65.061  1.00  0.00    -0.342 NA 
HETATM    2  H2  UNL     1      -9.351   6.230  64.335  1.00  0.00     0.000 HD 
HETATM    3  C   UNL     1      -8.531   7.117  65.896  1.00  0.00    -0.147 A  
HETATM    4  H1  UNL     1      -7.854   5.588  64.615  1.00  0.00     0.000 HD 
HETATM    5  C   UNL     1      -9.652   7.686  66.507  1.00  0.00    -0.254 A  
HETATM    6  C   UNL     1      -9.518   8.750  67.404  1.00  0.00    -0.183 A  
HETATM    7  C   UNL     1      -8.244   9.223  67.722  1.00  0.00    -0.115 A  
HETATM    8  C   UNL     1      -7.261   7.526  66.313  1.00  0.00    -0.074 A  
HETATM    9  C   UNL     1      -7.110   8.584  67.215  1.00  0.00    -0.076 A  
ENDROOT
BRANCH   7  10
HETATM   10  S   UNL     1      -8.059  10.559  68.885  1.00  0.00    -0.147 S  
HETATM   11  O   UNL     1      -8.228   9.975  70.204  1.00  0.00    -0.176 OA 
HETATM   12  O   UNL     1      -6.836  11.262  68.547  1.00  0.00    -0.063 OA 
BRANCH  10  13
HETATM   13  C   UNL     1      -9.380  11.734  68.669  1.00  0.00    -0.090 A  
HETATM   14  C   UNL     1     -10.554  11.558  69.407  1.00  0.00    -0.056 A  
HETATM   15  C   UNL     1     -11.591  12.486  69.296  1.00  0.00    -0.378 A  
HETATM   16  C   UNL     1     -11.490  13.570  68.419  1.00  0.00    -0.311 A  
HETATM   17  N   UNL     1     -12.470  14.569  68.428  1.00  0.00    -0.531 NA 
HETATM   18  C   UNL     1     -10.291  13.760  67.723  1.00  0.00    -0.241 A  
HETATM   19  H2  UNL     1     -12.555  14.929  69.378  1.00  0.00     0.000 HD 
HETATM   20  H1  UNL     1     -12.396  15.360  67.788  1.00  0.00     0.000 HD 
HETATM   21  C   UNL     1      -9.241  12.835  67.823  1.00  0.00    -0.199 A  
ENDBRANCH  10  13
ENDBRANCH   7  10
TORSDOF 2
ENDMDL
MODEL      182
REMARK 921   NORMALIZED FREE ENERGY PREDICTED BY IDOCK:   -2.94 KCAL/MOL
REMARK 922        TOTAL FREE ENERGY PREDICTED BY IDOCK:   -3.71 KCAL/MOL
REMARK 923 INTER-LIGAND FREE ENERGY PREDICTED BY IDOCK:   -3.28 KCAL/MOL
REMARK 924 INTRA-LIGAND FREE ENERGY PREDICTED BY IDOCK:   -0.43 KCAL/MOL
REMARK 927      BINDING AFFINITY PREDICTED BY RF-SCORE:    0.00 PKD
ROOT
HETATM    1  N   UNL     1     -10.245   7.331  73.465  1.00  0.00    -0.336 NA 
HETATM    2  H2  UNL     1      -9.561   7.408  74.217  1.00  0.00     0.000 HD 
HETATM    3  C   UNL     1      -9.799   8.099  72.384  1.00  0.00    -0.276 A  
HETATM    4  H1  UNL     1     -11.173   7.485  73.858  1.00  0.00     0.000 HD 
HETATM    5  C   UNL     1      -8.528   7.888  71.844  1.00  0.00    -0.155 A  
HETATM    6  C   UNL     1      -8.099   8.595  70.716  1.00  0.00    -0.141 A  
HETATM    7  C   UNL     1      -8.970   9.496  70.100  1.00  0.00    -0.236 A  
HETATM    8  C   UNL     1     -10.694   8.917  71.688  1.00  0.00    -0.418 A  
HETATM    9  C   UNL     1     -10.284   9.625  70.554  1.00  0.00    -0.351 A  
ENDROOT
BRANCH   7  10
HETATM   10  S   UNL     1      -8.445  10.380  68.647  1.00  0.00    -0.136 S  
HETATM   11  O   UNL     1      -9.488  11.351  68.364  1.00  0.00    -0.183 OA 
HETATM   12  O   UNL     1      -7.081  10.817  68.873  1.00  0.00    -0.068 OA 
BRANCH  10  13
HETATM   13  C   UNL     1      -8.384   9.272  67.254  1.00  0.00    -0.125 A  
HETATM   14  C   UNL     1      -9.285   8.205  67.213  1.00  0.00    -0.165 A  
HETATM   15  C   UNL     1      -9.295   7.344  66.114  1.00  0.00    -0.111 A  
HETATM   16  C   UNL     1      -8.380   7.508  65.069  1.00  0.00    -0.061 A  
HETATM   17  N   UNL     1      -8.497   6.732  63.911  1.00  0.00    -0.328 NA 
HETATM   18  C   UNL     1      -7.515   8.608  65.102  1.00  0.00    -0.090 A  
HETATM   19  H2  UNL     1      -9.439   6.851  63.537  1.00  0.00     0.000 HD 
HETATM   20  H1  UNL     1      -7.829   6.851  63.149  1.00  0.00     0.000 HD 
HETATM   21  C   UNL     1      -7.494   9.479  66.200  1.00  0.00    -0.100 A  
ENDBRANCH  10  13
ENDBRANCH   7  10
TORSDOF 2
ENDMDL
MODEL      183
REMARK 921   NORMALIZED FREE ENERGY PREDICTED BY IDOCK:   -2.93 KCAL/MOL
REMARK 922        TOTAL FREE ENERGY PREDICTED BY IDOCK:   -3.70 KCAL/MOL
REMARK 923 INTER-LIGAND FREE ENERGY PREDICTED BY IDOCK:   -3.29 KCAL/MOL
REMARK 924 INTRA-LIGAND FREE ENERGY PREDICTED BY IDOCK:   -0.41 KCAL/MOL
REMARK 927      BINDING AFFINITY PREDICTED BY RF-SCORE:    0.00 PKD
ROOT
HETATM    1  N   UNL     1      -8.564   2.592  69.747  1.00  0.00    -0.055 NA 
HETATM    2  H2  UNL     1      -8.361   2.629  70.746  1.00  0.00     0.000 HD 
HETATM    3  C   UNL     1      -8.674   3.903  69.270  1.00  0.00    -0.084 A  
HETATM    4  H1  UNL     1      -9.321   1.925  69.598  1.00  0.00     0.000 HD 
HETATM    5  C   UNL     1      -7.636   4.816  69.474  1.00  0.00    -0.059 A  
HETATM    6  C   UNL     1      -7.700   6.106  68.937  1.00  0.00    -0.093 A  
HETATM    7  C   UNL     1      -8.798   6.470  68.155  1.00  0.00    -0.115 A  
HETATM    8  C   UNL     1      -9.707   4.246  68.393  1.00  0.00    -0.165 A  
HETATM    9  C   UNL     1      -9.781   5.529  67.842  1.00  0.00    -0.155 A  
ENDROOT
BRANCH   7  10
HETATM   10  S   UNL     1      -8.876   8.100  67.443  1.00  0.00    -0.127 S  
HETATM   11  O   UNL     1      -7.541   8.659  67.559  1.00  0.00    -0.092 OA 
HETATM   12  O   UNL     1      -9.507   7.976  66.143  1.00  0.00    -0.190 OA 
BRANCH  10  13
HETATM   13  C   UNL     1      -9.953   9.133  68.416  1.00  0.00    -0.181 A  
HETATM   14  C   UNL     1      -9.895   9.028  69.809  1.00  0.00    -0.188 A  
HETATM   15  C   UNL     1     -10.691   9.856  70.602  1.00  0.00    -0.372 A  
HETATM   16  C   UNL     1     -11.584  10.761  70.021  1.00  0.00    -0.334 A  
HETATM   17  N   UNL     1     -12.265  11.683  70.822  1.00  0.00    -0.375 NA 
HETATM   18  C   UNL     1     -11.597  10.889  68.627  1.00  0.00    -0.373 A  
HETATM   19  H2  UNL     1     -11.579  12.209  71.364  1.00  0.00     0.000 HD 
HETATM   20  H1  UNL     1     -12.917  12.344  70.398  1.00  0.00     0.000 HD 
HETATM   21  C   UNL     1     -10.803  10.063  67.817  1.00  0.00    -0.337 A  
ENDBRANCH  10  13
ENDBRANCH   7  10
TORSDOF 2
ENDMDL
MODEL      184
REMARK 921   NORMALIZED FREE ENERGY PREDICTED BY IDOCK:   -2.93 KCAL/MOL
REMARK 922        TOTAL FREE ENERGY PREDICTED BY IDOCK:   -3.69 KCAL/MOL
REMARK 923 INTER-LIGAND FREE ENERGY PREDICTED BY IDOCK:   -3.38 KCAL/MOL
REMARK 924 INTRA-LIGAND FREE ENERGY PREDICTED BY IDOCK:   -0.32 KCAL/MOL
REMARK 927      BINDING AFFINITY PREDICTED BY RF-SCORE:    0.00 PKD
ROOT
HETATM    1  N   UNL     1      -7.171   3.461  65.621  1.00  0.00    -0.066 NA 
HETATM    2  H2  UNL     1      -6.825   2.788  66.304  1.00  0.00     0.000 HD 
HETATM    3  C   UNL     1      -7.645   4.583  66.309  1.00  0.00    -0.090 A  
HETATM    4  H1  UNL     1      -7.775   2.968  64.963  1.00  0.00     0.000 HD 
HETATM    5  C   UNL     1      -6.817   5.259  67.210  1.00  0.00    -0.060 A  
HETATM    6  C   UNL     1      -7.251   6.426  67.847  1.00  0.00    -0.087 A  
HETATM    7  C   UNL     1      -8.512   6.943  67.547  1.00  0.00    -0.122 A  
HETATM    8  C   UNL     1      -8.854   5.176  65.937  1.00  0.00    -0.142 A  
HETATM    9  C   UNL     1      -9.299   6.347  66.559  1.00  0.00    -0.181 A  
ENDROOT
BRANCH   7  10
HETATM   10  S   UNL     1      -9.064   8.443  68.331  1.00  0.00    -0.135 S  
HETATM   11  O   UNL     1      -7.958   8.902  69.153  1.00  0.00    -0.101 OA 
HETATM   12  O   UNL     1      -9.608   9.299  67.294  1.00  0.00    -0.145 OA 
BRANCH  10  13
HETATM   13  C   UNL     1     -10.414   8.087  69.436  1.00  0.00    -0.220 A  
HETATM   14  C   UNL     1     -10.763   6.751  69.651  1.00  0.00    -0.290 A  
HETATM   15  C   UNL     1     -11.786   6.434  70.546  1.00  0.00    -0.385 A  
HETATM   16  C   UNL     1     -12.501   7.441  71.200  1.00  0.00    -0.308 A  
HETATM   17  N   UNL     1     -13.420   7.109  72.201  1.00  0.00    -0.535 NA 
HETATM   18  C   UNL     1     -12.110   8.772  71.011  1.00  0.00    -0.262 A  
HETATM   19  H2  UNL     1     -12.941   6.544  72.904  1.00  0.00     0.000 HD 
HETATM   20  H1  UNL     1     -13.942   7.843  72.678  1.00  0.00     0.000 HD 
HETATM   21  C   UNL     1     -11.085   9.105  70.114  1.00  0.00    -0.248 A  
ENDBRANCH  10  13
ENDBRANCH   7  10
TORSDOF 2
ENDMDL
MODEL      185
REMARK 921   NORMALIZED FREE ENERGY PREDICTED BY IDOCK:   -2.92 KCAL/MOL
REMARK 922        TOTAL FREE ENERGY PREDICTED BY IDOCK:   -3.69 KCAL/MOL
REMARK 923 INTER-LIGAND FREE ENERGY PREDICTED BY IDOCK:   -3.27 KCAL/MOL
REMARK 924 INTRA-LIGAND FREE ENERGY PREDICTED BY IDOCK:   -0.42 KCAL/MOL
REMARK 927      BINDING AFFINITY PREDICTED BY RF-SCORE:    0.00 PKD
ROOT
HETATM    1  N   UNL     1     -11.237   2.319  73.910  1.00  0.00    -0.187 NA 
HETATM    2  H2  UNL     1     -10.606   1.642  74.338  1.00  0.00     0.000 HD 
HETATM    3  C   UNL     1     -10.515   3.065  72.973  1.00  0.00    -0.160 A  
HETATM    4  H1  UNL     1     -11.754   2.788  74.654  1.00  0.00     0.000 HD 
HETATM    5  C   UNL     1      -9.807   2.422  71.954  1.00  0.00    -0.229 A  
HETATM    6  C   UNL     1      -9.143   3.157  70.966  1.00  0.00    -0.184 A  
HETATM    7  C   UNL     1      -9.224   4.550  70.978  1.00  0.00    -0.140 A  
HETATM    8  C   UNL     1     -10.678   4.451  72.903  1.00  0.00    -0.263 A  
HETATM    9  C   UNL     1     -10.028   5.200  71.917  1.00  0.00    -0.239 A  
ENDROOT
BRANCH   7  10
HETATM   10  S   UNL     1      -8.407   5.495  69.709  1.00  0.00    -0.106 S  
HETATM   11  O   UNL     1      -7.006   5.552  70.083  1.00  0.00    -0.059 OA 
HETATM   12  O   UNL     1      -8.801   4.935  68.430  1.00  0.00    -0.100 OA 
BRANCH  10  13
HETATM   13  C   UNL     1      -9.012   7.170  69.720  1.00  0.00    -0.142 A  
HETATM   14  C   UNL     1     -10.168   7.465  68.993  1.00  0.00    -0.201 A  
HETATM   15  C   UNL     1     -10.695   8.758  69.017  1.00  0.00    -0.134 A  
HETATM   16  C   UNL     1     -10.054   9.778  69.726  1.00  0.00    -0.239 A  
HETATM   17  N   UNL     1     -10.669  11.027  69.863  1.00  0.00    -0.463 NA 
HETATM   18  C   UNL     1      -8.924   9.458  70.488  1.00  0.00    -0.303 A  
HETATM   19  H2  UNL     1     -11.596  10.887  70.266  1.00  0.00     0.000 HD 
HETATM   20  H1  UNL     1     -10.201  11.772  70.380  1.00  0.00     0.000 HD 
HETATM   21  C   UNL     1      -8.383   8.164  70.471  1.00  0.00    -0.123 A  
ENDBRANCH  10  13
ENDBRANCH   7  10
TORSDOF 2
ENDMDL
MODEL      186
REMARK 921   NORMALIZED FREE ENERGY PREDICTED BY IDOCK:   -2.92 KCAL/MOL
REMARK 922        TOTAL FREE ENERGY PREDICTED BY IDOCK:   -3.68 KCAL/MOL
REMARK 923 INTER-LIGAND FREE ENERGY PREDICTED BY IDOCK:   -3.27 KCAL/MOL
REMARK 924 INTRA-LIGAND FREE ENERGY PREDICTED BY IDOCK:   -0.41 KCAL/MOL
REMARK 927      BINDING AFFINITY PREDICTED BY RF-SCORE:    0.00 PKD
ROOT
HETATM    1  N   UNL     1      -7.491  10.604  65.312  1.00  0.00    -0.331 NA 
HETATM    2  H2  UNL     1      -8.222  10.998  64.721  1.00  0.00     0.000 HD 
HETATM    3  C   UNL     1      -8.062   9.615  66.120  1.00  0.00    -0.108 A  
HETATM    4  H1  UNL     1      -6.969  11.373  65.732  1.00  0.00     0.000 HD 
HETATM    5  C   UNL     1      -8.777   8.561  65.545  1.00  0.00    -0.208 A  
HETATM    6  C   UNL     1      -9.288   7.525  66.334  1.00  0.00    -0.211 A  
HETATM    7  C   UNL     1      -9.046   7.527  67.709  1.00  0.00    -0.129 A  
HETATM    8  C   UNL     1      -7.733   9.540  67.476  1.00  0.00    -0.095 A  
HETATM    9  C   UNL     1      -8.230   8.507  68.278  1.00  0.00    -0.123 A  
ENDROOT
BRANCH   7  10
HETATM   10  S   UNL     1      -9.667   6.198  68.719  1.00  0.00    -0.133 S  
HETATM   11  O   UNL     1     -11.095   6.126  68.461  1.00  0.00    -0.328 OA 
HETATM   12  O   UNL     1      -8.822   5.043  68.484  1.00  0.00    -0.100 OA 
BRANCH  10  13
HETATM   13  C   UNL     1      -9.475   6.609  70.441  1.00  0.00    -0.166 A  
HETATM   14  C   UNL     1      -8.311   6.198  71.097  1.00  0.00    -0.124 A  
HETATM   15  C   UNL     1      -8.108   6.543  72.434  1.00  0.00    -0.101 A  
HETATM   16  C   UNL     1      -9.077   7.258  73.144  1.00  0.00    -0.153 A  
HETATM   17  N   UNL     1      -8.797   7.723  74.434  1.00  0.00    -0.445 NA 
HETATM   18  C   UNL     1     -10.215   7.704  72.462  1.00  0.00    -0.298 A  
HETATM   19  H2  UNL     1      -7.945   8.283  74.397  1.00  0.00     0.000 HD 
HETATM   20  H1  UNL     1      -9.504   8.245  74.952  1.00  0.00     0.000 HD 
HETATM   21  C   UNL     1     -10.433   7.363  71.119  1.00  0.00    -0.220 A  
ENDBRANCH  10  13
ENDBRANCH   7  10
TORSDOF 2
ENDMDL
MODEL      187
REMARK 921   NORMALIZED FREE ENERGY PREDICTED BY IDOCK:   -2.92 KCAL/MOL
REMARK 922        TOTAL FREE ENERGY PREDICTED BY IDOCK:   -3.68 KCAL/MOL
REMARK 923 INTER-LIGAND FREE ENERGY PREDICTED BY IDOCK:   -3.26 KCAL/MOL
REMARK 924 INTRA-LIGAND FREE ENERGY PREDICTED BY IDOCK:   -0.42 KCAL/MOL
REMARK 927      BINDING AFFINITY PREDICTED BY RF-SCORE:    0.00 PKD
ROOT
HETATM    1  N   UNL     1      -7.510  13.930  68.404  1.00  0.00    -0.109 NA 
HETATM    2  H2  UNL     1      -6.760  14.176  67.760  1.00  0.00     0.000 HD 
HETATM    3  C   UNL     1      -7.932  12.628  68.113  1.00  0.00    -0.158 A  
HETATM    4  H1  UNL     1      -8.182  14.697  68.421  1.00  0.00     0.000 HD 
HETATM    5  C   UNL     1      -7.011  11.577  68.090  1.00  0.00    -0.070 A  
HETATM    6  C   UNL     1      -7.430  10.260  67.876  1.00  0.00    -0.088 A  
HETATM    7  C   UNL     1      -8.791   9.989  67.723  1.00  0.00    -0.125 A  
HETATM    8  C   UNL     1      -9.296  12.324  68.072  1.00  0.00    -0.195 A  
HETATM    9  C   UNL     1      -9.732  11.012  67.867  1.00  0.00    -0.183 A  
ENDROOT
BRANCH   7  10
HETATM   10  S   UNL     1      -9.339   8.313  67.479  1.00  0.00    -0.143 S  
HETATM   11  O   UNL     1     -10.502   8.388  66.612  1.00  0.00    -0.294 OA 
HETATM   12  O   UNL     1      -8.182   7.531  67.084  1.00  0.00    -0.112 OA 
BRANCH  10  13
HETATM   13  C   UNL     1      -9.893   7.627  69.026  1.00  0.00    -0.168 A  
HETATM   14  C   UNL     1     -10.927   6.687  69.005  1.00  0.00    -0.332 A  
HETATM   15  C   UNL     1     -11.354   6.096  70.195  1.00  0.00    -0.433 A  
HETATM   16  C   UNL     1     -10.791   6.465  71.420  1.00  0.00    -0.253 A  
HETATM   17  N   UNL     1     -11.123   5.761  72.583  1.00  0.00    -0.264 NA 
HETATM   18  C   UNL     1      -9.724   7.372  71.421  1.00  0.00    -0.175 A  
HETATM   19  H2  UNL     1     -10.934   4.771  72.425  1.00  0.00     0.000 HD 
HETATM   20  H1  UNL     1     -10.712   6.031  73.476  1.00  0.00     0.000 HD 
HETATM   21  C   UNL     1      -9.286   7.975  70.233  1.00  0.00    -0.159 A  
ENDBRANCH  10  13
ENDBRANCH   7  10
TORSDOF 2
ENDMDL
MODEL      188
REMARK 921   NORMALIZED FREE ENERGY PREDICTED BY IDOCK:   -2.86 KCAL/MOL
REMARK 922        TOTAL FREE ENERGY PREDICTED BY IDOCK:   -3.62 KCAL/MOL
REMARK 923 INTER-LIGAND FREE ENERGY PREDICTED BY IDOCK:   -3.38 KCAL/MOL
REMARK 924 INTRA-LIGAND FREE ENERGY PREDICTED BY IDOCK:   -0.23 KCAL/MOL
REMARK 927      BINDING AFFINITY PREDICTED BY RF-SCORE:    0.00 PKD
ROOT
HETATM    1  N   UNL     1     -11.755   6.298  72.365  1.00  0.00    -0.429 NA 
HETATM    2  H2  UNL     1     -11.573   7.063  73.014  1.00  0.00     0.000 HD 
HETATM    3  C   UNL     1     -10.950   6.478  71.235  1.00  0.00    -0.262 A  
HETATM    4  H1  UNL     1     -12.765   6.195  72.266  1.00  0.00     0.000 HD 
HETATM    5  C   UNL     1      -9.566   6.618  71.370  1.00  0.00    -0.174 A  
HETATM    6  C   UNL     1      -8.741   6.722  70.245  1.00  0.00    -0.144 A  
HETATM    7  C   UNL     1      -9.306   6.644  68.971  1.00  0.00    -0.133 A  
HETATM    8  C   UNL     1     -11.482   6.288  69.956  1.00  0.00    -0.460 A  
HETATM    9  C   UNL     1     -10.670   6.380  68.821  1.00  0.00    -0.339 A  
ENDROOT
BRANCH   7  10
HETATM   10  S   UNL     1      -8.263   6.745  67.531  1.00  0.00    -0.123 S  
HETATM   11  O   UNL     1      -7.056   6.005  67.852  1.00  0.00    -0.070 OA 
HETATM   12  O   UNL     1      -9.068   6.370  66.385  1.00  0.00    -0.148 OA 
BRANCH  10  13
HETATM   13  C   UNL     1      -7.774   8.436  67.259  1.00  0.00    -0.098 A  
HETATM   14  C   UNL     1      -7.587   9.262  68.371  1.00  0.00    -0.086 A  
HETATM   15  C   UNL     1      -7.159  10.579  68.195  1.00  0.00    -0.082 A  
HETATM   16  C   UNL     1      -6.956  11.100  66.914  1.00  0.00    -0.131 A  
HETATM   17  N   UNL     1      -6.387  12.369  66.758  1.00  0.00    -0.484 NA 
HETATM   18  C   UNL     1      -7.100  10.248  65.813  1.00  0.00    -0.132 A  
HETATM   19  H2  UNL     1      -5.499  12.388  67.259  1.00  0.00     0.000 HD 
HETATM   20  H1  UNL     1      -6.240  12.750  65.823  1.00  0.00     0.000 HD 
HETATM   21  C   UNL     1      -7.532   8.924  65.975  1.00  0.00    -0.090 A  
ENDBRANCH  10  13
ENDBRANCH   7  10
TORSDOF 2
ENDMDL
MODEL      189
REMARK 921   NORMALIZED FREE ENERGY PREDICTED BY IDOCK:   -2.84 KCAL/MOL
REMARK 922        TOTAL FREE ENERGY PREDICTED BY IDOCK:   -3.60 KCAL/MOL
REMARK 923 INTER-LIGAND FREE ENERGY PREDICTED BY IDOCK:   -3.18 KCAL/MOL
REMARK 924 INTRA-LIGAND FREE ENERGY PREDICTED BY IDOCK:   -0.42 KCAL/MOL
REMARK 927      BINDING AFFINITY PREDICTED BY RF-SCORE:    0.00 PKD
ROOT
HETATM    1  N   UNL     1     -11.349   4.689  65.331  1.00  0.00    -1.028 NA 
HETATM    2  H2  UNL     1     -11.345   3.687  65.518  1.00  0.00     0.000 HD 
HETATM    3  C   UNL     1     -10.462   5.306  66.220  1.00  0.00    -0.255 A  
HETATM    4  H1  UNL     1     -12.319   5.000  65.272  1.00  0.00     0.000 HD 
HETATM    5  C   UNL     1      -9.134   4.880  66.301  1.00  0.00    -0.127 A  
HETATM    6  C   UNL     1      -8.218   5.538  67.129  1.00  0.00    -0.101 A  
HETATM    7  C   UNL     1      -8.629   6.658  67.852  1.00  0.00    -0.118 A  
HETATM    8  C   UNL     1     -10.825   6.494  66.861  1.00  0.00    -0.427 A  
HETATM    9  C   UNL     1      -9.919   7.168  67.686  1.00  0.00    -0.201 A  
ENDROOT
BRANCH   7  10
HETATM   10  S   UNL     1      -7.464   7.520  68.887  1.00  0.00    -0.098 S  
HETATM   11  O   UNL     1      -6.147   7.058  68.487  1.00  0.00    -0.027 OA 
HETATM   12  O   UNL     1      -7.794   8.931  68.829  1.00  0.00    -0.097 OA 
BRANCH  10  13
HETATM   13  C   UNL     1      -7.688   7.031  70.585  1.00  0.00    -0.095 A  
HETATM   14  C   UNL     1      -8.224   5.767  70.848  1.00  0.00    -0.121 A  
HETATM   15  C   UNL     1      -8.369   5.334  72.167  1.00  0.00    -0.125 A  
HETATM   16  C   UNL     1      -8.027   6.168  73.236  1.00  0.00    -0.103 A  
HETATM   17  N   UNL     1      -8.039   5.669  74.543  1.00  0.00    -0.103 NA 
HETATM   18  C   UNL     1      -7.448   7.411  72.957  1.00  0.00    -0.086 A  
HETATM   19  H2  UNL     1      -7.445   4.840  74.577  1.00  0.00     0.000 HD 
HETATM   20  H1  UNL     1      -7.789   6.277  75.323  1.00  0.00     0.000 HD 
HETATM   21  C   UNL     1      -7.297   7.860  71.637  1.00  0.00    -0.070 A  
ENDBRANCH  10  13
ENDBRANCH   7  10
TORSDOF 2
ENDMDL
MODEL      190
REMARK 921   NORMALIZED FREE ENERGY PREDICTED BY IDOCK:   -2.80 KCAL/MOL
REMARK 922        TOTAL FREE ENERGY PREDICTED BY IDOCK:   -3.56 KCAL/MOL
REMARK 923 INTER-LIGAND FREE ENERGY PREDICTED BY IDOCK:   -3.22 KCAL/MOL
REMARK 924 INTRA-LIGAND FREE ENERGY PREDICTED BY IDOCK:   -0.34 KCAL/MOL
REMARK 927      BINDING AFFINITY PREDICTED BY RF-SCORE:    0.00 PKD
ROOT
HETATM    1  N   UNL     1      -9.606   4.038  71.401  1.00  0.00    -0.160 NA 
HETATM    2  H2  UNL     1     -10.316   3.901  72.120  1.00  0.00     0.000 HD 
HETATM    3  C   UNL     1      -9.641   5.378  70.998  1.00  0.00    -0.172 A  
HETATM    4  H1  UNL     1      -9.699   3.292  70.712  1.00  0.00     0.000 HD 
HETATM    5  C   UNL     1      -9.513   6.401  71.942  1.00  0.00    -0.157 A  
HETATM    6  C   UNL     1      -9.469   7.742  71.545  1.00  0.00    -0.174 A  
HETATM    7  C   UNL     1      -9.514   8.057  70.186  1.00  0.00    -0.160 A  
HETATM    8  C   UNL     1      -9.569   5.705  69.641  1.00  0.00    -0.197 A  
HETATM    9  C   UNL     1      -9.517   7.040  69.228  1.00  0.00    -0.147 A  
ENDROOT
BRANCH   7  10
HETATM   10  S   UNL     1      -9.429   9.758  69.668  1.00  0.00    -0.229 S  
HETATM   11  O   UNL     1     -10.669  10.377  70.104  1.00  0.00    -0.280 OA 
HETATM   12  O   UNL     1      -8.153  10.285  70.113  1.00  0.00    -0.089 OA 
BRANCH  10  13
HETATM   13  C   UNL     1      -9.407   9.848  67.890  1.00  0.00    -0.137 A  
HETATM   14  C   UNL     1      -8.215   9.550  67.223  1.00  0.00    -0.114 A  
HETATM   15  C   UNL     1      -8.176   9.565  65.828  1.00  0.00    -0.116 A  
HETATM   16  C   UNL     1      -9.305   9.921  65.084  1.00  0.00    -0.258 A  
HETATM   17  N   UNL     1      -9.294   9.789  63.691  1.00  0.00    -0.392 NA 
HETATM   18  C   UNL     1     -10.503  10.170  65.763  1.00  0.00    -0.128 A  
HETATM   19  H2  UNL     1      -9.044   8.827  63.460  1.00  0.00     0.000 HD 
HETATM   20  H1  UNL     1     -10.117  10.049  63.149  1.00  0.00     0.000 HD 
HETATM   21  C   UNL     1     -10.557  10.160  67.164  1.00  0.00    -0.308 A  
ENDBRANCH  10  13
ENDBRANCH   7  10
TORSDOF 2
ENDMDL
MODEL      191
REMARK 921   NORMALIZED FREE ENERGY PREDICTED BY IDOCK:   -2.80 KCAL/MOL
REMARK 922        TOTAL FREE ENERGY PREDICTED BY IDOCK:   -3.56 KCAL/MOL
REMARK 923 INTER-LIGAND FREE ENERGY PREDICTED BY IDOCK:   -3.14 KCAL/MOL
REMARK 924 INTRA-LIGAND FREE ENERGY PREDICTED BY IDOCK:   -0.42 KCAL/MOL
REMARK 927      BINDING AFFINITY PREDICTED BY RF-SCORE:    0.00 PKD
ROOT
HETATM    1  N   UNL     1      -6.410  11.566  70.480  1.00  0.00    -0.517 NA 
HETATM    2  H2  UNL     1      -5.411  11.717  70.345  1.00  0.00     0.000 HD 
HETATM    3  C   UNL     1      -6.943  11.055  69.292  1.00  0.00    -0.116 A  
HETATM    4  H1  UNL     1      -6.807  12.405  70.904  1.00  0.00     0.000 HD 
HETATM    5  C   UNL     1      -6.400   9.906  68.712  1.00  0.00    -0.045 A  
HETATM    6  C   UNL     1      -6.970   9.341  67.566  1.00  0.00    -0.078 A  
HETATM    7  C   UNL     1      -8.121   9.912  67.020  1.00  0.00    -0.110 A  
HETATM    8  C   UNL     1      -8.157  11.544  68.800  1.00  0.00    -0.093 A  
HETATM    9  C   UNL     1      -8.744  10.986  67.660  1.00  0.00    -0.128 A  
ENDROOT
BRANCH   7  10
HETATM   10  S   UNL     1      -8.872   9.185  65.579  1.00  0.00    -0.202 S  
HETATM   11  O   UNL     1     -10.141   9.866  65.396  1.00  0.00    -0.313 OA 
HETATM   12  O   UNL     1      -7.879   9.191  64.522  1.00  0.00    -0.110 OA 
BRANCH  10  13
HETATM   13  C   UNL     1      -9.248   7.473  65.894  1.00  0.00     0.021 A  
HETATM   14  C   UNL     1      -8.387   6.498  65.381  1.00  0.00    -0.140 A  
HETATM   15  C   UNL     1      -8.626   5.149  65.648  1.00  0.00    -0.139 A  
HETATM   16  C   UNL     1      -9.746   4.753  66.386  1.00  0.00    -0.195 A  
HETATM   17  N   UNL     1      -9.893   3.416  66.770  1.00  0.00    -0.373 NA 
HETATM   18  C   UNL     1     -10.573   5.742  66.932  1.00  0.00    -0.377 A  
HETATM   19  H2  UNL     1      -9.055   3.132  67.277  1.00  0.00     0.000 HD 
HETATM   20  H1  UNL     1     -10.711   3.127  67.308  1.00  0.00     0.000 HD 
HETATM   21  C   UNL     1     -10.345   7.101  66.671  1.00  0.00    -0.222 A  
ENDBRANCH  10  13
ENDBRANCH   7  10
TORSDOF 2
ENDMDL
MODEL      192
REMARK 921   NORMALIZED FREE ENERGY PREDICTED BY IDOCK:   -2.80 KCAL/MOL
REMARK 922        TOTAL FREE ENERGY PREDICTED BY IDOCK:   -3.55 KCAL/MOL
REMARK 923 INTER-LIGAND FREE ENERGY PREDICTED BY IDOCK:   -3.14 KCAL/MOL
REMARK 924 INTRA-LIGAND FREE ENERGY PREDICTED BY IDOCK:   -0.41 KCAL/MOL
REMARK 927      BINDING AFFINITY PREDICTED BY RF-SCORE:    0.00 PKD
ROOT
HETATM    1  N   UNL     1      -6.792  10.361  64.664  1.00  0.00    -0.304 NA 
HETATM    2  H2  UNL     1      -6.120  10.894  65.217  1.00  0.00     0.000 HD 
HETATM    3  C   UNL     1      -7.114   9.195  65.365  1.00  0.00    -0.081 A  
HETATM    4  H1  UNL     1      -6.446  10.307  63.706  1.00  0.00     0.000 HD 
HETATM    5  C   UNL     1      -7.588   9.269  66.678  1.00  0.00    -0.093 A  
HETATM    6  C   UNL     1      -7.986   8.117  67.364  1.00  0.00    -0.117 A  
HETATM    7  C   UNL     1      -7.946   6.883  66.713  1.00  0.00    -0.108 A  
HETATM    8  C   UNL     1      -7.189   7.971  64.695  1.00  0.00    -0.079 A  
HETATM    9  C   UNL     1      -7.592   6.811  65.364  1.00  0.00    -0.090 A  
ENDROOT
BRANCH   7  10
HETATM   10  S   UNL     1      -8.477   5.414  67.567  1.00  0.00    -0.104 S  
HETATM   11  O   UNL     1      -9.456   4.775  66.705  1.00  0.00    -0.134 OA 
HETATM   12  O   UNL     1      -7.286   4.697  67.980  1.00  0.00    -0.063 OA 
BRANCH  10  13
HETATM   13  C   UNL     1      -9.327   5.862  69.067  1.00  0.00    -0.123 A  
HETATM   14  C   UNL     1     -10.711   6.054  69.015  1.00  0.00    -0.393 A  
HETATM   15  C   UNL     1     -11.415   6.360  70.181  1.00  0.00    -0.484 A  
HETATM   16  C   UNL     1     -10.747   6.523  71.398  1.00  0.00    -0.238 A  
HETATM   17  N   UNL     1     -11.477   6.683  72.581  1.00  0.00    -0.421 NA 
HETATM   18  C   UNL     1      -9.368   6.281  71.444  1.00  0.00    -0.160 A  
HETATM   19  H2  UNL     1     -12.123   5.898  72.669  1.00  0.00     0.000 HD 
HETATM   20  H1  UNL     1     -10.989   6.803  73.469  1.00  0.00     0.000 HD 
HETATM   21  C   UNL     1      -8.649   5.974  70.280  1.00  0.00    -0.143 A  
ENDBRANCH  10  13
ENDBRANCH   7  10
TORSDOF 2
ENDMDL
MODEL      193
REMARK 921   NORMALIZED FREE ENERGY PREDICTED BY IDOCK:   -2.78 KCAL/MOL
REMARK 922        TOTAL FREE ENERGY PREDICTED BY IDOCK:   -3.53 KCAL/MOL
REMARK 923 INTER-LIGAND FREE ENERGY PREDICTED BY IDOCK:   -3.15 KCAL/MOL
REMARK 924 INTRA-LIGAND FREE ENERGY PREDICTED BY IDOCK:   -0.38 KCAL/MOL
REMARK 927      BINDING AFFINITY PREDICTED BY RF-SCORE:    0.00 PKD
ROOT
HETATM    1  N   UNL     1     -10.775  10.428  70.727  1.00  0.00    -0.308 NA 
HETATM    2  H2  UNL     1     -10.010  10.964  70.318  1.00  0.00     0.000 HD 
HETATM    3  C   UNL     1     -10.369   9.094  70.837  1.00  0.00    -0.280 A  
HETATM    4  H1  UNL     1     -11.634  10.666  70.230  1.00  0.00     0.000 HD 
HETATM    5  C   UNL     1      -9.193   8.769  71.518  1.00  0.00    -0.332 A  
HETATM    6  C   UNL     1      -8.815   7.434  71.701  1.00  0.00    -0.125 A  
HETATM    7  C   UNL     1      -9.646   6.415  71.232  1.00  0.00    -0.170 A  
HETATM    8  C   UNL     1     -11.241   8.063  70.477  1.00  0.00    -0.252 A  
HETATM    9  C   UNL     1     -10.882   6.724  70.660  1.00  0.00    -0.292 A  
ENDROOT
BRANCH   7  10
HETATM   10  S   UNL     1      -9.189   4.713  71.486  1.00  0.00    -0.144 S  
HETATM   11  O   UNL     1      -7.848   4.731  72.042  1.00  0.00    -0.095 OA 
HETATM   12  O   UNL     1     -10.273   4.076  72.209  1.00  0.00    -0.180 OA 
BRANCH  10  13
HETATM   13  C   UNL     1      -9.084   3.877  69.917  1.00  0.00    -0.122 A  
HETATM   14  C   UNL     1      -8.657   4.604  68.802  1.00  0.00    -0.096 A  
HETATM   15  C   UNL     1      -8.519   3.967  67.568  1.00  0.00    -0.103 A  
HETATM   16  C   UNL     1      -8.847   2.617  67.418  1.00  0.00    -0.139 A  
HETATM   17  N   UNL     1      -8.565   1.957  66.217  1.00  0.00    -0.107 NA 
HETATM   18  C   UNL     1      -9.228   1.890  68.553  1.00  0.00    -0.228 A  
HETATM   19  H2  UNL     1      -7.573   2.074  66.011  1.00  0.00     0.000 HD 
HETATM   20  H1  UNL     1      -8.805   0.972  66.108  1.00  0.00     0.000 HD 
HETATM   21  C   UNL     1      -9.372   2.517  69.799  1.00  0.00    -0.176 A  
ENDBRANCH  10  13
ENDBRANCH   7  10
TORSDOF 2
ENDMDL
MODEL      194
REMARK 921   NORMALIZED FREE ENERGY PREDICTED BY IDOCK:   -2.72 KCAL/MOL
REMARK 922        TOTAL FREE ENERGY PREDICTED BY IDOCK:   -3.47 KCAL/MOL
REMARK 923 INTER-LIGAND FREE ENERGY PREDICTED BY IDOCK:   -3.04 KCAL/MOL
REMARK 924 INTRA-LIGAND FREE ENERGY PREDICTED BY IDOCK:   -0.42 KCAL/MOL
REMARK 927      BINDING AFFINITY PREDICTED BY RF-SCORE:    0.00 PKD
ROOT
HETATM    1  N   UNL     1     -11.851   9.265  71.868  1.00  0.00    -0.370 NA 
HETATM    2  H2  UNL     1     -12.720   9.322  71.337  1.00  0.00     0.000 HD 
HETATM    3  C   UNL     1     -11.065   8.245  71.320  1.00  0.00    -0.251 A  
HETATM    4  H1  UNL     1     -12.082   9.258  72.862  1.00  0.00     0.000 HD 
HETATM    5  C   UNL     1     -10.748   8.254  69.959  1.00  0.00    -0.239 A  
HETATM    6  C   UNL     1      -9.901   7.284  69.412  1.00  0.00    -0.163 A  
HETATM    7  C   UNL     1      -9.336   6.319  70.247  1.00  0.00    -0.161 A  
HETATM    8  C   UNL     1     -10.401   7.344  72.156  1.00  0.00    -0.232 A  
HETATM    9  C   UNL     1      -9.546   6.373  71.627  1.00  0.00    -0.171 A  
ENDROOT
BRANCH   7  10
HETATM   10  S   UNL     1      -8.234   5.097  69.567  1.00  0.00    -0.094 S  
HETATM   11  O   UNL     1      -6.889   5.612  69.757  1.00  0.00    -0.056 OA 
HETATM   12  O   UNL     1      -8.611   3.813  70.128  1.00  0.00    -0.062 OA 
BRANCH  10  13
HETATM   13  C   UNL     1      -8.490   4.963  67.810  1.00  0.00    -0.104 A  
HETATM   14  C   UNL     1      -9.559   4.187  67.351  1.00  0.00    -0.222 A  
HETATM   15  C   UNL     1      -9.816   4.098  65.982  1.00  0.00    -0.206 A  
HETATM   16  C   UNL     1      -8.990   4.740  65.056  1.00  0.00    -0.153 A  
HETATM   17  N   UNL     1      -9.344   4.764  63.702  1.00  0.00    -0.348 NA 
HETATM   18  C   UNL     1      -7.953   5.552  65.531  1.00  0.00    -0.111 A  
HETATM   19  H2  UNL     1     -10.283   5.154  63.622  1.00  0.00     0.000 HD 
HETATM   20  H1  UNL     1      -8.740   5.233  63.026  1.00  0.00     0.000 HD 
HETATM   21  C   UNL     1      -7.682   5.649  66.904  1.00  0.00    -0.100 A  
ENDBRANCH  10  13
ENDBRANCH   7  10
TORSDOF 2
ENDMDL
MODEL      195
REMARK 921   NORMALIZED FREE ENERGY PREDICTED BY IDOCK:   -2.72 KCAL/MOL
REMARK 922        TOTAL FREE ENERGY PREDICTED BY IDOCK:   -3.47 KCAL/MOL
REMARK 923 INTER-LIGAND FREE ENERGY PREDICTED BY IDOCK:   -3.03 KCAL/MOL
REMARK 924 INTRA-LIGAND FREE ENERGY PREDICTED BY IDOCK:   -0.44 KCAL/MOL
REMARK 927      BINDING AFFINITY PREDICTED BY RF-SCORE:    0.00 PKD
ROOT
HETATM    1  N   UNL     1     -10.623   1.830  73.034  1.00  0.00    -0.127 NA 
HETATM    2  H2  UNL     1      -9.998   1.120  73.415  1.00  0.00     0.000 HD 
HETATM    3  C   UNL     1      -9.992   2.429  71.938  1.00  0.00    -0.150 A  
HETATM    4  H1  UNL     1     -10.967   2.402  73.805  1.00  0.00     0.000 HD 
HETATM    5  C   UNL     1      -9.521   1.645  70.881  1.00  0.00    -0.192 A  
HETATM    6  C   UNL     1      -8.957   2.236  69.745  1.00  0.00    -0.154 A  
HETATM    7  C   UNL     1      -8.902   3.628  69.651  1.00  0.00    -0.089 A  
HETATM    8  C   UNL     1     -10.033   3.817  71.776  1.00  0.00    -0.227 A  
HETATM    9  C   UNL     1      -9.481   4.423  70.643  1.00  0.00    -0.242 A  
ENDROOT
BRANCH   7  10
HETATM   10  S   UNL     1      -8.213   4.391  68.197  1.00  0.00    -0.090 S  
HETATM   11  O   UNL     1      -6.824   4.675  68.508  1.00  0.00    -0.049 OA 
HETATM   12  O   UNL     1      -8.553   3.551  67.064  1.00  0.00    -0.103 OA 
BRANCH  10  13
HETATM   13  C   UNL     1      -9.006   5.958  67.905  1.00  0.00    -0.111 A  
HETATM   14  C   UNL     1     -10.273   5.963  67.314  1.00  0.00    -0.242 A  
HETATM   15  C   UNL     1     -10.942   7.171  67.113  1.00  0.00    -0.342 A  
HETATM   16  C   UNL     1     -10.343   8.387  67.454  1.00  0.00    -0.285 A  
HETATM   17  N   UNL     1     -11.080   9.574  67.384  1.00  0.00    -0.362 NA 
HETATM   18  C   UNL     1      -9.095   8.364  68.088  1.00  0.00    -0.138 A  
HETATM   19  H2  UNL     1     -11.925   9.462  67.945  1.00  0.00     0.000 HD 
HETATM   20  H1  UNL     1     -10.642  10.461  67.633  1.00  0.00     0.000 HD 
HETATM   21  C   UNL     1      -8.410   7.157  68.295  1.00  0.00    -0.124 A  
ENDBRANCH  10  13
ENDBRANCH   7  10
TORSDOF 2
ENDMDL
MODEL      196
REMARK 921   NORMALIZED FREE ENERGY PREDICTED BY IDOCK:   -2.67 KCAL/MOL
REMARK 922        TOTAL FREE ENERGY PREDICTED BY IDOCK:   -3.41 KCAL/MOL
REMARK 923 INTER-LIGAND FREE ENERGY PREDICTED BY IDOCK:   -3.04 KCAL/MOL
REMARK 924 INTRA-LIGAND FREE ENERGY PREDICTED BY IDOCK:   -0.37 KCAL/MOL
REMARK 927      BINDING AFFINITY PREDICTED BY RF-SCORE:    0.00 PKD
ROOT
HETATM    1  N   UNL     1      -9.244   2.110  63.109  1.00  0.00    -0.091 NA 
HETATM    2  H2  UNL     1      -9.050   1.152  63.400  1.00  0.00     0.000 HD 
HETATM    3  C   UNL     1      -9.321   2.911  64.254  1.00  0.00    -0.133 A  
HETATM    4  H1  UNL     1     -10.014   2.093  62.441  1.00  0.00     0.000 HD 
HETATM    5  C   UNL     1      -8.266   2.935  65.170  1.00  0.00    -0.091 A  
HETATM    6  C   UNL     1      -8.297   3.788  66.279  1.00  0.00    -0.105 A  
HETATM    7  C   UNL     1      -9.379   4.653  66.448  1.00  0.00    -0.149 A  
HETATM    8  C   UNL     1     -10.338   3.862  64.378  1.00  0.00    -0.242 A  
HETATM    9  C   UNL     1     -10.380   4.727  65.476  1.00  0.00    -0.162 A  
ENDROOT
BRANCH   7  10
HETATM   10  S   UNL     1      -9.416   5.763  67.840  1.00  0.00    -0.112 S  
HETATM   11  O   UNL     1     -10.587   5.400  68.618  1.00  0.00    -0.179 OA 
HETATM   12  O   UNL     1      -8.098   5.742  68.447  1.00  0.00    -0.106 OA 
BRANCH  10  13
HETATM   13  C   UNL     1      -9.671   7.432  67.274  1.00  0.00    -0.157 A  
HETATM   14  C   UNL     1     -10.525   8.260  68.008  1.00  0.00    -0.239 A  
HETATM   15  C   UNL     1     -10.712   9.588  67.619  1.00  0.00    -0.314 A  
HETATM   16  C   UNL     1     -10.088  10.092  66.473  1.00  0.00    -0.232 A  
HETATM   17  N   UNL     1     -10.166  11.457  66.179  1.00  0.00    -0.231 NA 
HETATM   18  C   UNL     1      -9.199   9.266  65.775  1.00  0.00    -0.283 A  
HETATM   19  H2  UNL     1      -9.828  11.981  66.987  1.00  0.00     0.000 HD 
HETATM   20  H1  UNL     1      -9.711  11.825  65.343  1.00  0.00     0.000 HD 
HETATM   21  C   UNL     1      -9.004   7.930  66.154  1.00  0.00    -0.214 A  
ENDBRANCH  10  13
ENDBRANCH   7  10
TORSDOF 2
ENDMDL
MODEL      197
REMARK 921   NORMALIZED FREE ENERGY PREDICTED BY IDOCK:   -2.65 KCAL/MOL
REMARK 922        TOTAL FREE ENERGY PREDICTED BY IDOCK:   -3.39 KCAL/MOL
REMARK 923 INTER-LIGAND FREE ENERGY PREDICTED BY IDOCK:   -2.97 KCAL/MOL
REMARK 924 INTRA-LIGAND FREE ENERGY PREDICTED BY IDOCK:   -0.42 KCAL/MOL
REMARK 927      BINDING AFFINITY PREDICTED BY RF-SCORE:    0.00 PKD
ROOT
HETATM    1  N   UNL     1      -6.092   6.494  72.310  1.00  0.00    -0.038 NA 
HETATM    2  H2  UNL     1      -6.383   6.205  73.243  1.00  0.00     0.000 HD 
HETATM    3  C   UNL     1      -7.196   7.052  71.657  1.00  0.00    -0.078 A  
HETATM    4  H1  UNL     1      -5.575   5.725  71.882  1.00  0.00     0.000 HD 
HETATM    5  C   UNL     1      -7.903   8.106  72.242  1.00  0.00    -0.167 A  
HETATM    6  C   UNL     1      -8.961   8.723  71.567  1.00  0.00    -0.306 A  
HETATM    7  C   UNL     1      -9.288   8.305  70.275  1.00  0.00    -0.159 A  
HETATM    8  C   UNL     1      -7.462   6.726  70.324  1.00  0.00    -0.090 A  
HETATM    9  C   UNL     1      -8.511   7.338  69.632  1.00  0.00    -0.133 A  
ENDROOT
BRANCH   7  10
HETATM   10  S   UNL     1     -10.614   9.103  69.395  1.00  0.00    -0.203 S  
HETATM   11  O   UNL     1     -10.904   8.261  68.248  1.00  0.00    -0.076 OA 
HETATM   12  O   UNL     1     -11.653   9.408  70.360  1.00  0.00    -0.257 OA 
BRANCH  10  13
HETATM   13  C   UNL     1     -10.058  10.670  68.757  1.00  0.00    -0.191 A  
HETATM   14  C   UNL     1      -8.823  10.722  68.104  1.00  0.00    -0.133 A  
HETATM   15  C   UNL     1      -8.379  11.924  67.551  1.00  0.00    -0.158 A  
HETATM   16  C   UNL     1      -9.134  13.094  67.681  1.00  0.00    -0.201 A  
HETATM   17  N   UNL     1      -8.750  14.253  66.999  1.00  0.00    -0.261 NA 
HETATM   18  C   UNL     1     -10.389  13.016  68.295  1.00  0.00    -0.256 A  
HETATM   19  H2  UNL     1      -8.667  14.030  66.006  1.00  0.00     0.000 HD 
HETATM   20  H1  UNL     1      -9.300  15.106  67.093  1.00  0.00     0.000 HD 
HETATM   21  C   UNL     1     -10.848  11.816  68.856  1.00  0.00    -0.265 A  
ENDBRANCH  10  13
ENDBRANCH   7  10
TORSDOF 2
ENDMDL
MODEL      198
REMARK 921   NORMALIZED FREE ENERGY PREDICTED BY IDOCK:   -2.63 KCAL/MOL
REMARK 922        TOTAL FREE ENERGY PREDICTED BY IDOCK:   -3.37 KCAL/MOL
REMARK 923 INTER-LIGAND FREE ENERGY PREDICTED BY IDOCK:   -3.03 KCAL/MOL
REMARK 924 INTRA-LIGAND FREE ENERGY PREDICTED BY IDOCK:   -0.34 KCAL/MOL
REMARK 927      BINDING AFFINITY PREDICTED BY RF-SCORE:    0.00 PKD
ROOT
HETATM    1  N   UNL     1      -9.195   5.784  71.304  1.00  0.00    -0.146 NA 
HETATM    2  H2  UNL     1      -9.919   5.984  71.993  1.00  0.00     0.000 HD 
HETATM    3  C   UNL     1      -8.926   6.958  70.592  1.00  0.00    -0.151 A  
HETATM    4  H1  UNL     1      -9.450   4.929  70.809  1.00  0.00     0.000 HD 
HETATM    5  C   UNL     1      -8.576   8.129  71.270  1.00  0.00    -0.162 A  
HETATM    6  C   UNL     1      -8.231   9.289  70.568  1.00  0.00    -0.219 A  
HETATM    7  C   UNL     1      -8.199   9.262  69.173  1.00  0.00    -0.111 A  
HETATM    8  C   UNL     1      -8.778   6.918  69.203  1.00  0.00    -0.135 A  
HETATM    9  C   UNL     1      -8.427   8.067  68.487  1.00  0.00    -0.128 A  
ENDROOT
BRANCH   7  10
HETATM   10  S   UNL     1      -7.734  10.724  68.270  1.00  0.00    -0.114 S  
HETATM   11  O   UNL     1      -7.144  11.630  69.239  1.00  0.00    -0.109 OA 
HETATM   12  O   UNL     1      -6.973  10.295  67.112  1.00  0.00    -0.084 OA 
BRANCH  10  13
HETATM   13  C   UNL     1      -9.189  11.529  67.632  1.00  0.00    -0.171 A  
HETATM   14  C   UNL     1     -10.120  10.760  66.929  1.00  0.00    -0.255 A  
HETATM   15  C   UNL     1     -11.294  11.350  66.456  1.00  0.00    -0.195 A  
HETATM   16  C   UNL     1     -11.532  12.715  66.637  1.00  0.00    -0.351 A  
HETATM   17  N   UNL     1     -12.773  13.261  66.290  1.00  0.00    -0.237 NA 
HETATM   18  C   UNL     1     -10.614  13.462  67.384  1.00  0.00    -0.254 A  
HETATM   19  H2  UNL     1     -13.502  12.738  66.777  1.00  0.00     0.000 HD 
HETATM   20  H1  UNL     1     -12.947  14.257  66.422  1.00  0.00     0.000 HD 
HETATM   21  C   UNL     1      -9.430  12.884  67.864  1.00  0.00    -0.208 A  
ENDBRANCH  10  13
ENDBRANCH   7  10
TORSDOF 2
ENDMDL
MODEL      199
REMARK 921   NORMALIZED FREE ENERGY PREDICTED BY IDOCK:   -2.61 KCAL/MOL
REMARK 922        TOTAL FREE ENERGY PREDICTED BY IDOCK:   -3.34 KCAL/MOL
REMARK 923 INTER-LIGAND FREE ENERGY PREDICTED BY IDOCK:   -2.97 KCAL/MOL
REMARK 924 INTRA-LIGAND FREE ENERGY PREDICTED BY IDOCK:   -0.37 KCAL/MOL
REMARK 927      BINDING AFFINITY PREDICTED BY RF-SCORE:    0.00 PKD
ROOT
HETATM    1  N   UNL     1      -8.417   4.815  62.953  1.00  0.00    -0.110 NA 
HETATM    2  H2  UNL     1      -7.403   4.809  62.851  1.00  0.00     0.000 HD 
HETATM    3  C   UNL     1      -8.724   5.040  64.300  1.00  0.00    -0.106 A  
HETATM    4  H1  UNL     1      -8.793   3.999  62.470  1.00  0.00     0.000 HD 
HETATM    5  C   UNL     1      -8.209   6.158  64.962  1.00  0.00    -0.132 A  
HETATM    6  C   UNL     1      -8.568   6.438  66.285  1.00  0.00    -0.140 A  
HETATM    7  C   UNL     1      -9.483   5.609  66.937  1.00  0.00    -0.135 A  
HETATM    8  C   UNL     1      -9.722   4.290  64.928  1.00  0.00    -0.182 A  
HETATM    9  C   UNL     1     -10.098   4.561  66.247  1.00  0.00    -0.280 A  
ENDROOT
BRANCH   7  10
HETATM   10  S   UNL     1      -9.969   5.971  68.611  1.00  0.00    -0.161 S  
HETATM   11  O   UNL     1     -11.384   6.294  68.562  1.00  0.00    -0.324 OA 
HETATM   12  O   UNL     1      -9.495   4.883  69.445  1.00  0.00    -0.126 OA 
BRANCH  10  13
HETATM   13  C   UNL     1      -9.127   7.433  69.181  1.00  0.00    -0.134 A  
HETATM   14  C   UNL     1      -7.991   7.277  69.981  1.00  0.00    -0.117 A  
HETATM   15  C   UNL     1      -7.281   8.401  70.406  1.00  0.00    -0.037 A  
HETATM   16  C   UNL     1      -7.717   9.689  70.081  1.00  0.00    -0.170 A  
HETATM   17  N   UNL     1      -6.918  10.796  70.387  1.00  0.00    -0.483 NA 
HETATM   18  C   UNL     1      -8.828   9.828  69.241  1.00  0.00    -0.171 A  
HETATM   19  H2  UNL     1      -5.997  10.653  69.974  1.00  0.00     0.000 HD 
HETATM   20  H1  UNL     1      -7.237  11.736  70.150  1.00  0.00     0.000 HD 
HETATM   21  C   UNL     1      -9.552   8.708  68.807  1.00  0.00    -0.157 A  
ENDBRANCH  10  13
ENDBRANCH   7  10
TORSDOF 2
ENDMDL
MODEL      200
REMARK 921   NORMALIZED FREE ENERGY PREDICTED BY IDOCK:   -2.59 KCAL/MOL
REMARK 922        TOTAL FREE ENERGY PREDICTED BY IDOCK:   -3.32 KCAL/MOL
REMARK 923 INTER-LIGAND FREE ENERGY PREDICTED BY IDOCK:   -2.92 KCAL/MOL
REMARK 924 INTRA-LIGAND FREE ENERGY PREDICTED BY IDOCK:   -0.39 KCAL/MOL
REMARK 927      BINDING AFFINITY PREDICTED BY RF-SCORE:    0.00 PKD
ROOT
HETATM    1  N   UNL     1      -9.171   2.032  68.778  1.00  0.00    -0.145 NA 
HETATM    2  H2  UNL     1     -10.104   1.822  68.426  1.00  0.00     0.000 HD 
HETATM    3  C   UNL     1      -8.988   3.418  68.745  1.00  0.00    -0.129 A  
HETATM    4  H1  UNL     1      -8.506   1.414  68.313  1.00  0.00     0.000 HD 
HETATM    5  C   UNL     1      -9.898   4.266  69.382  1.00  0.00    -0.205 A  
HETATM    6  C   UNL     1      -9.687   5.648  69.422  1.00  0.00    -0.208 A  
HETATM    7  C   UNL     1      -8.531   6.181  68.850  1.00  0.00    -0.118 A  
HETATM    8  C   UNL     1      -7.785   3.957  68.280  1.00  0.00    -0.065 A  
HETATM    9  C   UNL     1      -7.554   5.335  68.319  1.00  0.00    -0.080 A  
ENDROOT
BRANCH   7  10
HETATM   10  S   UNL     1      -8.237   7.936  68.919  1.00  0.00    -0.127 S  
HETATM   11  O   UNL     1      -9.085   8.448  69.982  1.00  0.00    -0.147 OA 
HETATM   12  O   UNL     1      -6.801   8.134  68.969  1.00  0.00    -0.057 OA 
BRANCH  10  13
HETATM   13  C   UNL     1      -8.788   8.700  67.408  1.00  0.00    -0.134 A  
HETATM   14  C   UNL     1      -8.060   8.463  66.239  1.00  0.00    -0.105 A  
HETATM   15  C   UNL     1      -8.491   9.009  65.028  1.00  0.00    -0.191 A  
HETATM   16  C   UNL     1      -9.620   9.832  64.976  1.00  0.00    -0.264 A  
HETATM   17  N   UNL     1     -10.124  10.250  63.740  1.00  0.00    -0.483 NA 
HETATM   18  C   UNL     1     -10.365  10.022  66.146  1.00  0.00    -0.225 A  
HETATM   19  H2  UNL     1     -10.299   9.424  63.167  1.00  0.00     0.000 HD 
HETATM   20  H1  UNL     1     -10.947  10.851  63.702  1.00  0.00     0.000 HD 
HETATM   21  C   UNL     1      -9.944   9.481  67.369  1.00  0.00    -0.241 A  
ENDBRANCH  10  13
ENDBRANCH   7  10
TORSDOF 2
ENDMDL
MODEL      201
REMARK 921   NORMALIZED FREE ENERGY PREDICTED BY IDOCK:   -2.57 KCAL/MOL
REMARK 922        TOTAL FREE ENERGY PREDICTED BY IDOCK:   -3.29 KCAL/MOL
REMARK 923 INTER-LIGAND FREE ENERGY PREDICTED BY IDOCK:   -3.02 KCAL/MOL
REMARK 924 INTRA-LIGAND FREE ENERGY PREDICTED BY IDOCK:   -0.27 KCAL/MOL
REMARK 927      BINDING AFFINITY PREDICTED BY RF-SCORE:    0.00 PKD
ROOT
HETATM    1  N   UNL     1     -12.706   7.198  70.940  1.00  0.00    -0.586 NA 
HETATM    2  H2  UNL     1     -12.463   7.524  71.875  1.00  0.00     0.000 HD 
HETATM    3  C   UNL     1     -11.592   6.549  70.396  1.00  0.00    -0.407 A  
HETATM    4  H1  UNL     1     -13.150   7.966  70.438  1.00  0.00     0.000 HD 
HETATM    5  C   UNL     1     -10.984   5.496  71.083  1.00  0.00    -0.196 A  
HETATM    6  C   UNL     1      -9.918   4.789  70.517  1.00  0.00    -0.306 A  
HETATM    7  C   UNL     1      -9.483   5.117  69.232  1.00  0.00    -0.140 A  
HETATM    8  C   UNL     1     -11.220   6.787  69.069  1.00  0.00    -0.214 A  
HETATM    9  C   UNL     1     -10.161   6.084  68.486  1.00  0.00    -0.227 A  
ENDROOT
BRANCH   7  10
HETATM   10  S   UNL     1      -8.146   4.205  68.489  1.00  0.00    -0.076 S  
HETATM   11  O   UNL     1      -7.091   5.170  68.232  1.00  0.00    -0.060 OA 
HETATM   12  O   UNL     1      -7.891   3.049  69.327  1.00  0.00    -0.047 OA 
BRANCH  10  13
HETATM   13  C   UNL     1      -8.656   3.566  66.908  1.00  0.00    -0.112 A  
HETATM   14  C   UNL     1      -8.746   4.451  65.830  1.00  0.00    -0.120 A  
HETATM   15  C   UNL     1      -9.098   3.974  64.566  1.00  0.00    -0.142 A  
HETATM   16  C   UNL     1      -9.408   2.625  64.370  1.00  0.00    -0.135 A  
HETATM   17  N   UNL     1      -9.615   2.136  63.076  1.00  0.00    -0.091 NA 
HETATM   18  C   UNL     1      -9.268   1.742  65.448  1.00  0.00    -0.037 A  
HETATM   19  H2  UNL     1      -8.797   2.364  62.511  1.00  0.00     0.000 HD 
HETATM   20  H1  UNL     1      -9.841   1.151  62.934  1.00  0.00     0.000 HD 
HETATM   21  C   UNL     1      -8.917   2.207  66.723  1.00  0.00    -0.130 A  
ENDBRANCH  10  13
ENDBRANCH   7  10
TORSDOF 2
ENDMDL
MODEL      202
REMARK 921   NORMALIZED FREE ENERGY PREDICTED BY IDOCK:   -2.51 KCAL/MOL
REMARK 922        TOTAL FREE ENERGY PREDICTED BY IDOCK:   -3.23 KCAL/MOL
REMARK 923 INTER-LIGAND FREE ENERGY PREDICTED BY IDOCK:   -2.80 KCAL/MOL
REMARK 924 INTRA-LIGAND FREE ENERGY PREDICTED BY IDOCK:   -0.43 KCAL/MOL
REMARK 927      BINDING AFFINITY PREDICTED BY RF-SCORE:    0.00 PKD
ROOT
HETATM    1  N   UNL     1     -11.128   9.292  71.824  1.00  0.00    -0.369 NA 
HETATM    2  H2  UNL     1     -12.134   9.332  71.658  1.00  0.00     0.000 HD 
HETATM    3  C   UNL     1     -10.528   8.648  70.737  1.00  0.00    -0.204 A  
HETATM    4  H1  UNL     1     -10.973   8.953  72.773  1.00  0.00     0.000 HD 
HETATM    5  C   UNL     1     -10.739   9.113  69.436  1.00  0.00    -0.210 A  
HETATM    6  C   UNL     1     -10.085   8.527  68.348  1.00  0.00    -0.221 A  
HETATM    7  C   UNL     1      -9.179   7.489  68.571  1.00  0.00    -0.143 A  
HETATM    8  C   UNL     1      -9.534   7.688  70.951  1.00  0.00    -0.166 A  
HETATM    9  C   UNL     1      -8.865   7.097  69.875  1.00  0.00    -0.142 A  
ENDROOT
BRANCH   7  10
HETATM   10  S   UNL     1      -8.318   6.754  67.196  1.00  0.00    -0.121 S  
HETATM   11  O   UNL     1      -7.375   5.808  67.767  1.00  0.00    -0.074 OA 
HETATM   12  O   UNL     1      -9.319   6.306  66.247  1.00  0.00    -0.161 OA 
BRANCH  10  13
HETATM   13  C   UNL     1      -7.358   7.994  66.353  1.00  0.00    -0.083 A  
HETATM   14  C   UNL     1      -7.720   8.342  65.048  1.00  0.00    -0.105 A  
HETATM   15  C   UNL     1      -7.017   9.342  64.375  1.00  0.00    -0.101 A  
HETATM   16  C   UNL     1      -5.922   9.974  64.972  1.00  0.00    -0.107 A  
HETATM   17  N   UNL     1      -5.322  11.072  64.347  1.00  0.00    -0.484 NA 
HETATM   18  C   UNL     1      -5.601   9.649  66.296  1.00  0.00    -0.052 A  
HETATM   19  H2  UNL     1      -6.041  11.773  64.168  1.00  0.00     0.000 HD 
HETATM   20  H1  UNL     1      -4.523  11.532  64.783  1.00  0.00     0.000 HD 
HETATM   21  C   UNL     1      -6.297   8.644  66.983  1.00  0.00    -0.057 A  
ENDBRANCH  10  13
ENDBRANCH   7  10
TORSDOF 2
ENDMDL
MODEL      203
REMARK 921   NORMALIZED FREE ENERGY PREDICTED BY IDOCK:   -2.40 KCAL/MOL
REMARK 922        TOTAL FREE ENERGY PREDICTED BY IDOCK:   -3.10 KCAL/MOL
REMARK 923 INTER-LIGAND FREE ENERGY PREDICTED BY IDOCK:   -2.78 KCAL/MOL
REMARK 924 INTRA-LIGAND FREE ENERGY PREDICTED BY IDOCK:   -0.32 KCAL/MOL
REMARK 927      BINDING AFFINITY PREDICTED BY RF-SCORE:    0.00 PKD
ROOT
HETATM    1  N   UNL     1      -8.199  10.922  65.429  1.00  0.00    -0.336 NA 
HETATM    2  H2  UNL     1      -8.743  11.777  65.316  1.00  0.00     0.000 HD 
HETATM    3  C   UNL     1      -8.679  10.239  66.552  1.00  0.00    -0.131 A  
HETATM    4  H1  UNL     1      -7.210  11.159  65.354  1.00  0.00     0.000 HD 
HETATM    5  C   UNL     1     -10.034   9.914  66.654  1.00  0.00    -0.277 A  
HETATM    6  C   UNL     1     -10.514   9.166  67.734  1.00  0.00    -0.306 A  
HETATM    7  C   UNL     1      -9.619   8.706  68.701  1.00  0.00    -0.155 A  
HETATM    8  C   UNL     1      -7.784   9.675  67.466  1.00  0.00    -0.095 A  
HETATM    9  C   UNL     1      -8.246   8.918  68.547  1.00  0.00    -0.116 A  
ENDROOT
BRANCH   7  10
HETATM   10  S   UNL     1     -10.214   7.728  70.065  1.00  0.00    -0.215 S  
HETATM   11  O   UNL     1      -9.931   8.493  71.267  1.00  0.00    -0.190 OA 
HETATM   12  O   UNL     1     -11.574   7.331  69.754  1.00  0.00    -0.074 OA 
BRANCH  10  13
HETATM   13  C   UNL     1      -9.274   6.220  70.182  1.00  0.00    -0.157 A  
HETATM   14  C   UNL     1      -9.835   5.045  69.674  1.00  0.00    -0.290 A  
HETATM   15  C   UNL     1      -9.107   3.855  69.708  1.00  0.00    -0.188 A  
HETATM   16  C   UNL     1      -7.835   3.810  70.287  1.00  0.00    -0.047 A  
HETATM   17  N   UNL     1      -7.060   2.651  70.183  1.00  0.00    -0.033 NA 
HETATM   18  C   UNL     1      -7.267   5.003  70.749  1.00  0.00    -0.060 A  
HETATM   19  H2  UNL     1      -6.974   2.408  69.195  1.00  0.00     0.000 HD 
HETATM   20  H1  UNL     1      -6.132   2.618  70.606  1.00  0.00     0.000 HD 
HETATM   21  C   UNL     1      -7.988   6.206  70.723  1.00  0.00    -0.115 A  
ENDBRANCH  10  13
ENDBRANCH   7  10
TORSDOF 2
ENDMDL
MODEL      204
REMARK 921   NORMALIZED FREE ENERGY PREDICTED BY IDOCK:   -2.38 KCAL/MOL
REMARK 922        TOTAL FREE ENERGY PREDICTED BY IDOCK:   -3.08 KCAL/MOL
REMARK 923 INTER-LIGAND FREE ENERGY PREDICTED BY IDOCK:   -2.68 KCAL/MOL
REMARK 924 INTRA-LIGAND FREE ENERGY PREDICTED BY IDOCK:   -0.40 KCAL/MOL
REMARK 927      BINDING AFFINITY PREDICTED BY RF-SCORE:    0.00 PKD
ROOT
HETATM    1  N   UNL     1      -5.540   2.444  65.465  1.00  0.00    -0.016 NA 
HETATM    2  H2  UNL     1      -4.968   2.094  66.232  1.00  0.00     0.000 HD 
HETATM    3  C   UNL     1      -6.410   3.416  65.972  1.00  0.00    -0.032 A  
HETATM    4  H1  UNL     1      -5.906   1.645  64.947  1.00  0.00     0.000 HD 
HETATM    5  C   UNL     1      -5.909   4.511  66.681  1.00  0.00    -0.026 A  
HETATM    6  C   UNL     1      -6.759   5.528  67.126  1.00  0.00    -0.059 A  
HETATM    7  C   UNL     1      -8.121   5.465  66.824  1.00  0.00    -0.105 A  
HETATM    8  C   UNL     1      -7.752   3.428  65.581  1.00  0.00    -0.078 A  
HETATM    9  C   UNL     1      -8.614   4.441  66.012  1.00  0.00    -0.113 A  
ENDROOT
BRANCH   7  10
HETATM   10  S   UNL     1      -9.208   6.769  67.362  1.00  0.00    -0.128 S  
HETATM   11  O   UNL     1      -8.390   7.965  67.461  1.00  0.00    -0.121 OA 
HETATM   12  O   UNL     1     -10.372   6.748  66.496  1.00  0.00    -0.157 OA 
BRANCH  10  13
HETATM   13  C   UNL     1      -9.806   6.417  69.002  1.00  0.00    -0.138 A  
HETATM   14  C   UNL     1     -10.840   7.205  69.516  1.00  0.00    -0.244 A  
HETATM   15  C   UNL     1     -11.364   6.928  70.779  1.00  0.00    -0.355 A  
HETATM   16  C   UNL     1     -10.837   5.896  71.562  1.00  0.00    -0.266 A  
HETATM   17  N   UNL     1     -11.465   5.536  72.759  1.00  0.00    -0.389 NA 
HETATM   18  C   UNL     1      -9.834   5.086  71.016  1.00  0.00    -0.266 A  
HETATM   19  H2  UNL     1     -12.442   5.321  72.558  1.00  0.00     0.000 HD 
HETATM   20  H1  UNL     1     -11.080   4.783  73.330  1.00  0.00     0.000 HD 
HETATM   21  C   UNL     1      -9.298   5.354  69.748  1.00  0.00    -0.186 A  
ENDBRANCH  10  13
ENDBRANCH   7  10
TORSDOF 2
ENDMDL
MODEL      205
REMARK 921   NORMALIZED FREE ENERGY PREDICTED BY IDOCK:   -2.30 KCAL/MOL
REMARK 922        TOTAL FREE ENERGY PREDICTED BY IDOCK:   -2.99 KCAL/MOL
REMARK 923 INTER-LIGAND FREE ENERGY PREDICTED BY IDOCK:   -2.61 KCAL/MOL
REMARK 924 INTRA-LIGAND FREE ENERGY PREDICTED BY IDOCK:   -0.38 KCAL/MOL
REMARK 927      BINDING AFFINITY PREDICTED BY RF-SCORE:    0.00 PKD
ROOT
HETATM    1  N   UNL     1      -7.722  16.173  66.895  1.00  0.00    -0.227 NA 
HETATM    2  H2  UNL     1      -6.902  16.316  66.307  1.00  0.00     0.000 HD 
HETATM    3  C   UNL     1      -7.734  14.840  67.319  1.00  0.00    -0.184 A  
HETATM    4  H1  UNL     1      -8.532  16.569  66.418  1.00  0.00     0.000 HD 
HETATM    5  C   UNL     1      -6.624  14.298  67.973  1.00  0.00    -0.156 A  
HETATM    6  C   UNL     1      -6.651  12.990  68.470  1.00  0.00    -0.088 A  
HETATM    7  C   UNL     1      -7.817  12.233  68.343  1.00  0.00    -0.151 A  
HETATM    8  C   UNL     1      -8.925  14.110  67.304  1.00  0.00    -0.221 A  
HETATM    9  C   UNL     1      -8.972  12.804  67.803  1.00  0.00    -0.190 A  
ENDROOT
BRANCH   7  10
HETATM   10  S   UNL     1      -7.873  10.578  68.997  1.00  0.00    -0.139 S  
HETATM   11  O   UNL     1      -6.561  10.321  69.564  1.00  0.00    -0.050 OA 
HETATM   12  O   UNL     1      -9.060  10.477  69.824  1.00  0.00    -0.065 OA 
BRANCH  10  13
HETATM   13  C   UNL     1      -8.096   9.412  67.669  1.00  0.00    -0.106 A  
HETATM   14  C   UNL     1      -6.960   8.874  67.058  1.00  0.00    -0.074 A  
HETATM   15  C   UNL     1      -7.099   7.923  66.046  1.00  0.00    -0.062 A  
HETATM   16  C   UNL     1      -8.365   7.532  65.600  1.00  0.00    -0.140 A  
HETATM   17  N   UNL     1      -8.491   6.474  64.693  1.00  0.00    -0.344 NA 
HETATM   18  C   UNL     1      -9.493   8.043  66.253  1.00  0.00    -0.241 A  
HETATM   19  H2  UNL     1      -8.019   5.658  65.081  1.00  0.00     0.000 HD 
HETATM   20  H1  UNL     1      -9.415   6.189  64.367  1.00  0.00     0.000 HD 
HETATM   21  C   UNL     1      -9.368   9.000  67.271  1.00  0.00    -0.172 A  
ENDBRANCH  10  13
ENDBRANCH   7  10
TORSDOF 2
ENDMDL
MODEL      206
REMARK 921   NORMALIZED FREE ENERGY PREDICTED BY IDOCK:   -2.26 KCAL/MOL
REMARK 922        TOTAL FREE ENERGY PREDICTED BY IDOCK:   -2.94 KCAL/MOL
REMARK 923 INTER-LIGAND FREE ENERGY PREDICTED BY IDOCK:   -2.72 KCAL/MOL
REMARK 924 INTRA-LIGAND FREE ENERGY PREDICTED BY IDOCK:   -0.22 KCAL/MOL
REMARK 927      BINDING AFFINITY PREDICTED BY RF-SCORE:    0.00 PKD
ROOT
HETATM    1  N   UNL     1     -11.327   8.038  70.215  1.00  0.00    -0.431 NA 
HETATM    2  H2  UNL     1     -10.779   8.426  70.983  1.00  0.00     0.000 HD 
HETATM    3  C   UNL     1     -10.453   7.707  69.174  1.00  0.00    -0.214 A  
HETATM    4  H1  UNL     1     -12.122   8.654  70.044  1.00  0.00     0.000 HD 
HETATM    5  C   UNL     1      -9.365   6.862  69.407  1.00  0.00    -0.146 A  
HETATM    6  C   UNL     1      -8.528   6.462  68.360  1.00  0.00    -0.116 A  
HETATM    7  C   UNL     1      -8.810   6.882  67.059  1.00  0.00    -0.119 A  
HETATM    8  C   UNL     1     -10.785   8.022  67.853  1.00  0.00    -0.139 A  
HETATM    9  C   UNL     1      -9.963   7.624  66.794  1.00  0.00    -0.317 A  
ENDROOT
BRANCH   7  10
HETATM   10  S   UNL     1      -7.768   6.356  65.714  1.00  0.00    -0.097 S  
HETATM   11  O   UNL     1      -6.664   5.630  66.316  1.00  0.00    -0.054 OA 
HETATM   12  O   UNL     1      -8.620   5.711  64.733  1.00  0.00    -0.137 OA 
BRANCH  10  13
HETATM   13  C   UNL     1      -7.068   7.777  64.901  1.00  0.00    -0.060 A  
HETATM   14  C   UNL     1      -7.271   9.037  65.471  1.00  0.00    -0.085 A  
HETATM   15  C   UNL     1      -6.697  10.166  64.885  1.00  0.00    -0.124 A  
HETATM   16  C   UNL     1      -5.956  10.062  63.705  1.00  0.00    -0.130 A  
HETATM   17  N   UNL     1      -5.266  11.174  63.212  1.00  0.00    -0.428 NA 
HETATM   18  C   UNL     1      -5.721   8.789  63.172  1.00  0.00    -0.073 A  
HETATM   19  H2  UNL     1      -4.653  11.526  63.948  1.00  0.00     0.000 HD 
HETATM   20  H1  UNL     1      -4.725  11.098  62.350  1.00  0.00     0.000 HD 
HETATM   21  C   UNL     1      -6.292   7.646  63.749  1.00  0.00    -0.054 A  
ENDBRANCH  10  13
ENDBRANCH   7  10
TORSDOF 2
ENDMDL
MODEL      207
REMARK 921   NORMALIZED FREE ENERGY PREDICTED BY IDOCK:   -2.24 KCAL/MOL
REMARK 922        TOTAL FREE ENERGY PREDICTED BY IDOCK:   -2.93 KCAL/MOL
REMARK 923 INTER-LIGAND FREE ENERGY PREDICTED BY IDOCK:   -2.56 KCAL/MOL
REMARK 924 INTRA-LIGAND FREE ENERGY PREDICTED BY IDOCK:   -0.37 KCAL/MOL
REMARK 927      BINDING AFFINITY PREDICTED BY RF-SCORE:    0.00 PKD
ROOT
HETATM    1  N   UNL     1     -11.546  11.192  70.013  1.00  0.00    -0.321 NA 
HETATM    2  H2  UNL     1     -11.675  11.805  70.817  1.00  0.00     0.000 HD 
HETATM    3  C   UNL     1     -10.522  10.286  70.310  1.00  0.00    -0.146 A  
HETATM    4  H1  UNL     1     -11.494  11.769  69.174  1.00  0.00     0.000 HD 
HETATM    5  C   UNL     1     -10.592   9.494  71.459  1.00  0.00    -0.219 A  
HETATM    6  C   UNL     1      -9.615   8.530  71.729  1.00  0.00    -0.337 A  
HETATM    7  C   UNL     1      -8.577   8.332  70.816  1.00  0.00    -0.138 A  
HETATM    8  C   UNL     1      -9.543   9.995  69.356  1.00  0.00    -0.237 A  
HETATM    9  C   UNL     1      -8.562   9.030  69.606  1.00  0.00    -0.137 A  
ENDROOT
BRANCH   7  10
HETATM   10  S   UNL     1      -7.343   7.089  71.135  1.00  0.00    -0.077 S  
HETATM   11  O   UNL     1      -6.221   7.399  70.266  1.00  0.00    -0.033 OA 
HETATM   12  O   UNL     1      -7.158   7.019  72.572  1.00  0.00    -0.069 OA 
BRANCH  10  13
HETATM   13  C   UNL     1      -7.953   5.492  70.638  1.00  0.00    -0.103 A  
HETATM   14  C   UNL     1      -9.277   5.392  70.200  1.00  0.00    -0.177 A  
HETATM   15  C   UNL     1      -9.773   4.164  69.760  1.00  0.00    -0.278 A  
HETATM   16  C   UNL     1      -8.975   3.016  69.793  1.00  0.00    -0.107 A  
HETATM   17  N   UNL     1      -9.434   1.828  69.213  1.00  0.00    -0.101 NA 
HETATM   18  C   UNL     1      -7.638   3.140  70.188  1.00  0.00    -0.044 A  
HETATM   19  H2  UNL     1      -9.686   2.019  68.243  1.00  0.00     0.000 HD 
HETATM   20  H1  UNL     1      -8.852   0.991  69.238  1.00  0.00     0.000 HD 
HETATM   21  C   UNL     1      -7.127   4.368  70.635  1.00  0.00    -0.041 A  
ENDBRANCH  10  13
ENDBRANCH   7  10
TORSDOF 2
ENDMDL
MODEL      208
REMARK 921   NORMALIZED FREE ENERGY PREDICTED BY IDOCK:   -2.23 KCAL/MOL
REMARK 922        TOTAL FREE ENERGY PREDICTED BY IDOCK:   -2.91 KCAL/MOL
REMARK 923 INTER-LIGAND FREE ENERGY PREDICTED BY IDOCK:   -2.57 KCAL/MOL
REMARK 924 INTRA-LIGAND FREE ENERGY PREDICTED BY IDOCK:   -0.34 KCAL/MOL
REMARK 927      BINDING AFFINITY PREDICTED BY RF-SCORE:    0.00 PKD
ROOT
HETATM    1  N   UNL     1      -9.205   2.067  63.070  1.00  0.00    -0.090 NA 
HETATM    2  H2  UNL     1      -8.886   1.151  63.386  1.00  0.00     0.000 HD 
HETATM    3  C   UNL     1      -9.347   2.894  64.190  1.00  0.00    -0.126 A  
HETATM    4  H1  UNL     1      -9.985   1.931  62.428  1.00  0.00     0.000 HD 
HETATM    5  C   UNL     1      -8.277   3.081  65.069  1.00  0.00    -0.087 A  
HETATM    6  C   UNL     1      -8.381   3.964  66.149  1.00  0.00    -0.108 A  
HETATM    7  C   UNL     1      -9.557   4.696  66.325  1.00  0.00    -0.184 A  
HETATM    8  C   UNL     1     -10.469   3.718  64.315  1.00  0.00    -0.252 A  
HETATM    9  C   UNL     1     -10.586   4.611  65.385  1.00  0.00    -0.167 A  
ENDROOT
BRANCH   7  10
HETATM   10  S   UNL     1      -9.690   5.845  67.680  1.00  0.00    -0.121 S  
HETATM   11  O   UNL     1      -8.657   6.844  67.468  1.00  0.00    -0.121 OA 
HETATM   12  O   UNL     1     -11.082   6.240  67.778  1.00  0.00    -0.334 OA 
BRANCH  10  13
HETATM   13  C   UNL     1      -9.302   5.020  69.210  1.00  0.00    -0.125 A  
HETATM   14  C   UNL     1      -8.675   5.755  70.220  1.00  0.00    -0.137 A  
HETATM   15  C   UNL     1      -8.399   5.152  71.449  1.00  0.00    -0.119 A  
HETATM   16  C   UNL     1      -8.701   3.805  71.669  1.00  0.00    -0.098 A  
HETATM   17  N   UNL     1      -8.555   3.256  72.948  1.00  0.00    -0.081 NA 
HETATM   18  C   UNL     1      -9.372   3.096  70.666  1.00  0.00    -0.225 A  
HETATM   19  H2  UNL     1      -9.096   3.820  73.604  1.00  0.00     0.000 HD 
HETATM   20  H1  UNL     1      -8.775   2.273  73.108  1.00  0.00     0.000 HD 
HETATM   21  C   UNL     1      -9.654   3.688  69.426  1.00  0.00    -0.196 A  
ENDBRANCH  10  13
ENDBRANCH   7  10
TORSDOF 2
ENDMDL
MODEL      209
REMARK 921   NORMALIZED FREE ENERGY PREDICTED BY IDOCK:   -2.17 KCAL/MOL
REMARK 922        TOTAL FREE ENERGY PREDICTED BY IDOCK:   -2.85 KCAL/MOL
REMARK 923 INTER-LIGAND FREE ENERGY PREDICTED BY IDOCK:   -2.44 KCAL/MOL
REMARK 924 INTRA-LIGAND FREE ENERGY PREDICTED BY IDOCK:   -0.41 KCAL/MOL
REMARK 927      BINDING AFFINITY PREDICTED BY RF-SCORE:    0.00 PKD
ROOT
HETATM    1  N   UNL     1     -12.318   6.772  70.997  1.00  0.00    -0.364 NA 
HETATM    2  H2  UNL     1     -12.171   7.504  71.691  1.00  0.00     0.000 HD 
HETATM    3  C   UNL     1     -11.121   6.579  70.299  1.00  0.00    -0.335 A  
HETATM    4  H1  UNL     1     -13.181   6.978  70.492  1.00  0.00     0.000 HD 
HETATM    5  C   UNL     1      -9.940   6.296  70.990  1.00  0.00    -0.213 A  
HETATM    6  C   UNL     1      -8.753   6.025  70.301  1.00  0.00    -0.143 A  
HETATM    7  C   UNL     1      -8.760   5.999  68.906  1.00  0.00    -0.122 A  
HETATM    8  C   UNL     1     -11.135   6.435  68.909  1.00  0.00    -0.420 A  
HETATM    9  C   UNL     1      -9.958   6.157  68.206  1.00  0.00    -0.162 A  
ENDROOT
BRANCH   7  10
HETATM   10  S   UNL     1      -7.261   5.627  68.020  1.00  0.00    -0.073 S  
HETATM   11  O   UNL     1      -6.167   6.022  68.889  1.00  0.00    -0.032 OA 
HETATM   12  O   UNL     1      -7.364   4.259  67.548  1.00  0.00    -0.067 OA 
BRANCH  10  13
HETATM   13  C   UNL     1      -7.153   6.644  66.562  1.00  0.00    -0.068 A  
HETATM   14  C   UNL     1      -7.039   8.028  66.723  1.00  0.00    -0.081 A  
HETATM   15  C   UNL     1      -6.906   8.851  65.603  1.00  0.00    -0.076 A  
HETATM   16  C   UNL     1      -6.932   8.313  64.313  1.00  0.00    -0.073 A  
HETATM   17  N   UNL     1      -6.651   9.126  63.211  1.00  0.00    -0.090 NA 
HETATM   18  C   UNL     1      -6.999   6.922  64.168  1.00  0.00    -0.052 A  
HETATM   19  H2  UNL     1      -5.743   9.568  63.359  1.00  0.00     0.000 HD 
HETATM   20  H1  UNL     1      -6.669   8.734  62.270  1.00  0.00     0.000 HD 
HETATM   21  C   UNL     1      -7.134   6.084  65.285  1.00  0.00    -0.065 A  
ENDBRANCH  10  13
ENDBRANCH   7  10
TORSDOF 2
ENDMDL
MODEL      210
REMARK 921   NORMALIZED FREE ENERGY PREDICTED BY IDOCK:   -2.04 KCAL/MOL
REMARK 922        TOTAL FREE ENERGY PREDICTED BY IDOCK:   -2.70 KCAL/MOL
REMARK 923 INTER-LIGAND FREE ENERGY PREDICTED BY IDOCK:   -2.97 KCAL/MOL
REMARK 924 INTRA-LIGAND FREE ENERGY PREDICTED BY IDOCK:    0.26 KCAL/MOL
REMARK 927      BINDING AFFINITY PREDICTED BY RF-SCORE:    0.00 PKD
ROOT
HETATM    1  N   UNL     1      -6.517   3.801  71.109  1.00  0.00    -0.025 NA 
HETATM    2  H2  UNL     1      -7.087   3.649  71.941  1.00  0.00     0.000 HD 
HETATM    3  C   UNL     1      -7.293   4.476  70.161  1.00  0.00    -0.050 A  
HETATM    4  H1  UNL     1      -6.061   2.921  70.868  1.00  0.00     0.000 HD 
HETATM    5  C   UNL     1      -7.918   5.682  70.491  1.00  0.00    -0.104 A  
HETATM    6  C   UNL     1      -8.633   6.406  69.532  1.00  0.00    -0.133 A  
HETATM    7  C   UNL     1      -8.689   5.937  68.218  1.00  0.00    -0.112 A  
HETATM    8  C   UNL     1      -7.264   4.082  68.820  1.00  0.00    -0.055 A  
HETATM    9  C   UNL     1      -7.967   4.799  67.847  1.00  0.00    -0.089 A  
ENDROOT
BRANCH   7  10
HETATM   10  S   UNL     1      -9.572   6.865  66.982  1.00  0.00    -0.166 S  
HETATM   11  O   UNL     1      -8.608   7.173  65.940  1.00  0.00    -0.146 OA 
HETATM   12  O   UNL     1     -10.780   6.128  66.666  1.00  0.00    -0.273 OA 
BRANCH  10  13
HETATM   13  C   UNL     1     -10.107   8.421  67.664  1.00  0.00    -0.209 A  
HETATM   14  C   UNL     1     -10.136   9.539  66.826  1.00  0.00    -0.312 A  
HETATM   15  C   UNL     1     -10.594  10.764  67.316  1.00  0.00    -0.304 A  
HETATM   16  C   UNL     1     -10.984  10.899  68.652  1.00  0.00    -0.227 A  
HETATM   17  N   UNL     1     -11.578  12.088  69.089  1.00  0.00    -0.288 NA 
HETATM   18  C   UNL     1     -10.994   9.761  69.466  1.00  0.00    -0.256 A  
HETATM   19  H2  UNL     1     -12.384  12.283  68.496  1.00  0.00     0.000 HD 
HETATM   20  H1  UNL     1     -11.862  12.187  70.064  1.00  0.00     0.000 HD 
HETATM   21  C   UNL     1     -10.535   8.525  68.987  1.00  0.00    -0.216 A  
ENDBRANCH  10  13
ENDBRANCH   7  10
TORSDOF 2
ENDMDL
MODEL      211
REMARK 921   NORMALIZED FREE ENERGY PREDICTED BY IDOCK:   -2.00 KCAL/MOL
REMARK 922        TOTAL FREE ENERGY PREDICTED BY IDOCK:   -2.65 KCAL/MOL
REMARK 923 INTER-LIGAND FREE ENERGY PREDICTED BY IDOCK:   -2.27 KCAL/MOL
REMARK 924 INTRA-LIGAND FREE ENERGY PREDICTED BY IDOCK:   -0.39 KCAL/MOL
REMARK 927      BINDING AFFINITY PREDICTED BY RF-SCORE:    0.00 PKD
ROOT
HETATM    1  N   UNL     1      -7.962   6.461  71.909  1.00  0.00    -0.104 NA 
HETATM    2  H2  UNL     1      -8.933   6.345  72.200  1.00  0.00     0.000 HD 
HETATM    3  C   UNL     1      -7.919   6.472  70.511  1.00  0.00    -0.112 A  
HETATM    4  H1  UNL     1      -7.389   5.802  72.436  1.00  0.00     0.000 HD 
HETATM    5  C   UNL     1      -8.704   7.374  69.788  1.00  0.00    -0.141 A  
HETATM    6  C   UNL     1      -8.614   7.448  68.394  1.00  0.00    -0.124 A  
HETATM    7  C   UNL     1      -7.699   6.636  67.722  1.00  0.00    -0.107 A  
HETATM    8  C   UNL     1      -6.932   5.751  69.833  1.00  0.00    -0.066 A  
HETATM    9  C   UNL     1      -6.823   5.820  68.441  1.00  0.00    -0.063 A  
ENDROOT
BRANCH   7  10
HETATM   10  S   UNL     1      -7.556   6.742  65.950  1.00  0.00    -0.090 S  
HETATM   11  O   UNL     1      -8.093   8.039  65.577  1.00  0.00    -0.112 OA 
HETATM   12  O   UNL     1      -6.193   6.387  65.603  1.00  0.00    -0.035 OA 
BRANCH  10  13
HETATM   13  C   UNL     1      -8.595   5.515  65.186  1.00  0.00    -0.141 A  
HETATM   14  C   UNL     1      -9.813   5.201  65.796  1.00  0.00    -0.107 A  
HETATM   15  C   UNL     1     -10.672   4.277  65.199  1.00  0.00    -0.134 A  
HETATM   16  C   UNL     1     -10.311   3.624  64.017  1.00  0.00    -0.255 A  
HETATM   17  N   UNL     1     -11.240   2.815  63.353  1.00  0.00    -0.431 NA 
HETATM   18  C   UNL     1      -9.111   3.983  63.392  1.00  0.00    -0.124 A  
HETATM   19  H2  UNL     1     -12.079   3.368  63.174  1.00  0.00     0.000 HD 
HETATM   20  H1  UNL     1     -10.976   2.338  62.491  1.00  0.00     0.000 HD 
HETATM   21  C   UNL     1      -8.237   4.908  63.982  1.00  0.00    -0.122 A  
ENDBRANCH  10  13
ENDBRANCH   7  10
TORSDOF 2
ENDMDL
MODEL      212
REMARK 921   NORMALIZED FREE ENERGY PREDICTED BY IDOCK:   -1.88 KCAL/MOL
REMARK 922        TOTAL FREE ENERGY PREDICTED BY IDOCK:   -2.52 KCAL/MOL
REMARK 923 INTER-LIGAND FREE ENERGY PREDICTED BY IDOCK:   -2.14 KCAL/MOL
REMARK 924 INTRA-LIGAND FREE ENERGY PREDICTED BY IDOCK:   -0.39 KCAL/MOL
REMARK 927      BINDING AFFINITY PREDICTED BY RF-SCORE:    0.00 PKD
ROOT
HETATM    1  N   UNL     1      -7.449   3.825  72.812  1.00  0.00    -0.062 NA 
HETATM    2  H2  UNL     1      -8.390   3.819  73.205  1.00  0.00     0.000 HD 
HETATM    3  C   UNL     1      -7.523   4.296  71.497  1.00  0.00    -0.060 A  
HETATM    4  H1  UNL     1      -7.012   2.925  73.013  1.00  0.00     0.000 HD 
HETATM    5  C   UNL     1      -8.122   5.529  71.222  1.00  0.00    -0.113 A  
HETATM    6  C   UNL     1      -8.135   6.047  69.923  1.00  0.00    -0.117 A  
HETATM    7  C   UNL     1      -7.507   5.339  68.896  1.00  0.00    -0.074 A  
HETATM    8  C   UNL     1      -6.803   3.660  70.482  1.00  0.00    -0.033 A  
HETATM    9  C   UNL     1      -6.800   4.168  69.179  1.00  0.00    -0.046 A  
ENDROOT
BRANCH   7  10
HETATM   10  S   UNL     1      -7.492   6.003  67.244  1.00  0.00    -0.082 S  
HETATM   11  O   UNL     1      -8.059   7.337  67.337  1.00  0.00    -0.110 OA 
HETATM   12  O   UNL     1      -6.157   5.810  66.711  1.00  0.00    -0.024 OA 
BRANCH  10  13
HETATM   13  C   UNL     1      -8.581   5.053  66.203  1.00  0.00    -0.118 A  
HETATM   14  C   UNL     1      -8.048   3.974  65.491  1.00  0.00    -0.101 A  
HETATM   15  C   UNL     1      -8.882   3.181  64.702  1.00  0.00    -0.115 A  
HETATM   16  C   UNL     1     -10.242   3.478  64.576  1.00  0.00    -0.135 A  
HETATM   17  N   UNL     1     -11.092   2.593  63.903  1.00  0.00    -0.591 NA 
HETATM   18  C   UNL     1     -10.771   4.532  65.330  1.00  0.00    -0.162 A  
HETATM   19  H2  UNL     1     -11.001   1.671  64.331  1.00  0.00     0.000 HD 
HETATM   20  H1  UNL     1     -12.084   2.810  63.811  1.00  0.00     0.000 HD 
HETATM   21  C   UNL     1      -9.945   5.338  66.126  1.00  0.00    -0.191 A  
ENDBRANCH  10  13
ENDBRANCH   7  10
TORSDOF 2
ENDMDL
MODEL      213
REMARK 921   NORMALIZED FREE ENERGY PREDICTED BY IDOCK:    1.23 KCAL/MOL
REMARK 922        TOTAL FREE ENERGY PREDICTED BY IDOCK:    0.95 KCAL/MOL
REMARK 923 INTER-LIGAND FREE ENERGY PREDICTED BY IDOCK:    1.37 KCAL/MOL
REMARK 924 INTRA-LIGAND FREE ENERGY PREDICTED BY IDOCK:   -0.42 KCAL/MOL
REMARK 927      BINDING AFFINITY PREDICTED BY RF-SCORE:    0.00 PKD
ROOT
HETATM    1  N   UNL     1     -12.550   7.020  67.974  1.00  0.00     3.718 NA 
HETATM    2  H2  UNL     1     -12.569   8.039  67.944  1.00  0.00     0.000 HD 
HETATM    3  C   UNL     1     -11.657   6.625  68.976  1.00  0.00     0.076 A  
HETATM    4  H1  UNL     1     -12.441   6.673  67.022  1.00  0.00     0.000 HD 
HETATM    5  C   UNL     1     -11.806   7.101  70.282  1.00  0.00    -0.178 A  
HETATM    6  C   UNL     1     -10.968   6.655  71.309  1.00  0.00    -0.296 A  
HETATM    7  C   UNL     1      -9.994   5.694  71.031  1.00  0.00    -0.192 A  
HETATM    8  C   UNL     1     -10.756   5.583  68.742  1.00  0.00    -0.195 A  
HETATM    9  C   UNL     1      -9.915   5.120  69.760  1.00  0.00    -0.313 A  
ENDROOT
BRANCH   7  10
HETATM   10  S   UNL     1      -8.940   5.098  72.337  1.00  0.00    -0.131 S  
HETATM   11  O   UNL     1      -9.812   4.806  73.461  1.00  0.00    -0.140 OA 
HETATM   12  O   UNL     1      -8.097   4.060  71.775  1.00  0.00    -0.078 OA 
BRANCH  10  13
HETATM   13  C   UNL     1      -7.840   6.396  72.863  1.00  0.00    -0.103 A  
HETATM   14  C   UNL     1      -7.037   7.018  71.903  1.00  0.00    -0.069 A  
HETATM   15  C   UNL     1      -6.197   8.069  72.273  1.00  0.00    -0.051 A  
HETATM   16  C   UNL     1      -6.113   8.482  73.606  1.00  0.00    -0.119 A  
HETATM   17  N   UNL     1      -5.383   9.628  73.938  1.00  0.00    -0.290 NA 
HETATM   18  C   UNL     1      -6.957   7.883  74.548  1.00  0.00    -0.158 A  
HETATM   19  H2  UNL     1      -5.733  10.407  73.380  1.00  0.00     0.000 HD 
HETATM   20  H1  UNL     1      -5.321   9.929  74.911  1.00  0.00     0.000 HD 
HETATM   21  C   UNL     1      -7.805   6.824  74.191  1.00  0.00    -0.115 A  
ENDBRANCH  10  13
ENDBRANCH   7  10
TORSDOF 2
ENDMDL
MODEL      214
REMARK 921   NORMALIZED FREE ENERGY PREDICTED BY IDOCK:    1.86 KCAL/MOL
REMARK 922        TOTAL FREE ENERGY PREDICTED BY IDOCK:    1.65 KCAL/MOL
REMARK 923 INTER-LIGAND FREE ENERGY PREDICTED BY IDOCK:    1.36 KCAL/MOL
REMARK 924 INTRA-LIGAND FREE ENERGY PREDICTED BY IDOCK:    0.29 KCAL/MOL
REMARK 927      BINDING AFFINITY PREDICTED BY RF-SCORE:    0.00 PKD
ROOT
HETATM    1  N   UNL     1      -6.725  11.604  63.699  1.00  0.00     1.611 NA 
HETATM    2  H2  UNL     1      -5.756  11.757  63.980  1.00  0.00     0.000 HD 
HETATM    3  C   UNL     1      -7.026  10.249  63.877  1.00  0.00    -0.055 A  
HETATM    4  H1  UNL     1      -6.870  12.049  62.793  1.00  0.00     0.000 HD 
HETATM    5  C   UNL     1      -6.828   9.639  65.118  1.00  0.00    -0.098 A  
HETATM    6  C   UNL     1      -7.196   8.307  65.331  1.00  0.00    -0.071 A  
HETATM    7  C   UNL     1      -7.806   7.591  64.300  1.00  0.00    -0.133 A  
HETATM    8  C   UNL     1      -7.739   9.554  62.896  1.00  0.00    -0.118 A  
HETATM    9  C   UNL     1      -8.122   8.224  63.095  1.00  0.00    -0.142 A  
ENDROOT
BRANCH   7  10
HETATM   10  S   UNL     1      -8.305   5.903  64.569  1.00  0.00    -0.011 S  
HETATM   11  O   UNL     1      -9.685   5.813  64.127  1.00  0.00     1.173 OA 
HETATM   12  O   UNL     1      -7.290   5.051  63.978  1.00  0.00    -0.053 OA 
BRANCH  10  13
HETATM   13  C   UNL     1      -8.298   5.542  66.312  1.00  0.00    -0.112 A  
HETATM   14  C   UNL     1      -9.259   4.658  66.813  1.00  0.00    -0.130 A  
HETATM   15  C   UNL     1      -9.253   4.318  68.166  1.00  0.00    -0.186 A  
HETATM   16  C   UNL     1      -8.323   4.885  69.043  1.00  0.00    -0.082 A  
HETATM   17  N   UNL     1      -8.234   4.425  70.361  1.00  0.00    -0.069 NA 
HETATM   18  C   UNL     1      -7.338   5.731  68.520  1.00  0.00    -0.084 A  
HETATM   19  H2  UNL     1      -8.085   3.416  70.341  1.00  0.00     0.000 HD 
HETATM   20  H1  UNL     1      -7.556   4.839  71.001  1.00  0.00     0.000 HD 
HETATM   21  C   UNL     1      -7.333   6.083  67.162  1.00  0.00    -0.076 A  
ENDBRANCH  10  13
ENDBRANCH   7  10
TORSDOF 2
ENDMDL
