MODEL        1
REMARK 921   NORMALIZED FREE ENERGY PREDICTED BY IDOCK:   -7.22 KCAL/MOL
REMARK 922        TOTAL FREE ENERGY PREDICTED BY IDOCK:  -11.95 KCAL/MOL
REMARK 923 INTER-LIGAND FREE ENERGY PREDICTED BY IDOCK:  -10.17 KCAL/MOL
REMARK 924 INTRA-LIGAND FREE ENERGY PREDICTED BY IDOCK:   -1.78 KCAL/MOL
REMARK 927      BINDING AFFINITY PREDICTED BY RF-SCORE:    0.00 PKD
ROOT
HETATM    1  N   UNL     1      -9.826  11.046  69.365  1.00  0.00    -0.428 N  
HETATM    2  C   UNL     1     -11.015  11.439  68.807  1.00  0.00    -0.223 C  
HETATM    3  H1  UNL     1      -9.161  11.790  69.573  1.00  0.00     0.000 HD 
HETATM    4  H2  UNL     1      -9.618  10.066  69.561  1.00  0.00     0.000 HD 
HETATM    5  O   UNL     1     -11.814  10.544  68.557  1.00  0.00    -0.349 OA 
ENDROOT
BRANCH   2   6
HETATM    6  C   UNL     1     -11.275  12.996  68.619  1.00  0.00    -0.316 C  
BRANCH   6   7
HETATM    7  C   UNL     1     -12.097  13.509  69.883  1.00  0.00    -0.408 A  
HETATM    8  C   UNL     1     -13.735  14.403  72.036  1.00  0.00    -0.533 A  
HETATM    9  C   UNL     1     -13.328  15.292  71.052  1.00  0.00    -0.537 A  
HETATM   10  C   UNL     1     -13.289  13.090  71.993  1.00  0.00    -0.588 A  
HETATM   11  C   UNL     1     -12.505  14.857  70.004  1.00  0.00    -0.320 A  
HETATM   12  C   UNL     1     -12.476  12.654  70.938  1.00  0.00    -0.368 A  
ENDBRANCH   6   7
BRANCH   6  13
HETATM   13  C   UNL     1      -9.891  13.737  68.511  1.00  0.00    -0.204 A  
HETATM   14  C   UNL     1      -8.879  13.252  67.646  1.00  0.00    -0.200 A  
HETATM   15  C   UNL     1      -7.611  13.840  67.591  1.00  0.00    -0.189 A  
HETATM   16  C   UNL     1      -7.319  14.948  68.373  1.00  0.00    -0.114 A  
HETATM   17  C   UNL     1      -9.579  14.887  69.253  1.00  0.00    -0.131 A  
HETATM   18  C   UNL     1      -8.310  15.481  69.199  1.00  0.00    -0.253 A  
ENDBRANCH   6  13
BRANCH   6  19
HETATM   19  C   UNL     1     -12.130  13.278  67.290  1.00  0.00    -0.341 C  
HETATM   20  C   UNL     1     -11.035  13.218  65.099  1.00  0.00    -0.299 C  
HETATM   21  N   UNL     1     -11.420  14.605  65.345  1.00  0.00    -0.346 NA 
HETATM   22  C   UNL     1     -12.105  14.674  66.645  1.00  0.00    -0.208 C  
HETATM   23  C   UNL     1     -11.839  12.377  66.077  1.00  0.00    -0.459 C  
BRANCH  21  24
HETATM   24  C   UNL     1     -10.307  15.568  65.250  1.00  0.00    -0.386 C  
BRANCH  24  25
HETATM   25  C   UNL     1     -10.712  17.040  65.450  1.00  0.00    -0.126 C  
BRANCH  25  26
HETATM   26  C   UNL     1      -9.871  17.722  66.514  1.00  0.00    -0.331 A  
HETATM   27  C   UNL     1      -8.484  17.832  66.351  1.00  0.00    -0.270 A  
HETATM   28  C   UNL     1      -7.744  18.486  67.326  1.00  0.00    -0.229 A  
HETATM   29  C   UNL     1      -8.361  19.031  68.435  1.00  0.00    -0.348 A  
HETATM   30  O   UNL     1      -7.504  19.670  69.290  1.00  0.00    -0.346 OA 
HETATM   31  C   UNL     1      -9.722  18.941  68.630  1.00  0.00    -0.454 A  
HETATM   32  C   UNL     1     -10.483  18.273  67.662  1.00  0.00    -0.431 A  
HETATM   33  C   UNL     1      -6.187  19.412  68.753  1.00  0.00    -0.247 C  
HETATM   34  C   UNL     1      -6.292  18.734  67.385  1.00  0.00    -0.191 C  
ENDBRANCH  25  26
ENDBRANCH  24  25
ENDBRANCH  21  24
ENDBRANCH   6  19
ENDBRANCH   2   6
TORSDOF 7
ENDMDL
MODEL        2
REMARK 921   NORMALIZED FREE ENERGY PREDICTED BY IDOCK:   -6.87 KCAL/MOL
REMARK 922        TOTAL FREE ENERGY PREDICTED BY IDOCK:  -11.46 KCAL/MOL
REMARK 923 INTER-LIGAND FREE ENERGY PREDICTED BY IDOCK:  -10.03 KCAL/MOL
REMARK 924 INTRA-LIGAND FREE ENERGY PREDICTED BY IDOCK:   -1.44 KCAL/MOL
REMARK 927      BINDING AFFINITY PREDICTED BY RF-SCORE:    0.00 PKD
ROOT
HETATM    1  N   UNL     1      -8.378   7.035  73.132  1.00  0.00    -0.112 N  
HETATM    2  C   UNL     1      -9.295   7.730  72.385  1.00  0.00    -0.169 C  
HETATM    3  H1  UNL     1      -8.449   6.019  73.094  1.00  0.00     0.000 HD 
HETATM    4  H2  UNL     1      -7.668   7.507  73.692  1.00  0.00     0.000 HD 
HETATM    5  O   UNL     1      -9.210   8.951  72.430  1.00  0.00    -0.362 OA 
ENDROOT
BRANCH   2   6
HETATM    6  C   UNL     1     -10.307   6.901  71.481  1.00  0.00    -0.220 C  
BRANCH   6   7
HETATM    7  C   UNL     1     -10.265   5.385  71.967  1.00  0.00    -0.256 A  
HETATM    8  C   UNL     1     -10.375   2.650  72.759  1.00  0.00    -0.236 A  
HETATM    9  C   UNL     1     -10.915   3.636  73.572  1.00  0.00    -0.333 A  
HETATM   10  C   UNL     1      -9.729   3.015  71.586  1.00  0.00    -0.228 A  
HETATM   11  C   UNL     1     -10.844   4.982  73.193  1.00  0.00    -0.347 A  
HETATM   12  C   UNL     1      -9.668   4.361  71.203  1.00  0.00    -0.256 A  
ENDBRANCH   6   7
BRANCH   6  13
HETATM   13  C   UNL     1     -11.752   7.504  71.647  1.00  0.00    -0.313 A  
HETATM   14  C   UNL     1     -11.954   8.700  72.377  1.00  0.00    -0.410 A  
HETATM   15  C   UNL     1     -13.234   9.214  72.612  1.00  0.00    -0.362 A  
HETATM   16  C   UNL     1     -14.351   8.569  72.101  1.00  0.00    -0.529 A  
HETATM   17  C   UNL     1     -12.898   6.902  71.103  1.00  0.00    -0.289 A  
HETATM   18  C   UNL     1     -14.182   7.415  71.333  1.00  0.00    -0.508 A  
ENDBRANCH   6  13
BRANCH   6  19
HETATM   19  C   UNL     1      -9.881   6.967  69.935  1.00  0.00    -0.172 C  
HETATM   20  C   UNL     1      -8.269   8.652  69.183  1.00  0.00    -0.117 C  
HETATM   21  N   UNL     1      -9.557   8.999  68.589  1.00  0.00    -0.151 NA 
HETATM   22  C   UNL     1     -10.547   7.991  69.000  1.00  0.00    -0.154 C  
HETATM   23  C   UNL     1      -8.391   7.207  69.639  1.00  0.00    -0.133 C  
BRANCH  21  24
HETATM   24  C   UNL     1     -10.007  10.373  68.881  1.00  0.00    -0.199 C  
BRANCH  24  25
HETATM   25  C   UNL     1     -11.497  10.497  69.252  1.00  0.00    -0.323 C  
BRANCH  25  26
HETATM   26  C   UNL     1     -11.866  11.911  69.661  1.00  0.00    -0.406 A  
HETATM   27  C   UNL     1     -12.589  12.135  70.841  1.00  0.00    -0.340 A  
HETATM   28  C   UNL     1     -12.888  13.440  71.206  1.00  0.00    -0.407 A  
HETATM   29  C   UNL     1     -12.473  14.504  70.429  1.00  0.00    -0.347 A  
HETATM   30  O   UNL     1     -12.816  15.729  70.935  1.00  0.00    -0.468 OA 
HETATM   31  C   UNL     1     -11.763  14.323  69.263  1.00  0.00    -0.363 A  
HETATM   32  C   UNL     1     -11.463  13.011  68.873  1.00  0.00    -0.345 A  
HETATM   33  C   UNL     1     -13.640  15.434  72.087  1.00  0.00    -0.498 C  
HETATM   34  C   UNL     1     -13.622  13.934  72.385  1.00  0.00    -0.676 C  
ENDBRANCH  25  26
ENDBRANCH  24  25
ENDBRANCH  21  24
ENDBRANCH   6  19
ENDBRANCH   2   6
TORSDOF 7
ENDMDL
MODEL        3
REMARK 921   NORMALIZED FREE ENERGY PREDICTED BY IDOCK:   -6.83 KCAL/MOL
REMARK 922        TOTAL FREE ENERGY PREDICTED BY IDOCK:  -11.41 KCAL/MOL
REMARK 923 INTER-LIGAND FREE ENERGY PREDICTED BY IDOCK:   -9.88 KCAL/MOL
REMARK 924 INTRA-LIGAND FREE ENERGY PREDICTED BY IDOCK:   -1.53 KCAL/MOL
REMARK 927      BINDING AFFINITY PREDICTED BY RF-SCORE:    0.00 PKD
ROOT
HETATM    1  N   UNL     1     -10.676  10.981  70.066  1.00  0.00    -0.446 N  
HETATM    2  C   UNL     1     -11.425  11.430  69.009  1.00  0.00    -0.300 C  
HETATM    3  H1  UNL     1      -9.870  11.553  70.319  1.00  0.00     0.000 HD 
HETATM    4  H2  UNL     1     -10.910  10.125  70.570  1.00  0.00     0.000 HD 
HETATM    5  O   UNL     1     -12.392  10.742  68.705  1.00  0.00    -0.430 OA 
ENDROOT
BRANCH   2   6
HETATM    6  C   UNL     1     -11.025  12.817  68.343  1.00  0.00    -0.281 C  
BRANCH   6   7
HETATM    7  C   UNL     1     -11.323  13.969  69.402  1.00  0.00    -0.317 A  
HETATM    8  C   UNL     1     -11.730  15.937  71.421  1.00  0.00    -0.530 A  
HETATM    9  C   UNL     1     -12.472  14.765  71.428  1.00  0.00    -0.401 A  
HETATM   10  C   UNL     1     -10.831  16.167  70.390  1.00  0.00    -0.255 A  
HETATM   11  C   UNL     1     -12.286  13.806  70.424  1.00  0.00    -0.423 A  
HETATM   12  C   UNL     1     -10.639  15.202  69.392  1.00  0.00    -0.258 A  
ENDBRANCH   6   7
BRANCH   6  13
HETATM   13  C   UNL     1      -9.497  12.782  67.967  1.00  0.00    -0.213 A  
HETATM   14  C   UNL     1      -8.873  11.567  67.594  1.00  0.00    -0.152 A  
HETATM   15  C   UNL     1      -7.501  11.490  67.335  1.00  0.00    -0.127 A  
HETATM   16  C   UNL     1      -6.710  12.628  67.410  1.00  0.00    -0.143 A  
HETATM   17  C   UNL     1      -8.679  13.923  67.987  1.00  0.00    -0.183 A  
HETATM   18  C   UNL     1      -7.303  13.851  67.725  1.00  0.00    -0.170 A  
ENDBRANCH   6  13
BRANCH   6  19
HETATM   19  C   UNL     1     -11.889  13.088  67.018  1.00  0.00    -0.437 C  
HETATM   20  C   UNL     1     -10.769  13.268  64.846  1.00  0.00    -0.351 C  
HETATM   21  N   UNL     1     -11.297  14.592  65.165  1.00  0.00    -0.350 NA 
HETATM   22  C   UNL     1     -12.000  14.515  66.455  1.00  0.00    -0.334 C  
HETATM   23  C   UNL     1     -11.493  12.294  65.762  1.00  0.00    -0.417 C  
BRANCH  21  24
HETATM   24  C   UNL     1     -10.288  15.667  65.144  1.00  0.00    -0.334 C  
BRANCH  24  25
HETATM   25  C   UNL     1     -10.834  17.069  65.470  1.00  0.00    -0.073 C  
BRANCH  25  26
HETATM   26  C   UNL     1      -9.994  17.778  66.517  1.00  0.00    -0.346 A  
HETATM   27  C   UNL     1      -8.773  17.228  66.930  1.00  0.00    -0.261 A  
HETATM   28  C   UNL     1      -8.013  17.912  67.867  1.00  0.00    -0.235 A  
HETATM   29  C   UNL     1      -8.441  19.121  68.379  1.00  0.00    -0.349 A  
HETATM   30  O   UNL     1      -7.569  19.689  69.269  1.00  0.00    -0.336 OA 
HETATM   31  C   UNL     1      -9.636  19.691  67.999  1.00  0.00    -0.469 A  
HETATM   32  C   UNL     1     -10.423  19.007  67.063  1.00  0.00    -0.514 A  
HETATM   33  C   UNL     1      -6.530  18.699  69.449  1.00  0.00    -0.250 C  
HETATM   34  C   UNL     1      -6.708  17.551  68.453  1.00  0.00    -0.193 C  
ENDBRANCH  25  26
ENDBRANCH  24  25
ENDBRANCH  21  24
ENDBRANCH   6  19
ENDBRANCH   2   6
TORSDOF 7
ENDMDL
MODEL        4
REMARK 921   NORMALIZED FREE ENERGY PREDICTED BY IDOCK:   -6.79 KCAL/MOL
REMARK 922        TOTAL FREE ENERGY PREDICTED BY IDOCK:  -11.34 KCAL/MOL
REMARK 923 INTER-LIGAND FREE ENERGY PREDICTED BY IDOCK:   -9.98 KCAL/MOL
REMARK 924 INTRA-LIGAND FREE ENERGY PREDICTED BY IDOCK:   -1.37 KCAL/MOL
REMARK 927      BINDING AFFINITY PREDICTED BY RF-SCORE:    0.00 PKD
ROOT
HETATM    1  N   UNL     1      -7.804  15.562  66.682  1.00  0.00    -0.281 N  
HETATM    2  C   UNL     1      -8.837  14.784  67.141  1.00  0.00    -0.216 C  
HETATM    3  H1  UNL     1      -8.058  16.492  66.351  1.00  0.00     0.000 HD 
HETATM    4  H2  UNL     1      -6.840  15.230  66.674  1.00  0.00     0.000 HD 
HETATM    5  O   UNL     1      -8.531  13.666  67.539  1.00  0.00    -0.165 OA 
ENDROOT
BRANCH   2   6
HETATM    6  C   UNL     1     -10.291  15.423  67.190  1.00  0.00    -0.271 C  
BRANCH   6   7
HETATM    7  C   UNL     1     -11.036  14.841  68.473  1.00  0.00    -0.275 A  
HETATM    8  C   UNL     1     -12.533  13.782  70.652  1.00  0.00    -0.429 A  
HETATM    9  C   UNL     1     -12.588  15.136  70.360  1.00  0.00    -0.405 A  
HETATM   10  C   UNL     1     -11.698  12.959  69.910  1.00  0.00    -0.324 A  
HETATM   11  C   UNL     1     -11.836  15.661  69.301  1.00  0.00    -0.378 A  
HETATM   12  C   UNL     1     -10.955  13.484  68.844  1.00  0.00    -0.286 A  
ENDBRANCH   6   7
BRANCH   6  13
HETATM   13  C   UNL     1     -10.160  16.989  67.279  1.00  0.00    -0.295 A  
HETATM   14  C   UNL     1      -9.680  17.605  68.461  1.00  0.00    -0.328 A  
HETATM   15  C   UNL     1      -9.631  18.996  68.600  1.00  0.00    -0.458 A  
HETATM   16  C   UNL     1     -10.030  19.818  67.555  1.00  0.00    -0.540 A  
HETATM   17  C   UNL     1     -10.510  17.847  66.225  1.00  0.00    -0.320 A  
HETATM   18  C   UNL     1     -10.459  19.242  66.359  1.00  0.00    -0.563 A  
ENDBRANCH   6  13
BRANCH   6  19
HETATM   19  C   UNL     1     -11.132  15.037  65.878  1.00  0.00    -0.334 C  
HETATM   20  C   UNL     1     -12.033  12.772  65.628  1.00  0.00    -0.452 C  
HETATM   21  N   UNL     1     -10.994  12.932  64.614  1.00  0.00    -0.314 NA 
HETATM   22  C   UNL     1     -10.446  14.293  64.720  1.00  0.00    -0.395 C  
HETATM   23  C   UNL     1     -12.388  14.176  66.092  1.00  0.00    -0.463 C  
BRANCH  21  24
HETATM   24  C   UNL     1      -9.939  11.902  64.663  1.00  0.00    -0.230 C  
BRANCH  24  25
HETATM   25  C   UNL     1     -10.404  10.530  65.186  1.00  0.00    -0.310 C  
BRANCH  25  26
HETATM   26  C   UNL     1      -9.899  10.255  66.591  1.00  0.00    -0.256 A  
HETATM   27  C   UNL     1     -10.801   9.907  67.606  1.00  0.00    -0.318 A  
HETATM   28  C   UNL     1     -10.308   9.634  68.874  1.00  0.00    -0.220 A  
HETATM   29  C   UNL     1      -8.953   9.690  69.134  1.00  0.00    -0.154 A  
HETATM   30  O   UNL     1      -8.619   9.364  70.422  1.00  0.00    -0.199 OA 
HETATM   31  C   UNL     1      -8.038  10.031  68.163  1.00  0.00    -0.108 A  
HETATM   32  C   UNL     1      -8.519  10.323  66.879  1.00  0.00    -0.126 A  
HETATM   33  C   UNL     1      -9.886   9.198  71.100  1.00  0.00    -0.301 C  
HETATM   34  C   UNL     1     -11.039   9.246  70.095  1.00  0.00    -0.260 C  
ENDBRANCH  25  26
ENDBRANCH  24  25
ENDBRANCH  21  24
ENDBRANCH   6  19
ENDBRANCH   2   6
TORSDOF 7
ENDMDL
MODEL        5
REMARK 921   NORMALIZED FREE ENERGY PREDICTED BY IDOCK:   -6.74 KCAL/MOL
REMARK 922        TOTAL FREE ENERGY PREDICTED BY IDOCK:  -11.27 KCAL/MOL
REMARK 923 INTER-LIGAND FREE ENERGY PREDICTED BY IDOCK:   -9.98 KCAL/MOL
REMARK 924 INTRA-LIGAND FREE ENERGY PREDICTED BY IDOCK:   -1.29 KCAL/MOL
REMARK 927      BINDING AFFINITY PREDICTED BY RF-SCORE:    0.00 PKD
ROOT
HETATM    1  N   UNL     1     -11.383  10.134  67.984  1.00  0.00    -0.523 N  
HETATM    2  C   UNL     1     -10.560  11.097  68.509  1.00  0.00    -0.191 C  
HETATM    3  H1  UNL     1     -12.288  10.456  67.643  1.00  0.00     0.000 HD 
HETATM    4  H2  UNL     1     -11.106   9.153  67.937  1.00  0.00     0.000 HD 
HETATM    5  O   UNL     1      -9.472  10.710  68.919  1.00  0.00    -0.178 OA 
ENDROOT
BRANCH   2   6
HETATM    6  C   UNL     1     -11.050  12.608  68.460  1.00  0.00    -0.300 C  
BRANCH   6   7
HETATM    7  C   UNL     1     -11.975  12.862  69.732  1.00  0.00    -0.365 A  
HETATM    8  C   UNL     1     -13.463  13.331  72.116  1.00  0.00    -0.655 A  
HETATM    9  C   UNL     1     -13.046  12.048  71.793  1.00  0.00    -0.460 A  
HETATM   10  C   UNL     1     -13.199  14.373  71.238  1.00  0.00    -0.416 A  
HETATM   11  C   UNL     1     -12.332  11.814  70.610  1.00  0.00    -0.421 A  
HETATM   12  C   UNL     1     -12.475  14.138  70.061  1.00  0.00    -0.352 A  
ENDBRANCH   6   7
BRANCH   6  13
HETATM   13  C   UNL     1      -9.792  13.555  68.483  1.00  0.00    -0.189 A  
HETATM   14  C   UNL     1      -9.721  14.637  69.395  1.00  0.00     0.019 A  
HETATM   15  C   UNL     1      -8.656  15.543  69.384  1.00  0.00    -0.259 A  
HETATM   16  C   UNL     1      -7.613  15.385  68.483  1.00  0.00    -0.122 A  
HETATM   17  C   UNL     1      -8.698  13.395  67.618  1.00  0.00    -0.198 A  
HETATM   18  C   UNL     1      -7.627  14.300  67.605  1.00  0.00    -0.191 A  
ENDBRANCH   6  13
BRANCH   6  19
HETATM   19  C   UNL     1     -11.900  12.893  67.129  1.00  0.00    -0.424 C  
HETATM   20  C   UNL     1     -10.745  13.387  65.025  1.00  0.00    -0.343 C  
HETATM   21  N   UNL     1     -11.434  14.610  65.430  1.00  0.00    -0.346 NA 
HETATM   22  C   UNL     1     -12.160  14.341  66.682  1.00  0.00    -0.420 C  
HETATM   23  C   UNL     1     -11.377  12.261  65.827  1.00  0.00    -0.400 C  
BRANCH  21  24
HETATM   24  C   UNL     1     -10.557  15.790  65.538  1.00  0.00    -0.406 C  
BRANCH  24  25
HETATM   25  C   UNL     1     -10.858  16.708  66.737  1.00  0.00    -0.037 C  
BRANCH  25  26
HETATM   26  C   UNL     1      -9.884  17.870  66.824  1.00  0.00    -0.333 A  
HETATM   27  C   UNL     1      -8.663  17.815  66.140  1.00  0.00    -0.125 A  
HETATM   28  C   UNL     1      -7.805  18.903  66.214  1.00  0.00    -0.299 A  
HETATM   29  C   UNL     1      -8.149  20.028  66.939  1.00  0.00    -0.321 A  
HETATM   30  O   UNL     1      -7.215  21.028  66.891  1.00  0.00    -0.283 OA 
HETATM   31  C   UNL     1      -9.339  20.116  67.626  1.00  0.00    -0.487 A  
HETATM   32  C   UNL     1     -10.212  19.021  67.573  1.00  0.00    -0.472 A  
HETATM   33  C   UNL     1      -6.100  20.457  66.168  1.00  0.00    -0.196 C  
HETATM   34  C   UNL     1      -6.482  19.092  65.590  1.00  0.00    -0.288 C  
ENDBRANCH  25  26
ENDBRANCH  24  25
ENDBRANCH  21  24
ENDBRANCH   6  19
ENDBRANCH   2   6
TORSDOF 7
ENDMDL
MODEL        6
REMARK 921   NORMALIZED FREE ENERGY PREDICTED BY IDOCK:   -6.62 KCAL/MOL
REMARK 922        TOTAL FREE ENERGY PREDICTED BY IDOCK:  -11.11 KCAL/MOL
REMARK 923 INTER-LIGAND FREE ENERGY PREDICTED BY IDOCK:   -9.81 KCAL/MOL
REMARK 924 INTRA-LIGAND FREE ENERGY PREDICTED BY IDOCK:   -1.30 KCAL/MOL
REMARK 927      BINDING AFFINITY PREDICTED BY RF-SCORE:    0.00 PKD
ROOT
HETATM    1  N   UNL     1     -10.392  10.850  70.013  1.00  0.00    -0.370 N  
HETATM    2  C   UNL     1     -11.069  11.234  68.884  1.00  0.00    -0.238 C  
HETATM    3  H1  UNL     1      -9.720  11.522  70.381  1.00  0.00     0.000 HD 
HETATM    4  H2  UNL     1     -10.552   9.946  70.458  1.00  0.00     0.000 HD 
HETATM    5  O   UNL     1     -11.877  10.426  68.441  1.00  0.00    -0.304 OA 
ENDROOT
BRANCH   2   6
HETATM    6  C   UNL     1     -10.809  12.695  68.315  1.00  0.00    -0.261 C  
BRANCH   6   7
HETATM    7  C   UNL     1     -11.315  13.740  69.406  1.00  0.00    -0.306 A  
HETATM    8  C   UNL     1     -12.301  15.716  71.207  1.00  0.00    -0.484 A  
HETATM    9  C   UNL     1     -11.080  15.895  70.573  1.00  0.00    -0.381 A  
HETATM   10  C   UNL     1     -13.009  14.541  71.000  1.00  0.00    -0.423 A  
HETATM   11  C   UNL     1     -10.585  14.914  69.703  1.00  0.00    -0.213 A  
HETATM   12  C   UNL     1     -12.518  13.566  70.121  1.00  0.00    -0.276 A  
ENDBRANCH   6   7
BRANCH   6  13
HETATM   13  C   UNL     1      -9.269  12.872  68.042  1.00  0.00    -0.212 A  
HETATM   14  C   UNL     1      -8.669  14.154  68.098  1.00  0.00    -0.181 A  
HETATM   15  C   UNL     1      -7.322  14.353  67.779  1.00  0.00    -0.186 A  
HETATM   16  C   UNL     1      -6.522  13.277  67.422  1.00  0.00    -0.047 A  
HETATM   17  C   UNL     1      -8.421  11.799  67.724  1.00  0.00    -0.147 A  
HETATM   18  C   UNL     1      -7.069  11.994  67.406  1.00  0.00    -0.136 A  
ENDBRANCH   6  13
BRANCH   6  19
HETATM   19  C   UNL     1     -11.619  12.932  66.950  1.00  0.00    -0.425 C  
HETATM   20  C   UNL     1     -10.421  13.618  64.924  1.00  0.00    -0.409 C  
HETATM   21  N   UNL     1     -11.258  14.745  65.327  1.00  0.00    -0.350 NA 
HETATM   22  C   UNL     1     -12.012  14.359  66.530  1.00  0.00    -0.386 C  
HETATM   23  C   UNL     1     -10.966  12.404  65.660  1.00  0.00    -0.321 C  
BRANCH  21  24
HETATM   24  C   UNL     1     -10.521  16.009  65.515  1.00  0.00    -0.405 C  
BRANCH  24  25
HETATM   25  C   UNL     1     -10.783  16.713  66.859  1.00  0.00    -0.153 C  
BRANCH  25  26
HETATM   26  C   UNL     1      -9.919  17.949  67.032  1.00  0.00    -0.324 A  
HETATM   27  C   UNL     1      -8.746  17.885  67.797  1.00  0.00    -0.250 A  
HETATM   28  C   UNL     1      -7.961  19.023  67.915  1.00  0.00    -0.307 A  
HETATM   29  C   UNL     1      -8.317  20.198  67.281  1.00  0.00    -0.341 A  
HETATM   30  O   UNL     1      -7.427  21.222  67.466  1.00  0.00    -0.420 OA 
HETATM   31  C   UNL     1      -9.463  20.298  66.523  1.00  0.00    -0.460 A  
HETATM   32  C   UNL     1     -10.275  19.163  66.404  1.00  0.00    -0.515 A  
HETATM   33  C   UNL     1      -6.461  20.704  68.410  1.00  0.00    -0.268 C  
HETATM   34  C   UNL     1      -6.696  19.212  68.650  1.00  0.00    -0.312 C  
ENDBRANCH  25  26
ENDBRANCH  24  25
ENDBRANCH  21  24
ENDBRANCH   6  19
ENDBRANCH   2   6
TORSDOF 7
ENDMDL
MODEL        7
REMARK 921   NORMALIZED FREE ENERGY PREDICTED BY IDOCK:   -6.62 KCAL/MOL
REMARK 922        TOTAL FREE ENERGY PREDICTED BY IDOCK:  -11.11 KCAL/MOL
REMARK 923 INTER-LIGAND FREE ENERGY PREDICTED BY IDOCK:   -9.40 KCAL/MOL
REMARK 924 INTRA-LIGAND FREE ENERGY PREDICTED BY IDOCK:   -1.70 KCAL/MOL
REMARK 927      BINDING AFFINITY PREDICTED BY RF-SCORE:    0.00 PKD
ROOT
HETATM    1  N   UNL     1     -12.520  15.914  68.967  1.00  0.00    -0.368 N  
HETATM    2  C   UNL     1     -11.610  14.984  68.535  1.00  0.00    -0.326 C  
HETATM    3  H1  UNL     1     -12.455  16.837  68.540  1.00  0.00     0.000 HD 
HETATM    4  H2  UNL     1     -13.222  15.694  69.675  1.00  0.00     0.000 HD 
HETATM    5  O   UNL     1     -11.689  13.874  69.048  1.00  0.00    -0.290 OA 
ENDROOT
BRANCH   2   6
HETATM    6  C   UNL     1     -10.612  15.400  67.370  1.00  0.00    -0.289 C  
BRANCH   6   7
HETATM    7  C   UNL     1     -10.386  16.975  67.460  1.00  0.00    -0.329 A  
HETATM    8  C   UNL     1     -10.179  19.809  67.655  1.00  0.00    -0.569 A  
HETATM    9  C   UNL     1     -10.529  19.215  66.452  1.00  0.00    -0.548 A  
HETATM   10  C   UNL     1      -9.875  19.007  68.746  1.00  0.00    -0.485 A  
HETATM   11  C   UNL     1     -10.611  17.820  66.350  1.00  0.00    -0.218 A  
HETATM   12  C   UNL     1      -9.968  17.613  68.645  1.00  0.00    -0.367 A  
ENDBRANCH   6   7
BRANCH   6  13
HETATM   13  C   UNL     1      -9.253  14.627  67.559  1.00  0.00    -0.192 A  
HETATM   14  C   UNL     1      -8.020  15.253  67.256  1.00  0.00    -0.231 A  
HETATM   15  C   UNL     1      -6.804  14.565  67.335  1.00  0.00    -0.067 A  
HETATM   16  C   UNL     1      -6.776  13.240  67.747  1.00  0.00    -0.154 A  
HETATM   17  C   UNL     1      -9.185  13.302  68.019  1.00  0.00    -0.217 A  
HETATM   18  C   UNL     1      -7.969  12.610  68.102  1.00  0.00    -0.158 A  
ENDBRANCH   6  13
BRANCH   6  19
HETATM   19  C   UNL     1     -11.227  15.042  65.931  1.00  0.00    -0.313 C  
HETATM   20  C   UNL     1     -12.071  12.783  65.494  1.00  0.00    -0.465 C  
HETATM   21  N   UNL     1     -10.881  12.961  64.666  1.00  0.00    -0.322 NA 
HETATM   22  C   UNL     1     -10.360  14.320  64.886  1.00  0.00    -0.401 C  
HETATM   23  C   UNL     1     -12.500  14.177  65.921  1.00  0.00    -0.479 C  
BRANCH  21  24
HETATM   24  C   UNL     1      -9.846  11.930  64.865  1.00  0.00    -0.199 C  
BRANCH  24  25
HETATM   25  C   UNL     1     -10.392  10.517  65.147  1.00  0.00    -0.310 C  
BRANCH  25  26
HETATM   26  C   UNL     1     -10.010  10.025  66.530  1.00  0.00    -0.286 A  
HETATM   27  C   UNL     1     -10.836  10.301  67.628  1.00  0.00    -0.363 A  
HETATM   28  C   UNL     1     -10.476   9.814  68.877  1.00  0.00    -0.233 A  
HETATM   29  C   UNL     1      -9.331   9.058  69.038  1.00  0.00    -0.140 A  
HETATM   30  O   UNL     1      -9.128   8.623  70.321  1.00  0.00    -0.149 OA 
HETATM   31  C   UNL     1      -8.494   8.768  67.983  1.00  0.00    -0.126 A  
HETATM   32  C   UNL     1      -8.835   9.264  66.718  1.00  0.00    -0.142 A  
HETATM   33  C   UNL     1     -10.172   9.257  71.094  1.00  0.00    -0.317 C  
HETATM   34  C   UNL     1     -11.168   9.961  70.170  1.00  0.00    -0.347 C  
ENDBRANCH  25  26
ENDBRANCH  24  25
ENDBRANCH  21  24
ENDBRANCH   6  19
ENDBRANCH   2   6
TORSDOF 7
ENDMDL
MODEL        8
REMARK 921   NORMALIZED FREE ENERGY PREDICTED BY IDOCK:   -6.61 KCAL/MOL
REMARK 922        TOTAL FREE ENERGY PREDICTED BY IDOCK:  -11.09 KCAL/MOL
REMARK 923 INTER-LIGAND FREE ENERGY PREDICTED BY IDOCK:   -9.79 KCAL/MOL
REMARK 924 INTRA-LIGAND FREE ENERGY PREDICTED BY IDOCK:   -1.30 KCAL/MOL
REMARK 927      BINDING AFFINITY PREDICTED BY RF-SCORE:    0.00 PKD
ROOT
HETATM    1  N   UNL     1      -8.993  10.653  69.410  1.00  0.00    -0.380 N  
HETATM    2  C   UNL     1      -9.379  11.585  68.481  1.00  0.00    -0.170 C  
HETATM    3  H1  UNL     1      -9.693  10.399  70.106  1.00  0.00     0.000 HD 
HETATM    4  H2  UNL     1      -8.061  10.238  69.405  1.00  0.00     0.000 HD 
HETATM    5  O   UNL     1      -8.538  11.891  67.644  1.00  0.00    -0.143 OA 
ENDROOT
BRANCH   2   6
HETATM    6  C   UNL     1     -10.879  12.109  68.525  1.00  0.00    -0.267 C  
BRANCH   6   7
HETATM    7  C   UNL     1     -11.624  11.355  69.715  1.00  0.00    -0.407 A  
HETATM    8  C   UNL     1     -12.784  10.016  71.946  1.00  0.00    -0.493 A  
HETATM    9  C   UNL     1     -12.085   9.298  70.986  1.00  0.00    -0.349 A  
HETATM   10  C   UNL     1     -12.962  11.381  71.778  1.00  0.00    -0.519 A  
HETATM   11  C   UNL     1     -11.532   9.954  69.878  1.00  0.00    -0.234 A  
HETATM   12  C   UNL     1     -12.399  12.037  70.675  1.00  0.00    -0.394 A  
ENDBRANCH   6   7
BRANCH   6  13
HETATM   13  C   UNL     1     -10.872  13.665  68.764  1.00  0.00    -0.279 A  
HETATM   14  C   UNL     1      -9.685  14.326  69.163  1.00  0.00     0.043 A  
HETATM   15  C   UNL     1      -9.667  15.693  69.463  1.00  0.00    -0.287 A  
HETATM   16  C   UNL     1     -10.824  16.449  69.346  1.00  0.00    -0.327 A  
HETATM   17  C   UNL     1     -12.013  14.468  68.609  1.00  0.00    -0.320 A  
HETATM   18  C   UNL     1     -11.999  15.838  68.906  1.00  0.00    -0.268 A  
ENDBRANCH   6  13
BRANCH   6  19
HETATM   19  C   UNL     1     -11.639  11.790  67.148  1.00  0.00    -0.342 C  
HETATM   20  C   UNL     1     -10.359  11.576  65.069  1.00  0.00    -0.281 C  
HETATM   21  N   UNL     1     -11.168  12.786  64.949  1.00  0.00    -0.289 NA 
HETATM   22  C   UNL     1     -11.970  12.933  66.173  1.00  0.00    -0.429 C  
HETATM   23  C   UNL     1     -10.967  10.774  66.208  1.00  0.00    -0.073 C  
BRANCH  21  24
HETATM   24  C   UNL     1     -10.393  14.003  64.641  1.00  0.00    -0.309 C  
BRANCH  24  25
HETATM   25  C   UNL     1     -11.091  15.322  65.022  1.00  0.00    -0.436 C  
BRANCH  25  26
HETATM   26  C   UNL     1     -10.127  16.318  65.642  1.00  0.00    -0.340 A  
HETATM   27  C   UNL     1     -10.547  17.626  65.914  1.00  0.00    -0.203 A  
HETATM   28  C   UNL     1      -9.654  18.507  66.507  1.00  0.00    -0.335 A  
HETATM   29  C   UNL     1      -8.375  18.103  66.836  1.00  0.00    -0.245 A  
HETATM   30  O   UNL     1      -7.623  19.073  67.442  1.00  0.00    -0.229 OA 
HETATM   31  C   UNL     1      -7.926  16.825  66.582  1.00  0.00    -0.306 A  
HETATM   32  C   UNL     1      -8.811  15.927  65.971  1.00  0.00    -0.298 A  
HETATM   33  C   UNL     1      -8.446  20.261  67.394  1.00  0.00    -0.339 C  
HETATM   34  C   UNL     1      -9.851  19.916  66.894  1.00  0.00    -0.540 C  
ENDBRANCH  25  26
ENDBRANCH  24  25
ENDBRANCH  21  24
ENDBRANCH   6  19
ENDBRANCH   2   6
TORSDOF 7
ENDMDL
MODEL        9
REMARK 921   NORMALIZED FREE ENERGY PREDICTED BY IDOCK:   -6.57 KCAL/MOL
REMARK 922        TOTAL FREE ENERGY PREDICTED BY IDOCK:  -11.03 KCAL/MOL
REMARK 923 INTER-LIGAND FREE ENERGY PREDICTED BY IDOCK:   -9.52 KCAL/MOL
REMARK 924 INTRA-LIGAND FREE ENERGY PREDICTED BY IDOCK:   -1.51 KCAL/MOL
REMARK 927      BINDING AFFINITY PREDICTED BY RF-SCORE:    0.00 PKD
ROOT
HETATM    1  N   UNL     1      -9.083  13.833  68.711  1.00  0.00    -0.386 N  
HETATM    2  C   UNL     1      -9.288  15.188  68.666  1.00  0.00    -0.199 C  
HETATM    3  H1  UNL     1      -9.852  13.253  68.375  1.00  0.00     0.000 HD 
HETATM    4  H2  UNL     1      -8.214  13.428  69.060  1.00  0.00     0.000 HD 
HETATM    5  O   UNL     1      -8.364  15.885  69.071  1.00  0.00    -0.209 OA 
ENDROOT
BRANCH   2   6
HETATM    6  C   UNL     1     -10.643  15.721  68.028  1.00  0.00    -0.279 C  
BRANCH   6   7
HETATM    7  C   UNL     1     -10.431  17.251  67.641  1.00  0.00    -0.363 A  
HETATM    8  C   UNL     1     -10.252  20.009  66.949  1.00  0.00    -0.595 A  
HETATM    9  C   UNL     1     -10.438  19.052  65.963  1.00  0.00    -0.530 A  
HETATM   10  C   UNL     1     -10.096  19.606  68.267  1.00  0.00    -0.560 A  
HETATM   11  C   UNL     1     -10.505  17.694  66.300  1.00  0.00    -0.292 A  
HETATM   12  C   UNL     1     -10.175  18.248  68.604  1.00  0.00    -0.377 A  
ENDBRANCH   6   7
BRANCH   6  13
HETATM   13  C   UNL     1     -10.981  14.861  66.754  1.00  0.00    -0.326 A  
HETATM   14  C   UNL     1     -12.308  14.438  66.501  1.00  0.00    -0.272 A  
HETATM   15  C   UNL     1     -12.626  13.604  65.423  1.00  0.00    -0.533 A  
HETATM   16  C   UNL     1     -11.634  13.190  64.545  1.00  0.00    -0.406 A  
HETATM   17  C   UNL     1     -10.011  14.464  65.820  1.00  0.00    -0.354 A  
HETATM   18  C   UNL     1     -10.324  13.631  64.736  1.00  0.00    -0.414 A  
ENDBRANCH   6  13
BRANCH   6  19
HETATM   19  C   UNL     1     -11.853  15.610  69.076  1.00  0.00    -0.379 C  
HETATM   20  C   UNL     1     -11.469  14.616  71.283  1.00  0.00    -0.104 C  
HETATM   21  N   UNL     1     -12.345  13.704  70.551  1.00  0.00    -0.355 NA 
HETATM   22  C   UNL     1     -12.617  14.283  69.227  1.00  0.00     0.158 C  
HETATM   23  C   UNL     1     -11.529  15.942  70.543  1.00  0.00    -0.412 C  
BRANCH  21  24
HETATM   24  C   UNL     1     -11.839  12.322  70.462  1.00  0.00    -0.072 C  
BRANCH  24  25
HETATM   25  C   UNL     1     -12.257  11.565  69.187  1.00  0.00    -0.221 C  
BRANCH  25  26
HETATM   26  C   UNL     1     -11.083  10.860  68.532  1.00  0.00    -0.311 A  
HETATM   27  C   UNL     1     -11.020  10.748  67.137  1.00  0.00    -0.324 A  
HETATM   28  C   UNL     1      -9.922  10.124  66.564  1.00  0.00    -0.283 A  
HETATM   29  C   UNL     1      -8.899   9.630  67.350  1.00  0.00    -0.128 A  
HETATM   30  O   UNL     1      -7.871   9.070  66.639  1.00  0.00    -0.098 OA 
HETATM   31  C   UNL     1      -8.927   9.720  68.724  1.00  0.00    -0.133 A  
HETATM   32  C   UNL     1     -10.036  10.335  69.320  1.00  0.00    -0.244 A  
HETATM   33  C   UNL     1      -8.320   9.090  65.264  1.00  0.00    -0.149 C  
HETATM   34  C   UNL     1      -9.621   9.886  65.140  1.00  0.00    -0.367 C  
ENDBRANCH  25  26
ENDBRANCH  24  25
ENDBRANCH  21  24
ENDBRANCH   6  19
ENDBRANCH   2   6
TORSDOF 7
ENDMDL
MODEL       10
REMARK 921   NORMALIZED FREE ENERGY PREDICTED BY IDOCK:   -6.56 KCAL/MOL
REMARK 922        TOTAL FREE ENERGY PREDICTED BY IDOCK:  -11.03 KCAL/MOL
REMARK 923 INTER-LIGAND FREE ENERGY PREDICTED BY IDOCK:   -9.57 KCAL/MOL
REMARK 924 INTRA-LIGAND FREE ENERGY PREDICTED BY IDOCK:   -1.46 KCAL/MOL
REMARK 927      BINDING AFFINITY PREDICTED BY RF-SCORE:    0.00 PKD
ROOT
HETATM    1  N   UNL     1     -10.882  18.861  67.510  1.00  0.00    -0.428 N  
HETATM    2  C   UNL     1     -10.472  17.940  66.581  1.00  0.00    -0.316 C  
HETATM    3  H1  UNL     1     -10.697  18.626  68.485  1.00  0.00     0.000 HD 
HETATM    4  H2  UNL     1     -11.345  19.730  67.243  1.00  0.00     0.000 HD 
HETATM    5  O   UNL     1     -10.695  18.223  65.409  1.00  0.00    -0.610 OA 
ENDROOT
BRANCH   2   6
HETATM    6  C   UNL     1      -9.685  16.658  67.093  1.00  0.00    -0.250 C  
BRANCH   6   7
HETATM    7  C   UNL     1      -8.185  17.097  67.403  1.00  0.00    -0.197 A  
HETATM    8  C   UNL     1      -5.511  17.998  67.793  1.00  0.00    -0.149 A  
HETATM    9  C   UNL     1      -5.772  16.926  66.952  1.00  0.00    -0.199 A  
HETATM   10  C   UNL     1      -6.558  18.589  68.486  1.00  0.00    -0.246 A  
HETATM   11  C   UNL     1      -7.084  16.470  66.776  1.00  0.00    -0.253 A  
HETATM   12  C   UNL     1      -7.872  18.138  68.300  1.00  0.00    -0.301 A  
ENDBRANCH   6   7
BRANCH   6  13
HETATM   13  C   UNL     1     -10.389  16.110  68.391  1.00  0.00    -0.257 A  
HETATM   14  C   UNL     1      -9.621  15.700  69.508  1.00  0.00    -0.279 A  
HETATM   15  C   UNL     1     -10.213  15.133  70.642  1.00  0.00     0.270 A  
HETATM   16  C   UNL     1     -11.591  14.983  70.711  1.00  0.00    -0.364 A  
HETATM   17  C   UNL     1     -11.782  15.990  68.512  1.00  0.00    -0.244 A  
HETATM   18  C   UNL     1     -12.380  15.424  69.647  1.00  0.00    -0.250 A  
ENDBRANCH   6  13
BRANCH   6  19
HETATM   19  C   UNL     1      -9.672  15.507  65.974  1.00  0.00    -0.378 C  
HETATM   20  C   UNL     1     -11.726  14.267  65.475  1.00  0.00    -0.353 C  
HETATM   21  N   UNL     1     -10.801  13.326  66.101  1.00  0.00    -0.279 NA 
HETATM   22  C   UNL     1      -9.544  14.033  66.393  1.00  0.00    -0.283 C  
HETATM   23  C   UNL     1     -10.884  15.451  65.028  1.00  0.00    -0.462 C  
BRANCH  21  24
HETATM   24  C   UNL     1     -11.346  12.644  67.290  1.00  0.00    -0.318 C  
BRANCH  24  25
HETATM   25  C   UNL     1     -10.283  12.089  68.256  1.00  0.00    -0.207 C  
BRANCH  25  26
HETATM   26  C   UNL     1     -10.900  11.256  69.364  1.00  0.00    -0.239 A  
HETATM   27  C   UNL     1     -10.175  10.205  69.941  1.00  0.00    -0.284 A  
HETATM   28  C   UNL     1     -10.753   9.478  70.972  1.00  0.00    -0.411 A  
HETATM   29  C   UNL     1     -12.017   9.788  71.434  1.00  0.00    -0.411 A  
HETATM   30  O   UNL     1     -12.438   9.003  72.474  1.00  0.00    -0.337 OA 
HETATM   31  C   UNL     1     -12.761  10.813  70.891  1.00  0.00    -0.478 A  
HETATM   32  C   UNL     1     -12.197  11.549  69.840  1.00  0.00    -0.328 A  
HETATM   33  C   UNL     1     -11.402   8.006  72.625  1.00  0.00    -0.405 C  
HETATM   34  C   UNL     1     -10.203   8.343  71.737  1.00  0.00    -0.323 C  
ENDBRANCH  25  26
ENDBRANCH  24  25
ENDBRANCH  21  24
ENDBRANCH   6  19
ENDBRANCH   2   6
TORSDOF 7
ENDMDL
MODEL       11
REMARK 921   NORMALIZED FREE ENERGY PREDICTED BY IDOCK:   -6.50 KCAL/MOL
REMARK 922        TOTAL FREE ENERGY PREDICTED BY IDOCK:  -10.94 KCAL/MOL
REMARK 923 INTER-LIGAND FREE ENERGY PREDICTED BY IDOCK:  -10.13 KCAL/MOL
REMARK 924 INTRA-LIGAND FREE ENERGY PREDICTED BY IDOCK:   -0.82 KCAL/MOL
REMARK 927      BINDING AFFINITY PREDICTED BY RF-SCORE:    0.00 PKD
ROOT
HETATM    1  N   UNL     1     -10.276  15.214  70.191  1.00  0.00    -0.509 N  
HETATM    2  C   UNL     1     -10.617  15.608  68.922  1.00  0.00    -0.228 C  
HETATM    3  H1  UNL     1      -9.277  15.146  70.384  1.00  0.00     0.000 HD 
HETATM    4  H2  UNL     1     -10.979  15.003  70.899  1.00  0.00     0.000 HD 
HETATM    5  O   UNL     1     -11.817  15.690  68.690  1.00  0.00    -0.372 OA 
ENDROOT
BRANCH   2   6
HETATM    6  C   UNL     1      -9.447  15.995  67.918  1.00  0.00    -0.210 C  
BRANCH   6   7
HETATM    7  C   UNL     1      -9.595  17.543  67.571  1.00  0.00    -0.265 A  
HETATM    8  C   UNL     1      -9.709  20.347  67.081  1.00  0.00    -0.601 A  
HETATM    9  C   UNL     1     -10.403  19.795  68.147  1.00  0.00    -0.561 A  
HETATM   10  C   UNL     1      -9.007  19.513  66.222  1.00  0.00    -0.400 A  
HETATM   11  C   UNL     1     -10.364  18.413  68.377  1.00  0.00    -0.357 A  
HETATM   12  C   UNL     1      -8.959  18.133  66.460  1.00  0.00    -0.288 A  
ENDBRANCH   6   7
BRANCH   6  13
HETATM   13  C   UNL     1      -8.063  15.704  68.608  1.00  0.00    -0.158 A  
HETATM   14  C   UNL     1      -7.296  16.760  69.158  1.00  0.00    -0.213 A  
HETATM   15  C   UNL     1      -6.025  16.544  69.703  1.00  0.00    -0.200 A  
HETATM   16  C   UNL     1      -5.491  15.264  69.744  1.00  0.00    -0.107 A  
HETATM   17  C   UNL     1      -7.515  14.416  68.710  1.00  0.00    -0.133 A  
HETATM   18  C   UNL     1      -6.243  14.194  69.257  1.00  0.00    -0.103 A  
ENDBRANCH   6  13
BRANCH   6  19
HETATM   19  C   UNL     1      -9.551  15.143  66.562  1.00  0.00    -0.293 C  
HETATM   20  C   UNL     1     -11.714  14.238  65.851  1.00  0.00    -0.372 C  
HETATM   21  N   UNL     1     -10.873  13.099  66.211  1.00  0.00    -0.278 NA 
HETATM   22  C   UNL     1      -9.554  13.606  66.621  1.00  0.00    -0.283 C  
HETATM   23  C   UNL     1     -10.772  15.416  65.666  1.00  0.00    -0.381 C  
BRANCH  21  24
HETATM   24  C   UNL     1     -11.466  12.207  67.225  1.00  0.00    -0.345 C  
BRANCH  24  25
HETATM   25  C   UNL     1     -10.592  11.981  68.472  1.00  0.00    -0.252 C  
BRANCH  25  26
HETATM   26  C   UNL     1     -11.294  11.126  69.512  1.00  0.00    -0.359 A  
HETATM   27  C   UNL     1     -10.975   9.767  69.637  1.00  0.00    -0.269 A  
HETATM   28  C   UNL     1     -11.612   9.016  70.615  1.00  0.00    -0.265 A  
HETATM   29  C   UNL     1     -12.537   9.596  71.461  1.00  0.00    -0.391 A  
HETATM   30  O   UNL     1     -13.054   8.736  72.393  1.00  0.00    -0.395 OA 
HETATM   31  C   UNL     1     -12.877  10.928  71.367  1.00  0.00    -0.554 A  
HETATM   32  C   UNL     1     -12.254  11.697  70.376  1.00  0.00    -0.434 A  
HETATM   33  C   UNL     1     -12.509   7.443  72.043  1.00  0.00    -0.247 C  
HETATM   34  C   UNL     1     -11.451   7.589  70.948  1.00  0.00    -0.303 C  
ENDBRANCH  25  26
ENDBRANCH  24  25
ENDBRANCH  21  24
ENDBRANCH   6  19
ENDBRANCH   2   6
TORSDOF 7
ENDMDL
MODEL       12
REMARK 921   NORMALIZED FREE ENERGY PREDICTED BY IDOCK:   -6.46 KCAL/MOL
REMARK 922        TOTAL FREE ENERGY PREDICTED BY IDOCK:  -10.88 KCAL/MOL
REMARK 923 INTER-LIGAND FREE ENERGY PREDICTED BY IDOCK:   -9.64 KCAL/MOL
REMARK 924 INTRA-LIGAND FREE ENERGY PREDICTED BY IDOCK:   -1.24 KCAL/MOL
REMARK 927      BINDING AFFINITY PREDICTED BY RF-SCORE:    0.00 PKD
ROOT
HETATM    1  N   UNL     1     -11.265  15.315  64.364  1.00  0.00    -0.690 N  
HETATM    2  C   UNL     1     -11.524  14.862  65.633  1.00  0.00    -0.290 C  
HETATM    3  H1  UNL     1     -10.329  15.687  64.204  1.00  0.00     0.000 HD 
HETATM    4  H2  UNL     1     -11.967  15.281  63.624  1.00  0.00     0.000 HD 
HETATM    5  O   UNL     1     -12.649  14.415  65.825  1.00  0.00    -0.397 OA 
ENDROOT
BRANCH   2   6
HETATM    6  C   UNL     1     -10.339  14.881  66.691  1.00  0.00    -0.283 C  
BRANCH   6   7
HETATM    7  C   UNL     1      -9.590  16.282  66.559  1.00  0.00    -0.286 A  
HETATM    8  C   UNL     1      -8.258  18.799  66.525  1.00  0.00    -0.303 A  
HETATM    9  C   UNL     1      -9.643  18.742  66.560  1.00  0.00    -0.369 A  
HETATM   10  C   UNL     1      -7.530  17.621  66.448  1.00  0.00    -0.324 A  
HETATM   11  C   UNL     1     -10.299  17.504  66.556  1.00  0.00    -0.325 A  
HETATM   12  C   UNL     1      -8.188  16.383  66.456  1.00  0.00    -0.341 A  
ENDBRANCH   6   7
BRANCH   6  13
HETATM   13  C   UNL     1     -10.939  14.700  68.135  1.00  0.00    -0.269 A  
HETATM   14  C   UNL     1     -10.407  15.421  69.232  1.00  0.00    -0.253 A  
HETATM   15  C   UNL     1     -10.863  15.219  70.539  1.00  0.00    -0.287 A  
HETATM   16  C   UNL     1     -11.885  14.314  70.791  1.00  0.00    -0.336 A  
HETATM   17  C   UNL     1     -12.002  13.828  68.417  1.00  0.00    -0.395 A  
HETATM   18  C   UNL     1     -12.465  13.624  69.725  1.00  0.00    -0.193 A  
ENDBRANCH   6  13
BRANCH   6  19
HETATM   19  C   UNL     1      -9.292  13.700  66.402  1.00  0.00    -0.203 C  
HETATM   20  C   UNL     1      -9.987  11.364  66.655  1.00  0.00    -0.208 C  
HETATM   21  N   UNL     1      -9.013  11.635  67.709  1.00  0.00    -0.164 NA 
HETATM   22  C   UNL     1      -8.554  13.026  67.571  1.00  0.00    -0.192 C  
HETATM   23  C   UNL     1      -9.825  12.478  65.634  1.00  0.00    -0.227 C  
BRANCH  21  24
HETATM   24  C   UNL     1      -9.497  11.341  69.071  1.00  0.00    -0.013 C  
BRANCH  24  25
HETATM   25  C   UNL     1     -10.742  10.436  69.129  1.00  0.00    -0.266 C  
BRANCH  25  26
HETATM   26  C   UNL     1     -10.768   9.583  70.384  1.00  0.00    -0.341 A  
HETATM   27  C   UNL     1      -9.567   9.173  70.980  1.00  0.00    -0.350 A  
HETATM   28  C   UNL     1      -9.620   8.417  72.143  1.00  0.00    -0.367 A  
HETATM   29  C   UNL     1     -10.833   8.082  72.714  1.00  0.00    -0.369 A  
HETATM   30  O   UNL     1     -10.721   7.363  73.873  1.00  0.00    -0.319 OA 
HETATM   31  C   UNL     1     -12.032   8.466  72.156  1.00  0.00    -0.438 A  
HETATM   32  C   UNL     1     -11.997   9.218  70.974  1.00  0.00    -0.369 A  
HETATM   33  C   UNL     1      -9.306   7.096  74.007  1.00  0.00    -0.252 C  
HETATM   34  C   UNL     1      -8.515   7.874  72.953  1.00  0.00    -0.222 C  
ENDBRANCH  25  26
ENDBRANCH  24  25
ENDBRANCH  21  24
ENDBRANCH   6  19
ENDBRANCH   2   6
TORSDOF 7
ENDMDL
MODEL       13
REMARK 921   NORMALIZED FREE ENERGY PREDICTED BY IDOCK:   -6.43 KCAL/MOL
REMARK 922        TOTAL FREE ENERGY PREDICTED BY IDOCK:  -10.83 KCAL/MOL
REMARK 923 INTER-LIGAND FREE ENERGY PREDICTED BY IDOCK:  -10.25 KCAL/MOL
REMARK 924 INTRA-LIGAND FREE ENERGY PREDICTED BY IDOCK:   -0.58 KCAL/MOL
REMARK 927      BINDING AFFINITY PREDICTED BY RF-SCORE:    0.00 PKD
ROOT
HETATM    1  N   UNL     1      -8.534  11.983  68.928  1.00  0.00    -0.365 N  
HETATM    2  C   UNL     1      -9.352  12.937  68.379  1.00  0.00    -0.147 C  
HETATM    3  H1  UNL     1      -8.997  11.250  69.464  1.00  0.00     0.000 HD 
HETATM    4  H2  UNL     1      -7.520  12.006  68.808  1.00  0.00     0.000 HD 
HETATM    5  O   UNL     1      -8.794  13.818  67.736  1.00  0.00    -0.168 OA 
ENDROOT
BRANCH   2   6
HETATM    6  C   UNL     1     -10.922  12.767  68.554  1.00  0.00    -0.288 C  
BRANCH   6   7
HETATM    7  C   UNL     1     -11.189  11.334  69.199  1.00  0.00    -0.337 A  
HETATM    8  C   UNL     1     -11.471   8.769  70.404  1.00  0.00    -0.163 A  
HETATM    9  C   UNL     1     -11.033   8.880  69.092  1.00  0.00     0.000 A  
HETATM   10  C   UNL     1     -11.825   9.914  71.103  1.00  0.00    -0.472 A  
HETATM   11  C   UNL     1     -10.914  10.141  68.493  1.00  0.00    -0.278 A  
HETATM   12  C   UNL     1     -11.694  11.174  70.505  1.00  0.00    -0.392 A  
ENDBRANCH   6   7
BRANCH   6  13
HETATM   13  C   UNL     1     -11.460  13.912  69.490  1.00  0.00    -0.332 A  
HETATM   14  C   UNL     1     -10.657  15.041  69.782  1.00  0.00    -0.232 A  
HETATM   15  C   UNL     1     -11.074  16.034  70.675  1.00  0.00    -0.352 A  
HETATM   16  C   UNL     1     -12.319  15.948  71.284  1.00  0.00    -0.460 A  
HETATM   17  C   UNL     1     -12.732  13.880  70.085  1.00  0.00    -0.182 A  
HETATM   18  C   UNL     1     -13.156  14.874  70.979  1.00  0.00    -0.456 A  
ENDBRANCH   6  13
BRANCH   6  19
HETATM   19  C   UNL     1     -11.670  12.849  67.136  1.00  0.00    -0.437 C  
HETATM   20  C   UNL     1     -10.403  13.427  65.120  1.00  0.00    -0.336 C  
HETATM   21  N   UNL     1     -11.311  14.539  65.386  1.00  0.00    -0.331 NA 
HETATM   22  C   UNL     1     -12.108  14.214  66.579  1.00  0.00    -0.454 C  
HETATM   23  C   UNL     1     -10.927  12.251  65.929  1.00  0.00    -0.338 C  
BRANCH  21  24
HETATM   24  C   UNL     1     -10.646  15.850  65.500  1.00  0.00    -0.401 C  
BRANCH  24  25
HETATM   25  C   UNL     1     -10.868  16.569  66.844  1.00  0.00    -0.083 C  
BRANCH  25  26
HETATM   26  C   UNL     1     -10.039  17.835  66.957  1.00  0.00    -0.337 A  
HETATM   27  C   UNL     1      -8.846  17.830  67.693  1.00  0.00    -0.248 A  
HETATM   28  C   UNL     1      -8.093  18.994  67.755  1.00  0.00    -0.297 A  
HETATM   29  C   UNL     1      -8.501  20.137  67.096  1.00  0.00    -0.342 A  
HETATM   30  O   UNL     1      -7.638  21.192  67.226  1.00  0.00    -0.383 OA 
HETATM   31  C   UNL     1      -9.668  20.180  66.365  1.00  0.00    -0.538 A  
HETATM   32  C   UNL     1     -10.448  19.017  66.302  1.00  0.00    -0.534 A  
HETATM   33  C   UNL     1      -6.633  20.734  68.159  1.00  0.00    -0.261 C  
HETATM   34  C   UNL     1      -6.816  19.243  68.450  1.00  0.00    -0.309 C  
ENDBRANCH  25  26
ENDBRANCH  24  25
ENDBRANCH  21  24
ENDBRANCH   6  19
ENDBRANCH   2   6
TORSDOF 7
ENDMDL
MODEL       14
REMARK 921   NORMALIZED FREE ENERGY PREDICTED BY IDOCK:   -6.42 KCAL/MOL
REMARK 922        TOTAL FREE ENERGY PREDICTED BY IDOCK:  -10.83 KCAL/MOL
REMARK 923 INTER-LIGAND FREE ENERGY PREDICTED BY IDOCK:   -9.86 KCAL/MOL
REMARK 924 INTRA-LIGAND FREE ENERGY PREDICTED BY IDOCK:   -0.98 KCAL/MOL
REMARK 927      BINDING AFFINITY PREDICTED BY RF-SCORE:    0.00 PKD
ROOT
HETATM    1  N   UNL     1      -8.547  14.103  69.041  1.00  0.00    -0.364 N  
HETATM    2  C   UNL     1      -8.671  14.958  67.976  1.00  0.00    -0.165 C  
HETATM    3  H1  UNL     1      -9.401  13.913  69.564  1.00  0.00     0.000 HD 
HETATM    4  H2  UNL     1      -7.653  13.682  69.295  1.00  0.00     0.000 HD 
HETATM    5  O   UNL     1      -7.644  15.186  67.347  1.00  0.00    -0.172 OA 
ENDROOT
BRANCH   2   6
HETATM    6  C   UNL     1     -10.122  15.495  67.612  1.00  0.00    -0.243 C  
BRANCH   6   7
HETATM    7  C   UNL     1     -11.124  15.001  68.748  1.00  0.00    -0.269 A  
HETATM    8  C   UNL     1     -12.760  14.123  70.908  1.00  0.00    -0.432 A  
HETATM    9  C   UNL     1     -12.027  13.206  70.169  1.00  0.00    -0.381 A  
HETATM   10  C   UNL     1     -12.734  15.463  70.549  1.00  0.00    -0.455 A  
HETATM   11  C   UNL     1     -11.238  13.635  69.094  1.00  0.00    -0.309 A  
HETATM   12  C   UNL     1     -11.936  15.891  69.480  1.00  0.00    -0.274 A  
ENDBRANCH   6   7
BRANCH   6  13
HETATM   13  C   UNL     1     -10.083  17.067  67.542  1.00  0.00    -0.294 A  
HETATM   14  C   UNL     1      -9.593  17.825  68.634  1.00  0.00    -0.322 A  
HETATM   15  C   UNL     1      -9.623  19.223  68.635  1.00  0.00    -0.479 A  
HETATM   16  C   UNL     1     -10.115  19.912  67.536  1.00  0.00    -0.566 A  
HETATM   17  C   UNL     1     -10.529  17.795  66.428  1.00  0.00    -0.297 A  
HETATM   18  C   UNL     1     -10.558  19.196  66.422  1.00  0.00    -0.522 A  
ENDBRANCH   6  13
BRANCH   6  19
HETATM   19  C   UNL     1     -10.611  14.916  66.197  1.00  0.00    -0.322 C  
HETATM   20  C   UNL     1     -12.047  12.932  66.121  1.00  0.00    -0.393 C  
HETATM   21  N   UNL     1     -10.757  12.546  65.555  1.00  0.00    -0.265 NA 
HETATM   22  C   UNL     1      -9.875  13.724  65.562  1.00  0.00    -0.163 C  
HETATM   23  C   UNL     1     -12.075  14.451  66.110  1.00  0.00    -0.373 C  
BRANCH  21  24
HETATM   24  C   UNL     1     -10.134  11.380  66.208  1.00  0.00    -0.224 C  
BRANCH  24  25
HETATM   25  C   UNL     1     -11.048  10.631  67.195  1.00  0.00    -0.267 C  
BRANCH  25  26
HETATM   26  C   UNL     1     -10.303  10.195  68.443  1.00  0.00    -0.210 A  
HETATM   27  C   UNL     1     -10.993   9.577  69.494  1.00  0.00    -0.217 A  
HETATM   28  C   UNL     1     -10.281   9.161  70.611  1.00  0.00    -0.306 A  
HETATM   29  C   UNL     1      -8.914   9.341  70.685  1.00  0.00    -0.243 A  
HETATM   30  O   UNL     1      -8.350   8.852  71.833  1.00  0.00    -0.349 OA 
HETATM   31  C   UNL     1      -8.202   9.947  69.673  1.00  0.00    -0.178 A  
HETATM   32  C   UNL     1      -8.907  10.384  68.544  1.00  0.00    -0.142 A  
HETATM   33  C   UNL     1      -9.470   8.423  72.640  1.00  0.00    -0.265 C  
HETATM   34  C   UNL     1     -10.767   8.492  71.832  1.00  0.00    -0.394 C  
ENDBRANCH  25  26
ENDBRANCH  24  25
ENDBRANCH  21  24
ENDBRANCH   6  19
ENDBRANCH   2   6
TORSDOF 7
ENDMDL
MODEL       15
REMARK 921   NORMALIZED FREE ENERGY PREDICTED BY IDOCK:   -6.42 KCAL/MOL
REMARK 922        TOTAL FREE ENERGY PREDICTED BY IDOCK:  -10.82 KCAL/MOL
REMARK 923 INTER-LIGAND FREE ENERGY PREDICTED BY IDOCK:  -10.72 KCAL/MOL
REMARK 924 INTRA-LIGAND FREE ENERGY PREDICTED BY IDOCK:   -0.10 KCAL/MOL
REMARK 927      BINDING AFFINITY PREDICTED BY RF-SCORE:    0.00 PKD
ROOT
HETATM    1  N   UNL     1      -9.569   7.178  74.467  1.00  0.00    -0.437 N  
HETATM    2  C   UNL     1      -9.454   7.725  73.214  1.00  0.00    -0.283 C  
HETATM    3  H1  UNL     1     -10.202   6.384  74.551  1.00  0.00     0.000 HD 
HETATM    4  H2  UNL     1      -9.051   7.544  75.266  1.00  0.00     0.000 HD 
HETATM    5  O   UNL     1      -8.692   8.680  73.113  1.00  0.00    -0.371 OA 
ENDROOT
BRANCH   2   6
HETATM    6  C   UNL     1     -10.238   7.032  72.019  1.00  0.00    -0.209 C  
BRANCH   6   7
HETATM    7  C   UNL     1     -10.255   5.462  72.293  1.00  0.00    -0.244 A  
HETATM    8  C   UNL     1     -10.111   2.678  72.881  1.00  0.00    -0.218 A  
HETATM    9  C   UNL     1      -9.458   3.193  71.771  1.00  0.00    -0.216 A  
HETATM   10  C   UNL     1     -10.882   3.522  73.668  1.00  0.00    -0.324 A  
HETATM   11  C   UNL     1      -9.545   4.558  71.470  1.00  0.00    -0.227 A  
HETATM   12  C   UNL     1     -10.959   4.890  73.371  1.00  0.00    -0.394 A  
ENDBRANCH   6   7
BRANCH   6  13
HETATM   13  C   UNL     1     -11.702   7.607  71.965  1.00  0.00    -0.340 A  
HETATM   14  C   UNL     1     -12.796   6.766  71.646  1.00  0.00    -0.328 A  
HETATM   15  C   UNL     1     -14.096   7.265  71.509  1.00  0.00    -0.515 A  
HETATM   16  C   UNL     1     -14.352   8.613  71.715  1.00  0.00    -0.476 A  
HETATM   17  C   UNL     1     -12.003   8.956  72.214  1.00  0.00    -0.380 A  
HETATM   18  C   UNL     1     -13.305   9.460  72.080  1.00  0.00    -0.545 A  
ENDBRANCH   6  13
BRANCH   6  19
HETATM   19  C   UNL     1      -9.509   7.310  70.616  1.00  0.00    -0.164 C  
HETATM   20  C   UNL     1      -9.060   9.613  69.910  1.00  0.00    -0.225 C  
HETATM   21  N   UNL     1     -10.068   9.076  68.999  1.00  0.00    -0.190 NA 
HETATM   22  C   UNL     1     -10.344   7.682  69.380  1.00  0.00    -0.214 C  
HETATM   23  C   UNL     1      -8.436   8.412  70.603  1.00  0.00    -0.141 C  
BRANCH  21  24
HETATM   24  C   UNL     1     -11.298   9.885  68.914  1.00  0.00    -0.007 C  
BRANCH  24  25
HETATM   25  C   UNL     1     -11.091  11.395  69.135  1.00  0.00    -0.317 C  
BRANCH  25  26
HETATM   26  C   UNL     1     -11.451  12.206  67.903  1.00  0.00    -0.392 A  
HETATM   27  C   UNL     1     -11.353  11.630  66.630  1.00  0.00    -0.338 A  
HETATM   28  C   UNL     1     -11.716  12.384  65.523  1.00  0.00    -0.459 A  
HETATM   29  C   UNL     1     -12.178  13.678  65.670  1.00  0.00    -0.454 A  
HETATM   30  O   UNL     1     -12.525  14.282  64.492  1.00  0.00    -0.607 OA 
HETATM   31  C   UNL     1     -12.285  14.278  66.906  1.00  0.00    -0.366 A  
HETATM   32  C   UNL     1     -11.910  13.535  68.033  1.00  0.00    -0.400 A  
HETATM   33  C   UNL     1     -12.139  13.338  63.466  1.00  0.00    -0.482 C  
HETATM   34  C   UNL     1     -11.708  12.012  64.097  1.00  0.00    -0.457 C  
ENDBRANCH  25  26
ENDBRANCH  24  25
ENDBRANCH  21  24
ENDBRANCH   6  19
ENDBRANCH   2   6
TORSDOF 7
ENDMDL
MODEL       16
REMARK 921   NORMALIZED FREE ENERGY PREDICTED BY IDOCK:   -6.41 KCAL/MOL
REMARK 922        TOTAL FREE ENERGY PREDICTED BY IDOCK:  -10.81 KCAL/MOL
REMARK 923 INTER-LIGAND FREE ENERGY PREDICTED BY IDOCK:   -9.88 KCAL/MOL
REMARK 924 INTRA-LIGAND FREE ENERGY PREDICTED BY IDOCK:   -0.94 KCAL/MOL
REMARK 927      BINDING AFFINITY PREDICTED BY RF-SCORE:    0.00 PKD
ROOT
HETATM    1  N   UNL     1     -11.178  16.352  70.330  1.00  0.00    -0.460 N  
HETATM    2  C   UNL     1     -11.453  15.665  69.175  1.00  0.00    -0.359 C  
HETATM    3  H1  UNL     1     -10.279  16.832  70.361  1.00  0.00     0.000 HD 
HETATM    4  H2  UNL     1     -11.834  16.381  71.111  1.00  0.00     0.000 HD 
HETATM    5  O   UNL     1     -12.534  15.088  69.137  1.00  0.00    -0.101 OA 
ENDROOT
BRANCH   2   6
HETATM    6  C   UNL     1     -10.403  15.749  67.985  1.00  0.00    -0.252 C  
BRANCH   6   7
HETATM    7  C   UNL     1     -11.147  15.313  66.646  1.00  0.00    -0.276 A  
HETATM    8  C   UNL     1     -12.317  14.424  64.205  1.00  0.00    -0.402 A  
HETATM    9  C   UNL     1     -11.465  15.518  64.214  1.00  0.00    -0.186 A  
HETATM   10  C   UNL     1     -12.638  13.803  65.404  1.00  0.00    -0.534 A  
HETATM   11  C   UNL     1     -10.906  15.969  65.417  1.00  0.00    -0.340 A  
HETATM   12  C   UNL     1     -12.069  14.248  66.605  1.00  0.00    -0.448 A  
ENDBRANCH   6   7
BRANCH   6  13
HETATM   13  C   UNL     1      -9.870  17.226  67.876  1.00  0.00    -0.283 A  
HETATM   14  C   UNL     1      -8.547  17.546  68.268  1.00  0.00    -0.266 A  
HETATM   15  C   UNL     1      -8.073  18.862  68.261  1.00  0.00    -0.353 A  
HETATM   16  C   UNL     1      -8.892  19.898  67.834  1.00  0.00    -0.365 A  
HETATM   17  C   UNL     1     -10.656  18.290  67.405  1.00  0.00    -0.425 A  
HETATM   18  C   UNL     1     -10.184  19.610  67.393  1.00  0.00    -0.561 A  
ENDBRANCH   6  13
BRANCH   6  19
HETATM   19  C   UNL     1      -9.165  14.759  68.241  1.00  0.00    -0.187 C  
HETATM   20  C   UNL     1      -8.821  12.830  66.769  1.00  0.00    -0.159 C  
HETATM   21  N   UNL     1      -9.194  12.305  68.081  1.00  0.00    -0.194 NA 
HETATM   22  C   UNL     1      -9.384  13.439  68.999  1.00  0.00     0.378 C  
HETATM   23  C   UNL     1      -8.402  14.273  66.997  1.00  0.00    -0.156 C  
BRANCH  21  24
HETATM   24  C   UNL     1     -10.359  11.402  68.061  1.00  0.00    -0.184 C  
BRANCH  24  25
HETATM   25  C   UNL     1     -11.472  11.767  69.061  1.00  0.00    -0.358 C  
BRANCH  25  26
HETATM   26  C   UNL     1     -11.622  10.724  70.153  1.00  0.00    -0.424 A  
HETATM   27  C   UNL     1     -10.519   9.953  70.545  1.00  0.00    -0.330 A  
HETATM   28  C   UNL     1     -10.677   9.027  71.566  1.00  0.00    -0.421 A  
HETATM   29  C   UNL     1     -11.897   8.871  72.197  1.00  0.00    -0.347 A  
HETATM   30  O   UNL     1     -11.888   7.943  73.203  1.00  0.00    -0.216 OA 
HETATM   31  C   UNL     1     -13.003   9.609  71.837  1.00  0.00    -0.527 A  
HETATM   32  C   UNL     1     -12.864  10.539  70.799  1.00  0.00    -0.454 A  
HETATM   33  C   UNL     1     -10.571   7.347  73.144  1.00  0.00    -0.374 C  
HETATM   34  C   UNL     1      -9.685   8.110  72.157  1.00  0.00    -0.311 C  
ENDBRANCH  25  26
ENDBRANCH  24  25
ENDBRANCH  21  24
ENDBRANCH   6  19
ENDBRANCH   2   6
TORSDOF 7
ENDMDL
MODEL       17
REMARK 921   NORMALIZED FREE ENERGY PREDICTED BY IDOCK:   -6.40 KCAL/MOL
REMARK 922        TOTAL FREE ENERGY PREDICTED BY IDOCK:  -10.80 KCAL/MOL
REMARK 923 INTER-LIGAND FREE ENERGY PREDICTED BY IDOCK:   -9.52 KCAL/MOL
REMARK 924 INTRA-LIGAND FREE ENERGY PREDICTED BY IDOCK:   -1.28 KCAL/MOL
REMARK 927      BINDING AFFINITY PREDICTED BY RF-SCORE:    0.00 PKD
ROOT
HETATM    1  N   UNL     1      -7.933  15.634  66.822  1.00  0.00    -0.235 N  
HETATM    2  C   UNL     1      -8.954  14.872  67.329  1.00  0.00    -0.199 C  
HETATM    3  H1  UNL     1      -8.203  16.525  66.407  1.00  0.00     0.000 HD 
HETATM    4  H2  UNL     1      -6.960  15.327  66.857  1.00  0.00     0.000 HD 
HETATM    5  O   UNL     1      -8.630  13.800  67.827  1.00  0.00    -0.160 OA 
ENDROOT
BRANCH   2   6
HETATM    6  C   UNL     1     -10.424  15.475  67.299  1.00  0.00    -0.279 C  
BRANCH   6   7
HETATM    7  C   UNL     1     -11.238  14.837  68.511  1.00  0.00    -0.291 A  
HETATM    8  C   UNL     1     -12.527  13.714  70.790  1.00  0.00    -0.432 A  
HETATM    9  C   UNL     1     -11.769  12.911  69.949  1.00  0.00    -0.324 A  
HETATM   10  C   UNL     1     -12.698  15.055  70.478  1.00  0.00    -0.406 A  
HETATM   11  C   UNL     1     -11.152  13.459  68.817  1.00  0.00    -0.297 A  
HETATM   12  C   UNL     1     -12.071  15.603  69.351  1.00  0.00    -0.287 A  
ENDBRANCH   6   7
BRANCH   6  13
HETATM   13  C   UNL     1     -10.338  17.041  67.445  1.00  0.00    -0.319 A  
HETATM   14  C   UNL     1     -10.534  17.881  66.322  1.00  0.00    -0.320 A  
HETATM   15  C   UNL     1     -10.382  19.269  66.403  1.00  0.00    -0.558 A  
HETATM   16  C   UNL     1     -10.059  19.867  67.612  1.00  0.00    -0.564 A  
HETATM   17  C   UNL     1     -10.059  17.681  68.663  1.00  0.00    -0.377 A  
HETATM   18  C   UNL     1      -9.908  19.072  68.749  1.00  0.00    -0.485 A  
ENDBRANCH   6  13
BRANCH   6  19
HETATM   19  C   UNL     1     -11.166  15.113  65.923  1.00  0.00    -0.280 C  
HETATM   20  C   UNL     1     -12.176  12.900  65.627  1.00  0.00    -0.463 C  
HETATM   21  N   UNL     1     -11.043  12.978  64.709  1.00  0.00    -0.309 NA 
HETATM   22  C   UNL     1     -10.426  14.307  64.843  1.00  0.00    -0.430 C  
HETATM   23  C   UNL     1     -12.486  14.331  66.036  1.00  0.00    -0.392 C  
BRANCH  21  24
HETATM   24  C   UNL     1     -10.061  11.889  64.868  1.00  0.00    -0.263 C  
BRANCH  24  25
HETATM   25  C   UNL     1     -10.626  10.598  65.486  1.00  0.00    -0.180 C  
BRANCH  25  26
HETATM   26  C   UNL     1     -10.038  10.317  66.857  1.00  0.00    -0.274 A  
HETATM   27  C   UNL     1      -8.676  10.544  67.097  1.00  0.00    -0.130 A  
HETATM   28  C   UNL     1      -8.171  10.306  68.367  1.00  0.00    -0.114 A  
HETATM   29  C   UNL     1      -8.994   9.863  69.385  1.00  0.00    -0.195 A  
HETATM   30  O   UNL     1      -8.358   9.705  70.586  1.00  0.00    -0.220 OA 
HETATM   31  C   UNL     1     -10.337   9.627  69.186  1.00  0.00    -0.219 A  
HETATM   32  C   UNL     1     -10.861   9.850  67.905  1.00  0.00    -0.312 A  
HETATM   33  C   UNL     1      -6.961   9.947  70.298  1.00  0.00    -0.146 C  
HETATM   34  C   UNL     1      -6.794  10.469  68.870  1.00  0.00    -0.063 C  
ENDBRANCH  25  26
ENDBRANCH  24  25
ENDBRANCH  21  24
ENDBRANCH   6  19
ENDBRANCH   2   6
TORSDOF 7
ENDMDL
MODEL       18
REMARK 921   NORMALIZED FREE ENERGY PREDICTED BY IDOCK:   -6.39 KCAL/MOL
REMARK 922        TOTAL FREE ENERGY PREDICTED BY IDOCK:  -10.78 KCAL/MOL
REMARK 923 INTER-LIGAND FREE ENERGY PREDICTED BY IDOCK:  -10.83 KCAL/MOL
REMARK 924 INTRA-LIGAND FREE ENERGY PREDICTED BY IDOCK:    0.05 KCAL/MOL
REMARK 927      BINDING AFFINITY PREDICTED BY RF-SCORE:    0.00 PKD
ROOT
HETATM    1  N   UNL     1      -9.220  13.641  68.901  1.00  0.00    -0.392 N  
HETATM    2  C   UNL     1      -9.228  15.012  68.860  1.00  0.00    -0.206 C  
HETATM    3  H1  UNL     1     -10.049  13.178  68.531  1.00  0.00     0.000 HD 
HETATM    4  H2  UNL     1      -8.431  13.116  69.280  1.00  0.00     0.000 HD 
HETATM    5  O   UNL     1      -8.231  15.569  69.305  1.00  0.00    -0.224 OA 
ENDROOT
BRANCH   2   6
HETATM    6  C   UNL     1     -10.467  15.734  68.175  1.00  0.00    -0.263 C  
BRANCH   6   7
HETATM    7  C   UNL     1     -10.015  17.209  67.778  1.00  0.00    -0.290 A  
HETATM    8  C   UNL     1      -9.052  19.827  67.198  1.00  0.00    -0.418 A  
HETATM    9  C   UNL     1      -9.892  19.615  68.282  1.00  0.00    -0.521 A  
HETATM   10  C   UNL     1      -8.733  18.762  66.367  1.00  0.00    -0.294 A  
HETATM   11  C   UNL     1     -10.382  18.331  68.555  1.00  0.00    -0.341 A  
HETATM   12  C   UNL     1      -9.215  17.477  66.649  1.00  0.00    -0.277 A  
ENDBRANCH   6   7
BRANCH   6  13
HETATM   13  C   UNL     1     -10.895  14.916  66.900  1.00  0.00    -0.319 A  
HETATM   14  C   UNL     1      -9.928  14.505  65.950  1.00  0.00    -0.352 A  
HETATM   15  C   UNL     1     -10.288  13.851  64.767  1.00  0.00    -0.419 A  
HETATM   16  C   UNL     1     -11.619  13.558  64.506  1.00  0.00    -0.410 A  
HETATM   17  C   UNL     1     -12.226  14.563  66.629  1.00  0.00    -0.250 A  
HETATM   18  C   UNL     1     -12.591  13.904  65.446  1.00  0.00    -0.538 A  
ENDBRANCH   6  13
BRANCH   6  19
HETATM   19  C   UNL     1     -11.710  15.823  69.187  1.00  0.00    -0.398 C  
HETATM   20  C   UNL     1     -11.530  14.851  71.429  1.00  0.00    -0.261 C  
HETATM   21  N   UNL     1     -12.504  14.048  70.694  1.00  0.00    -0.347 NA 
HETATM   22  C   UNL     1     -12.655  14.620  69.346  1.00  0.00     0.057 C  
HETATM   23  C   UNL     1     -11.384  16.151  70.654  1.00  0.00    -0.394 C  
BRANCH  21  24
HETATM   24  C   UNL     1     -12.193  12.607  70.655  1.00  0.00    -0.285 C  
BRANCH  24  25
HETATM   25  C   UNL     1     -12.976  11.754  71.670  1.00  0.00    -0.467 C  
BRANCH  25  26
HETATM   26  C   UNL     1     -12.709  10.270  71.492  1.00  0.00    -0.557 A  
HETATM   27  C   UNL     1     -11.492   9.834  70.950  1.00  0.00    -0.447 A  
HETATM   28  C   UNL     1     -11.264   8.472  70.826  1.00  0.00    -0.289 A  
HETATM   29  C   UNL     1     -12.212   7.555  71.238  1.00  0.00    -0.329 A  
HETATM   30  O   UNL     1     -11.829   6.250  71.080  1.00  0.00    -0.305 OA 
HETATM   31  C   UNL     1     -13.419   7.945  71.773  1.00  0.00    -0.379 A  
HETATM   32  C   UNL     1     -13.672   9.318  71.894  1.00  0.00    -0.464 A  
HETATM   33  C   UNL     1     -10.562   6.319  70.385  1.00  0.00    -0.252 C  
HETATM   34  C   UNL     1     -10.080   7.768  70.298  1.00  0.00    -0.195 C  
ENDBRANCH  25  26
ENDBRANCH  24  25
ENDBRANCH  21  24
ENDBRANCH   6  19
ENDBRANCH   2   6
TORSDOF 7
ENDMDL
MODEL       19
REMARK 921   NORMALIZED FREE ENERGY PREDICTED BY IDOCK:   -6.36 KCAL/MOL
REMARK 922        TOTAL FREE ENERGY PREDICTED BY IDOCK:  -10.74 KCAL/MOL
REMARK 923 INTER-LIGAND FREE ENERGY PREDICTED BY IDOCK:   -9.30 KCAL/MOL
REMARK 924 INTRA-LIGAND FREE ENERGY PREDICTED BY IDOCK:   -1.44 KCAL/MOL
REMARK 927      BINDING AFFINITY PREDICTED BY RF-SCORE:    0.00 PKD
ROOT
HETATM    1  N   UNL     1     -11.532  11.541  70.251  1.00  0.00    -0.515 N  
HETATM    2  C   UNL     1     -11.648  12.555  69.335  1.00  0.00    -0.305 C  
HETATM    3  H1  UNL     1     -10.921  10.768  69.988  1.00  0.00     0.000 HD 
HETATM    4  H2  UNL     1     -12.027  11.558  71.143  1.00  0.00     0.000 HD 
HETATM    5  O   UNL     1     -12.382  13.484  69.651  1.00  0.00    -0.270 OA 
ENDROOT
BRANCH   2   6
HETATM    6  C   UNL     1     -10.771  12.473  68.012  1.00  0.00    -0.242 C  
BRANCH   6   7
HETATM    7  C   UNL     1      -9.623  13.573  68.118  1.00  0.00    -0.215 A  
HETATM    8  C   UNL     1      -7.479  15.420  68.441  1.00  0.00    -0.115 A  
HETATM    9  C   UNL     1      -8.551  15.433  69.321  1.00  0.00    -0.252 A  
HETATM   10  C   UNL     1      -7.490  14.539  67.370  1.00  0.00    -0.194 A  
HETATM   11  C   UNL     1      -9.616  14.538  69.151  1.00  0.00    -0.034 A  
HETATM   12  C   UNL     1      -8.550  13.637  67.207  1.00  0.00    -0.220 A  
ENDBRANCH   6   7
BRANCH   6  13
HETATM   13  C   UNL     1     -10.155  11.029  67.895  1.00  0.00    -0.199 A  
HETATM   14  C   UNL     1     -10.906   9.968  67.333  1.00  0.00    -0.313 A  
HETATM   15  C   UNL     1     -10.417   8.658  67.291  1.00  0.00    -0.360 A  
HETATM   16  C   UNL     1      -9.152   8.368  67.782  1.00  0.00    -0.142 A  
HETATM   17  C   UNL     1      -8.861  10.711  68.338  1.00  0.00    -0.145 A  
HETATM   18  C   UNL     1      -8.366   9.401  68.295  1.00  0.00    -0.119 A  
ENDBRANCH   6  13
BRANCH   6  19
HETATM   19  C   UNL     1     -11.664  12.773  66.712  1.00  0.00    -0.459 C  
HETATM   20  C   UNL     1     -10.594  13.555  64.651  1.00  0.00    -0.427 C  
HETATM   21  N   UNL     1     -11.402  14.661  65.158  1.00  0.00    -0.359 NA 
HETATM   22  C   UNL     1     -12.080  14.217  66.386  1.00  0.00    -0.451 C  
HETATM   23  C   UNL     1     -11.094  12.308  65.361  1.00  0.00    -0.353 C  
BRANCH  21  24
HETATM   24  C   UNL     1     -10.652  15.915  65.359  1.00  0.00    -0.419 C  
BRANCH  24  25
HETATM   25  C   UNL     1     -10.864  16.579  66.732  1.00  0.00    -0.070 C  
BRANCH  25  26
HETATM   26  C   UNL     1      -9.983  17.800  66.917  1.00  0.00    -0.332 A  
HETATM   27  C   UNL     1      -8.692  17.825  66.371  1.00  0.00    -0.255 A  
HETATM   28  C   UNL     1      -7.919  18.966  66.531  1.00  0.00    -0.289 A  
HETATM   29  C   UNL     1      -8.412  20.066  67.205  1.00  0.00    -0.334 A  
HETATM   30  O   UNL     1      -7.545  21.125  67.252  1.00  0.00    -0.383 OA 
HETATM   31  C   UNL     1      -9.675  20.078  67.756  1.00  0.00    -0.528 A  
HETATM   32  C   UNL     1     -10.464  18.929  67.615  1.00  0.00    -0.514 A  
HETATM   33  C   UNL     1      -6.323  20.626  66.661  1.00  0.00    -0.242 C  
HETATM   34  C   UNL     1      -6.550  19.240  66.055  1.00  0.00    -0.245 C  
ENDBRANCH  25  26
ENDBRANCH  24  25
ENDBRANCH  21  24
ENDBRANCH   6  19
ENDBRANCH   2   6
TORSDOF 7
ENDMDL
MODEL       20
REMARK 921   NORMALIZED FREE ENERGY PREDICTED BY IDOCK:   -6.36 KCAL/MOL
REMARK 922        TOTAL FREE ENERGY PREDICTED BY IDOCK:  -10.74 KCAL/MOL
REMARK 923 INTER-LIGAND FREE ENERGY PREDICTED BY IDOCK:  -10.40 KCAL/MOL
REMARK 924 INTRA-LIGAND FREE ENERGY PREDICTED BY IDOCK:   -0.35 KCAL/MOL
REMARK 927      BINDING AFFINITY PREDICTED BY RF-SCORE:    0.00 PKD
ROOT
HETATM    1  N   UNL     1      -8.665  13.340  66.749  1.00  0.00    -0.410 N  
HETATM    2  C   UNL     1      -9.451  13.270  67.870  1.00  0.00    -0.214 C  
HETATM    3  H1  UNL     1      -8.894  12.687  66.000  1.00  0.00     0.000 HD 
HETATM    4  H2  UNL     1      -7.896  14.007  66.668  1.00  0.00     0.000 HD 
HETATM    5  O   UNL     1      -9.175  14.055  68.770  1.00  0.00    -0.158 OA 
ENDROOT
BRANCH   2   6
HETATM    6  C   UNL     1     -10.674  12.256  67.865  1.00  0.00    -0.243 C  
BRANCH   6   7
HETATM    7  C   UNL     1     -10.086  10.783  67.710  1.00  0.00    -0.201 A  
HETATM    8  C   UNL     1      -9.077   8.121  67.627  1.00  0.00    -0.142 A  
HETATM    9  C   UNL     1      -8.263   9.164  68.043  1.00  0.00    -0.112 A  
HETATM   10  C   UNL     1     -10.368   8.395  67.197  1.00  0.00    -0.381 A  
HETATM   11  C   UNL     1      -8.753  10.476  68.064  1.00  0.00    -0.128 A  
HETATM   12  C   UNL     1     -10.859   9.707  67.230  1.00  0.00    -0.212 A  
ENDBRANCH   6   7
BRANCH   6  13
HETATM   13  C   UNL     1     -11.468  12.403  69.217  1.00  0.00    -0.349 A  
HETATM   14  C   UNL     1     -11.866  11.257  69.947  1.00  0.00    -0.436 A  
HETATM   15  C   UNL     1     -12.643  11.354  71.106  1.00  0.00    -0.490 A  
HETATM   16  C   UNL     1     -13.023  12.597  71.592  1.00  0.00    -0.400 A  
HETATM   17  C   UNL     1     -11.827  13.647  69.761  1.00  0.00    -0.392 A  
HETATM   18  C   UNL     1     -12.603  13.749  70.924  1.00  0.00    -0.428 A  
ENDBRANCH   6  13
BRANCH   6  19
HETATM   19  C   UNL     1     -11.663  12.556  66.637  1.00  0.00    -0.453 C  
HETATM   20  C   UNL     1     -10.763  13.425  64.530  1.00  0.00    -0.419 C  
HETATM   21  N   UNL     1     -11.571  14.489  65.119  1.00  0.00    -0.359 NA 
HETATM   22  C   UNL     1     -12.149  13.992  66.378  1.00  0.00    -0.455 C  
HETATM   23  C   UNL     1     -11.172  12.144  65.239  1.00  0.00    -0.381 C  
BRANCH  21  24
HETATM   24  C   UNL     1     -10.851  15.763  65.302  1.00  0.00    -0.395 C  
BRANCH  24  25
HETATM   25  C   UNL     1     -10.868  16.311  66.741  1.00  0.00    -0.125 C  
BRANCH  25  26
HETATM   26  C   UNL     1     -10.033  17.571  66.881  1.00  0.00    -0.313 A  
HETATM   27  C   UNL     1      -8.928  17.589  67.743  1.00  0.00    -0.245 A  
HETATM   28  C   UNL     1      -8.165  18.745  67.829  1.00  0.00    -0.285 A  
HETATM   29  C   UNL     1      -8.478  19.857  67.072  1.00  0.00    -0.328 A  
HETATM   30  O   UNL     1      -7.615  20.907  67.243  1.00  0.00    -0.353 OA 
HETATM   31  C   UNL     1      -9.557  19.877  66.217  1.00  0.00    -0.526 A  
HETATM   32  C   UNL     1     -10.346  18.723  66.127  1.00  0.00    -0.494 A  
HETATM   33  C   UNL     1      -6.727  20.485  68.304  1.00  0.00    -0.251 C  
HETATM   34  C   UNL     1      -6.968  19.013  68.647  1.00  0.00    -0.319 C  
ENDBRANCH  25  26
ENDBRANCH  24  25
ENDBRANCH  21  24
ENDBRANCH   6  19
ENDBRANCH   2   6
TORSDOF 7
ENDMDL
MODEL       21
REMARK 921   NORMALIZED FREE ENERGY PREDICTED BY IDOCK:   -6.36 KCAL/MOL
REMARK 922        TOTAL FREE ENERGY PREDICTED BY IDOCK:  -10.74 KCAL/MOL
REMARK 923 INTER-LIGAND FREE ENERGY PREDICTED BY IDOCK:   -9.52 KCAL/MOL
REMARK 924 INTRA-LIGAND FREE ENERGY PREDICTED BY IDOCK:   -1.22 KCAL/MOL
REMARK 927      BINDING AFFINITY PREDICTED BY RF-SCORE:    0.00 PKD
ROOT
HETATM    1  N   UNL     1      -7.301  16.905  69.259  1.00  0.00    -0.206 N  
HETATM    2  C   UNL     1      -7.987  15.820  68.774  1.00  0.00    -0.180 C  
HETATM    3  H1  UNL     1      -7.733  17.815  69.100  1.00  0.00     0.000 HD 
HETATM    4  H2  UNL     1      -6.412  16.808  69.749  1.00  0.00     0.000 HD 
HETATM    5  O   UNL     1      -7.467  14.727  68.965  1.00  0.00    -0.126 OA 
ENDROOT
BRANCH   2   6
HETATM    6  C   UNL     1      -9.404  16.071  68.099  1.00  0.00    -0.200 C  
BRANCH   6   7
HETATM    7  C   UNL     1     -10.526  15.699  69.167  1.00  0.00    -0.236 A  
HETATM    8  C   UNL     1     -12.513  15.220  71.151  1.00  0.00    -0.438 A  
HETATM    9  C   UNL     1     -11.170  15.053  71.453  1.00  0.00    -0.260 A  
HETATM   10  C   UNL     1     -12.882  15.565  69.859  1.00  0.00     0.044 A  
HETATM   11  C   UNL     1     -10.193  15.268  70.472  1.00  0.00     0.104 A  
HETATM   12  C   UNL     1     -11.903  15.791  68.882  1.00  0.00    -0.354 A  
ENDBRANCH   6   7
BRANCH   6  13
HETATM   13  C   UNL     1      -9.510  17.584  67.678  1.00  0.00    -0.256 A  
HETATM   14  C   UNL     1      -8.848  18.057  66.519  1.00  0.00    -0.276 A  
HETATM   15  C   UNL     1      -8.856  19.411  66.165  1.00  0.00    -0.301 A  
HETATM   16  C   UNL     1      -9.548  20.331  66.939  1.00  0.00    -0.564 A  
HETATM   17  C   UNL     1     -10.240  18.532  68.412  1.00  0.00    -0.409 A  
HETATM   18  C   UNL     1     -10.253  19.889  68.060  1.00  0.00    -0.572 A  
ENDBRANCH   6  13
BRANCH   6  19
HETATM   19  C   UNL     1      -9.592  15.147  66.800  1.00  0.00    -0.260 C  
HETATM   20  C   UNL     1     -11.830  14.379  66.162  1.00  0.00    -0.382 C  
HETATM   21  N   UNL     1     -11.081  13.200  66.589  1.00  0.00    -0.286 NA 
HETATM   22  C   UNL     1      -9.720  13.622  66.957  1.00  0.00    -0.251 C  
HETATM   23  C   UNL     1     -10.797  15.462  65.897  1.00  0.00    -0.328 C  
BRANCH  21  24
HETATM   24  C   UNL     1     -11.733  12.425  67.661  1.00  0.00    -0.346 C  
BRANCH  24  25
HETATM   25  C   UNL     1     -10.823  12.092  68.858  1.00  0.00    -0.252 C  
BRANCH  25  26
HETATM   26  C   UNL     1     -11.471  11.101  69.808  1.00  0.00    -0.388 A  
HETATM   27  C   UNL     1     -11.099   9.751  69.777  1.00  0.00    -0.272 A  
HETATM   28  C   UNL     1     -11.687   8.873  70.676  1.00  0.00    -0.212 A  
HETATM   29  C   UNL     1     -12.616   9.319  71.596  1.00  0.00    -0.365 A  
HETATM   30  O   UNL     1     -13.083   8.342  72.434  1.00  0.00    -0.307 OA 
HETATM   31  C   UNL     1     -13.009  10.638  71.654  1.00  0.00    -0.582 A  
HETATM   32  C   UNL     1     -12.434  11.536  70.745  1.00  0.00    -0.444 A  
HETATM   33  C   UNL     1     -12.496   7.118  71.936  1.00  0.00    -0.306 C  
HETATM   34  C   UNL     1     -11.466   7.425  70.847  1.00  0.00    -0.311 C  
ENDBRANCH  25  26
ENDBRANCH  24  25
ENDBRANCH  21  24
ENDBRANCH   6  19
ENDBRANCH   2   6
TORSDOF 7
ENDMDL
MODEL       22
REMARK 921   NORMALIZED FREE ENERGY PREDICTED BY IDOCK:   -6.34 KCAL/MOL
REMARK 922        TOTAL FREE ENERGY PREDICTED BY IDOCK:  -10.71 KCAL/MOL
REMARK 923 INTER-LIGAND FREE ENERGY PREDICTED BY IDOCK:   -9.51 KCAL/MOL
REMARK 924 INTRA-LIGAND FREE ENERGY PREDICTED BY IDOCK:   -1.20 KCAL/MOL
REMARK 927      BINDING AFFINITY PREDICTED BY RF-SCORE:    0.00 PKD
ROOT
HETATM    1  N   UNL     1     -10.451  17.803  65.899  1.00  0.00    -0.331 N  
HETATM    2  C   UNL     1     -10.886  16.630  65.338  1.00  0.00    -0.173 C  
HETATM    3  H1  UNL     1     -10.099  17.739  66.854  1.00  0.00     0.000 HD 
HETATM    4  H2  UNL     1     -10.477  18.688  65.392  1.00  0.00     0.000 HD 
HETATM    5  O   UNL     1     -11.309  16.707  64.191  1.00  0.00    -1.141 OA 
ENDROOT
BRANCH   2   6
HETATM    6  C   UNL     1     -10.725  15.292  66.181  1.00  0.00    -0.322 C  
BRANCH   6   7
HETATM    7  C   UNL     1     -11.159  14.074  65.250  1.00  0.00    -0.325 A  
HETATM    8  C   UNL     1     -11.995  12.031  63.450  1.00  0.00    -0.571 A  
HETATM    9  C   UNL     1     -12.905  12.608  64.323  1.00  0.00    -0.306 A  
HETATM   10  C   UNL     1     -10.663  12.418  63.502  1.00  0.00    -0.473 A  
HETATM   11  C   UNL     1     -12.490  13.599  65.223  1.00  0.00    -0.517 A  
HETATM   12  C   UNL     1     -10.252  13.416  64.395  1.00  0.00    -0.262 A  
ENDBRANCH   6   7
BRANCH   6  13
HETATM   13  C   UNL     1      -9.224  15.148  66.632  1.00  0.00    -0.298 A  
HETATM   14  C   UNL     1      -8.737  13.915  67.131  1.00  0.00    -0.233 A  
HETATM   15  C   UNL     1      -7.432  13.779  67.616  1.00  0.00    -0.187 A  
HETATM   16  C   UNL     1      -6.561  14.859  67.592  1.00  0.00    -0.189 A  
HETATM   17  C   UNL     1      -8.304  16.207  66.577  1.00  0.00    -0.352 A  
HETATM   18  C   UNL     1      -6.994  16.074  67.060  1.00  0.00    -0.209 A  
ENDBRANCH   6  13
BRANCH   6  19
HETATM   19  C   UNL     1     -11.667  15.317  67.481  1.00  0.00    -0.153 C  
HETATM   20  C   UNL     1     -10.708  14.867  69.691  1.00  0.00    -0.229 C  
HETATM   21  N   UNL     1     -11.593  13.749  69.374  1.00  0.00    -0.292 NA 
HETATM   22  C   UNL     1     -12.207  13.999  68.061  1.00  0.00    -0.153 C  
HETATM   23  C   UNL     1     -11.089  15.989  68.739  1.00  0.00    -0.338 C  
BRANCH  21  24
HETATM   24  C   UNL     1     -10.945  12.426  69.443  1.00  0.00    -0.010 C  
BRANCH  24  25
HETATM   25  C   UNL     1     -11.768  11.274  68.839  1.00  0.00    -0.409 C  
BRANCH  25  26
HETATM   26  C   UNL     1     -10.903  10.309  68.048  1.00  0.00    -0.325 A  
HETATM   27  C   UNL     1     -10.509  10.627  66.742  1.00  0.00    -0.303 A  
HETATM   28  C   UNL     1      -9.695   9.740  66.052  1.00  0.00    -0.319 A  
HETATM   29  C   UNL     1      -9.267   8.567  66.644  1.00  0.00    -0.177 A  
HETATM   30  O   UNL     1      -8.445   7.812  65.851  1.00  0.00    -0.129 OA 
HETATM   31  C   UNL     1      -9.636   8.220  67.925  1.00  0.00    -0.176 A  
HETATM   32  C   UNL     1     -10.469   9.098  68.630  1.00  0.00    -0.235 A  
HETATM   33  C   UNL     1      -8.433   8.495  64.576  1.00  0.00    -0.090 C  
HETATM   34  C   UNL     1      -9.147   9.844  64.687  1.00  0.00    -0.288 C  
ENDBRANCH  25  26
ENDBRANCH  24  25
ENDBRANCH  21  24
ENDBRANCH   6  19
ENDBRANCH   2   6
TORSDOF 7
ENDMDL
MODEL       23
REMARK 921   NORMALIZED FREE ENERGY PREDICTED BY IDOCK:   -6.33 KCAL/MOL
REMARK 922        TOTAL FREE ENERGY PREDICTED BY IDOCK:  -10.71 KCAL/MOL
REMARK 923 INTER-LIGAND FREE ENERGY PREDICTED BY IDOCK:   -9.69 KCAL/MOL
REMARK 924 INTRA-LIGAND FREE ENERGY PREDICTED BY IDOCK:   -1.02 KCAL/MOL
REMARK 927      BINDING AFFINITY PREDICTED BY RF-SCORE:    0.00 PKD
ROOT
HETATM    1  N   UNL     1     -12.663  16.163  69.431  1.00  0.00    -0.340 N  
HETATM    2  C   UNL     1     -11.329  15.923  69.637  1.00  0.00    -0.342 C  
HETATM    3  H1  UNL     1     -12.925  16.458  68.490  1.00  0.00     0.000 HD 
HETATM    4  H2  UNL     1     -13.354  16.053  70.174  1.00  0.00     0.000 HD 
HETATM    5  O   UNL     1     -11.015  15.568  70.767  1.00  0.00    -0.326 OA 
ENDROOT
BRANCH   2   6
HETATM    6  C   UNL     1     -10.346  16.044  68.394  1.00  0.00    -0.251 C  
BRANCH   6   7
HETATM    7  C   UNL     1     -10.898  15.093  67.241  1.00  0.00    -0.316 A  
HETATM    8  C   UNL     1     -11.708  13.302  65.178  1.00  0.00    -0.358 A  
HETATM    9  C   UNL     1     -11.026  14.469  64.864  1.00  0.00    -0.421 A  
HETATM   10  C   UNL     1     -12.042  13.046  66.500  1.00  0.00    -0.410 A  
HETATM   11  C   UNL     1     -10.646  15.360  65.876  1.00  0.00    -0.349 A  
HETATM   12  C   UNL     1     -11.651  13.933  67.512  1.00  0.00    -0.392 A  
ENDBRANCH   6   7
BRANCH   6  13
HETATM   13  C   UNL     1     -10.307  17.543  67.915  1.00  0.00    -0.371 A  
HETATM   14  C   UNL     1     -10.516  17.869  66.553  1.00  0.00    -0.315 A  
HETATM   15  C   UNL     1     -10.406  19.182  66.083  1.00  0.00    -0.561 A  
HETATM   16  C   UNL     1     -10.113  20.216  66.961  1.00  0.00    -0.599 A  
HETATM   17  C   UNL     1     -10.060  18.617  68.784  1.00  0.00    -0.398 A  
HETATM   18  C   UNL     1      -9.952  19.935  68.318  1.00  0.00    -0.552 A  
ENDBRANCH   6  13
BRANCH   6  19
HETATM   19  C   UNL     1      -8.861  15.577  68.789  1.00  0.00    -0.203 C  
HETATM   20  C   UNL     1      -7.391  14.611  67.083  1.00  0.00     0.053 C  
HETATM   21  N   UNL     1      -7.713  13.541  68.024  1.00  0.00    -0.128 NA 
HETATM   22  C   UNL     1      -8.577  14.094  69.079  1.00  0.00     0.109 C  
HETATM   23  C   UNL     1      -7.743  15.911  67.786  1.00  0.00    -0.156 C  
BRANCH  21  24
HETATM   24  C   UNL     1      -8.296  12.340  67.399  1.00  0.00    -0.177 C  
BRANCH  24  25
HETATM   25  C   UNL     1      -7.866  11.008  68.040  1.00  0.00    -0.112 C  
BRANCH  25  26
HETATM   26  C   UNL     1      -8.869  10.521  69.070  1.00  0.00    -0.174 A  
HETATM   27  C   UNL     1     -10.186  11.000  69.051  1.00  0.00    -0.217 A  
HETATM   28  C   UNL     1     -11.089  10.517  69.986  1.00  0.00    -0.376 A  
HETATM   29  C   UNL     1     -10.705   9.570  70.917  1.00  0.00    -0.333 A  
HETATM   30  O   UNL     1     -11.714   9.169  71.751  1.00  0.00    -0.346 OA 
HETATM   31  C   UNL     1      -9.419   9.078  70.968  1.00  0.00    -0.342 A  
HETATM   32  C   UNL     1      -8.491   9.565  70.038  1.00  0.00    -0.210 A  
HETATM   33  C   UNL     1     -12.831  10.023  71.415  1.00  0.00    -0.417 C  
HETATM   34  C   UNL     1     -12.512  10.854  70.170  1.00  0.00    -0.356 C  
ENDBRANCH  25  26
ENDBRANCH  24  25
ENDBRANCH  21  24
ENDBRANCH   6  19
ENDBRANCH   2   6
TORSDOF 7
ENDMDL
MODEL       24
REMARK 921   NORMALIZED FREE ENERGY PREDICTED BY IDOCK:   -6.31 KCAL/MOL
REMARK 922        TOTAL FREE ENERGY PREDICTED BY IDOCK:  -10.67 KCAL/MOL
REMARK 923 INTER-LIGAND FREE ENERGY PREDICTED BY IDOCK:  -10.15 KCAL/MOL
REMARK 924 INTRA-LIGAND FREE ENERGY PREDICTED BY IDOCK:   -0.52 KCAL/MOL
REMARK 927      BINDING AFFINITY PREDICTED BY RF-SCORE:    0.00 PKD
ROOT
HETATM    1  N   UNL     1      -7.938  15.491  66.586  1.00  0.00    -0.305 N  
HETATM    2  C   UNL     1      -8.912  14.826  67.287  1.00  0.00    -0.198 C  
HETATM    3  H1  UNL     1      -8.239  16.326  66.084  1.00  0.00     0.000 HD 
HETATM    4  H2  UNL     1      -6.970  15.169  66.568  1.00  0.00     0.000 HD 
HETATM    5  O   UNL     1      -8.550  13.823  67.890  1.00  0.00    -0.160 OA 
ENDROOT
BRANCH   2   6
HETATM    6  C   UNL     1     -10.371  15.454  67.320  1.00  0.00    -0.271 C  
BRANCH   6   7
HETATM    7  C   UNL     1     -11.133  14.853  68.584  1.00  0.00    -0.272 A  
HETATM    8  C   UNL     1     -12.659  13.766  70.729  1.00  0.00    -0.410 A  
HETATM    9  C   UNL     1     -12.675  15.131  70.481  1.00  0.00    -0.416 A  
HETATM   10  C   UNL     1     -11.848  12.945  69.960  1.00  0.00    -0.356 A  
HETATM   11  C   UNL     1     -11.909  15.668  69.439  1.00  0.00    -0.391 A  
HETATM   12  C   UNL     1     -11.090  13.483  68.911  1.00  0.00    -0.305 A  
ENDBRANCH   6   7
BRANCH   6  13
HETATM   13  C   UNL     1     -10.253  17.020  67.429  1.00  0.00    -0.314 A  
HETATM   14  C   UNL     1      -9.888  17.631  68.654  1.00  0.00    -0.347 A  
HETATM   15  C   UNL     1      -9.856  19.022  68.804  1.00  0.00    -0.485 A  
HETATM   16  C   UNL     1     -10.156  19.848  67.731  1.00  0.00    -0.565 A  
HETATM   17  C   UNL     1     -10.504  17.883  66.351  1.00  0.00    -0.318 A  
HETATM   18  C   UNL     1     -10.469  19.277  66.496  1.00  0.00    -0.552 A  
ENDBRANCH   6  13
BRANCH   6  19
HETATM   19  C   UNL     1     -11.188  15.078  65.990  1.00  0.00    -0.310 C  
HETATM   20  C   UNL     1     -12.209  12.861  65.771  1.00  0.00    -0.439 C  
HETATM   21  N   UNL     1     -11.128  12.932  64.791  1.00  0.00    -0.297 NA 
HETATM   22  C   UNL     1     -10.507  14.263  64.878  1.00  0.00    -0.430 C  
HETATM   23  C   UNL     1     -12.498  14.295  66.183  1.00  0.00    -0.362 C  
BRANCH  21  24
HETATM   24  C   UNL     1     -10.136  11.846  64.905  1.00  0.00    -0.263 C  
BRANCH  24  25
HETATM   25  C   UNL     1     -10.049  11.199  66.300  1.00  0.00    -0.277 C  
BRANCH  25  26
HETATM   26  C   UNL     1      -9.735   9.716  66.221  1.00  0.00    -0.303 A  
HETATM   27  C   UNL     1     -10.503   8.795  66.947  1.00  0.00    -0.319 A  
HETATM   28  C   UNL     1     -10.212   7.443  66.833  1.00  0.00    -0.346 A  
HETATM   29  C   UNL     1      -9.191   7.006  66.012  1.00  0.00    -0.021 A  
HETATM   30  O   UNL     1      -9.047   5.645  65.981  1.00  0.00    -0.154 OA 
HETATM   31  C   UNL     1      -8.414   7.881  65.285  1.00  0.00    -0.119 A  
HETATM   32  C   UNL     1      -8.686   9.251  65.398  1.00  0.00    -0.208 A  
HETATM   33  C   UNL     1      -9.980   5.152  66.970  1.00  0.00    -0.196 C  
HETATM   34  C   UNL     1     -10.866   6.291  67.481  1.00  0.00    -0.436 C  
ENDBRANCH  25  26
ENDBRANCH  24  25
ENDBRANCH  21  24
ENDBRANCH   6  19
ENDBRANCH   2   6
TORSDOF 7
ENDMDL
MODEL       25
REMARK 921   NORMALIZED FREE ENERGY PREDICTED BY IDOCK:   -6.29 KCAL/MOL
REMARK 922        TOTAL FREE ENERGY PREDICTED BY IDOCK:  -10.64 KCAL/MOL
REMARK 923 INTER-LIGAND FREE ENERGY PREDICTED BY IDOCK:   -8.43 KCAL/MOL
REMARK 924 INTRA-LIGAND FREE ENERGY PREDICTED BY IDOCK:   -2.22 KCAL/MOL
REMARK 927      BINDING AFFINITY PREDICTED BY RF-SCORE:    0.00 PKD
ROOT
HETATM    1  N   UNL     1     -10.556   6.787  74.181  1.00  0.00    -0.435 N  
HETATM    2  C   UNL     1     -10.517   6.052  73.023  1.00  0.00    -0.224 C  
HETATM    3  H1  UNL     1     -10.554   7.800  74.068  1.00  0.00     0.000 HD 
HETATM    4  H2  UNL     1     -10.586   6.346  75.100  1.00  0.00     0.000 HD 
HETATM    5  O   UNL     1     -10.519   4.834  73.160  1.00  0.00    -0.173 OA 
ENDROOT
BRANCH   2   6
HETATM    6  C   UNL     1     -10.556   6.832  71.639  1.00  0.00    -0.239 C  
BRANCH   6   7
HETATM    7  C   UNL     1     -11.867   7.738  71.627  1.00  0.00    -0.321 A  
HETATM    8  C   UNL     1     -14.225   9.327  71.804  1.00  0.00    -0.179 A  
HETATM    9  C   UNL     1     -14.319   7.950  71.665  1.00  0.00    -0.595 A  
HETATM   10  C   UNL     1     -12.974   9.927  71.798  1.00  0.00    -0.549 A  
HETATM   11  C   UNL     1     -13.160   7.170  71.557  1.00  0.00    -0.427 A  
HETATM   12  C   UNL     1     -11.816   9.145  71.701  1.00  0.00    -0.443 A  
ENDBRANCH   6   7
BRANCH   6  13
HETATM   13  C   UNL     1      -9.261   7.718  71.514  1.00  0.00    -0.164 A  
HETATM   14  C   UNL     1      -9.224   8.819  70.623  1.00  0.00    -0.233 A  
HETATM   15  C   UNL     1      -8.062   9.573  70.429  1.00  0.00    -0.209 A  
HETATM   16  C   UNL     1      -6.908   9.274  71.138  1.00  0.00    -0.069 A  
HETATM   17  C   UNL     1      -8.092   7.473  72.251  1.00  0.00    -0.118 A  
HETATM   18  C   UNL     1      -6.926   8.227  72.062  1.00  0.00    -0.094 A  
ENDBRANCH   6  13
BRANCH   6  19
HETATM   19  C   UNL     1     -10.617   5.809  70.405  1.00  0.00    -0.365 C  
HETATM   20  C   UNL     1      -8.703   5.612  68.887  1.00  0.00    -0.107 C  
HETATM   21  N   UNL     1      -9.793   6.213  68.123  1.00  0.00    -0.127 NA 
HETATM   22  C   UNL     1     -10.970   6.324  68.999  1.00  0.00    -0.372 C  
HETATM   23  C   UNL     1      -9.343   4.994  70.120  1.00  0.00    -0.215 C  
BRANCH  21  24
HETATM   24  C   UNL     1      -9.449   7.498  67.488  1.00  0.00    -0.139 C  
BRANCH  24  25
HETATM   25  C   UNL     1     -10.658   8.376  67.115  1.00  0.00    -0.326 C  
BRANCH  25  26
HETATM   26  C   UNL     1     -10.435   9.835  67.471  1.00  0.00    -0.309 A  
HETATM   27  C   UNL     1     -11.313  10.487  68.346  1.00  0.00    -0.328 A  
HETATM   28  C   UNL     1     -11.069  11.812  68.677  1.00  0.00    -0.289 A  
HETATM   29  C   UNL     1      -9.973  12.478  68.164  1.00  0.00    -0.224 A  
HETATM   30  O   UNL     1      -9.849  13.768  68.606  1.00  0.00    -0.220 OA 
HETATM   31  C   UNL     1      -9.089  11.871  67.299  1.00  0.00    -0.178 A  
HETATM   32  C   UNL     1      -9.328  10.537  66.945  1.00  0.00    -0.181 A  
HETATM   33  C   UNL     1     -11.044  14.007  69.385  1.00  0.00    -0.203 C  
HETATM   34  C   UNL     1     -11.831  12.708  69.567  1.00  0.00    -0.376 C  
ENDBRANCH  25  26
ENDBRANCH  24  25
ENDBRANCH  21  24
ENDBRANCH   6  19
ENDBRANCH   2   6
TORSDOF 7
ENDMDL
MODEL       26
REMARK 921   NORMALIZED FREE ENERGY PREDICTED BY IDOCK:   -6.28 KCAL/MOL
REMARK 922        TOTAL FREE ENERGY PREDICTED BY IDOCK:  -10.63 KCAL/MOL
REMARK 923 INTER-LIGAND FREE ENERGY PREDICTED BY IDOCK:   -9.40 KCAL/MOL
REMARK 924 INTRA-LIGAND FREE ENERGY PREDICTED BY IDOCK:   -1.23 KCAL/MOL
REMARK 927      BINDING AFFINITY PREDICTED BY RF-SCORE:    0.00 PKD
ROOT
HETATM    1  N   UNL     1     -11.673  14.561  64.317  1.00  0.00    -0.644 N  
HETATM    2  C   UNL     1     -10.585  13.885  64.806  1.00  0.00    -0.426 C  
HETATM    3  H1  UNL     1     -12.241  15.054  65.006  1.00  0.00     0.000 HD 
HETATM    4  H2  UNL     1     -11.900  14.572  63.322  1.00  0.00     0.000 HD 
HETATM    5  O   UNL     1      -9.902  13.294  63.978  1.00  0.00    -0.155 OA 
ENDROOT
BRANCH   2   6
HETATM    6  C   UNL     1     -10.269  13.999  66.360  1.00  0.00    -0.293 C  
BRANCH   6   7
HETATM    7  C   UNL     1      -9.924  12.539  66.896  1.00  0.00    -0.229 A  
HETATM    8  C   UNL     1      -9.178   9.911  67.701  1.00  0.00    -0.146 A  
HETATM    9  C   UNL     1     -10.165  10.094  66.744  1.00  0.00    -0.289 A  
HETATM   10  C   UNL     1      -8.600  11.019  68.304  1.00  0.00    -0.143 A  
HETATM   11  C   UNL     1     -10.547  11.387  66.362  1.00  0.00    -0.311 A  
HETATM   12  C   UNL     1      -8.976  12.311  67.913  1.00  0.00    -0.186 A  
ENDBRANCH   6   7
BRANCH   6  13
HETATM   13  C   UNL     1      -9.051  14.975  66.564  1.00  0.00    -0.319 A  
HETATM   14  C   UNL     1      -9.048  16.260  65.969  1.00  0.00    -0.332 A  
HETATM   15  C   UNL     1      -7.945  17.115  66.064  1.00  0.00    -0.189 A  
HETATM   16  C   UNL     1      -6.821  16.729  66.780  1.00  0.00    -0.265 A  
HETATM   17  C   UNL     1      -7.918  14.635  67.322  1.00  0.00    -0.223 A  
HETATM   18  C   UNL     1      -6.812  15.490  67.422  1.00  0.00    -0.224 A  
ENDBRANCH   6  13
BRANCH   6  19
HETATM   19  C   UNL     1     -11.539  14.565  67.163  1.00  0.00    -0.406 C  
HETATM   20  C   UNL     1     -11.332  15.111  69.543  1.00  0.00    -0.285 C  
HETATM   21  N   UNL     1     -12.219  13.954  69.447  1.00  0.00    -0.335 NA 
HETATM   22  C   UNL     1     -12.385  13.613  68.025  1.00  0.00     0.056 C  
HETATM   23  C   UNL     1     -11.274  15.715  68.150  1.00  0.00    -0.345 C  
BRANCH  21  24
HETATM   24  C   UNL     1     -11.790  12.795  70.251  1.00  0.00    -0.212 C  
BRANCH  24  25
HETATM   25  C   UNL     1     -12.185  11.426  69.668  1.00  0.00    -0.316 C  
BRANCH  25  26
HETATM   26  C   UNL     1     -11.937  10.295  70.649  1.00  0.00    -0.436 A  
HETATM   27  C   UNL     1     -10.630   9.856  70.899  1.00  0.00    -0.254 A  
HETATM   28  C   UNL     1     -10.429   8.840  71.822  1.00  0.00    -0.417 A  
HETATM   29  C   UNL     1     -11.495   8.275  72.495  1.00  0.00    -0.384 A  
HETATM   30  O   UNL     1     -11.136   7.308  73.396  1.00  0.00    -0.323 OA 
HETATM   31  C   UNL     1     -12.793   8.680  72.275  1.00  0.00    -0.438 A  
HETATM   32  C   UNL     1     -13.015   9.696  71.336  1.00  0.00    -0.474 A  
HETATM   33  C   UNL     1      -9.712   7.138  73.204  1.00  0.00    -0.193 C  
HETATM   34  C   UNL     1      -9.169   8.211  72.259  1.00  0.00    -0.266 C  
ENDBRANCH  25  26
ENDBRANCH  24  25
ENDBRANCH  21  24
ENDBRANCH   6  19
ENDBRANCH   2   6
TORSDOF 7
ENDMDL
MODEL       27
REMARK 921   NORMALIZED FREE ENERGY PREDICTED BY IDOCK:   -6.26 KCAL/MOL
REMARK 922        TOTAL FREE ENERGY PREDICTED BY IDOCK:  -10.60 KCAL/MOL
REMARK 923 INTER-LIGAND FREE ENERGY PREDICTED BY IDOCK:   -8.68 KCAL/MOL
REMARK 924 INTRA-LIGAND FREE ENERGY PREDICTED BY IDOCK:   -1.92 KCAL/MOL
REMARK 927      BINDING AFFINITY PREDICTED BY RF-SCORE:    0.00 PKD
ROOT
HETATM    1  N   UNL     1     -10.419  17.646  66.757  1.00  0.00    -0.320 N  
HETATM    2  C   UNL     1     -10.087  16.813  67.794  1.00  0.00    -0.281 C  
HETATM    3  H1  UNL     1     -10.793  17.195  65.922  1.00  0.00     0.000 HD 
HETATM    4  H2  UNL     1     -10.300  18.658  66.816  1.00  0.00     0.000 HD 
HETATM    5  O   UNL     1      -9.637  17.355  68.796  1.00  0.00    -0.276 OA 
ENDROOT
BRANCH   2   6
HETATM    6  C   UNL     1     -10.388  15.261  67.633  1.00  0.00    -0.250 C  
BRANCH   6   7
HETATM    7  C   UNL     1      -8.996  14.487  67.673  1.00  0.00    -0.193 A  
HETATM    8  C   UNL     1      -6.475  13.183  67.925  1.00  0.00    -0.138 A  
HETATM    9  C   UNL     1      -6.544  14.486  67.456  1.00  0.00    -0.106 A  
HETATM   10  C   UNL     1      -7.649  12.502  68.214  1.00  0.00    -0.129 A  
HETATM   11  C   UNL     1      -7.784  15.121  67.312  1.00  0.00    -0.241 A  
HETATM   12  C   UNL     1      -8.888  13.142  68.080  1.00  0.00    -0.194 A  
ENDBRANCH   6   7
BRANCH   6  13
HETATM   13  C   UNL     1     -11.321  14.796  68.812  1.00  0.00    -0.301 A  
HETATM   14  C   UNL     1     -12.132  15.731  69.502  1.00  0.00    -0.261 A  
HETATM   15  C   UNL     1     -12.908  15.363  70.606  1.00  0.00    -0.484 A  
HETATM   16  C   UNL     1     -12.925  14.045  71.040  1.00  0.00    -0.378 A  
HETATM   17  C   UNL     1     -11.399  13.463  69.247  1.00  0.00    -0.314 A  
HETATM   18  C   UNL     1     -12.177  13.089  70.351  1.00  0.00    -0.386 A  
ENDBRANCH   6  13
BRANCH   6  19
HETATM   19  C   UNL     1     -11.114  14.959  66.234  1.00  0.00    -0.340 C  
HETATM   20  C   UNL     1     -12.058  12.738  65.803  1.00  0.00    -0.448 C  
HETATM   21  N   UNL     1     -10.924  12.903  64.897  1.00  0.00    -0.290 NA 
HETATM   22  C   UNL     1     -10.346  14.239  65.112  1.00  0.00    -0.415 C  
HETATM   23  C   UNL     1     -12.411  14.133  66.294  1.00  0.00    -0.451 C  
BRANCH  21  24
HETATM   24  C   UNL     1      -9.911  11.836  64.997  1.00  0.00    -0.229 C  
BRANCH  24  25
HETATM   25  C   UNL     1     -10.477  10.438  65.305  1.00  0.00    -0.178 C  
BRANCH  25  26
HETATM   26  C   UNL     1     -10.052   9.939  66.674  1.00  0.00    -0.297 A  
HETATM   27  C   UNL     1     -10.899  10.106  67.778  1.00  0.00    -0.346 A  
HETATM   28  C   UNL     1     -10.497   9.615  69.012  1.00  0.00    -0.229 A  
HETATM   29  C   UNL     1      -9.288   8.962  69.153  1.00  0.00    -0.148 A  
HETATM   30  O   UNL     1      -9.045   8.508  70.422  1.00  0.00    -0.143 OA 
HETATM   31  C   UNL     1      -8.428   8.781  68.092  1.00  0.00    -0.130 A  
HETATM   32  C   UNL     1      -8.813   9.282  66.841  1.00  0.00    -0.141 A  
HETATM   33  C   UNL     1     -10.143   9.020  71.212  1.00  0.00    -0.314 C  
HETATM   34  C   UNL     1     -11.199   9.659  70.307  1.00  0.00    -0.324 C  
ENDBRANCH  25  26
ENDBRANCH  24  25
ENDBRANCH  21  24
ENDBRANCH   6  19
ENDBRANCH   2   6
TORSDOF 7
ENDMDL
MODEL       28
REMARK 921   NORMALIZED FREE ENERGY PREDICTED BY IDOCK:   -6.24 KCAL/MOL
REMARK 922        TOTAL FREE ENERGY PREDICTED BY IDOCK:  -10.57 KCAL/MOL
REMARK 923 INTER-LIGAND FREE ENERGY PREDICTED BY IDOCK:   -9.35 KCAL/MOL
REMARK 924 INTRA-LIGAND FREE ENERGY PREDICTED BY IDOCK:   -1.23 KCAL/MOL
REMARK 927      BINDING AFFINITY PREDICTED BY RF-SCORE:    0.00 PKD
ROOT
HETATM    1  N   UNL     1      -8.069  15.928  69.139  1.00  0.00    -0.228 N  
HETATM    2  C   UNL     1      -8.946  15.098  68.489  1.00  0.00    -0.186 C  
HETATM    3  H1  UNL     1      -8.247  16.928  69.046  1.00  0.00     0.000 HD 
HETATM    4  H2  UNL     1      -7.284  15.567  69.683  1.00  0.00     0.000 HD 
HETATM    5  O   UNL     1      -8.732  13.896  68.600  1.00  0.00    -0.158 OA 
ENDROOT
BRANCH   2   6
HETATM    6  C   UNL     1     -10.182  15.756  67.738  1.00  0.00    -0.251 C  
BRANCH   6   7
HETATM    7  C   UNL     1      -9.763  17.231  67.307  1.00  0.00    -0.262 A  
HETATM    8  C   UNL     1      -8.934  19.893  66.722  1.00  0.00    -0.444 A  
HETATM    9  C   UNL     1     -10.147  19.662  67.354  1.00  0.00    -0.536 A  
HETATM   10  C   UNL     1      -8.157  18.814  66.326  1.00  0.00    -0.270 A  
HETATM   11  C   UNL     1     -10.564  18.352  67.624  1.00  0.00    -0.437 A  
HETATM   12  C   UNL     1      -8.571  17.505  66.606  1.00  0.00    -0.284 A  
ENDBRANCH   6   7
BRANCH   6  13
HETATM   13  C   UNL     1     -10.538  14.884  66.476  1.00  0.00    -0.306 A  
HETATM   14  C   UNL     1     -11.528  15.313  65.559  1.00  0.00    -0.152 A  
HETATM   15  C   UNL     1     -11.924  14.522  64.476  1.00  0.00    -0.482 A  
HETATM   16  C   UNL     1     -11.326  13.290  64.255  1.00  0.00    -0.428 A  
HETATM   17  C   UNL     1      -9.919  13.655  66.197  1.00  0.00    -0.314 A  
HETATM   18  C   UNL     1     -10.311  12.860  65.111  1.00  0.00    -0.320 A  
ENDBRANCH   6  13
BRANCH   6  19
HETATM   19  C   UNL     1     -11.463  15.837  68.702  1.00  0.00    -0.389 C  
HETATM   20  C   UNL     1     -11.362  14.865  70.949  1.00  0.00    -0.216 C  
HETATM   21  N   UNL     1     -12.302  14.056  70.177  1.00  0.00    -0.345 NA 
HETATM   22  C   UNL     1     -12.406  14.629  68.825  1.00  0.00    -0.006 C  
HETATM   23  C   UNL     1     -11.194  16.165  70.181  1.00  0.00    -0.374 C  
BRANCH  21  24
HETATM   24  C   UNL     1     -11.982  12.617  70.149  1.00  0.00    -0.299 C  
BRANCH  24  25
HETATM   25  C   UNL     1     -11.878  12.008  68.739  1.00  0.00    -0.358 C  
BRANCH  25  26
HETATM   26  C   UNL     1     -11.286  10.611  68.763  1.00  0.00    -0.339 A  
HETATM   27  C   UNL     1     -11.179   9.914  69.974  1.00  0.00    -0.327 A  
HETATM   28  C   UNL     1     -10.661   8.627  69.964  1.00  0.00    -0.233 A  
HETATM   29  C   UNL     1     -10.266   8.034  68.780  1.00  0.00    -0.206 A  
HETATM   30  O   UNL     1      -9.806   6.753  68.927  1.00  0.00    -0.143 OA 
HETATM   31  C   UNL     1     -10.354   8.688  67.571  1.00  0.00    -0.336 A  
HETATM   32  C   UNL     1     -10.863   9.994  67.566  1.00  0.00    -0.326 A  
HETATM   33  C   UNL     1      -9.781   6.531  70.356  1.00  0.00    -0.172 C  
HETATM   34  C   UNL     1     -10.452   7.696  71.088  1.00  0.00    -0.220 C  
ENDBRANCH  25  26
ENDBRANCH  24  25
ENDBRANCH  21  24
ENDBRANCH   6  19
ENDBRANCH   2   6
TORSDOF 7
ENDMDL
MODEL       29
REMARK 921   NORMALIZED FREE ENERGY PREDICTED BY IDOCK:   -6.24 KCAL/MOL
REMARK 922        TOTAL FREE ENERGY PREDICTED BY IDOCK:  -10.57 KCAL/MOL
REMARK 923 INTER-LIGAND FREE ENERGY PREDICTED BY IDOCK:   -9.55 KCAL/MOL
REMARK 924 INTRA-LIGAND FREE ENERGY PREDICTED BY IDOCK:   -1.02 KCAL/MOL
REMARK 927      BINDING AFFINITY PREDICTED BY RF-SCORE:    0.00 PKD
ROOT
HETATM    1  N   UNL     1     -12.133  15.928  68.730  1.00  0.00    -0.486 N  
HETATM    2  C   UNL     1     -11.577  15.080  67.806  1.00  0.00    -0.319 C  
HETATM    3  H1  UNL     1     -11.685  16.839  68.827  1.00  0.00     0.000 HD 
HETATM    4  H2  UNL     1     -12.946  15.663  69.286  1.00  0.00     0.000 HD 
HETATM    5  O   UNL     1     -12.115  13.985  67.689  1.00  0.00    -0.382 OA 
ENDROOT
BRANCH   2   6
HETATM    6  C   UNL     1     -10.364  15.618  66.931  1.00  0.00    -0.293 C  
BRANCH   6   7
HETATM    7  C   UNL     1     -10.369  17.209  67.015  1.00  0.00    -0.308 A  
HETATM    8  C   UNL     1     -10.177  20.047  67.159  1.00  0.00    -0.580 A  
HETATM    9  C   UNL     1     -10.084  19.281  68.312  1.00  0.00    -0.516 A  
HETATM   10  C   UNL     1     -10.423  19.422  65.945  1.00  0.00    -0.561 A  
HETATM   11  C   UNL     1     -10.198  17.886  68.244  1.00  0.00    -0.391 A  
HETATM   12  C   UNL     1     -10.527  18.026  65.878  1.00  0.00    -0.268 A  
ENDBRANCH   6   7
BRANCH   6  13
HETATM   13  C   UNL     1      -9.020  15.030  67.503  1.00  0.00    -0.189 A  
HETATM   14  C   UNL     1      -9.041  13.995  68.470  1.00  0.00    -0.163 A  
HETATM   15  C   UNL     1      -7.867  13.511  69.057  1.00  0.00     0.157 A  
HETATM   16  C   UNL     1      -6.633  14.021  68.678  1.00  0.00    -0.093 A  
HETATM   17  C   UNL     1      -7.755  15.490  67.107  1.00  0.00    -0.257 A  
HETATM   18  C   UNL     1      -6.575  15.006  67.691  1.00  0.00    -0.193 A  
ENDBRANCH   6  13
BRANCH   6  19
HETATM   19  C   UNL     1     -10.523  15.175  65.396  1.00  0.00    -0.416 C  
HETATM   20  C   UNL     1     -12.411  13.765  64.722  1.00  0.00    -0.386 C  
HETATM   21  N   UNL     1     -11.202  12.959  64.573  1.00  0.00    -0.319 NA 
HETATM   22  C   UNL     1     -10.043  13.785  64.946  1.00  0.00    -0.267 C  
HETATM   23  C   UNL     1     -11.946  15.210  64.812  1.00  0.00    -0.250 C  
BRANCH  21  24
HETATM   24  C   UNL     1     -11.234  11.680  65.305  1.00  0.00    -0.199 C  
BRANCH  24  25
HETATM   25  C   UNL     1      -9.989  11.402  66.168  1.00  0.00    -0.265 C  
BRANCH  25  26
HETATM   26  C   UNL     1     -10.357  10.915  67.558  1.00  0.00    -0.237 A  
HETATM   27  C   UNL     1      -9.415  10.226  68.334  1.00  0.00    -0.149 A  
HETATM   28  C   UNL     1      -9.769   9.818  69.612  1.00  0.00    -0.242 A  
HETATM   29  C   UNL     1     -11.024  10.094  70.121  1.00  0.00    -0.316 A  
HETATM   30  O   UNL     1     -11.213   9.656  71.404  1.00  0.00    -0.365 OA 
HETATM   31  C   UNL     1     -11.976  10.767  69.387  1.00  0.00    -0.353 A  
HETATM   32  C   UNL     1     -11.639  11.175  68.089  1.00  0.00    -0.350 A  
HETATM   33  C   UNL     1     -10.012   8.915  71.721  1.00  0.00    -0.327 C  
HETATM   34  C   UNL     1      -8.969   9.090  70.615  1.00  0.00    -0.263 C  
ENDBRANCH  25  26
ENDBRANCH  24  25
ENDBRANCH  21  24
ENDBRANCH   6  19
ENDBRANCH   2   6
TORSDOF 7
ENDMDL
MODEL       30
REMARK 921   NORMALIZED FREE ENERGY PREDICTED BY IDOCK:   -6.22 KCAL/MOL
REMARK 922        TOTAL FREE ENERGY PREDICTED BY IDOCK:  -10.54 KCAL/MOL
REMARK 923 INTER-LIGAND FREE ENERGY PREDICTED BY IDOCK:   -9.51 KCAL/MOL
REMARK 924 INTRA-LIGAND FREE ENERGY PREDICTED BY IDOCK:   -1.02 KCAL/MOL
REMARK 927      BINDING AFFINITY PREDICTED BY RF-SCORE:    0.00 PKD
ROOT
HETATM    1  N   UNL     1     -10.315   4.687  71.835  1.00  0.00    -0.181 N  
HETATM    2  C   UNL     1     -10.245   5.484  70.722  1.00  0.00    -0.235 C  
HETATM    3  H1  UNL     1     -10.140   5.148  72.727  1.00  0.00     0.000 HD 
HETATM    4  H2  UNL     1     -10.531   3.691  71.775  1.00  0.00     0.000 HD 
HETATM    5  O   UNL     1     -10.456   4.930  69.649  1.00  0.00    -0.206 OA 
ENDROOT
BRANCH   2   6
HETATM    6  C   UNL     1      -9.985   7.039  70.929  1.00  0.00    -0.200 C  
BRANCH   6   7
HETATM    7  C   UNL     1     -11.379   7.723  71.285  1.00  0.00    -0.289 A  
HETATM    8  C   UNL     1     -13.860   8.859  72.103  1.00  0.00    -0.531 A  
HETATM    9  C   UNL     1     -13.820   7.580  71.568  1.00  0.00    -0.487 A  
HETATM   10  C   UNL     1     -12.690   9.600  72.182  1.00  0.00    -0.427 A  
HETATM   11  C   UNL     1     -12.603   7.029  71.146  1.00  0.00    -0.387 A  
HETATM   12  C   UNL     1     -11.472   9.043  71.770  1.00  0.00    -0.442 A  
ENDBRANCH   6   7
BRANCH   6  13
HETATM   13  C   UNL     1      -8.950   7.233  72.098  1.00  0.00    -0.148 A  
HETATM   14  C   UNL     1      -7.623   6.752  71.974  1.00  0.00    -0.094 A  
HETATM   15  C   UNL     1      -6.706   6.836  73.027  1.00  0.00    -0.067 A  
HETATM   16  C   UNL     1      -7.071   7.429  74.227  1.00  0.00    -0.115 A  
HETATM   17  C   UNL     1      -9.272   7.870  73.307  1.00  0.00    -0.346 A  
HETATM   18  C   UNL     1      -8.355   7.959  74.364  1.00  0.00    -0.271 A  
ENDBRANCH   6  13
BRANCH   6  19
HETATM   19  C   UNL     1      -9.402   7.706  69.591  1.00  0.00    -0.156 C  
HETATM   20  C   UNL     1      -9.108  10.136  69.468  1.00  0.00    -0.195 C  
HETATM   21  N   UNL     1     -10.176   9.788  68.534  1.00  0.00    -0.179 NA 
HETATM   22  C   UNL     1     -10.363   8.329  68.564  1.00  0.00    -0.199 C  
HETATM   23  C   UNL     1      -8.377   8.839  69.775  1.00  0.00    -0.127 C  
BRANCH  21  24
HETATM   24  C   UNL     1     -11.438  10.516  68.761  1.00  0.00    -0.224 C  
BRANCH  24  25
HETATM   25  C   UNL     1     -11.530  11.880  68.051  1.00  0.00    -0.389 C  
BRANCH  25  26
HETATM   26  C   UNL     1     -11.884  13.000  69.013  1.00  0.00    -0.362 A  
HETATM   27  C   UNL     1     -12.478  12.705  70.247  1.00  0.00    -0.163 A  
HETATM   28  C   UNL     1     -12.764  13.746  71.119  1.00  0.00    -0.438 A  
HETATM   29  C   UNL     1     -12.461  15.052  70.785  1.00  0.00    -0.352 A  
HETATM   30  O   UNL     1     -12.774  15.962  71.759  1.00  0.00    -0.447 OA 
HETATM   31  C   UNL     1     -11.879  15.380  69.580  1.00  0.00    -0.368 A  
HETATM   32  C   UNL     1     -11.595  14.342  68.682  1.00  0.00    -0.352 A  
HETATM   33  C   UNL     1     -13.459  15.194  72.774  1.00  0.00    -0.501 C  
HETATM   34  C   UNL     1     -13.375  13.699  72.460  1.00  0.00    -0.638 C  
ENDBRANCH  25  26
ENDBRANCH  24  25
ENDBRANCH  21  24
ENDBRANCH   6  19
ENDBRANCH   2   6
TORSDOF 7
ENDMDL
MODEL       31
REMARK 921   NORMALIZED FREE ENERGY PREDICTED BY IDOCK:   -6.21 KCAL/MOL
REMARK 922        TOTAL FREE ENERGY PREDICTED BY IDOCK:  -10.53 KCAL/MOL
REMARK 923 INTER-LIGAND FREE ENERGY PREDICTED BY IDOCK:   -8.67 KCAL/MOL
REMARK 924 INTRA-LIGAND FREE ENERGY PREDICTED BY IDOCK:   -1.87 KCAL/MOL
REMARK 927      BINDING AFFINITY PREDICTED BY RF-SCORE:    0.00 PKD
ROOT
HETATM    1  N   UNL     1     -11.528   9.380  68.694  1.00  0.00    -0.259 N  
HETATM    2  C   UNL     1     -10.671  10.362  69.121  1.00  0.00    -0.234 C  
HETATM    3  H1  UNL     1     -12.007   9.558  67.811  1.00  0.00     0.000 HD 
HETATM    4  H2  UNL     1     -11.677   8.523  69.227  1.00  0.00     0.000 HD 
HETATM    5  O   UNL     1     -10.095  10.149  70.182  1.00  0.00    -0.246 OA 
ENDROOT
BRANCH   2   6
HETATM    6  C   UNL     1     -10.444  11.621  68.178  1.00  0.00    -0.217 C  
BRANCH   6   7
HETATM    7  C   UNL     1     -10.943  12.915  68.963  1.00  0.00    -0.244 A  
HETATM    8  C   UNL     1     -11.947  15.273  70.206  1.00  0.00    -0.367 A  
HETATM    9  C   UNL     1     -10.849  15.342  69.361  1.00  0.00    -0.263 A  
HETATM   10  C   UNL     1     -12.515  14.038  70.484  1.00  0.00    -0.429 A  
HETATM   11  C   UNL     1     -10.342  14.179  68.766  1.00  0.00    -0.230 A  
HETATM   12  C   UNL     1     -12.013  12.878  69.879  1.00  0.00    -0.377 A  
ENDBRANCH   6   7
BRANCH   6  13
HETATM   13  C   UNL     1      -8.913  11.732  67.830  1.00  0.00    -0.180 A  
HETATM   14  C   UNL     1      -8.266  12.992  67.816  1.00  0.00    -0.168 A  
HETATM   15  C   UNL     1      -6.929  13.131  67.431  1.00  0.00    -0.117 A  
HETATM   16  C   UNL     1      -6.184  12.015  67.076  1.00  0.00    -0.130 A  
HETATM   17  C   UNL     1      -8.118  10.619  67.512  1.00  0.00    -0.111 A  
HETATM   18  C   UNL     1      -6.777  10.753  67.128  1.00  0.00    -0.084 A  
ENDBRANCH   6  13
BRANCH   6  19
HETATM   19  C   UNL     1     -11.285  11.478  66.818  1.00  0.00    -0.350 C  
HETATM   20  C   UNL     1     -10.389  12.391  64.728  1.00  0.00    -0.299 C  
HETATM   21  N   UNL     1     -11.559  13.193  65.077  1.00  0.00    -0.314 NA 
HETATM   22  C   UNL     1     -12.138  12.656  66.318  1.00  0.00    -0.289 C  
HETATM   23  C   UNL     1     -10.492  11.117  65.551  1.00  0.00    -0.317 C  
BRANCH  21  24
HETATM   24  C   UNL     1     -11.293  14.641  65.167  1.00  0.00    -0.375 C  
BRANCH  24  25
HETATM   25  C   UNL     1      -9.805  15.029  65.080  1.00  0.00    -0.166 C  
BRANCH  25  26
HETATM   26  C   UNL     1      -9.471  16.210  65.973  1.00  0.00    -0.374 A  
HETATM   27  C   UNL     1     -10.435  17.196  66.224  1.00  0.00    -0.260 A  
HETATM   28  C   UNL     1     -10.112  18.249  67.067  1.00  0.00    -0.370 A  
HETATM   29  C   UNL     1      -8.867  18.325  67.659  1.00  0.00    -0.256 A  
HETATM   30  O   UNL     1      -8.709  19.404  68.488  1.00  0.00    -0.352 OA 
HETATM   31  C   UNL     1      -7.893  17.377  67.434  1.00  0.00    -0.212 A  
HETATM   32  C   UNL     1      -8.199  16.312  66.575  1.00  0.00    -0.344 A  
HETATM   33  C   UNL     1      -9.923  20.173  68.325  1.00  0.00    -0.319 C  
HETATM   34  C   UNL     1     -10.940  19.395  67.488  1.00  0.00    -0.416 C  
ENDBRANCH  25  26
ENDBRANCH  24  25
ENDBRANCH  21  24
ENDBRANCH   6  19
ENDBRANCH   2   6
TORSDOF 7
ENDMDL
MODEL       32
REMARK 921   NORMALIZED FREE ENERGY PREDICTED BY IDOCK:   -6.19 KCAL/MOL
REMARK 922        TOTAL FREE ENERGY PREDICTED BY IDOCK:  -10.50 KCAL/MOL
REMARK 923 INTER-LIGAND FREE ENERGY PREDICTED BY IDOCK:   -9.77 KCAL/MOL
REMARK 924 INTRA-LIGAND FREE ENERGY PREDICTED BY IDOCK:   -0.73 KCAL/MOL
REMARK 927      BINDING AFFINITY PREDICTED BY RF-SCORE:    0.00 PKD
ROOT
HETATM    1  N   UNL     1      -8.988  17.960  68.656  1.00  0.00    -0.283 N  
HETATM    2  C   UNL     1     -10.140  17.368  68.208  1.00  0.00    -0.339 C  
HETATM    3  H1  UNL     1      -8.297  17.337  69.073  1.00  0.00     0.000 HD 
HETATM    4  H2  UNL     1      -8.829  18.965  68.576  1.00  0.00     0.000 HD 
HETATM    5  O   UNL     1     -10.970  18.118  67.706  1.00  0.00    -0.315 OA 
ENDROOT
BRANCH   2   6
HETATM    6  C   UNL     1     -10.255  15.786  68.302  1.00  0.00    -0.225 C  
BRANCH   6   7
HETATM    7  C   UNL     1     -11.122  15.436  69.592  1.00  0.00    -0.280 A  
HETATM    8  C   UNL     1     -12.508  14.717  71.974  1.00  0.00    -0.410 A  
HETATM    9  C   UNL     1     -12.428  13.824  70.916  1.00  0.00    -0.451 A  
HETATM   10  C   UNL     1     -11.957  15.983  71.839  1.00  0.00    -0.606 A  
HETATM   11  C   UNL     1     -11.763  14.184  69.737  1.00  0.00    -0.370 A  
HETATM   12  C   UNL     1     -11.284  16.338  70.662  1.00  0.00    -0.310 A  
ENDBRANCH   6   7
BRANCH   6  13
HETATM   13  C   UNL     1     -10.949  15.244  66.996  1.00  0.00    -0.324 A  
HETATM   14  C   UNL     1     -10.730  15.878  65.748  1.00  0.00    -0.325 A  
HETATM   15  C   UNL     1     -11.397  15.471  64.588  1.00  0.00    -0.363 A  
HETATM   16  C   UNL     1     -12.280  14.401  64.627  1.00  0.00    -0.479 A  
HETATM   17  C   UNL     1     -11.810  14.136  66.992  1.00  0.00    -0.458 A  
HETATM   18  C   UNL     1     -12.478  13.723  65.830  1.00  0.00    -0.512 A  
ENDBRANCH   6  13
BRANCH   6  19
HETATM   19  C   UNL     1      -8.805  15.113  68.447  1.00  0.00    -0.174 C  
HETATM   20  C   UNL     1      -8.105  13.371  66.873  1.00  0.00     0.117 C  
HETATM   21  N   UNL     1      -8.261  12.730  68.176  1.00  0.00    -0.160 NA 
HETATM   22  C   UNL     1      -8.659  13.755  69.154  1.00  0.00     0.415 C  
HETATM   23  C   UNL     1      -8.026  14.864  67.144  1.00  0.00    -0.227 C  
BRANCH  21  24
HETATM   24  C   UNL     1      -9.179  11.575  68.175  1.00  0.00    -0.181 C  
BRANCH  24  25
HETATM   25  C   UNL     1      -8.661  10.342  68.939  1.00  0.00    -0.157 C  
BRANCH  25  26
HETATM   26  C   UNL     1      -9.641   9.877  70.001  1.00  0.00    -0.260 A  
HETATM   27  C   UNL     1     -10.968  10.327  69.977  1.00  0.00    -0.371 A  
HETATM   28  C   UNL     1     -11.850   9.862  70.943  1.00  0.00    -0.443 A  
HETATM   29  C   UNL     1     -11.435   8.963  71.906  1.00  0.00    -0.372 A  
HETATM   30  O   UNL     1     -12.425   8.575  72.768  1.00  0.00    -0.320 OA 
HETATM   31  C   UNL     1     -10.139   8.501  71.962  1.00  0.00    -0.386 A  
HETATM   32  C   UNL     1      -9.232   8.970  71.002  1.00  0.00    -0.331 A  
HETATM   33  C   UNL     1     -13.565   9.391  72.412  1.00  0.00    -0.429 C  
HETATM   34  C   UNL     1     -13.279  10.176  71.130  1.00  0.00    -0.438 C  
ENDBRANCH  25  26
ENDBRANCH  24  25
ENDBRANCH  21  24
ENDBRANCH   6  19
ENDBRANCH   2   6
TORSDOF 7
ENDMDL
MODEL       33
REMARK 921   NORMALIZED FREE ENERGY PREDICTED BY IDOCK:   -6.16 KCAL/MOL
REMARK 922        TOTAL FREE ENERGY PREDICTED BY IDOCK:  -10.46 KCAL/MOL
REMARK 923 INTER-LIGAND FREE ENERGY PREDICTED BY IDOCK:   -9.08 KCAL/MOL
REMARK 924 INTRA-LIGAND FREE ENERGY PREDICTED BY IDOCK:   -1.38 KCAL/MOL
REMARK 927      BINDING AFFINITY PREDICTED BY RF-SCORE:    0.00 PKD
ROOT
HETATM    1  N   UNL     1      -7.697  11.363  66.320  1.00  0.00    -0.356 N  
HETATM    2  C   UNL     1      -8.464  12.088  67.196  1.00  0.00    -0.180 C  
HETATM    3  H1  UNL     1      -8.122  10.512  65.951  1.00  0.00     0.000 HD 
HETATM    4  H2  UNL     1      -6.758  11.657  66.051  1.00  0.00     0.000 HD 
HETATM    5  O   UNL     1      -7.952  13.110  67.638  1.00  0.00    -0.147 OA 
ENDROOT
BRANCH   2   6
HETATM    6  C   UNL     1      -9.945  11.590  67.484  1.00  0.00    -0.207 C  
BRANCH   6   7
HETATM    7  C   UNL     1      -9.853  10.140  68.139  1.00  0.00    -0.164 A  
HETATM    8  C   UNL     1      -9.549   7.503  69.173  1.00  0.00    -0.157 A  
HETATM    9  C   UNL     1     -10.403   7.741  68.106  1.00  0.00    -0.248 A  
HETATM   10  C   UNL     1      -8.890   8.570  69.768  1.00  0.00    -0.137 A  
HETATM   11  C   UNL     1     -10.568   9.041  67.611  1.00  0.00    -0.298 A  
HETATM   12  C   UNL     1      -9.048   9.867  69.264  1.00  0.00    -0.196 A  
ENDBRANCH   6   7
BRANCH   6  13
HETATM   13  C   UNL     1     -10.644  12.604  68.464  1.00  0.00    -0.262 A  
HETATM   14  C   UNL     1     -11.563  12.147  69.440  1.00  0.00    -0.381 A  
HETATM   15  C   UNL     1     -12.262  13.032  70.268  1.00  0.00    -0.368 A  
HETATM   16  C   UNL     1     -12.046  14.399  70.170  1.00  0.00    -0.397 A  
HETATM   17  C   UNL     1     -10.413  13.989  68.424  1.00  0.00    -0.254 A  
HETATM   18  C   UNL     1     -11.109  14.879  69.254  1.00  0.00    -0.284 A  
ENDBRANCH   6  13
BRANCH   6  19
HETATM   19  C   UNL     1     -10.794  11.497  66.126  1.00  0.00    -0.330 C  
HETATM   20  C   UNL     1     -10.434  13.142  64.346  1.00  0.00    -0.407 C  
HETATM   21  N   UNL     1     -11.774  13.376  64.878  1.00  0.00    -0.337 NA 
HETATM   22  C   UNL     1     -12.034  12.386  65.935  1.00  0.00    -0.367 C  
HETATM   23  C   UNL     1     -10.030  11.754  64.815  1.00  0.00    -0.275 C  
BRANCH  21  24
HETATM   24  C   UNL     1     -12.010  14.757  65.337  1.00  0.00    -0.209 C  
BRANCH  24  25
HETATM   25  C   UNL     1     -11.104  15.816  64.682  1.00  0.00    -0.376 C  
BRANCH  25  26
HETATM   26  C   UNL     1     -10.209  16.506  65.696  1.00  0.00    -0.316 A  
HETATM   27  C   UNL     1     -10.659  17.651  66.367  1.00  0.00    -0.208 A  
HETATM   28  C   UNL     1      -9.831  18.244  67.310  1.00  0.00    -0.327 A  
HETATM   29  C   UNL     1      -8.588  17.712  67.593  1.00  0.00    -0.224 A  
HETATM   30  O   UNL     1      -7.902  18.389  68.566  1.00  0.00    -0.292 OA 
HETATM   31  C   UNL     1      -8.111  16.590  66.953  1.00  0.00    -0.254 A  
HETATM   32  C   UNL     1      -8.929  15.986  65.988  1.00  0.00    -0.345 A  
HETATM   33  C   UNL     1      -8.722  19.544  68.859  1.00  0.00    -0.249 C  
HETATM   34  C   UNL     1     -10.070  19.436  68.143  1.00  0.00    -0.526 C  
ENDBRANCH  25  26
ENDBRANCH  24  25
ENDBRANCH  21  24
ENDBRANCH   6  19
ENDBRANCH   2   6
TORSDOF 7
ENDMDL
MODEL       34
REMARK 921   NORMALIZED FREE ENERGY PREDICTED BY IDOCK:   -6.16 KCAL/MOL
REMARK 922        TOTAL FREE ENERGY PREDICTED BY IDOCK:  -10.46 KCAL/MOL
REMARK 923 INTER-LIGAND FREE ENERGY PREDICTED BY IDOCK:   -9.17 KCAL/MOL
REMARK 924 INTRA-LIGAND FREE ENERGY PREDICTED BY IDOCK:   -1.28 KCAL/MOL
REMARK 927      BINDING AFFINITY PREDICTED BY RF-SCORE:    0.00 PKD
ROOT
HETATM    1  N   UNL     1     -11.526   6.616  67.717  1.00  0.00    -0.658 N  
HETATM    2  C   UNL     1     -10.475   7.496  67.683  1.00  0.00    -0.250 C  
HETATM    3  H1  UNL     1     -11.936   6.445  68.635  1.00  0.00     0.000 HD 
HETATM    4  H2  UNL     1     -11.878   6.160  66.875  1.00  0.00     0.000 HD 
HETATM    5  O   UNL     1      -9.982   7.701  66.580  1.00  0.00    -0.219 OA 
ENDROOT
BRANCH   2   6
HETATM    6  C   UNL     1     -10.057   8.217  69.036  1.00  0.00    -0.211 C  
BRANCH   6   7
HETATM    7  C   UNL     1     -10.851   9.595  69.120  1.00  0.00    -0.212 A  
HETATM    8  C   UNL     1     -12.096  12.151  69.306  1.00  0.00    -0.234 A  
HETATM    9  C   UNL     1     -11.860  11.403  70.451  1.00  0.00    -0.428 A  
HETATM   10  C   UNL     1     -11.772  11.618  68.067  1.00  0.00    -0.351 A  
HETATM   11  C   UNL     1     -11.267  10.137  70.358  1.00  0.00    -0.402 A  
HETATM   12  C   UNL     1     -11.169  10.356  67.977  1.00  0.00    -0.340 A  
ENDBRANCH   6   7
BRANCH   6  13
HETATM   13  C   UNL     1     -10.425   7.283  70.249  1.00  0.00    -0.231 A  
HETATM   14  C   UNL     1      -9.518   6.291  70.696  1.00  0.00    -0.182 A  
HETATM   15  C   UNL     1      -9.851   5.393  71.715  1.00  0.00    -0.223 A  
HETATM   16  C   UNL     1     -11.086   5.472  72.342  1.00  0.00    -0.312 A  
HETATM   17  C   UNL     1     -11.647   7.367  70.935  1.00  0.00    -0.318 A  
HETATM   18  C   UNL     1     -11.983   6.471  71.960  1.00  0.00    -0.372 A  
ENDBRANCH   6  13
BRANCH   6  19
HETATM   19  C   UNL     1      -8.481   8.519  69.062  1.00  0.00    -0.126 C  
HETATM   20  C   UNL     1      -7.683  10.804  69.446  1.00  0.00    -0.102 C  
HETATM   21  N   UNL     1      -7.344  10.460  68.068  1.00  0.00    -0.085 NA 
HETATM   22  C   UNL     1      -7.788   9.081  67.810  1.00  0.00    -0.101 C  
HETATM   23  C   UNL     1      -7.982   9.489  70.147  1.00  0.00    -0.171 C  
BRANCH  21  24
HETATM   24  C   UNL     1      -7.860  11.408  67.063  1.00  0.00    -0.158 C  
BRANCH  24  25
HETATM   25  C   UNL     1      -8.414  10.753  65.785  1.00  0.00    -0.174 C  
BRANCH  25  26
HETATM   26  C   UNL     1      -9.539  11.566  65.169  1.00  0.00    -0.235 A  
HETATM   27  C   UNL     1      -9.638  12.939  65.430  1.00  0.00     0.063 A  
HETATM   28  C   UNL     1     -10.659  13.663  64.831  1.00  0.00    -0.421 A  
HETATM   29  C   UNL     1     -11.558  13.048  63.981  1.00  0.00    -0.430 A  
HETATM   30  O   UNL     1     -12.487  13.898  63.444  1.00  0.00    -0.833 OA 
HETATM   31  C   UNL     1     -11.493  11.700  63.703  1.00  0.00    -0.458 A  
HETATM   32  C   UNL     1     -10.476  10.951  64.310  1.00  0.00    -0.405 A  
HETATM   33  C   UNL     1     -12.249  15.165  64.100  1.00  0.00    -0.161 C  
HETATM   34  C   UNL     1     -10.972  15.100  64.940  1.00  0.00    -0.434 C  
ENDBRANCH  25  26
ENDBRANCH  24  25
ENDBRANCH  21  24
ENDBRANCH   6  19
ENDBRANCH   2   6
TORSDOF 7
ENDMDL
MODEL       35
REMARK 921   NORMALIZED FREE ENERGY PREDICTED BY IDOCK:   -6.09 KCAL/MOL
REMARK 922        TOTAL FREE ENERGY PREDICTED BY IDOCK:  -10.36 KCAL/MOL
REMARK 923 INTER-LIGAND FREE ENERGY PREDICTED BY IDOCK:   -9.47 KCAL/MOL
REMARK 924 INTRA-LIGAND FREE ENERGY PREDICTED BY IDOCK:   -0.89 KCAL/MOL
REMARK 927      BINDING AFFINITY PREDICTED BY RF-SCORE:    0.00 PKD
ROOT
HETATM    1  N   UNL     1     -10.613  18.008  67.755  1.00  0.00    -0.411 N  
HETATM    2  C   UNL     1      -9.708  17.034  68.092  1.00  0.00    -0.268 C  
HETATM    3  H1  UNL     1     -11.553  17.685  67.526  1.00  0.00     0.000 HD 
HETATM    4  H2  UNL     1     -10.361  18.996  67.733  1.00  0.00     0.000 HD 
HETATM    5  O   UNL     1      -8.578  17.422  68.366  1.00  0.00    -0.255 OA 
ENDROOT
BRANCH   2   6
HETATM    6  C   UNL     1     -10.220  15.532  68.176  1.00  0.00    -0.227 C  
BRANCH   6   7
HETATM    7  C   UNL     1     -11.167  15.411  69.451  1.00  0.00    -0.300 A  
HETATM    8  C   UNL     1     -12.935  15.375  71.684  1.00  0.00    -0.513 A  
HETATM    9  C   UNL     1     -11.695  15.987  71.785  1.00  0.00    -0.593 A  
HETATM   10  C   UNL     1     -13.282  14.731  70.505  1.00  0.00    -0.204 A  
HETATM   11  C   UNL     1     -10.816  15.987  70.693  1.00  0.00    -0.183 A  
HETATM   12  C   UNL     1     -12.407  14.742  69.411  1.00  0.00    -0.184 A  
ENDBRANCH   6   7
BRANCH   6  13
HETATM   13  C   UNL     1     -11.006  15.185  66.857  1.00  0.00    -0.323 A  
HETATM   14  C   UNL     1     -11.996  14.171  66.854  1.00  0.00    -0.479 A  
HETATM   15  C   UNL     1     -12.652  13.784  65.681  1.00  0.00    -0.551 A  
HETATM   16  C   UNL     1     -12.364  14.413  64.478  1.00  0.00    -0.440 A  
HETATM   17  C   UNL     1     -10.773  15.834  65.634  1.00  0.00    -0.360 A  
HETATM   18  C   UNL     1     -11.430  15.451  64.456  1.00  0.00    -0.314 A  
ENDBRANCH   6  13
BRANCH   6  19
HETATM   19  C   UNL     1      -8.989  14.515  68.340  1.00  0.00    -0.186 C  
HETATM   20  C   UNL     1      -8.761  12.617  66.807  1.00  0.00    -0.134 C  
HETATM   21  N   UNL     1      -9.073  12.066  68.123  1.00  0.00    -0.187 NA 
HETATM   22  C   UNL     1      -9.192  13.180  69.077  1.00  0.00     0.468 C  
HETATM   23  C   UNL     1      -8.303  14.046  67.046  1.00  0.00    -0.127 C  
BRANCH  21  24
HETATM   24  C   UNL     1     -10.254  11.184  68.145  1.00  0.00    -0.181 C  
BRANCH  24  25
HETATM   25  C   UNL     1     -11.319  11.562  69.192  1.00  0.00    -0.351 C  
BRANCH  25  26
HETATM   26  C   UNL     1     -11.451  10.508  70.276  1.00  0.00    -0.416 A  
HETATM   27  C   UNL     1     -10.335   9.756  70.665  1.00  0.00    -0.330 A  
HETATM   28  C   UNL     1     -10.477   8.819  71.678  1.00  0.00    -0.387 A  
HETATM   29  C   UNL     1     -11.694   8.636  72.306  1.00  0.00    -0.358 A  
HETATM   30  O   UNL     1     -11.670   7.701  73.306  1.00  0.00    -0.142 OA 
HETATM   31  C   UNL     1     -12.814   9.355  71.950  1.00  0.00    -0.497 A  
HETATM   32  C   UNL     1     -12.690  10.296  70.918  1.00  0.00    -0.462 A  
HETATM   33  C   UNL     1     -10.342   7.130  73.244  1.00  0.00    -0.327 C  
HETATM   34  C   UNL     1      -9.469   7.917  72.264  1.00  0.00    -0.248 C  
ENDBRANCH  25  26
ENDBRANCH  24  25
ENDBRANCH  21  24
ENDBRANCH   6  19
ENDBRANCH   2   6
TORSDOF 7
ENDMDL
MODEL       36
REMARK 921   NORMALIZED FREE ENERGY PREDICTED BY IDOCK:   -6.07 KCAL/MOL
REMARK 922        TOTAL FREE ENERGY PREDICTED BY IDOCK:  -10.34 KCAL/MOL
REMARK 923 INTER-LIGAND FREE ENERGY PREDICTED BY IDOCK:   -9.15 KCAL/MOL
REMARK 924 INTRA-LIGAND FREE ENERGY PREDICTED BY IDOCK:   -1.19 KCAL/MOL
REMARK 927      BINDING AFFINITY PREDICTED BY RF-SCORE:    0.00 PKD
ROOT
HETATM    1  N   UNL     1     -10.674  14.153  64.438  1.00  0.00    -0.604 N  
HETATM    2  C   UNL     1     -11.328  14.541  65.579  1.00  0.00    -0.335 C  
HETATM    3  H1  UNL     1      -9.655  14.156  64.483  1.00  0.00     0.000 HD 
HETATM    4  H2  UNL     1     -11.176  13.878  63.594  1.00  0.00     0.000 HD 
HETATM    5  O   UNL     1     -12.552  14.537  65.525  1.00  0.00    -0.338 OA 
ENDROOT
BRANCH   2   6
HETATM    6  C   UNL     1     -10.456  14.870  66.867  1.00  0.00    -0.280 C  
BRANCH   6   7
HETATM    7  C   UNL     1     -10.347  16.455  66.989  1.00  0.00    -0.293 A  
HETATM    8  C   UNL     1     -10.353  19.295  67.218  1.00  0.00    -0.538 A  
HETATM    9  C   UNL     1     -10.511  18.693  65.978  1.00  0.00    -0.456 A  
HETATM   10  C   UNL     1     -10.134  18.502  68.335  1.00  0.00    -0.423 A  
HETATM   11  C   UNL     1     -10.488  17.297  65.862  1.00  0.00    -0.267 A  
HETATM   12  C   UNL     1     -10.122  17.106  68.219  1.00  0.00    -0.314 A  
ENDBRANCH   6   7
BRANCH   6  13
HETATM   13  C   UNL     1     -11.161  14.257  68.133  1.00  0.00    -0.275 A  
HETATM   14  C   UNL     1     -11.376  15.045  69.291  1.00  0.00    -0.311 A  
HETATM   15  C   UNL     1     -11.924  14.506  70.460  1.00  0.00    -0.387 A  
HETATM   16  C   UNL     1     -12.303  13.172  70.503  1.00  0.00    -0.380 A  
HETATM   17  C   UNL     1     -11.600  12.925  68.195  1.00  0.00    -0.378 A  
HETATM   18  C   UNL     1     -12.152  12.381  69.363  1.00  0.00    -0.237 A  
ENDBRANCH   6  13
BRANCH   6  19
HETATM   19  C   UNL     1      -8.980  14.254  66.734  1.00  0.00    -0.249 C  
HETATM   20  C   UNL     1      -7.901  13.238  68.686  1.00  0.00    -0.063 C  
HETATM   21  N   UNL     1      -7.155  14.453  68.371  1.00  0.00    -0.097 NA 
HETATM   22  C   UNL     1      -7.762  15.078  67.185  1.00  0.00    -0.167 C  
HETATM   23  C   UNL     1      -8.724  12.916  67.449  1.00  0.00    -0.197 C  
BRANCH  21  24
HETATM   24  C   UNL     1      -7.034  15.397  69.497  1.00  0.00    -0.188 C  
BRANCH  24  25
HETATM   25  C   UNL     1      -5.772  16.279  69.464  1.00  0.00    -0.147 C  
BRANCH  25  26
HETATM   26  C   UNL     1      -6.056  17.660  68.902  1.00  0.00    -0.197 A  
HETATM   27  C   UNL     1      -6.307  17.823  67.533  1.00  0.00    -0.179 A  
HETATM   28  C   UNL     1      -6.592  19.093  67.050  1.00  0.00    -0.200 A  
HETATM   29  C   UNL     1      -6.641  20.179  67.903  1.00  0.00    -0.263 A  
HETATM   30  O   UNL     1      -6.965  21.357  67.285  1.00  0.00    -0.573 OA 
HETATM   31  C   UNL     1      -6.398  20.057  69.253  1.00  0.00    -0.365 A  
HETATM   32  C   UNL     1      -6.095  18.784  69.755  1.00  0.00    -0.260 A  
HETATM   33  C   UNL     1      -7.011  21.033  65.876  1.00  0.00     0.126 C  
HETATM   34  C   UNL     1      -6.892  19.522  65.672  1.00  0.00    -0.313 C  
ENDBRANCH  25  26
ENDBRANCH  24  25
ENDBRANCH  21  24
ENDBRANCH   6  19
ENDBRANCH   2   6
TORSDOF 7
ENDMDL
MODEL       37
REMARK 921   NORMALIZED FREE ENERGY PREDICTED BY IDOCK:   -6.07 KCAL/MOL
REMARK 922        TOTAL FREE ENERGY PREDICTED BY IDOCK:  -10.34 KCAL/MOL
REMARK 923 INTER-LIGAND FREE ENERGY PREDICTED BY IDOCK:   -9.61 KCAL/MOL
REMARK 924 INTRA-LIGAND FREE ENERGY PREDICTED BY IDOCK:   -0.72 KCAL/MOL
REMARK 927      BINDING AFFINITY PREDICTED BY RF-SCORE:    0.00 PKD
ROOT
HETATM    1  N   UNL     1      -7.949  15.608  66.687  1.00  0.00    -0.272 N  
HETATM    2  C   UNL     1      -8.984  14.844  67.161  1.00  0.00    -0.214 C  
HETATM    3  H1  UNL     1      -8.195  16.541  66.358  1.00  0.00     0.000 HD 
HETATM    4  H2  UNL     1      -6.988  15.264  66.666  1.00  0.00     0.000 HD 
HETATM    5  O   UNL     1      -8.688  13.723  67.556  1.00  0.00    -0.171 OA 
ENDROOT
BRANCH   2   6
HETATM    6  C   UNL     1     -10.430  15.502  67.229  1.00  0.00    -0.279 C  
BRANCH   6   7
HETATM    7  C   UNL     1     -11.142  14.976  68.554  1.00  0.00    -0.279 A  
HETATM    8  C   UNL     1     -12.585  14.016  70.814  1.00  0.00    -0.431 A  
HETATM    9  C   UNL     1     -12.628  15.361  70.478  1.00  0.00    -0.471 A  
HETATM   10  C   UNL     1     -11.787  13.155  70.075  1.00  0.00    -0.360 A  
HETATM   11  C   UNL     1     -11.903  15.837  69.378  1.00  0.00    -0.361 A  
HETATM   12  C   UNL     1     -11.071  13.631  68.969  1.00  0.00    -0.295 A  
ENDBRANCH   6   7
BRANCH   6  13
HETATM   13  C   UNL     1     -10.279  17.069  67.257  1.00  0.00    -0.310 A  
HETATM   14  C   UNL     1      -9.801  17.726  68.418  1.00  0.00    -0.347 A  
HETATM   15  C   UNL     1      -9.735  19.120  68.502  1.00  0.00    -0.467 A  
HETATM   16  C   UNL     1     -10.114  19.905  67.422  1.00  0.00    -0.567 A  
HETATM   17  C   UNL     1     -10.608  17.888  66.167  1.00  0.00    -0.243 A  
HETATM   18  C   UNL     1     -10.541  19.287  66.245  1.00  0.00    -0.545 A  
ENDBRANCH   6  13
BRANCH   6  19
HETATM   19  C   UNL     1     -11.313  15.079  65.958  1.00  0.00    -0.270 C  
HETATM   20  C   UNL     1     -12.034  12.752  65.691  1.00  0.00    -0.452 C  
HETATM   21  N   UNL     1     -11.075  13.027  64.624  1.00  0.00    -0.316 NA 
HETATM   22  C   UNL     1     -10.639  14.427  64.739  1.00  0.00    -0.393 C  
HETATM   23  C   UNL     1     -12.477  14.108  66.218  1.00  0.00    -0.395 C  
BRANCH  21  24
HETATM   24  C   UNL     1      -9.936  12.091  64.579  1.00  0.00    -0.213 C  
BRANCH  24  25
HETATM   25  C   UNL     1     -10.327  10.601  64.605  1.00  0.00    -0.353 C  
BRANCH  25  26
HETATM   26  C   UNL     1      -9.827   9.903  65.857  1.00  0.00    -0.342 A  
HETATM   27  C   UNL     1      -9.223   8.642  65.766  1.00  0.00    -0.245 A  
HETATM   28  C   UNL     1      -8.750   8.040  66.923  1.00  0.00    -0.136 A  
HETATM   29  C   UNL     1      -8.859   8.674  68.145  1.00  0.00    -0.142 A  
HETATM   30  O   UNL     1      -8.318   7.969  69.187  1.00  0.00    -0.128 OA 
HETATM   31  C   UNL     1      -9.448   9.912  68.275  1.00  0.00    -0.147 A  
HETATM   32  C   UNL     1      -9.944  10.529  67.118  1.00  0.00    -0.234 A  
HETATM   33  C   UNL     1      -7.929   6.701  68.612  1.00  0.00    -0.118 C  
HETATM   34  C   UNL     1      -8.081   6.737  67.090  1.00  0.00    -0.117 C  
ENDBRANCH  25  26
ENDBRANCH  24  25
ENDBRANCH  21  24
ENDBRANCH   6  19
ENDBRANCH   2   6
TORSDOF 7
ENDMDL
MODEL       38
REMARK 921   NORMALIZED FREE ENERGY PREDICTED BY IDOCK:   -6.05 KCAL/MOL
REMARK 922        TOTAL FREE ENERGY PREDICTED BY IDOCK:  -10.31 KCAL/MOL
REMARK 923 INTER-LIGAND FREE ENERGY PREDICTED BY IDOCK:   -8.21 KCAL/MOL
REMARK 924 INTRA-LIGAND FREE ENERGY PREDICTED BY IDOCK:   -2.10 KCAL/MOL
REMARK 927      BINDING AFFINITY PREDICTED BY RF-SCORE:    0.00 PKD
ROOT
HETATM    1  N   UNL     1      -8.897   7.425  67.586  1.00  0.00    -0.128 N  
HETATM    2  C   UNL     1      -8.407   8.636  68.003  1.00  0.00    -0.123 C  
HETATM    3  H1  UNL     1      -9.857   7.426  67.243  1.00  0.00     0.000 HD 
HETATM    4  H2  UNL     1      -8.335   6.574  67.616  1.00  0.00     0.000 HD 
HETATM    5  O   UNL     1      -7.252   8.635  68.415  1.00  0.00    -0.082 OA 
ENDROOT
BRANCH   2   6
HETATM    6  C   UNL     1      -9.333   9.917  67.838  1.00  0.00    -0.149 C  
BRANCH   6   7
HETATM    7  C   UNL     1     -10.374   9.925  69.044  1.00  0.00    -0.224 A  
HETATM    8  C   UNL     1     -12.139  10.101  71.273  1.00  0.00    -0.489 A  
HETATM    9  C   UNL     1     -10.928   9.436  71.392  1.00  0.00    -0.443 A  
HETATM   10  C   UNL     1     -12.507  10.629  70.044  1.00  0.00    -0.294 A  
HETATM   11  C   UNL     1     -10.069   9.331  70.290  1.00  0.00    -0.262 A  
HETATM   12  C   UNL     1     -11.641  10.533  68.946  1.00  0.00    -0.266 A  
ENDBRANCH   6   7
BRANCH   6  13
HETATM   13  C   UNL     1      -8.432  11.207  67.865  1.00  0.00    -0.131 A  
HETATM   14  C   UNL     1      -8.915  12.411  68.435  1.00  0.00    -0.133 A  
HETATM   15  C   UNL     1      -8.171  13.595  68.399  1.00  0.00    -0.146 A  
HETATM   16  C   UNL     1      -6.909  13.611  67.822  1.00  0.00    -0.175 A  
HETATM   17  C   UNL     1      -7.134  11.245  67.333  1.00  0.00    -0.109 A  
HETATM   18  C   UNL     1      -6.383  12.429  67.298  1.00  0.00    -0.142 A  
ENDBRANCH   6  13
BRANCH   6  19
HETATM   19  C   UNL     1     -10.141   9.866  66.452  1.00  0.00    -0.308 C  
HETATM   20  C   UNL     1      -9.287  11.072  64.497  1.00  0.00    -0.198 C  
HETATM   21  N   UNL     1     -10.519  11.741  64.906  1.00  0.00    -0.273 NA 
HETATM   22  C   UNL     1     -11.074  11.026  66.066  1.00  0.00     0.017 C  
HETATM   23  C   UNL     1      -9.303   9.709  65.170  1.00  0.00    -0.322 C  
BRANCH  21  24
HETATM   24  C   UNL     1     -10.366  13.185  65.163  1.00  0.00    -0.311 C  
BRANCH  24  25
HETATM   25  C   UNL     1     -11.668  13.911  65.549  1.00  0.00    -0.356 C  
BRANCH  25  26
HETATM   26  C   UNL     1     -11.556  14.606  66.893  1.00  0.00    -0.374 A  
HETATM   27  C   UNL     1     -12.024  13.975  68.053  1.00  0.00    -0.386 A  
HETATM   28  C   UNL     1     -11.883  14.622  69.272  1.00  0.00    -0.357 A  
HETATM   29  C   UNL     1     -11.280  15.862  69.349  1.00  0.00    -0.336 A  
HETATM   30  O   UNL     1     -11.185  16.357  70.622  1.00  0.00    -0.358 OA 
HETATM   31  C   UNL     1     -10.809  16.515  68.231  1.00  0.00    -0.352 A  
HETATM   32  C   UNL     1     -10.957  15.881  66.989  1.00  0.00    -0.189 A  
HETATM   33  C   UNL     1     -11.904  15.406  71.441  1.00  0.00    -0.384 C  
HETATM   34  C   UNL     1     -12.284  14.174  70.619  1.00  0.00    -0.432 C  
ENDBRANCH  25  26
ENDBRANCH  24  25
ENDBRANCH  21  24
ENDBRANCH   6  19
ENDBRANCH   2   6
TORSDOF 7
ENDMDL
MODEL       39
REMARK 921   NORMALIZED FREE ENERGY PREDICTED BY IDOCK:   -6.00 KCAL/MOL
REMARK 922        TOTAL FREE ENERGY PREDICTED BY IDOCK:  -10.24 KCAL/MOL
REMARK 923 INTER-LIGAND FREE ENERGY PREDICTED BY IDOCK:   -9.14 KCAL/MOL
REMARK 924 INTRA-LIGAND FREE ENERGY PREDICTED BY IDOCK:   -1.11 KCAL/MOL
REMARK 927      BINDING AFFINITY PREDICTED BY RF-SCORE:    0.00 PKD
ROOT
HETATM    1  N   UNL     1     -12.177  14.842  64.012  1.00  0.00    -0.967 N  
HETATM    2  C   UNL     1     -12.285  14.322  65.276  1.00  0.00    -0.414 C  
HETATM    3  H1  UNL     1     -11.236  15.092  63.709  1.00  0.00     0.000 HD 
HETATM    4  H2  UNL     1     -12.990  14.971  63.409  1.00  0.00     0.000 HD 
HETATM    5  O   UNL     1     -13.416  14.023  65.639  1.00  0.00    -0.604 OA 
ENDROOT
BRANCH   2   6
HETATM    6  C   UNL     1     -10.950  14.084  66.104  1.00  0.00    -0.295 C  
BRANCH   6   7
HETATM    7  C   UNL     1     -10.288  15.506  66.384  1.00  0.00    -0.303 A  
HETATM    8  C   UNL     1      -9.127  18.090  66.688  1.00  0.00    -0.290 A  
HETATM    9  C   UNL     1      -8.343  17.012  66.304  1.00  0.00    -0.308 A  
HETATM   10  C   UNL     1     -10.468  17.886  66.978  1.00  0.00    -0.345 A  
HETATM   11  C   UNL     1      -8.909  15.737  66.175  1.00  0.00    -0.346 A  
HETATM   12  C   UNL     1     -11.036  16.612  66.837  1.00  0.00     0.050 A  
ENDBRANCH   6   7
BRANCH   6  13
HETATM   13  C   UNL     1     -11.307  13.356  67.454  1.00  0.00    -0.338 A  
HETATM   14  C   UNL     1     -10.893  13.898  68.695  1.00  0.00    -0.278 A  
HETATM   15  C   UNL     1     -11.123  13.232  69.904  1.00  0.00     0.183 A  
HETATM   16  C   UNL     1     -11.800  12.020  69.917  1.00  0.00    -0.405 A  
HETATM   17  C   UNL     1     -12.030  12.154  67.506  1.00  0.00    -0.175 A  
HETATM   18  C   UNL     1     -12.265  11.485  68.716  1.00  0.00    -0.071 A  
ENDBRANCH   6  13
BRANCH   6  19
HETATM   19  C   UNL     1      -9.914  13.180  65.275  1.00  0.00    -0.184 C  
HETATM   20  C   UNL     1     -10.436  10.829  64.824  1.00  0.00    -0.265 C  
HETATM   21  N   UNL     1      -9.303  10.845  65.746  1.00  0.00    -0.195 NA 
HETATM   22  C   UNL     1      -8.946  12.246  66.020  1.00  0.00     0.066 C  
HETATM   23  C   UNL     1     -10.515  12.225  64.229  1.00  0.00    -0.375 C  
BRANCH  21  24
HETATM   24  C   UNL     1      -9.520  10.073  66.984  1.00  0.00    -0.164 C  
BRANCH  24  25
HETATM   25  C   UNL     1      -9.937   8.607  66.763  1.00  0.00    -0.343 C  
BRANCH  25  26
HETATM   26  C   UNL     1     -10.370   7.937  68.055  1.00  0.00    -0.264 A  
HETATM   27  C   UNL     1     -10.398   8.668  69.250  1.00  0.00    -0.228 A  
HETATM   28  C   UNL     1     -10.825   8.038  70.410  1.00  0.00    -0.247 A  
HETATM   29  C   UNL     1     -11.229   6.717  70.390  1.00  0.00    -0.344 A  
HETATM   30  O   UNL     1     -11.653   6.246  71.605  1.00  0.00    -0.297 OA 
HETATM   31  C   UNL     1     -11.213   5.967  69.235  1.00  0.00    -0.367 A  
HETATM   32  C   UNL     1     -10.772   6.584  68.057  1.00  0.00    -0.351 A  
HETATM   33  C   UNL     1     -11.385   7.324  72.531  1.00  0.00    -0.296 C  
HETATM   34  C   UNL     1     -10.948   8.581  71.776  1.00  0.00    -0.376 C  
ENDBRANCH  25  26
ENDBRANCH  24  25
ENDBRANCH  21  24
ENDBRANCH   6  19
ENDBRANCH   2   6
TORSDOF 7
ENDMDL
MODEL       40
REMARK 921   NORMALIZED FREE ENERGY PREDICTED BY IDOCK:   -5.99 KCAL/MOL
REMARK 922        TOTAL FREE ENERGY PREDICTED BY IDOCK:  -10.22 KCAL/MOL
REMARK 923 INTER-LIGAND FREE ENERGY PREDICTED BY IDOCK:   -8.86 KCAL/MOL
REMARK 924 INTRA-LIGAND FREE ENERGY PREDICTED BY IDOCK:   -1.35 KCAL/MOL
REMARK 927      BINDING AFFINITY PREDICTED BY RF-SCORE:    0.00 PKD
ROOT
HETATM    1  N   UNL     1      -7.687  11.352  65.812  1.00  0.00    -0.353 N  
HETATM    2  C   UNL     1      -8.470  11.573  66.915  1.00  0.00    -0.165 C  
HETATM    3  H1  UNL     1      -7.820  11.996  65.033  1.00  0.00     0.000 HD 
HETATM    4  H2  UNL     1      -7.011  10.589  65.772  1.00  0.00     0.000 HD 
HETATM    5  O   UNL     1      -8.310  10.799  67.852  1.00  0.00    -0.114 OA 
ENDROOT
BRANCH   2   6
HETATM    6  C   UNL     1      -9.432  12.839  66.910  1.00  0.00    -0.235 C  
BRANCH   6   7
HETATM    7  C   UNL     1      -8.520  14.145  66.938  1.00  0.00    -0.117 A  
HETATM    8  C   UNL     1      -6.787  16.404  66.833  1.00  0.00    -0.231 A  
HETATM    9  C   UNL     1      -6.410  15.266  67.531  1.00  0.00    -0.129 A  
HETATM   10  C   UNL     1      -8.039  16.452  66.236  1.00  0.00    -0.311 A  
HETATM   11  C   UNL     1      -7.271  14.162  67.601  1.00  0.00    -0.195 A  
HETATM   12  C   UNL     1      -8.893  15.343  66.297  1.00  0.00    -0.302 A  
ENDBRANCH   6   7
BRANCH   6  13
HETATM   13  C   UNL     1     -10.319  12.802  65.610  1.00  0.00    -0.296 A  
HETATM   14  C   UNL     1     -10.861  13.995  65.074  1.00  0.00    -0.401 A  
HETATM   15  C   UNL     1     -11.720  13.985  63.970  1.00  0.00    -0.276 A  
HETATM   16  C   UNL     1     -12.042  12.788  63.346  1.00  0.00    -0.619 A  
HETATM   17  C   UNL     1     -10.626  11.614  64.927  1.00  0.00    -0.349 A  
HETATM   18  C   UNL     1     -11.484  11.599  63.818  1.00  0.00    -0.457 A  
ENDBRANCH   6  13
BRANCH   6  19
HETATM   19  C   UNL     1     -10.386  12.840  68.200  1.00  0.00    -0.243 C  
HETATM   20  C   UNL     1     -12.113  14.562  68.440  1.00  0.00    -0.214 C  
HETATM   21  N   UNL     1     -11.118  14.808  69.481  1.00  0.00    -0.270 NA 
HETATM   22  C   UNL     1     -10.075  13.774  69.382  1.00  0.00     0.402 C  
HETATM   23  C   UNL     1     -11.875  13.140  67.957  1.00  0.00    -0.398 C  
BRANCH  21  24
HETATM   24  C   UNL     1     -10.554  16.170  69.468  1.00  0.00    -0.306 C  
BRANCH  24  25
HETATM   25  C   UNL     1     -11.228  17.137  68.477  1.00  0.00     0.055 C  
BRANCH  25  26
HETATM   26  C   UNL     1     -10.297  18.257  68.050  1.00  0.00    -0.410 A  
HETATM   27  C   UNL     1      -9.079  18.451  68.716  1.00  0.00    -0.268 A  
HETATM   28  C   UNL     1      -8.235  19.464  68.286  1.00  0.00    -0.372 A  
HETATM   29  C   UNL     1      -8.578  20.263  67.213  1.00  0.00    -0.347 A  
HETATM   30  O   UNL     1      -7.630  21.197  66.889  1.00  0.00    -0.205 OA 
HETATM   31  C   UNL     1      -9.766  20.104  66.536  1.00  0.00    -0.553 A  
HETATM   32  C   UNL     1     -10.637  19.093  66.965  1.00  0.00    -0.551 A  
HETATM   33  C   UNL     1      -6.627  21.078  67.924  1.00  0.00    -0.280 C  
HETATM   34  C   UNL     1      -6.915  19.864  68.809  1.00  0.00    -0.352 C  
ENDBRANCH  25  26
ENDBRANCH  24  25
ENDBRANCH  21  24
ENDBRANCH   6  19
ENDBRANCH   2   6
TORSDOF 7
ENDMDL
MODEL       41
REMARK 921   NORMALIZED FREE ENERGY PREDICTED BY IDOCK:   -5.98 KCAL/MOL
REMARK 922        TOTAL FREE ENERGY PREDICTED BY IDOCK:  -10.21 KCAL/MOL
REMARK 923 INTER-LIGAND FREE ENERGY PREDICTED BY IDOCK:   -8.77 KCAL/MOL
REMARK 924 INTRA-LIGAND FREE ENERGY PREDICTED BY IDOCK:   -1.44 KCAL/MOL
REMARK 927      BINDING AFFINITY PREDICTED BY RF-SCORE:    0.00 PKD
ROOT
HETATM    1  N   UNL     1     -10.951   7.996  66.715  1.00  0.00    -0.292 N  
HETATM    2  C   UNL     1      -9.755   8.668  66.709  1.00  0.00    -0.233 C  
HETATM    3  H1  UNL     1     -11.760   8.525  67.040  1.00  0.00     0.000 HD 
HETATM    4  H2  UNL     1     -11.026   7.024  66.413  1.00  0.00     0.000 HD 
HETATM    5  O   UNL     1      -8.783   8.032  66.319  1.00  0.00    -0.136 OA 
ENDROOT
BRANCH   2   6
HETATM    6  C   UNL     1      -9.758  10.204  67.120  1.00  0.00    -0.214 C  
BRANCH   6   7
HETATM    7  C   UNL     1     -10.490  11.017  65.962  1.00  0.00    -0.304 A  
HETATM    8  C   UNL     1     -11.936  12.324  63.884  1.00  0.00    -0.582 A  
HETATM    9  C   UNL     1     -10.990  11.357  63.576  1.00  0.00    -0.406 A  
HETATM   10  C   UNL     1     -12.128  12.689  65.209  1.00  0.00    -0.519 A  
HETATM   11  C   UNL     1     -10.264  10.729  64.596  1.00  0.00    -0.419 A  
HETATM   12  C   UNL     1     -11.409  12.051  66.229  1.00  0.00    -0.415 A  
ENDBRANCH   6   7
BRANCH   6  13
HETATM   13  C   UNL     1     -10.519  10.366  68.488  1.00  0.00    -0.210 A  
HETATM   14  C   UNL     1     -10.519   9.320  69.442  1.00  0.00    -0.229 A  
HETATM   15  C   UNL     1     -11.254   9.402  70.629  1.00  0.00    -0.345 A  
HETATM   16  C   UNL     1     -11.990  10.543  70.917  1.00  0.00    -0.481 A  
HETATM   17  C   UNL     1     -11.234  11.524  68.832  1.00  0.00    -0.308 A  
HETATM   18  C   UNL     1     -11.971  11.613  70.021  1.00  0.00    -0.429 A  
ENDBRANCH   6  13
BRANCH   6  19
HETATM   19  C   UNL     1      -8.260  10.757  67.280  1.00  0.00    -0.121 C  
HETATM   20  C   UNL     1      -7.774  12.503  68.930  1.00  0.00     0.085 C  
HETATM   21  N   UNL     1      -7.590  13.101  67.610  1.00  0.00    -0.156 NA 
HETATM   22  C   UNL     1      -7.851  12.070  66.592  1.00  0.00     0.040 C  
HETATM   23  C   UNL     1      -7.763  10.998  68.716  1.00  0.00    -0.135 C  
BRANCH  21  24
HETATM   24  C   UNL     1      -8.386  14.321  67.383  1.00  0.00    -0.198 C  
BRANCH  24  25
HETATM   25  C   UNL     1      -8.526  15.236  68.614  1.00  0.00    -0.168 C  
BRANCH  25  26
HETATM   26  C   UNL     1      -9.943  15.247  69.158  1.00  0.00    -0.238 A  
HETATM   27  C   UNL     1     -10.169  15.452  70.525  1.00  0.00     0.082 A  
HETATM   28  C   UNL     1     -11.476  15.485  70.991  1.00  0.00    -0.426 A  
HETATM   29  C   UNL     1     -12.540  15.331  70.123  1.00  0.00    -0.296 A  
HETATM   30  O   UNL     1     -13.767  15.419  70.725  1.00  0.00    -0.394 OA 
HETATM   31  C   UNL     1     -12.356  15.125  68.773  1.00  0.00     0.027 A  
HETATM   32  C   UNL     1     -11.042  15.076  68.288  1.00  0.00    -0.292 A  
HETATM   33  C   UNL     1     -13.477  15.517  72.139  1.00  0.00    -0.490 C  
HETATM   34  C   UNL     1     -11.973  15.688  72.364  1.00  0.00    -0.569 C  
ENDBRANCH  25  26
ENDBRANCH  24  25
ENDBRANCH  21  24
ENDBRANCH   6  19
ENDBRANCH   2   6
TORSDOF 7
ENDMDL
MODEL       42
REMARK 921   NORMALIZED FREE ENERGY PREDICTED BY IDOCK:   -5.97 KCAL/MOL
REMARK 922        TOTAL FREE ENERGY PREDICTED BY IDOCK:  -10.18 KCAL/MOL
REMARK 923 INTER-LIGAND FREE ENERGY PREDICTED BY IDOCK:   -9.75 KCAL/MOL
REMARK 924 INTRA-LIGAND FREE ENERGY PREDICTED BY IDOCK:   -0.43 KCAL/MOL
REMARK 927      BINDING AFFINITY PREDICTED BY RF-SCORE:    0.00 PKD
ROOT
HETATM    1  N   UNL     1     -11.332  12.127  69.662  1.00  0.00    -0.464 N  
HETATM    2  C   UNL     1     -11.208  11.768  68.344  1.00  0.00    -0.251 C  
HETATM    3  H1  UNL     1     -10.791  12.939  69.957  1.00  0.00     0.000 HD 
HETATM    4  H2  UNL     1     -11.929  11.612  70.309  1.00  0.00     0.000 HD 
HETATM    5  O   UNL     1     -11.858  10.791  67.990  1.00  0.00    -0.546 OA 
ENDROOT
BRANCH   2   6
HETATM    6  C   UNL     1     -10.317  12.684  67.399  1.00  0.00    -0.224 C  
BRANCH   6   7
HETATM    7  C   UNL     1     -10.988  12.691  65.953  1.00  0.00    -0.310 A  
HETATM    8  C   UNL     1     -12.202  12.502  63.383  1.00  0.00    -0.613 A  
HETATM    9  C   UNL     1     -10.833  12.324  63.524  1.00  0.00    -0.508 A  
HETATM   10  C   UNL     1     -12.963  12.829  64.496  1.00  0.00    -0.210 A  
HETATM   11  C   UNL     1     -10.233  12.437  64.785  1.00  0.00    -0.303 A  
HETATM   12  C   UNL     1     -12.362  12.931  65.758  1.00  0.00    -0.437 A  
ENDBRANCH   6   7
BRANCH   6  13
HETATM   13  C   UNL     1     -10.264  14.139  67.998  1.00  0.00    -0.232 A  
HETATM   14  C   UNL     1     -11.427  14.739  68.539  1.00  0.00    -0.330 A  
HETATM   15  C   UNL     1     -11.430  16.059  69.003  1.00  0.00    -0.360 A  
HETATM   16  C   UNL     1     -10.266  16.814  68.970  1.00  0.00    -0.310 A  
HETATM   17  C   UNL     1      -9.093  14.913  68.024  1.00  0.00    -0.180 A  
HETATM   18  C   UNL     1      -9.090  16.235  68.490  1.00  0.00    -0.216 A  
ENDBRANCH   6  13
BRANCH   6  19
HETATM   19  C   UNL     1      -8.825  12.107  67.280  1.00  0.00    -0.186 C  
HETATM   20  C   UNL     1      -8.422   9.703  67.539  1.00  0.00    -0.125 C  
HETATM   21  N   UNL     1      -7.811  10.364  68.689  1.00  0.00    -0.102 NA 
HETATM   22  C   UNL     1      -8.013  11.815  68.554  1.00  0.00    -0.145 C  
HETATM   23  C   UNL     1      -8.654  10.791  66.502  1.00  0.00    -0.150 C  
BRANCH  21  24
HETATM   24  C   UNL     1      -8.274   9.857  69.994  1.00  0.00    -0.168 C  
BRANCH  24  25
HETATM   25  C   UNL     1      -8.598   8.352  70.021  1.00  0.00    -0.131 C  
BRANCH  25  26
HETATM   26  C   UNL     1     -10.011   8.081  70.506  1.00  0.00    -0.193 A  
HETATM   27  C   UNL     1     -10.782   9.123  71.039  1.00  0.00    -0.363 A  
HETATM   28  C   UNL     1     -12.080   8.853  71.449  1.00  0.00    -0.381 A  
HETATM   29  C   UNL     1     -12.612   7.584  71.324  1.00  0.00    -0.314 A  
HETATM   30  O   UNL     1     -13.912   7.482  71.742  1.00  0.00    -0.376 OA 
HETATM   31  C   UNL     1     -11.883   6.536  70.807  1.00  0.00    -0.394 A  
HETATM   32  C   UNL     1     -10.566   6.787  70.401  1.00  0.00    -0.262 A  
HETATM   33  C   UNL     1     -14.220   8.778  72.307  1.00  0.00    -0.420 C  
HETATM   34  C   UNL     1     -13.083   9.764  72.031  1.00  0.00    -0.546 C  
ENDBRANCH  25  26
ENDBRANCH  24  25
ENDBRANCH  21  24
ENDBRANCH   6  19
ENDBRANCH   2   6
TORSDOF 7
ENDMDL
MODEL       43
REMARK 921   NORMALIZED FREE ENERGY PREDICTED BY IDOCK:   -5.95 KCAL/MOL
REMARK 922        TOTAL FREE ENERGY PREDICTED BY IDOCK:  -10.17 KCAL/MOL
REMARK 923 INTER-LIGAND FREE ENERGY PREDICTED BY IDOCK:   -8.68 KCAL/MOL
REMARK 924 INTRA-LIGAND FREE ENERGY PREDICTED BY IDOCK:   -1.49 KCAL/MOL
REMARK 927      BINDING AFFINITY PREDICTED BY RF-SCORE:    0.00 PKD
ROOT
HETATM    1  N   UNL     1     -11.448   6.360  66.735  1.00  0.00    -0.746 N  
HETATM    2  C   UNL     1     -10.329   6.015  67.448  1.00  0.00    -0.216 C  
HETATM    3  H1  UNL     1     -11.558   7.352  66.526  1.00  0.00     0.000 HD 
HETATM    4  H2  UNL     1     -12.131   5.665  66.431  1.00  0.00     0.000 HD 
HETATM    5  O   UNL     1     -10.198   4.823  67.699  1.00  0.00    -0.125 OA 
ENDROOT
BRANCH   2   6
HETATM    6  C   UNL     1      -9.284   7.159  67.802  1.00  0.00    -0.125 C  
BRANCH   6   7
HETATM    7  C   UNL     1      -9.642   7.715  69.252  1.00  0.00    -0.159 A  
HETATM    8  C   UNL     1     -10.228   8.528  71.918  1.00  0.00    -0.369 A  
HETATM    9  C   UNL     1     -11.178   7.848  71.171  1.00  0.00    -0.284 A  
HETATM   10  C   UNL     1      -9.013   8.859  71.336  1.00  0.00    -0.300 A  
HETATM   11  C   UNL     1     -10.897   7.465  69.852  1.00  0.00    -0.259 A  
HETATM   12  C   UNL     1      -8.730   8.466  70.021  1.00  0.00    -0.133 A  
ENDBRANCH   6   7
BRANCH   6  13
HETATM   13  C   UNL     1      -7.832   6.553  67.776  1.00  0.00    -0.111 A  
HETATM   14  C   UNL     1      -7.236   6.161  66.552  1.00  0.00    -0.073 A  
HETATM   15  C   UNL     1      -5.982   5.544  66.506  1.00  0.00    -0.019 A  
HETATM   16  C   UNL     1      -5.268   5.323  67.675  1.00  0.00    -0.004 A  
HETATM   17  C   UNL     1      -7.063   6.359  68.935  1.00  0.00    -0.082 A  
HETATM   18  C   UNL     1      -5.805   5.743  68.893  1.00  0.00    -0.016 A  
ENDBRANCH   6  13
BRANCH   6  19
HETATM   19  C   UNL     1      -9.372   8.364  66.745  1.00  0.00    -0.235 C  
HETATM   20  C   UNL     1      -8.236  10.484  67.213  1.00  0.00    -0.119 C  
HETATM   21  N   UNL     1      -9.671  10.750  67.263  1.00  0.00    -0.160 NA 
HETATM   22  C   UNL     1     -10.387   9.500  66.961  1.00  0.00    -0.250 C  
HETATM   23  C   UNL     1      -8.078   9.156  66.491  1.00  0.00    -0.107 C  
BRANCH  21  24
HETATM   24  C   UNL     1     -10.130  11.363  68.523  1.00  0.00    -0.206 C  
BRANCH  24  25
HETATM   25  C   UNL     1     -11.459  10.805  69.063  1.00  0.00    -0.368 C  
BRANCH  25  26
HETATM   26  C   UNL     1     -12.084  11.724  70.097  1.00  0.00    -0.398 A  
HETATM   27  C   UNL     1     -12.099  13.110  69.889  1.00  0.00    -0.357 A  
HETATM   28  C   UNL     1     -12.702  13.924  70.836  1.00  0.00    -0.410 A  
HETATM   29  C   UNL     1     -13.291  13.382  71.962  1.00  0.00    -0.479 A  
HETATM   30  O   UNL     1     -13.872  14.308  72.787  1.00  0.00    -0.612 OA 
HETATM   31  C   UNL     1     -13.295  12.026  72.202  1.00  0.00    -0.396 A  
HETATM   32  C   UNL     1     -12.678  11.190  71.262  1.00  0.00    -0.531 A  
HETATM   33  C   UNL     1     -13.523  15.587  72.208  1.00  0.00    -0.499 C  
HETATM   34  C   UNL     1     -12.851  15.391  70.848  1.00  0.00    -0.536 C  
ENDBRANCH  25  26
ENDBRANCH  24  25
ENDBRANCH  21  24
ENDBRANCH   6  19
ENDBRANCH   2   6
TORSDOF 7
ENDMDL
MODEL       44
REMARK 921   NORMALIZED FREE ENERGY PREDICTED BY IDOCK:   -5.95 KCAL/MOL
REMARK 922        TOTAL FREE ENERGY PREDICTED BY IDOCK:  -10.17 KCAL/MOL
REMARK 923 INTER-LIGAND FREE ENERGY PREDICTED BY IDOCK:   -8.38 KCAL/MOL
REMARK 924 INTRA-LIGAND FREE ENERGY PREDICTED BY IDOCK:   -1.79 KCAL/MOL
REMARK 927      BINDING AFFINITY PREDICTED BY RF-SCORE:    0.00 PKD
ROOT
HETATM    1  N   UNL     1     -11.387   6.740  67.142  1.00  0.00    -0.755 N  
HETATM    2  C   UNL     1     -10.212   7.448  67.136  1.00  0.00    -0.277 C  
HETATM    3  H1  UNL     1     -11.770   6.517  68.060  1.00  0.00     0.000 HD 
HETATM    4  H2  UNL     1     -11.850   6.453  66.279  1.00  0.00     0.000 HD 
HETATM    5  O   UNL     1      -9.751   7.715  66.032  1.00  0.00    -0.028 OA 
ENDROOT
BRANCH   2   6
HETATM    6  C   UNL     1      -9.614   7.919  68.531  1.00  0.00    -0.153 C  
BRANCH   6   7
HETATM    7  C   UNL     1     -10.497   9.138  69.053  1.00  0.00    -0.238 A  
HETATM    8  C   UNL     1     -12.238  11.199  69.967  1.00  0.00    -0.402 A  
HETATM    9  C   UNL     1     -12.032  11.010  68.608  1.00  0.00    -0.247 A  
HETATM   10  C   UNL     1     -11.545  10.413  70.876  1.00  0.00    -0.428 A  
HETATM   11  C   UNL     1     -11.160  10.010  68.159  1.00  0.00    -0.252 A  
HETATM   12  C   UNL     1     -10.682   9.406  70.424  1.00  0.00    -0.317 A  
ENDBRANCH   6   7
BRANCH   6  13
HETATM   13  C   UNL     1      -9.667   6.714  69.543  1.00  0.00    -0.156 A  
HETATM   14  C   UNL     1      -8.804   5.602  69.385  1.00  0.00    -0.114 A  
HETATM   15  C   UNL     1      -8.884   4.481  70.218  1.00  0.00    -0.126 A  
HETATM   16  C   UNL     1      -9.806   4.445  71.254  1.00  0.00    -0.260 A  
HETATM   17  C   UNL     1     -10.554   6.666  70.629  1.00  0.00    -0.268 A  
HETATM   18  C   UNL     1     -10.636   5.546  71.469  1.00  0.00    -0.302 A  
ENDBRANCH   6  13
BRANCH   6  19
HETATM   19  C   UNL     1      -8.094   8.406  68.368  1.00  0.00    -0.123 C  
HETATM   20  C   UNL     1      -7.176  10.073  69.912  1.00  0.00    -0.145 C  
HETATM   21  N   UNL     1      -7.261  10.709  68.600  1.00  0.00    -0.084 NA 
HETATM   22  C   UNL     1      -7.787   9.726  67.640  1.00  0.00    -0.095 C  
HETATM   23  C   UNL     1      -7.282   8.578  69.664  1.00  0.00    -0.052 C  
BRANCH  21  24
HETATM   24  C   UNL     1      -8.030  11.967  68.586  1.00  0.00    -0.082 C  
BRANCH  24  25
HETATM   25  C   UNL     1      -7.942  12.760  67.269  1.00  0.00    -0.156 C  
BRANCH  25  26
HETATM   26  C   UNL     1      -9.295  12.899  66.596  1.00  0.00    -0.240 A  
HETATM   27  C   UNL     1      -9.585  12.160  65.441  1.00  0.00    -0.112 A  
HETATM   28  C   UNL     1     -10.841  12.285  64.863  1.00  0.00    -0.342 A  
HETATM   29  C   UNL     1     -11.796  13.113  65.420  1.00  0.00    -0.372 A  
HETATM   30  O   UNL     1     -12.993  13.107  64.755  1.00  0.00    -0.725 OA 
HETATM   31  C   UNL     1     -11.547  13.857  66.552  1.00  0.00    -0.385 A  
HETATM   32  C   UNL     1     -10.279  13.752  67.141  1.00  0.00    -0.244 A  
HETATM   33  C   UNL     1     -12.760  12.292  63.583  1.00  0.00    -0.411 C  
HETATM   34  C   UNL     1     -11.386  11.622  63.665  1.00  0.00    -0.485 C  
ENDBRANCH  25  26
ENDBRANCH  24  25
ENDBRANCH  21  24
ENDBRANCH   6  19
ENDBRANCH   2   6
TORSDOF 7
ENDMDL
MODEL       45
REMARK 921   NORMALIZED FREE ENERGY PREDICTED BY IDOCK:   -5.95 KCAL/MOL
REMARK 922        TOTAL FREE ENERGY PREDICTED BY IDOCK:  -10.16 KCAL/MOL
REMARK 923 INTER-LIGAND FREE ENERGY PREDICTED BY IDOCK:   -9.45 KCAL/MOL
REMARK 924 INTRA-LIGAND FREE ENERGY PREDICTED BY IDOCK:   -0.71 KCAL/MOL
REMARK 927      BINDING AFFINITY PREDICTED BY RF-SCORE:    0.00 PKD
ROOT
HETATM    1  N   UNL     1     -10.151   4.735  69.622  1.00  0.00    -0.232 N  
HETATM    2  C   UNL     1     -10.330   5.222  70.892  1.00  0.00    -0.232 C  
HETATM    3  H1  UNL     1      -9.894   5.421  68.912  1.00  0.00     0.000 HD 
HETATM    4  H2  UNL     1     -10.267   3.746  69.401  1.00  0.00     0.000 HD 
HETATM    5  O   UNL     1     -10.638   4.398  71.745  1.00  0.00    -0.063 OA 
ENDROOT
BRANCH   2   6
HETATM    6  C   UNL     1     -10.043   6.764  71.150  1.00  0.00    -0.198 C  
BRANCH   6   7
HETATM    7  C   UNL     1     -11.427   7.461  71.521  1.00  0.00    -0.292 A  
HETATM    8  C   UNL     1     -13.886   8.813  72.013  1.00  0.00    -0.504 A  
HETATM    9  C   UNL     1     -12.683   9.396  72.380  1.00  0.00    -0.350 A  
HETATM   10  C   UNL     1     -13.884   7.542  71.457  1.00  0.00    -0.487 A  
HETATM   11  C   UNL     1     -11.474   8.723  72.157  1.00  0.00    -0.421 A  
HETATM   12  C   UNL     1     -12.674   6.875  71.224  1.00  0.00    -0.368 A  
ENDBRANCH   6   7
BRANCH   6  13
HETATM   13  C   UNL     1      -9.011   6.903  72.330  1.00  0.00    -0.143 A  
HETATM   14  C   UNL     1      -7.830   6.122  72.350  1.00  0.00    -0.104 A  
HETATM   15  C   UNL     1      -6.936   6.162  73.425  1.00  0.00    -0.080 A  
HETATM   16  C   UNL     1      -7.175   7.004  74.502  1.00  0.00    -0.109 A  
HETATM   17  C   UNL     1      -9.199   7.778  73.411  1.00  0.00    -0.344 A  
HETATM   18  C   UNL     1      -8.305   7.824  74.490  1.00  0.00    -0.240 A  
ENDBRANCH   6  13
BRANCH   6  19
HETATM   19  C   UNL     1      -9.441   7.464  69.837  1.00  0.00    -0.153 C  
HETATM   20  C   UNL     1      -9.089   9.888  69.798  1.00  0.00    -0.225 C  
HETATM   21  N   UNL     1     -10.163   9.598  68.851  1.00  0.00    -0.193 NA 
HETATM   22  C   UNL     1     -10.384   8.144  68.830  1.00  0.00    -0.211 C  
HETATM   23  C   UNL     1      -8.390   8.565  70.062  1.00  0.00    -0.123 C  
BRANCH  21  24
HETATM   24  C   UNL     1     -11.408  10.348  69.101  1.00  0.00    -0.226 C  
BRANCH  24  25
HETATM   25  C   UNL     1     -11.241  11.878  69.140  1.00  0.00    -0.314 C  
BRANCH  25  26
HETATM   26  C   UNL     1     -11.546  12.519  67.798  1.00  0.00    -0.401 A  
HETATM   27  C   UNL     1     -11.359  11.794  66.614  1.00  0.00    -0.381 A  
HETATM   28  C   UNL     1     -11.674  12.395  65.403  1.00  0.00    -0.452 A  
HETATM   29  C   UNL     1     -12.174  13.682  65.361  1.00  0.00    -0.444 A  
HETATM   30  O   UNL     1     -12.465  14.125  64.099  1.00  0.00    -0.668 OA 
HETATM   31  C   UNL     1     -12.369  14.426  66.504  1.00  0.00    -0.272 A  
HETATM   32  C   UNL     1     -12.044  13.839  67.734  1.00  0.00    -0.325 A  
HETATM   33  C   UNL     1     -11.996  13.074  63.223  1.00  0.00    -0.421 C  
HETATM   34  C   UNL     1     -11.573  11.850  64.037  1.00  0.00    -0.476 C  
ENDBRANCH  25  26
ENDBRANCH  24  25
ENDBRANCH  21  24
ENDBRANCH   6  19
ENDBRANCH   2   6
TORSDOF 7
ENDMDL
MODEL       46
REMARK 921   NORMALIZED FREE ENERGY PREDICTED BY IDOCK:   -5.94 KCAL/MOL
REMARK 922        TOTAL FREE ENERGY PREDICTED BY IDOCK:  -10.16 KCAL/MOL
REMARK 923 INTER-LIGAND FREE ENERGY PREDICTED BY IDOCK:   -9.35 KCAL/MOL
REMARK 924 INTRA-LIGAND FREE ENERGY PREDICTED BY IDOCK:   -0.80 KCAL/MOL
REMARK 927      BINDING AFFINITY PREDICTED BY RF-SCORE:    0.00 PKD
ROOT
HETATM    1  N   UNL     1     -11.304  12.808  63.236  1.00  0.00    -0.761 N  
HETATM    2  C   UNL     1     -11.957  12.632  64.429  1.00  0.00    -0.400 C  
HETATM    3  H1  UNL     1     -10.319  13.061  63.298  1.00  0.00     0.000 HD 
HETATM    4  H2  UNL     1     -11.777  12.693  62.339  1.00  0.00     0.000 HD 
HETATM    5  O   UNL     1     -13.142  12.328  64.354  1.00  0.00    -0.780 OA 
ENDROOT
BRANCH   2   6
HETATM    6  C   UNL     1     -11.112  12.752  65.770  1.00  0.00    -0.316 C  
BRANCH   6   7
HETATM    7  C   UNL     1      -9.962  11.650  65.722  1.00  0.00    -0.270 A  
HETATM    8  C   UNL     1      -7.850   9.756  65.460  1.00  0.00    -0.120 A  
HETATM    9  C   UNL     1      -9.084   9.513  64.874  1.00  0.00    -0.276 A  
HETATM   10  C   UNL     1      -7.674  10.902  66.223  1.00  0.00    -0.147 A  
HETATM   11  C   UNL     1     -10.129  10.435  65.020  1.00  0.00    -0.379 A  
HETATM   12  C   UNL     1      -8.717  11.828  66.358  1.00  0.00    -0.147 A  
ENDBRANCH   6   7
BRANCH   6  13
HETATM   13  C   UNL     1     -10.498  14.199  65.860  1.00  0.00    -0.313 A  
HETATM   14  C   UNL     1     -11.126  15.290  65.209  1.00  0.00    -0.382 A  
HETATM   15  C   UNL     1     -10.561  16.569  65.201  1.00  0.00    -0.237 A  
HETATM   16  C   UNL     1      -9.367  16.810  65.867  1.00  0.00    -0.162 A  
HETATM   17  C   UNL     1      -9.318  14.487  66.564  1.00  0.00    -0.307 A  
HETATM   18  C   UNL     1      -8.750  15.769  66.561  1.00  0.00    -0.354 A  
ENDBRANCH   6  13
BRANCH   6  19
HETATM   19  C   UNL     1     -12.035  12.489  67.056  1.00  0.00    -0.295 C  
HETATM   20  C   UNL     1     -11.154  12.926  69.300  1.00  0.00    -0.133 C  
HETATM   21  N   UNL     1     -11.330  11.481  69.185  1.00  0.00    -0.261 NA 
HETATM   22  C   UNL     1     -11.882  11.184  67.854  1.00  0.00    -0.082 C  
HETATM   23  C   UNL     1     -11.973  13.541  68.177  1.00  0.00    -0.376 C  
BRANCH  21  24
HETATM   24  C   UNL     1     -10.112  10.699  69.470  1.00  0.00    -0.132 C  
BRANCH  24  25
HETATM   25  C   UNL     1     -10.036   9.341  68.748  1.00  0.00    -0.210 C  
BRANCH  25  26
HETATM   26  C   UNL     1     -10.312   8.181  69.686  1.00  0.00    -0.221 A  
HETATM   27  C   UNL     1     -10.170   8.347  71.070  1.00  0.00    -0.245 A  
HETATM   28  C   UNL     1     -10.457   7.278  71.907  1.00  0.00    -0.224 A  
HETATM   29  C   UNL     1     -10.886   6.071  71.390  1.00  0.00    -0.270 A  
HETATM   30  O   UNL     1     -11.159   5.124  72.341  1.00  0.00    -0.216 OA 
HETATM   31  C   UNL     1     -11.035   5.869  70.035  1.00  0.00    -0.430 A  
HETATM   32  C   UNL     1     -10.737   6.935  69.175  1.00  0.00    -0.262 A  
HETATM   33  C   UNL     1     -10.751   5.728  73.590  1.00  0.00    -0.251 C  
HETATM   34  C   UNL     1     -10.391   7.200  73.378  1.00  0.00    -0.391 C  
ENDBRANCH  25  26
ENDBRANCH  24  25
ENDBRANCH  21  24
ENDBRANCH   6  19
ENDBRANCH   2   6
TORSDOF 7
ENDMDL
MODEL       47
REMARK 921   NORMALIZED FREE ENERGY PREDICTED BY IDOCK:   -5.94 KCAL/MOL
REMARK 922        TOTAL FREE ENERGY PREDICTED BY IDOCK:  -10.15 KCAL/MOL
REMARK 923 INTER-LIGAND FREE ENERGY PREDICTED BY IDOCK:   -8.80 KCAL/MOL
REMARK 924 INTRA-LIGAND FREE ENERGY PREDICTED BY IDOCK:   -1.35 KCAL/MOL
REMARK 927      BINDING AFFINITY PREDICTED BY RF-SCORE:    0.00 PKD
ROOT
HETATM    1  N   UNL     1     -10.948   5.694  73.907  1.00  0.00    -0.387 N  
HETATM    2  C   UNL     1     -10.608   5.236  72.660  1.00  0.00    -0.228 C  
HETATM    3  H1  UNL     1     -11.026   6.706  74.005  1.00  0.00     0.000 HD 
HETATM    4  H2  UNL     1     -11.114   5.061  74.689  1.00  0.00     0.000 HD 
HETATM    5  O   UNL     1     -10.515   4.019  72.541  1.00  0.00    -0.173 OA 
ENDROOT
BRANCH   2   6
HETATM    6  C   UNL     1     -10.453   6.298  71.488  1.00  0.00    -0.266 C  
BRANCH   6   7
HETATM    7  C   UNL     1     -11.624   7.368  71.641  1.00  0.00    -0.302 A  
HETATM    8  C   UNL     1     -13.691   9.327  71.721  1.00  0.00    -0.443 A  
HETATM    9  C   UNL     1     -12.368   9.699  71.910  1.00  0.00    -0.437 A  
HETATM   10  C   UNL     1     -14.003   7.986  71.552  1.00  0.00    -0.433 A  
HETATM   11  C   UNL     1     -11.353   8.733  71.891  1.00  0.00    -0.431 A  
HETATM   12  C   UNL     1     -12.985   7.022  71.522  1.00  0.00    -0.411 A  
ENDBRANCH   6   7
BRANCH   6  13
HETATM   13  C   UNL     1      -9.044   6.989  71.606  1.00  0.00    -0.139 A  
HETATM   14  C   UNL     1      -7.993   6.365  72.323  1.00  0.00    -0.103 A  
HETATM   15  C   UNL     1      -6.757   6.991  72.516  1.00  0.00    -0.061 A  
HETATM   16  C   UNL     1      -6.518   8.246  71.975  1.00  0.00    -0.067 A  
HETATM   17  C   UNL     1      -8.752   8.236  71.032  1.00  0.00    -0.169 A  
HETATM   18  C   UNL     1      -7.514   8.866  71.220  1.00  0.00    -0.127 A  
ENDBRANCH   6  13
BRANCH   6  19
HETATM   19  C   UNL     1     -10.576   5.591  70.052  1.00  0.00    -0.384 C  
HETATM   20  C   UNL     1      -8.858   5.981  68.349  1.00  0.00    -0.112 C  
HETATM   21  N   UNL     1     -10.085   6.612  67.869  1.00  0.00    -0.141 NA 
HETATM   22  C   UNL     1     -11.148   6.375  68.859  1.00  0.00    -0.348 C  
HETATM   23  C   UNL     1      -9.280   5.022  69.450  1.00  0.00    -0.156 C  
BRANCH  21  24
HETATM   24  C   UNL     1      -9.941   8.041  67.538  1.00  0.00    -0.194 C  
BRANCH  24  25
HETATM   25  C   UNL     1     -10.749   8.995  68.437  1.00  0.00    -0.145 C  
BRANCH  25  26
HETATM   26  C   UNL     1     -10.925  10.363  67.804  1.00  0.00    -0.369 A  
HETATM   27  C   UNL     1     -10.490  10.592  66.492  1.00  0.00    -0.276 A  
HETATM   28  C   UNL     1     -10.689  11.844  65.928  1.00  0.00    -0.326 A  
HETATM   29  C   UNL     1     -11.315  12.848  66.640  1.00  0.00    -0.317 A  
HETATM   30  O   UNL     1     -11.467  14.015  65.940  1.00  0.00    -0.317 OA 
HETATM   31  C   UNL     1     -11.754  12.661  67.932  1.00  0.00    -0.412 A  
HETATM   32  C   UNL     1     -11.549  11.407  68.522  1.00  0.00    -0.384 A  
HETATM   33  C   UNL     1     -10.764  13.792  64.696  1.00  0.00    -0.414 C  
HETATM   34  C   UNL     1     -10.331  12.329  64.582  1.00  0.00    -0.330 C  
ENDBRANCH  25  26
ENDBRANCH  24  25
ENDBRANCH  21  24
ENDBRANCH   6  19
ENDBRANCH   2   6
TORSDOF 7
ENDMDL
MODEL       48
REMARK 921   NORMALIZED FREE ENERGY PREDICTED BY IDOCK:   -5.94 KCAL/MOL
REMARK 922        TOTAL FREE ENERGY PREDICTED BY IDOCK:  -10.14 KCAL/MOL
REMARK 923 INTER-LIGAND FREE ENERGY PREDICTED BY IDOCK:   -8.52 KCAL/MOL
REMARK 924 INTRA-LIGAND FREE ENERGY PREDICTED BY IDOCK:   -1.63 KCAL/MOL
REMARK 927      BINDING AFFINITY PREDICTED BY RF-SCORE:    0.00 PKD
ROOT
HETATM    1  N   UNL     1     -11.199   7.694  67.361  1.00  0.00    -0.410 N  
HETATM    2  C   UNL     1     -10.060   8.428  67.148  1.00  0.00    -0.265 C  
HETATM    3  H1  UNL     1     -11.699   7.886  68.229  1.00  0.00     0.000 HD 
HETATM    4  H2  UNL     1     -11.527   6.998  66.691  1.00  0.00     0.000 HD 
HETATM    5  O   UNL     1      -9.460   8.197  66.105  1.00  0.00    -0.201 OA 
ENDROOT
BRANCH   2   6
HETATM    6  C   UNL     1      -9.680   9.547  68.211  1.00  0.00    -0.163 C  
BRANCH   6   7
HETATM    7  C   UNL     1     -10.444  10.885  67.806  1.00  0.00    -0.238 A  
HETATM    8  C   UNL     1     -11.981  13.172  67.084  1.00  0.00    -0.397 A  
HETATM    9  C   UNL     1     -11.544  12.288  66.109  1.00  0.00    -0.450 A  
HETATM   10  C   UNL     1     -11.613  12.963  68.405  1.00  0.00    -0.369 A  
HETATM   11  C   UNL     1     -10.771  11.174  66.461  1.00  0.00    -0.314 A  
HETATM   12  C   UNL     1     -10.849  11.843  68.757  1.00  0.00    -0.270 A  
ENDBRANCH   6   7
BRANCH   6  13
HETATM   13  C   UNL     1     -10.119   9.062  69.643  1.00  0.00    -0.202 A  
HETATM   14  C   UNL     1     -11.185   9.699  70.324  1.00  0.00    -0.324 A  
HETATM   15  C   UNL     1     -11.543   9.346  71.629  1.00  0.00    -0.466 A  
HETATM   16  C   UNL     1     -10.870   8.326  72.287  1.00  0.00    -0.408 A  
HETATM   17  C   UNL     1      -9.491   8.003  70.318  1.00  0.00    -0.167 A  
HETATM   18  C   UNL     1      -9.848   7.643  71.625  1.00  0.00    -0.193 A  
ENDBRANCH   6  13
BRANCH   6  19
HETATM   19  C   UNL     1      -8.100   9.826  68.210  1.00  0.00    -0.104 C  
HETATM   20  C   UNL     1      -7.214  11.832  69.304  1.00  0.00     0.009 C  
HETATM   21  N   UNL     1      -6.995  11.998  67.869  1.00  0.00    -0.087 NA 
HETATM   22  C   UNL     1      -7.494  10.796  67.181  1.00  0.00    -0.102 C  
HETATM   23  C   UNL     1      -7.491  10.353  69.520  1.00  0.00    -0.148 C  
BRANCH  21  24
HETATM   24  C   UNL     1      -7.565  13.237  67.310  1.00  0.00    -0.067 C  
BRANCH  24  25
HETATM   25  C   UNL     1      -8.150  14.205  68.355  1.00  0.00    -0.144 C  
BRANCH  25  26
HETATM   26  C   UNL     1      -8.853  15.385  67.708  1.00  0.00    -0.170 A  
HETATM   27  C   UNL     1      -9.084  16.555  68.443  1.00  0.00    -0.222 A  
HETATM   28  C   UNL     1      -9.703  17.628  67.819  1.00  0.00    -0.280 A  
HETATM   29  C   UNL     1     -10.078  17.553  66.491  1.00  0.00    -0.331 A  
HETATM   30  O   UNL     1     -10.647  18.701  66.008  1.00  0.00    -0.457 OA 
HETATM   31  C   UNL     1      -9.869  16.419  65.737  1.00  0.00    -0.303 A  
HETATM   32  C   UNL     1      -9.257  15.322  66.356  1.00  0.00    -0.342 A  
HETATM   33  C   UNL     1     -10.770  19.565  67.162  1.00  0.00    -0.482 C  
HETATM   34  C   UNL     1     -10.050  18.953  68.365  1.00  0.00    -0.449 C  
ENDBRANCH  25  26
ENDBRANCH  24  25
ENDBRANCH  21  24
ENDBRANCH   6  19
ENDBRANCH   2   6
TORSDOF 7
ENDMDL
MODEL       49
REMARK 921   NORMALIZED FREE ENERGY PREDICTED BY IDOCK:   -5.92 KCAL/MOL
REMARK 922        TOTAL FREE ENERGY PREDICTED BY IDOCK:  -10.13 KCAL/MOL
REMARK 923 INTER-LIGAND FREE ENERGY PREDICTED BY IDOCK:   -9.65 KCAL/MOL
REMARK 924 INTRA-LIGAND FREE ENERGY PREDICTED BY IDOCK:   -0.48 KCAL/MOL
REMARK 927      BINDING AFFINITY PREDICTED BY RF-SCORE:    0.00 PKD
ROOT
HETATM    1  N   UNL     1     -10.138  14.277  65.019  1.00  0.00    -0.549 N  
HETATM    2  C   UNL     1     -10.486  15.545  65.407  1.00  0.00    -0.405 C  
HETATM    3  H1  UNL     1      -9.701  13.695  65.732  1.00  0.00     0.000 HD 
HETATM    4  H2  UNL     1     -10.307  13.936  64.072  1.00  0.00     0.000 HD 
HETATM    5  O   UNL     1     -11.011  16.245  64.549  1.00  0.00    -0.687 OA 
ENDROOT
BRANCH   2   6
HETATM    6  C   UNL     1     -10.257  15.953  66.926  1.00  0.00    -0.277 C  
BRANCH   6   7
HETATM    7  C   UNL     1      -9.046  15.082  67.487  1.00  0.00    -0.189 A  
HETATM    8  C   UNL     1      -6.776  13.580  68.327  1.00  0.00    -0.107 A  
HETATM    9  C   UNL     1      -7.695  13.025  67.450  1.00  0.00    -0.159 A  
HETATM   10  C   UNL     1      -7.003  14.850  68.836  1.00  0.00    -0.112 A  
HETATM   11  C   UNL     1      -8.823  13.755  67.052  1.00  0.00    -0.230 A  
HETATM   12  C   UNL     1      -8.126  15.584  68.429  1.00  0.00    -0.136 A  
ENDBRANCH   6   7
BRANCH   6  13
HETATM   13  C   UNL     1      -9.924  17.489  67.000  1.00  0.00    -0.311 A  
HETATM   14  C   UNL     1      -8.709  17.989  66.471  1.00  0.00    -0.279 A  
HETATM   15  C   UNL     1      -8.348  19.335  66.595  1.00  0.00    -0.319 A  
HETATM   16  C   UNL     1      -9.200  20.232  67.224  1.00  0.00    -0.523 A  
HETATM   17  C   UNL     1     -10.784  18.431  67.586  1.00  0.00    -0.390 A  
HETATM   18  C   UNL     1     -10.428  19.782  67.711  1.00  0.00    -0.555 A  
ENDBRANCH   6  13
BRANCH   6  19
HETATM   19  C   UNL     1     -11.566  15.654  67.804  1.00  0.00    -0.139 C  
HETATM   20  C   UNL     1     -11.335  14.769  70.078  1.00  0.00    -0.265 C  
HETATM   21  N   UNL     1     -11.938  13.712  69.269  1.00  0.00    -0.331 NA 
HETATM   22  C   UNL     1     -12.114  14.220  67.899  1.00  0.00    -0.261 C  
HETATM   23  C   UNL     1     -11.509  16.056  69.288  1.00  0.00    -0.350 C  
BRANCH  21  24
HETATM   24  C   UNL     1     -11.203  12.434  69.299  1.00  0.00    -0.201 C  
BRANCH  24  25
HETATM   25  C   UNL     1     -11.952  11.247  68.664  1.00  0.00    -0.314 C  
BRANCH  25  26
HETATM   26  C   UNL     1     -11.120  10.552  67.601  1.00  0.00    -0.375 A  
HETATM   27  C   UNL     1     -10.946  11.148  66.345  1.00  0.00    -0.248 A  
HETATM   28  C   UNL     1     -10.157  10.505  65.402  1.00  0.00    -0.358 A  
HETATM   29  C   UNL     1      -9.543   9.302  65.695  1.00  0.00    -0.254 A  
HETATM   30  O   UNL     1      -8.774   8.807  64.676  1.00  0.00    -0.160 OA 
HETATM   31  C   UNL     1      -9.694   8.686  66.917  1.00  0.00    -0.278 A  
HETATM   32  C   UNL     1     -10.498   9.316  67.877  1.00  0.00    -0.290 A  
HETATM   33  C   UNL     1      -9.006   9.708  63.568  1.00  0.00    -0.217 C  
HETATM   34  C   UNL     1      -9.819  10.920  64.028  1.00  0.00    -0.377 C  
ENDBRANCH  25  26
ENDBRANCH  24  25
ENDBRANCH  21  24
ENDBRANCH   6  19
ENDBRANCH   2   6
TORSDOF 7
ENDMDL
MODEL       50
REMARK 921   NORMALIZED FREE ENERGY PREDICTED BY IDOCK:   -5.92 KCAL/MOL
REMARK 922        TOTAL FREE ENERGY PREDICTED BY IDOCK:  -10.13 KCAL/MOL
REMARK 923 INTER-LIGAND FREE ENERGY PREDICTED BY IDOCK:   -8.36 KCAL/MOL
REMARK 924 INTRA-LIGAND FREE ENERGY PREDICTED BY IDOCK:   -1.77 KCAL/MOL
REMARK 927      BINDING AFFINITY PREDICTED BY RF-SCORE:    0.00 PKD
ROOT
HETATM    1  N   UNL     1     -10.109   4.698  69.279  1.00  0.00    -0.162 N  
HETATM    2  C   UNL     1     -10.450   5.990  69.586  1.00  0.00    -0.261 C  
HETATM    3  H1  UNL     1      -9.110   4.497  69.237  1.00  0.00     0.000 HD 
HETATM    4  H2  UNL     1     -10.812   3.980  69.102  1.00  0.00     0.000 HD 
HETATM    5  O   UNL     1     -11.650   6.232  69.637  1.00  0.00    -0.430 OA 
ENDROOT
BRANCH   2   6
HETATM    6  C   UNL     1      -9.281   7.013  69.925  1.00  0.00    -0.144 C  
BRANCH   6   7
HETATM    7  C   UNL     1      -7.895   6.283  69.634  1.00  0.00    -0.107 A  
HETATM    8  C   UNL     1      -5.515   4.804  69.123  1.00  0.00    -0.011 A  
HETATM    9  C   UNL     1      -5.933   5.027  70.427  1.00  0.00    -0.018 A  
HETATM   10  C   UNL     1      -6.235   5.357  68.074  1.00  0.00    -0.034 A  
HETATM   11  C   UNL     1      -7.092   5.772  70.679  1.00  0.00    -0.073 A  
HETATM   12  C   UNL     1      -7.400   6.092  68.328  1.00  0.00    -0.086 A  
ENDBRANCH   6   7
BRANCH   6  13
HETATM   13  C   UNL     1      -9.443   8.292  69.022  1.00  0.00    -0.155 A  
HETATM   14  C   UNL     1      -8.637   9.436  69.242  1.00  0.00    -0.143 A  
HETATM   15  C   UNL     1      -8.814  10.615  68.511  1.00  0.00    -0.148 A  
HETATM   16  C   UNL     1      -9.780  10.683  67.516  1.00  0.00    -0.189 A  
HETATM   17  C   UNL     1     -10.377   8.378  67.977  1.00  0.00    -0.270 A  
HETATM   18  C   UNL     1     -10.556   9.557  67.240  1.00  0.00    -0.317 A  
ENDBRANCH   6  13
BRANCH   6  19
HETATM   19  C   UNL     1      -9.329   7.448  71.469  1.00  0.00    -0.154 C  
HETATM   20  C   UNL     1     -11.282   6.881  72.837  1.00  0.00    -0.217 C  
HETATM   21  N   UNL     1     -11.275   8.334  72.684  1.00  0.00    -0.376 NA 
HETATM   22  C   UNL     1     -10.098   8.712  71.886  1.00  0.00    -0.328 C  
HETATM   23  C   UNL     1      -9.886   6.412  72.461  1.00  0.00    -0.175 C  
BRANCH  21  24
HETATM   24  C   UNL     1     -12.524   8.889  72.131  1.00  0.00    -0.389 C  
BRANCH  24  25
HETATM   25  C   UNL     1     -12.358   9.648  70.801  1.00  0.00    -0.279 C  
BRANCH  25  26
HETATM   26  C   UNL     1     -12.521  11.147  70.977  1.00  0.00    -0.506 A  
HETATM   27  C   UNL     1     -11.958  12.029  70.045  1.00  0.00    -0.400 A  
HETATM   28  C   UNL     1     -12.146  13.394  70.215  1.00  0.00    -0.419 A  
HETATM   29  C   UNL     1     -12.885  13.879  71.276  1.00  0.00    -0.360 A  
HETATM   30  O   UNL     1     -13.009  15.242  71.291  1.00  0.00    -0.369 OA 
HETATM   31  C   UNL     1     -13.451  13.043  72.213  1.00  0.00    -0.645 A  
HETATM   32  C   UNL     1     -13.260  11.662  72.064  1.00  0.00    -0.443 A  
HETATM   33  C   UNL     1     -12.168  15.700  70.207  1.00  0.00    -0.386 C  
HETATM   34  C   UNL     1     -11.667  14.512  69.383  1.00  0.00    -0.361 C  
ENDBRANCH  25  26
ENDBRANCH  24  25
ENDBRANCH  21  24
ENDBRANCH   6  19
ENDBRANCH   2   6
TORSDOF 7
ENDMDL
MODEL       51
REMARK 921   NORMALIZED FREE ENERGY PREDICTED BY IDOCK:   -5.87 KCAL/MOL
REMARK 922        TOTAL FREE ENERGY PREDICTED BY IDOCK:  -10.05 KCAL/MOL
REMARK 923 INTER-LIGAND FREE ENERGY PREDICTED BY IDOCK:   -9.61 KCAL/MOL
REMARK 924 INTRA-LIGAND FREE ENERGY PREDICTED BY IDOCK:   -0.44 KCAL/MOL
REMARK 927      BINDING AFFINITY PREDICTED BY RF-SCORE:    0.00 PKD
ROOT
HETATM    1  N   UNL     1      -9.048   8.338  65.478  1.00  0.00    -0.395 N  
HETATM    2  C   UNL     1      -9.989   8.789  66.367  1.00  0.00    -0.275 C  
HETATM    3  H1  UNL     1      -8.387   9.034  65.134  1.00  0.00     0.000 HD 
HETATM    4  H2  UNL     1      -9.010   7.363  65.179  1.00  0.00     0.000 HD 
HETATM    5  O   UNL     1     -10.783   7.952  66.781  1.00  0.00    -0.304 OA 
ENDROOT
BRANCH   2   6
HETATM    6  C   UNL     1      -9.912  10.307  66.834  1.00  0.00    -0.259 C  
BRANCH   6   7
HETATM    7  C   UNL     1     -10.665  11.191  65.743  1.00  0.00    -0.252 A  
HETATM    8  C   UNL     1     -12.131  12.614  63.757  1.00  0.00    -0.604 A  
HETATM    9  C   UNL     1     -11.072  11.796  63.392  1.00  0.00    -0.448 A  
HETATM   10  C   UNL     1     -12.432  12.777  65.102  1.00  0.00    -0.565 A  
HETATM   11  C   UNL     1     -10.337  11.112  64.370  1.00  0.00    -0.407 A  
HETATM   12  C   UNL     1     -11.703  12.083  66.078  1.00  0.00    -0.311 A  
ENDBRANCH   6   7
BRANCH   6  13
HETATM   13  C   UNL     1     -10.602  10.445  68.242  1.00  0.00    -0.245 A  
HETATM   14  C   UNL     1     -10.604   9.361  69.153  1.00  0.00    -0.234 A  
HETATM   15  C   UNL     1     -11.280   9.426  70.376  1.00  0.00    -0.309 A  
HETATM   16  C   UNL     1     -11.949  10.584  70.744  1.00  0.00    -0.472 A  
HETATM   17  C   UNL     1     -11.247  11.618  68.665  1.00  0.00    -0.308 A  
HETATM   18  C   UNL     1     -11.923  11.689  69.891  1.00  0.00    -0.414 A  
ENDBRANCH   6  13
BRANCH   6  19
HETATM   19  C   UNL     1      -8.387  10.797  66.942  1.00  0.00    -0.132 C  
HETATM   20  C   UNL     1      -7.521  11.628  69.078  1.00  0.00    -0.051 C  
HETATM   21  N   UNL     1      -7.564  12.766  68.164  1.00  0.00    -0.122 NA 
HETATM   22  C   UNL     1      -8.058  12.297  66.860  1.00  0.00    -0.090 C  
HETATM   23  C   UNL     1      -7.618  10.385  68.209  1.00  0.00    -0.095 C  
BRANCH  21  24
HETATM   24  C   UNL     1      -8.334  13.919  68.669  1.00  0.00    -0.088 C  
BRANCH  24  25
HETATM   25  C   UNL     1      -9.379  14.475  67.685  1.00  0.00    -0.202 C  
BRANCH  25  26
HETATM   26  C   UNL     1      -9.138  15.939  67.364  1.00  0.00    -0.205 A  
HETATM   27  C   UNL     1     -10.027  16.916  67.832  1.00  0.00    -0.274 A  
HETATM   28  C   UNL     1      -9.767  18.249  67.548  1.00  0.00    -0.305 A  
HETATM   29  C   UNL     1      -8.646  18.613  66.828  1.00  0.00    -0.288 A  
HETATM   30  O   UNL     1      -8.509  19.965  66.656  1.00  0.00    -0.309 OA 
HETATM   31  C   UNL     1      -7.751  17.681  66.351  1.00  0.00    -0.325 A  
HETATM   32  C   UNL     1      -8.006  16.329  66.617  1.00  0.00    -0.324 A  
HETATM   33  C   UNL     1      -9.720  20.530  67.210  1.00  0.00    -0.460 C  
HETATM   34  C   UNL     1     -10.535  19.450  67.924  1.00  0.00    -0.536 C  
ENDBRANCH  25  26
ENDBRANCH  24  25
ENDBRANCH  21  24
ENDBRANCH   6  19
ENDBRANCH   2   6
TORSDOF 7
ENDMDL
MODEL       52
REMARK 921   NORMALIZED FREE ENERGY PREDICTED BY IDOCK:   -5.86 KCAL/MOL
REMARK 922        TOTAL FREE ENERGY PREDICTED BY IDOCK:  -10.04 KCAL/MOL
REMARK 923 INTER-LIGAND FREE ENERGY PREDICTED BY IDOCK:   -9.47 KCAL/MOL
REMARK 924 INTRA-LIGAND FREE ENERGY PREDICTED BY IDOCK:   -0.56 KCAL/MOL
REMARK 927      BINDING AFFINITY PREDICTED BY RF-SCORE:    0.00 PKD
ROOT
HETATM    1  N   UNL     1      -9.837  15.238  69.976  1.00  0.00    -0.480 N  
HETATM    2  C   UNL     1      -9.985  15.829  68.747  1.00  0.00    -0.214 C  
HETATM    3  H1  UNL     1      -8.920  14.838  70.172  1.00  0.00     0.000 HD 
HETATM    4  H2  UNL     1     -10.599  15.200  70.653  1.00  0.00     0.000 HD 
HETATM    5  O   UNL     1     -11.088  16.309  68.512  1.00  0.00    -0.337 OA 
ENDROOT
BRANCH   2   6
HETATM    6  C   UNL     1      -8.714  15.909  67.797  1.00  0.00    -0.173 C  
BRANCH   6   7
HETATM    7  C   UNL     1      -8.483  17.440  67.420  1.00  0.00    -0.215 A  
HETATM    8  C   UNL     1      -7.941  20.188  66.901  1.00  0.00    -0.356 A  
HETATM    9  C   UNL     1      -8.906  19.830  67.831  1.00  0.00    -0.381 A  
HETATM   10  C   UNL     1      -7.284  19.197  66.186  1.00  0.00    -0.283 A  
HETATM   11  C   UNL     1      -9.187  18.478  68.071  1.00  0.00    -0.315 A  
HETATM   12  C   UNL     1      -7.559  17.846  66.436  1.00  0.00    -0.308 A  
ENDBRANCH   6   7
BRANCH   6  13
HETATM   13  C   UNL     1      -7.467  15.325  68.559  1.00  0.00    -0.121 A  
HETATM   14  C   UNL     1      -7.202  13.933  68.547  1.00  0.00    -0.107 A  
HETATM   15  C   UNL     1      -6.151  13.375  69.282  1.00  0.00    -0.098 A  
HETATM   16  C   UNL     1      -5.312  14.189  70.030  1.00  0.00    -0.098 A  
HETATM   17  C   UNL     1      -6.571  16.124  69.286  1.00  0.00    -0.189 A  
HETATM   18  C   UNL     1      -5.514  15.570  70.022  1.00  0.00    -0.129 A  
ENDBRANCH   6  13
BRANCH   6  19
HETATM   19  C   UNL     1      -8.951  15.070  66.450  1.00  0.00    -0.286 C  
HETATM   20  C   UNL     1     -11.153  15.082  65.375  1.00  0.00    -0.374 C  
HETATM   21  N   UNL     1     -10.936  13.731  65.887  1.00  0.00    -0.282 NA 
HETATM   22  C   UNL     1      -9.609  13.681  66.518  1.00  0.00    -0.286 C  
HETATM   23  C   UNL     1      -9.787  15.749  65.351  1.00  0.00    -0.212 C  
BRANCH  21  24
HETATM   24  C   UNL     1     -12.000  13.247  66.786  1.00  0.00    -0.382 C  
BRANCH  24  25
HETATM   25  C   UNL     1     -11.531  12.240  67.853  1.00  0.00    -0.390 C  
BRANCH  25  26
HETATM   26  C   UNL     1     -12.074  12.576  69.230  1.00  0.00    -0.214 A  
HETATM   27  C   UNL     1     -12.536  13.869  69.508  1.00  0.00    -0.141 A  
HETATM   28  C   UNL     1     -13.053  14.140  70.766  1.00  0.00    -0.289 A  
HETATM   29  C   UNL     1     -13.124  13.153  71.729  1.00  0.00    -0.383 A  
HETATM   30  O   UNL     1     -13.687  13.564  72.908  1.00  0.00    -0.650 OA 
HETATM   31  C   UNL     1     -12.678  11.871  71.494  1.00  0.00    -0.379 A  
HETATM   32  C   UNL     1     -12.141  11.583  70.232  1.00  0.00    -0.444 A  
HETATM   33  C   UNL     1     -13.889  14.987  72.742  1.00  0.00    -0.374 C  
HETATM   34  C   UNL     1     -13.599  15.402  71.299  1.00  0.00    -0.585 C  
ENDBRANCH  25  26
ENDBRANCH  24  25
ENDBRANCH  21  24
ENDBRANCH   6  19
ENDBRANCH   2   6
TORSDOF 7
ENDMDL
MODEL       53
REMARK 921   NORMALIZED FREE ENERGY PREDICTED BY IDOCK:   -5.85 KCAL/MOL
REMARK 922        TOTAL FREE ENERGY PREDICTED BY IDOCK:  -10.03 KCAL/MOL
REMARK 923 INTER-LIGAND FREE ENERGY PREDICTED BY IDOCK:   -8.86 KCAL/MOL
REMARK 924 INTRA-LIGAND FREE ENERGY PREDICTED BY IDOCK:   -1.17 KCAL/MOL
REMARK 927      BINDING AFFINITY PREDICTED BY RF-SCORE:    0.00 PKD
ROOT
HETATM    1  N   UNL     1      -7.471  10.910  62.955  1.00  0.00    -0.363 N  
HETATM    2  C   UNL     1      -8.438  10.096  63.485  1.00  0.00    -0.186 C  
HETATM    3  H1  UNL     1      -7.173  11.691  63.539  1.00  0.00     0.000 HD 
HETATM    4  H2  UNL     1      -7.071  10.745  62.030  1.00  0.00     0.000 HD 
HETATM    5  O   UNL     1      -8.795   9.157  62.782  1.00  0.00    -0.220 OA 
ENDROOT
BRANCH   2   6
HETATM    6  C   UNL     1      -8.936  10.390  64.965  1.00  0.00    -0.221 C  
BRANCH   6   7
HETATM    7  C   UNL     1     -10.238  11.302  64.870  1.00  0.00    -0.341 A  
HETATM    8  C   UNL     1     -12.677  12.766  64.715  1.00  0.00    -0.469 A  
HETATM    9  C   UNL     1     -12.123  12.208  63.572  1.00  0.00    -0.649 A  
HETATM   10  C   UNL     1     -12.003  12.653  65.922  1.00  0.00    -0.497 A  
HETATM   11  C   UNL     1     -10.913  11.506  63.644  1.00  0.00    -0.482 A  
HETATM   12  C   UNL     1     -10.799  11.941  65.995  1.00  0.00    -0.342 A  
ENDBRANCH   6   7
BRANCH   6  13
HETATM   13  C   UNL     1      -9.258   9.024  65.678  1.00  0.00    -0.288 A  
HETATM   14  C   UNL     1      -8.394   7.911  65.529  1.00  0.00    -0.152 A  
HETATM   15  C   UNL     1      -8.697   6.662  66.081  1.00  0.00    -0.154 A  
HETATM   16  C   UNL     1      -9.856   6.489  66.824  1.00  0.00    -0.213 A  
HETATM   17  C   UNL     1     -10.397   8.827  66.475  1.00  0.00    -0.254 A  
HETATM   18  C   UNL     1     -10.704   7.578  67.032  1.00  0.00    -0.367 A  
ENDBRANCH   6  13
BRANCH   6  19
HETATM   19  C   UNL     1      -7.811  11.170  65.804  1.00  0.00     0.090 C  
HETATM   20  C   UNL     1      -6.716  10.066  67.698  1.00  0.00    -0.075 C  
HETATM   21  N   UNL     1      -7.527  11.149  68.247  1.00  0.00    -0.088 NA 
HETATM   22  C   UNL     1      -8.182  11.851  67.132  1.00  0.00    -0.171 C  
HETATM   23  C   UNL     1      -6.569  10.360  66.214  1.00  0.00    -0.107 C  
BRANCH  21  24
HETATM   24  C   UNL     1      -8.490  10.720  69.278  1.00  0.00    -0.047 C  
BRANCH  24  25
HETATM   25  C   UNL     1      -8.507   9.205  69.552  1.00  0.00    -0.128 C  
BRANCH  25  26
HETATM   26  C   UNL     1      -9.795   8.761  70.221  1.00  0.00    -0.198 A  
HETATM   27  C   UNL     1     -10.759   9.710  70.590  1.00  0.00    -0.388 A  
HETATM   28  C   UNL     1     -11.939   9.273  71.174  1.00  0.00    -0.394 A  
HETATM   29  C   UNL     1     -12.171   7.927  71.379  1.00  0.00    -0.313 A  
HETATM   30  O   UNL     1     -13.392   7.651  71.935  1.00  0.00    -0.308 OA 
HETATM   31  C   UNL     1     -11.247   6.966  71.032  1.00  0.00    -0.323 A  
HETATM   32  C   UNL     1     -10.043   7.391  70.453  1.00  0.00    -0.193 A  
HETATM   33  C   UNL     1     -13.962   8.946  72.234  1.00  0.00    -0.466 C  
HETATM   34  C   UNL     1     -13.096  10.060  71.641  1.00  0.00    -0.547 C  
ENDBRANCH  25  26
ENDBRANCH  24  25
ENDBRANCH  21  24
ENDBRANCH   6  19
ENDBRANCH   2   6
TORSDOF 7
ENDMDL
MODEL       54
REMARK 921   NORMALIZED FREE ENERGY PREDICTED BY IDOCK:   -5.85 KCAL/MOL
REMARK 922        TOTAL FREE ENERGY PREDICTED BY IDOCK:  -10.03 KCAL/MOL
REMARK 923 INTER-LIGAND FREE ENERGY PREDICTED BY IDOCK:   -9.18 KCAL/MOL
REMARK 924 INTRA-LIGAND FREE ENERGY PREDICTED BY IDOCK:   -0.84 KCAL/MOL
REMARK 927      BINDING AFFINITY PREDICTED BY RF-SCORE:    0.00 PKD
ROOT
HETATM    1  N   UNL     1     -10.573  11.188  69.501  1.00  0.00    -0.430 N  
HETATM    2  C   UNL     1     -10.524  11.060  68.136  1.00  0.00    -0.189 C  
HETATM    3  H1  UNL     1     -10.296  12.095  69.875  1.00  0.00     0.000 HD 
HETATM    4  H2  UNL     1     -10.870  10.421  70.106  1.00  0.00     0.000 HD 
HETATM    5  O   UNL     1     -10.857   9.969  67.687  1.00  0.00    -0.270 OA 
ENDROOT
BRANCH   2   6
HETATM    6  C   UNL     1     -10.128  12.337  67.278  1.00  0.00    -0.212 C  
BRANCH   6   7
HETATM    7  C   UNL     1     -10.776  12.173  65.832  1.00  0.00    -0.302 A  
HETATM    8  C   UNL     1     -11.880  12.069  63.208  1.00  0.00    -0.450 A  
HETATM    9  C   UNL     1     -12.627  12.578  64.261  1.00  0.00    -0.485 A  
HETATM   10  C   UNL     1     -10.614  11.559  63.456  1.00  0.00    -0.487 A  
HETATM   11  C   UNL     1     -12.092  12.610  65.555  1.00  0.00    -0.515 A  
HETATM   12  C   UNL     1     -10.076  11.602  64.749  1.00  0.00    -0.304 A  
ENDBRANCH   6   7
BRANCH   6  13
HETATM   13  C   UNL     1     -10.677  13.626  67.996  1.00  0.00    -0.258 A  
HETATM   14  C   UNL     1     -10.706  14.870  67.319  1.00  0.00    -0.294 A  
HETATM   15  C   UNL     1     -11.110  16.048  67.957  1.00  0.00    -0.334 A  
HETATM   16  C   UNL     1     -11.527  16.019  69.280  1.00  0.00    -0.350 A  
HETATM   17  C   UNL     1     -11.150  13.623  69.318  1.00  0.00    -0.241 A  
HETATM   18  C   UNL     1     -11.559  14.800  69.960  1.00  0.00    -0.332 A  
ENDBRANCH   6  13
BRANCH   6  19
HETATM   19  C   UNL     1      -8.535  12.456  67.126  1.00  0.00    -0.185 C  
HETATM   20  C   UNL     1      -7.115  12.445  69.124  1.00  0.00     0.007 C  
HETATM   21  N   UNL     1      -7.022  13.782  68.542  1.00  0.00    -0.094 NA 
HETATM   22  C   UNL     1      -7.846  13.817  67.323  1.00  0.00    -0.097 C  
HETATM   23  C   UNL     1      -7.686  11.550  68.035  1.00  0.00    -0.119 C  
BRANCH  21  24
HETATM   24  C   UNL     1      -7.361  14.872  69.475  1.00  0.00    -0.178 C  
BRANCH  24  25
HETATM   25  C   UNL     1      -6.535  16.158  69.289  1.00  0.00    -0.182 C  
BRANCH  25  26
HETATM   26  C   UNL     1      -7.175  17.108  68.293  1.00  0.00    -0.204 A  
HETATM   27  C   UNL     1      -8.241  17.927  68.689  1.00  0.00    -0.281 A  
HETATM   28  C   UNL     1      -8.789  18.806  67.766  1.00  0.00    -0.313 A  
HETATM   29  C   UNL     1      -8.288  18.886  66.481  1.00  0.00    -0.302 A  
HETATM   30  O   UNL     1      -8.910  19.821  65.698  1.00  0.00    -0.330 OA 
HETATM   31  C   UNL     1      -7.243  18.095  66.056  1.00  0.00    -0.305 A  
HETATM   32  C   UNL     1      -6.687  17.192  66.971  1.00  0.00    -0.227 A  
HETATM   33  C   UNL     1     -10.002  20.312  66.509  1.00  0.00    -0.397 C  
HETATM   34  C   UNL     1      -9.898  19.764  67.933  1.00  0.00    -0.522 C  
ENDBRANCH  25  26
ENDBRANCH  24  25
ENDBRANCH  21  24
ENDBRANCH   6  19
ENDBRANCH   2   6
TORSDOF 7
ENDMDL
MODEL       55
REMARK 921   NORMALIZED FREE ENERGY PREDICTED BY IDOCK:   -5.85 KCAL/MOL
REMARK 922        TOTAL FREE ENERGY PREDICTED BY IDOCK:  -10.02 KCAL/MOL
REMARK 923 INTER-LIGAND FREE ENERGY PREDICTED BY IDOCK:   -9.94 KCAL/MOL
REMARK 924 INTRA-LIGAND FREE ENERGY PREDICTED BY IDOCK:   -0.08 KCAL/MOL
REMARK 927      BINDING AFFINITY PREDICTED BY RF-SCORE:    0.00 PKD
ROOT
HETATM    1  N   UNL     1     -12.390  14.681  64.275  1.00  0.00    -0.748 N  
HETATM    2  C   UNL     1     -11.515  15.663  64.663  1.00  0.00    -0.303 C  
HETATM    3  H1  UNL     1     -12.442  13.863  64.882  1.00  0.00     0.000 HD 
HETATM    4  H2  UNL     1     -12.955  14.763  63.430  1.00  0.00     0.000 HD 
HETATM    5  O   UNL     1     -11.452  16.645  63.934  1.00  0.00    -1.186 OA 
ENDROOT
BRANCH   2   6
HETATM    6  C   UNL     1     -10.742  15.476  66.039  1.00  0.00    -0.331 C  
BRANCH   6   7
HETATM    7  C   UNL     1     -10.039  14.046  66.014  1.00  0.00    -0.327 A  
HETATM    8  C   UNL     1      -8.913  11.432  66.110  1.00  0.00    -0.207 A  
HETATM    9  C   UNL     1      -8.498  12.404  67.008  1.00  0.00    -0.170 A  
HETATM   10  C   UNL     1      -9.837  11.761  65.130  1.00  0.00    -0.263 A  
HETATM   11  C   UNL     1      -9.037  13.696  66.948  1.00  0.00    -0.249 A  
HETATM   12  C   UNL     1     -10.383  13.050  65.078  1.00  0.00    -0.336 A  
ENDBRANCH   6   7
BRANCH   6  13
HETATM   13  C   UNL     1      -9.674  16.623  66.187  1.00  0.00    -0.329 A  
HETATM   14  C   UNL     1     -10.081  17.973  66.325  1.00  0.00    -0.363 A  
HETATM   15  C   UNL     1      -9.157  19.022  66.374  1.00  0.00    -0.339 A  
HETATM   16  C   UNL     1      -7.796  18.757  66.317  1.00  0.00    -0.295 A  
HETATM   17  C   UNL     1      -8.291  16.386  66.180  1.00  0.00    -0.291 A  
HETATM   18  C   UNL     1      -7.360  17.433  66.232  1.00  0.00    -0.347 A  
ENDBRANCH   6  13
BRANCH   6  19
HETATM   19  C   UNL     1     -11.757  15.537  67.281  1.00  0.00     0.099 C  
HETATM   20  C   UNL     1     -11.038  14.748  69.486  1.00  0.00    -0.279 C  
HETATM   21  N   UNL     1     -12.060  13.818  69.013  1.00  0.00    -0.350 NA 
HETATM   22  C   UNL     1     -12.534  14.277  67.698  1.00  0.00     0.189 C  
HETATM   23  C   UNL     1     -11.173  15.995  68.628  1.00  0.00    -0.366 C  
BRANCH  21  24
HETATM   24  C   UNL     1     -11.629  12.408  68.989  1.00  0.00    -0.311 C  
BRANCH  24  25
HETATM   25  C   UNL     1     -11.976  11.608  70.259  1.00  0.00    -0.445 C  
BRANCH  25  26
HETATM   26  C   UNL     1     -11.273  10.263  70.294  1.00  0.00    -0.395 A  
HETATM   27  C   UNL     1     -11.895   9.160  70.895  1.00  0.00    -0.327 A  
HETATM   28  C   UNL     1     -11.242   7.936  70.888  1.00  0.00    -0.284 A  
HETATM   29  C   UNL     1     -10.004   7.798  70.290  1.00  0.00    -0.189 A  
HETATM   30  O   UNL     1      -9.502   6.525  70.336  1.00  0.00    -0.161 OA 
HETATM   31  C   UNL     1      -9.361   8.860  69.692  1.00  0.00    -0.163 A  
HETATM   32  C   UNL     1     -10.001  10.106  69.702  1.00  0.00    -0.262 A  
HETATM   33  C   UNL     1     -10.444   5.788  71.149  1.00  0.00    -0.239 C  
HETATM   34  C   UNL     1     -11.680   6.641  71.442  1.00  0.00    -0.374 C  
ENDBRANCH  25  26
ENDBRANCH  24  25
ENDBRANCH  21  24
ENDBRANCH   6  19
ENDBRANCH   2   6
TORSDOF 7
ENDMDL
MODEL       56
REMARK 921   NORMALIZED FREE ENERGY PREDICTED BY IDOCK:   -5.82 KCAL/MOL
REMARK 922        TOTAL FREE ENERGY PREDICTED BY IDOCK:   -9.99 KCAL/MOL
REMARK 923 INTER-LIGAND FREE ENERGY PREDICTED BY IDOCK:   -9.53 KCAL/MOL
REMARK 924 INTRA-LIGAND FREE ENERGY PREDICTED BY IDOCK:   -0.45 KCAL/MOL
REMARK 927      BINDING AFFINITY PREDICTED BY RF-SCORE:    0.00 PKD
ROOT
HETATM    1  N   UNL     1     -11.199  11.620  64.324  1.00  0.00    -0.338 N  
HETATM    2  C   UNL     1     -11.320  11.960  65.647  1.00  0.00    -0.284 C  
HETATM    3  H1  UNL     1     -10.294  11.248  64.039  1.00  0.00     0.000 HD 
HETATM    4  H2  UNL     1     -11.969  11.731  63.664  1.00  0.00     0.000 HD 
HETATM    5  O   UNL     1     -12.409  12.407  65.989  1.00  0.00    -0.627 OA 
ENDROOT
BRANCH   2   6
HETATM    6  C   UNL     1     -10.090  11.671  66.611  1.00  0.00    -0.238 C  
BRANCH   6   7
HETATM    7  C   UNL     1     -10.660  11.485  68.087  1.00  0.00    -0.226 A  
HETATM    8  C   UNL     1     -11.832  11.050  70.647  1.00  0.00    -0.434 A  
HETATM    9  C   UNL     1     -12.247  12.114  69.860  1.00  0.00    -0.240 A  
HETATM   10  C   UNL     1     -10.802  10.235  70.200  1.00  0.00    -0.362 A  
HETATM   11  C   UNL     1     -11.657  12.341  68.610  1.00  0.00    -0.372 A  
HETATM   12  C   UNL     1     -10.220  10.457  68.944  1.00  0.00    -0.220 A  
ENDBRANCH   6   7
BRANCH   6  13
HETATM   13  C   UNL     1      -9.355  10.366  66.125  1.00  0.00    -0.210 A  
HETATM   14  C   UNL     1      -9.948   9.093  66.312  1.00  0.00    -0.352 A  
HETATM   15  C   UNL     1      -9.284   7.912  65.967  1.00  0.00    -0.162 A  
HETATM   16  C   UNL     1      -8.020   7.961  65.397  1.00  0.00    -0.123 A  
HETATM   17  C   UNL     1      -8.097  10.383  65.503  1.00  0.00    -0.156 A  
HETATM   18  C   UNL     1      -7.429   9.202  65.152  1.00  0.00    -0.097 A  
ENDBRANCH   6  13
BRANCH   6  19
HETATM   19  C   UNL     1      -9.053  12.895  66.601  1.00  0.00    -0.181 C  
HETATM   20  C   UNL     1      -9.040  14.498  68.455  1.00  0.00    -0.191 C  
HETATM   21  N   UNL     1      -9.517  15.215  67.275  1.00  0.00    -0.207 NA 
HETATM   22  C   UNL     1      -9.514  14.286  66.134  1.00  0.00    -0.222 C  
HETATM   23  C   UNL     1      -8.372  13.234  67.939  1.00  0.00    -0.163 C  
BRANCH  21  24
HETATM   24  C   UNL     1     -10.825  15.872  67.455  1.00  0.00    -0.291 C  
BRANCH  24  25
HETATM   25  C   UNL     1     -10.852  16.964  68.541  1.00  0.00    -0.335 C  
BRANCH  25  26
HETATM   26  C   UNL     1      -9.969  18.145  68.183  1.00  0.00    -0.368 A  
HETATM   27  C   UNL     1      -8.666  18.229  68.692  1.00  0.00    -0.290 A  
HETATM   28  C   UNL     1      -7.872  19.305  68.326  1.00  0.00    -0.354 A  
HETATM   29  C   UNL     1      -8.348  20.276  67.465  1.00  0.00    -0.310 A  
HETATM   30  O   UNL     1      -7.437  21.256  67.173  1.00  0.00    -0.416 OA 
HETATM   31  C   UNL     1      -9.623  20.229  66.947  1.00  0.00    -0.564 A  
HETATM   32  C   UNL     1     -10.444  19.155  67.317  1.00  0.00    -0.549 A  
HETATM   33  C   UNL     1      -6.301  20.966  68.019  1.00  0.00    -0.334 C  
HETATM   34  C   UNL     1      -6.484  19.616  68.715  1.00  0.00    -0.318 C  
ENDBRANCH  25  26
ENDBRANCH  24  25
ENDBRANCH  21  24
ENDBRANCH   6  19
ENDBRANCH   2   6
TORSDOF 7
ENDMDL
MODEL       57
REMARK 921   NORMALIZED FREE ENERGY PREDICTED BY IDOCK:   -5.82 KCAL/MOL
REMARK 922        TOTAL FREE ENERGY PREDICTED BY IDOCK:   -9.98 KCAL/MOL
REMARK 923 INTER-LIGAND FREE ENERGY PREDICTED BY IDOCK:   -9.43 KCAL/MOL
REMARK 924 INTRA-LIGAND FREE ENERGY PREDICTED BY IDOCK:   -0.55 KCAL/MOL
REMARK 927      BINDING AFFINITY PREDICTED BY RF-SCORE:    0.00 PKD
ROOT
HETATM    1  N   UNL     1      -7.667   6.524  71.941  1.00  0.00    -0.097 N  
HETATM    2  C   UNL     1      -8.691   7.100  71.234  1.00  0.00    -0.128 C  
HETATM    3  H1  UNL     1      -7.865   5.614  72.355  1.00  0.00     0.000 HD 
HETATM    4  H2  UNL     1      -6.759   6.979  72.047  1.00  0.00     0.000 HD 
HETATM    5  O   UNL     1      -8.452   8.195  70.737  1.00  0.00    -0.117 OA 
ENDROOT
BRANCH   2   6
HETATM    6  C   UNL     1     -10.037   6.273  71.058  1.00  0.00    -0.221 C  
BRANCH   6   7
HETATM    7  C   UNL     1     -10.036   5.104  72.140  1.00  0.00    -0.247 A  
HETATM    8  C   UNL     1     -10.235   3.003  74.053  1.00  0.00    -0.199 A  
HETATM    9  C   UNL     1     -10.431   4.321  74.440  1.00  0.00    -0.300 A  
HETATM   10  C   UNL     1      -9.885   2.724  72.740  1.00  0.00    -0.193 A  
HETATM   11  C   UNL     1     -10.313   5.356  73.504  1.00  0.00    -0.253 A  
HETATM   12  C   UNL     1      -9.779   3.760  71.803  1.00  0.00    -0.245 A  
ENDBRANCH   6   7
BRANCH   6  13
HETATM   13  C   UNL     1     -11.262   7.238  71.274  1.00  0.00    -0.281 A  
HETATM   14  C   UNL     1     -11.058   8.614  71.539  1.00  0.00    -0.358 A  
HETATM   15  C   UNL     1     -12.122   9.478  71.817  1.00  0.00    -0.459 A  
HETATM   16  C   UNL     1     -13.427   9.005  71.811  1.00  0.00    -0.467 A  
HETATM   17  C   UNL     1     -12.596   6.802  71.228  1.00  0.00    -0.328 A  
HETATM   18  C   UNL     1     -13.666   7.664  71.504  1.00  0.00    -0.440 A  
ENDBRANCH   6  13
BRANCH   6  19
HETATM   19  C   UNL     1     -10.125   5.628  69.591  1.00  0.00    -0.289 C  
HETATM   20  C   UNL     1      -8.705   6.490  67.790  1.00  0.00    -0.115 C  
HETATM   21  N   UNL     1     -10.083   6.839  67.451  1.00  0.00    -0.159 NA 
HETATM   22  C   UNL     1     -10.968   6.313  68.502  1.00  0.00    -0.340 C  
HETATM   23  C   UNL     1      -8.794   5.407  68.852  1.00  0.00    -0.105 C  
BRANCH  21  24
HETATM   24  C   UNL     1     -10.300   8.277  67.208  1.00  0.00    -0.302 C  
BRANCH  24  25
HETATM   25  C   UNL     1      -9.424   8.881  66.095  1.00  0.00    -0.318 C  
BRANCH  25  26
HETATM   26  C   UNL     1     -10.049  10.125  65.490  1.00  0.00    -0.338 A  
HETATM   27  C   UNL     1     -10.731  11.037  66.307  1.00  0.00    -0.273 A  
HETATM   28  C   UNL     1     -11.267  12.180  65.732  1.00  0.00    -0.384 A  
HETATM   29  C   UNL     1     -11.124  12.426  64.380  1.00  0.00    -0.333 A  
HETATM   30  O   UNL     1     -11.679  13.608  63.967  1.00  0.00    -0.403 OA 
HETATM   31  C   UNL     1     -10.462  11.552  63.546  1.00  0.00    -0.486 A  
HETATM   32  C   UNL     1      -9.926  10.386  64.108  1.00  0.00    -0.337 A  
HETATM   33  C   UNL     1     -12.356  14.125  65.136  1.00  0.00    -0.451 C  
HETATM   34  C   UNL     1     -12.016  13.281  66.366  1.00  0.00    -0.465 C  
ENDBRANCH  25  26
ENDBRANCH  24  25
ENDBRANCH  21  24
ENDBRANCH   6  19
ENDBRANCH   2   6
TORSDOF 7
ENDMDL
MODEL       58
REMARK 921   NORMALIZED FREE ENERGY PREDICTED BY IDOCK:   -5.82 KCAL/MOL
REMARK 922        TOTAL FREE ENERGY PREDICTED BY IDOCK:   -9.98 KCAL/MOL
REMARK 923 INTER-LIGAND FREE ENERGY PREDICTED BY IDOCK:   -8.68 KCAL/MOL
REMARK 924 INTRA-LIGAND FREE ENERGY PREDICTED BY IDOCK:   -1.29 KCAL/MOL
REMARK 927      BINDING AFFINITY PREDICTED BY RF-SCORE:    0.00 PKD
ROOT
HETATM    1  N   UNL     1      -8.217   6.891  72.198  1.00  0.00    -0.105 N  
HETATM    2  C   UNL     1      -9.181   7.433  71.388  1.00  0.00    -0.141 C  
HETATM    3  H1  UNL     1      -8.405   5.953  72.552  1.00  0.00     0.000 HD 
HETATM    4  H2  UNL     1      -7.362   7.395  72.433  1.00  0.00     0.000 HD 
HETATM    5  O   UNL     1      -8.955   8.560  70.963  1.00  0.00    -0.150 OA 
ENDROOT
BRANCH   2   6
HETATM    6  C   UNL     1     -10.438   6.535  71.015  1.00  0.00    -0.260 C  
BRANCH   6   7
HETATM    7  C   UNL     1     -10.381   5.219  71.912  1.00  0.00    -0.275 A  
HETATM    8  C   UNL     1     -10.471   2.834  73.466  1.00  0.00    -0.240 A  
HETATM    9  C   UNL     1     -10.902   4.036  74.006  1.00  0.00    -0.284 A  
HETATM   10  C   UNL     1      -9.942   2.815  72.183  1.00  0.00    -0.238 A  
HETATM   11  C   UNL     1     -10.839   5.213  73.249  1.00  0.00    -0.352 A  
HETATM   12  C   UNL     1      -9.890   3.991  71.424  1.00  0.00    -0.249 A  
ENDBRANCH   6   7
BRANCH   6  13
HETATM   13  C   UNL     1     -11.754   7.351  71.299  1.00  0.00    -0.316 A  
HETATM   14  C   UNL     1     -11.686   8.700  71.724  1.00  0.00    -0.400 A  
HETATM   15  C   UNL     1     -12.834   9.425  72.065  1.00  0.00    -0.496 A  
HETATM   16  C   UNL     1     -14.087   8.838  71.964  1.00  0.00    -0.508 A  
HETATM   17  C   UNL     1     -13.039   6.803  71.162  1.00  0.00    -0.096 A  
HETATM   18  C   UNL     1     -14.191   7.526  71.500  1.00  0.00    -0.580 A  
ENDBRANCH   6  13
BRANCH   6  19
HETATM   19  C   UNL     1     -10.403   6.113  69.466  1.00  0.00    -0.277 C  
HETATM   20  C   UNL     1      -8.685   7.044  67.987  1.00  0.00    -0.126 C  
HETATM   21  N   UNL     1      -9.966   7.596  67.553  1.00  0.00    -0.163 NA 
HETATM   22  C   UNL     1     -11.026   7.037  68.407  1.00  0.00    -0.076 C  
HETATM   23  C   UNL     1      -9.017   5.842  68.856  1.00  0.00    -0.113 C  
BRANCH  21  24
HETATM   24  C   UNL     1     -10.005   9.069  67.509  1.00  0.00    -0.207 C  
BRANCH  24  25
HETATM   25  C   UNL     1     -11.116   9.709  68.361  1.00  0.00    -0.090 C  
BRANCH  25  26
HETATM   26  C   UNL     1     -11.168  11.217  68.191  1.00  0.00    -0.356 A  
HETATM   27  C   UNL     1     -10.675  11.810  67.021  1.00  0.00    -0.286 A  
HETATM   28  C   UNL     1     -10.762  13.187  66.880  1.00  0.00    -0.270 A  
HETATM   29  C   UNL     1     -11.333  13.965  67.869  1.00  0.00    -0.292 A  
HETATM   30  O   UNL     1     -11.374  15.301  67.572  1.00  0.00    -0.331 OA 
HETATM   31  C   UNL     1     -11.826  13.418  69.033  1.00  0.00    -0.378 A  
HETATM   32  C   UNL     1     -11.735  12.029  69.197  1.00  0.00    -0.389 A  
HETATM   33  C   UNL     1     -10.650  15.424  66.326  1.00  0.00    -0.308 C  
HETATM   34  C   UNL     1     -10.326  14.040  65.759  1.00  0.00    -0.330 C  
ENDBRANCH  25  26
ENDBRANCH  24  25
ENDBRANCH  21  24
ENDBRANCH   6  19
ENDBRANCH   2   6
TORSDOF 7
ENDMDL
MODEL       59
REMARK 921   NORMALIZED FREE ENERGY PREDICTED BY IDOCK:   -5.70 KCAL/MOL
REMARK 922        TOTAL FREE ENERGY PREDICTED BY IDOCK:   -9.82 KCAL/MOL
REMARK 923 INTER-LIGAND FREE ENERGY PREDICTED BY IDOCK:   -8.02 KCAL/MOL
REMARK 924 INTRA-LIGAND FREE ENERGY PREDICTED BY IDOCK:   -1.80 KCAL/MOL
REMARK 927      BINDING AFFINITY PREDICTED BY RF-SCORE:    0.00 PKD
ROOT
HETATM    1  N   UNL     1      -8.461   6.841  68.811  1.00  0.00    -0.123 N  
HETATM    2  C   UNL     1      -8.164   8.167  68.991  1.00  0.00    -0.127 C  
HETATM    3  H1  UNL     1      -9.308   6.640  68.279  1.00  0.00     0.000 HD 
HETATM    4  H2  UNL     1      -7.870   6.098  69.186  1.00  0.00     0.000 HD 
HETATM    5  O   UNL     1      -7.146   8.408  69.630  1.00  0.00    -0.051 OA 
ENDROOT
BRANCH   2   6
HETATM    6  C   UNL     1      -9.101   9.246  68.296  1.00  0.00    -0.128 C  
BRANCH   6   7
HETATM    7  C   UNL     1     -10.312   9.550  69.287  1.00  0.00    -0.219 A  
HETATM    8  C   UNL     1     -12.363  10.239  71.139  1.00  0.00    -0.501 A  
HETATM    9  C   UNL     1     -11.354   9.363  71.509  1.00  0.00    -0.464 A  
HETATM   10  C   UNL     1     -12.396  10.731  69.842  1.00  0.00    -0.340 A  
HETATM   11  C   UNL     1     -10.356   9.008  70.591  1.00  0.00    -0.284 A  
HETATM   12  C   UNL     1     -11.391  10.383  68.929  1.00  0.00    -0.278 A  
ENDBRANCH   6   7
BRANCH   6  13
HETATM   13  C   UNL     1      -8.264  10.549  68.018  1.00  0.00    -0.112 A  
HETATM   14  C   UNL     1      -8.807  11.828  68.294  1.00  0.00    -0.172 A  
HETATM   15  C   UNL     1      -8.120  13.005  67.980  1.00  0.00    -0.157 A  
HETATM   16  C   UNL     1      -6.857  12.947  67.408  1.00  0.00    -0.133 A  
HETATM   17  C   UNL     1      -6.966  10.524  67.483  1.00  0.00    -0.080 A  
HETATM   18  C   UNL     1      -6.272  11.702  67.170  1.00  0.00    -0.133 A  
ENDBRANCH   6  13
BRANCH   6  19
HETATM   19  C   UNL     1      -9.688   8.689  66.910  1.00  0.00    -0.278 C  
HETATM   20  C   UNL     1      -8.487   9.117  64.817  1.00  0.00    -0.178 C  
HETATM   21  N   UNL     1      -9.734   9.875  64.756  1.00  0.00    -0.292 NA 
HETATM   22  C   UNL     1     -10.494   9.621  65.990  1.00  0.00     0.023 C  
HETATM   23  C   UNL     1      -8.672   8.090  65.922  1.00  0.00    -0.184 C  
BRANCH  21  24
HETATM   24  C   UNL     1      -9.554  11.316  64.499  1.00  0.00    -0.227 C  
BRANCH  24  25
HETATM   25  C   UNL     1     -10.864  12.115  64.372  1.00  0.00    -0.372 C  
BRANCH  25  26
HETATM   26  C   UNL     1     -11.000  13.164  65.461  1.00  0.00    -0.296 A  
HETATM   27  C   UNL     1     -10.281  14.363  65.376  1.00  0.00    -0.408 A  
HETATM   28  C   UNL     1     -10.447  15.316  66.371  1.00  0.00    -0.307 A  
HETATM   29  C   UNL     1     -11.314  15.095  67.424  1.00  0.00    -0.306 A  
HETATM   30  O   UNL     1     -11.393  16.139  68.307  1.00  0.00    -0.361 OA 
HETATM   31  C   UNL     1     -12.036  13.928  67.542  1.00  0.00    -0.421 A  
HETATM   32  C   UNL     1     -11.870  12.950  66.552  1.00  0.00    -0.473 A  
HETATM   33  C   UNL     1     -10.392  17.080  67.856  1.00  0.00    -0.338 C  
HETATM   34  C   UNL     1      -9.818  16.642  66.507  1.00  0.00    -0.295 C  
ENDBRANCH  25  26
ENDBRANCH  24  25
ENDBRANCH  21  24
ENDBRANCH   6  19
ENDBRANCH   2   6
TORSDOF 7
ENDMDL
MODEL       60
REMARK 921   NORMALIZED FREE ENERGY PREDICTED BY IDOCK:   -5.70 KCAL/MOL
REMARK 922        TOTAL FREE ENERGY PREDICTED BY IDOCK:   -9.81 KCAL/MOL
REMARK 923 INTER-LIGAND FREE ENERGY PREDICTED BY IDOCK:   -8.05 KCAL/MOL
REMARK 924 INTRA-LIGAND FREE ENERGY PREDICTED BY IDOCK:   -1.76 KCAL/MOL
REMARK 927      BINDING AFFINITY PREDICTED BY RF-SCORE:    0.00 PKD
ROOT
HETATM    1  N   UNL     1     -11.401   6.823  66.842  1.00  0.00    -0.792 N  
HETATM    2  C   UNL     1     -10.112   7.045  67.253  1.00  0.00    -0.204 C  
HETATM    3  H1  UNL     1     -12.037   7.617  66.917  1.00  0.00     0.000 HD 
HETATM    4  H2  UNL     1     -11.706   5.919  66.482  1.00  0.00     0.000 HD 
HETATM    5  O   UNL     1      -9.348   6.091  67.163  1.00  0.00    -0.115 OA 
ENDROOT
BRANCH   2   6
HETATM    6  C   UNL     1      -9.716   8.512  67.720  1.00  0.00    -0.199 C  
BRANCH   6   7
HETATM    7  C   UNL     1     -10.072   9.514  66.533  1.00  0.00    -0.326 A  
HETATM    8  C   UNL     1     -10.576  11.434  64.490  1.00  0.00    -0.390 A  
HETATM    9  C   UNL     1     -11.248  11.509  65.701  1.00  0.00    -0.212 A  
HETATM   10  C   UNL     1      -9.701  10.382  64.262  1.00  0.00    -0.389 A  
HETATM   11  C   UNL     1     -11.016  10.554  66.698  1.00  0.00    -0.102 A  
HETATM   12  C   UNL     1      -9.461   9.433  65.265  1.00  0.00    -0.296 A  
ENDBRANCH   6   7
BRANCH   6  13
HETATM   13  C   UNL     1     -10.527   8.872  69.020  1.00  0.00    -0.231 A  
HETATM   14  C   UNL     1     -10.865  10.217  69.309  1.00  0.00    -0.269 A  
HETATM   15  C   UNL     1     -11.512  10.576  70.496  1.00  0.00    -0.433 A  
HETATM   16  C   UNL     1     -11.869   9.604  71.420  1.00  0.00    -0.484 A  
HETATM   17  C   UNL     1     -10.945   7.909  69.952  1.00  0.00    -0.179 A  
HETATM   18  C   UNL     1     -11.596   8.264  71.142  1.00  0.00    -0.310 A  
ENDBRANCH   6  13
BRANCH   6  19
HETATM   19  C   UNL     1      -8.145   8.610  68.033  1.00  0.00    -0.111 C  
HETATM   20  C   UNL     1      -7.369   9.839  70.006  1.00  0.00    -0.144 C  
HETATM   21  N   UNL     1      -6.932  10.594  68.834  1.00  0.00    -0.067 NA 
HETATM   22  C   UNL     1      -7.361   9.870  67.627  1.00  0.00    -0.090 C  
HETATM   23  C   UNL     1      -7.723   8.449  69.504  1.00  0.00    -0.096 C  
BRANCH  21  24
HETATM   24  C   UNL     1      -7.370  12.002  68.824  1.00  0.00    -0.098 C  
BRANCH  24  25
HETATM   25  C   UNL     1      -8.085  12.443  67.533  1.00  0.00    -0.173 C  
BRANCH  25  26
HETATM   26  C   UNL     1      -8.932  13.685  67.747  1.00  0.00    -0.196 A  
HETATM   27  C   UNL     1      -8.598  14.884  67.104  1.00  0.00    -0.248 A  
HETATM   28  C   UNL     1      -9.406  15.995  67.295  1.00  0.00    -0.218 A  
HETATM   29  C   UNL     1     -10.530  15.923  68.096  1.00  0.00    -0.270 A  
HETATM   30  O   UNL     1     -11.242  17.090  68.161  1.00  0.00    -0.272 OA 
HETATM   31  C   UNL     1     -10.889  14.762  68.746  1.00  0.00    -0.259 A  
HETATM   32  C   UNL     1     -10.076  13.634  68.574  1.00  0.00    -0.219 A  
HETATM   33  C   UNL     1     -10.443  18.051  67.434  1.00  0.00    -0.387 C  
HETATM   34  C   UNL     1      -9.275  17.352  66.735  1.00  0.00    -0.274 C  
ENDBRANCH  25  26
ENDBRANCH  24  25
ENDBRANCH  21  24
ENDBRANCH   6  19
ENDBRANCH   2   6
TORSDOF 7
ENDMDL
MODEL       61
REMARK 921   NORMALIZED FREE ENERGY PREDICTED BY IDOCK:   -5.69 KCAL/MOL
REMARK 922        TOTAL FREE ENERGY PREDICTED BY IDOCK:   -9.80 KCAL/MOL
REMARK 923 INTER-LIGAND FREE ENERGY PREDICTED BY IDOCK:   -8.50 KCAL/MOL
REMARK 924 INTRA-LIGAND FREE ENERGY PREDICTED BY IDOCK:   -1.30 KCAL/MOL
REMARK 927      BINDING AFFINITY PREDICTED BY RF-SCORE:    0.00 PKD
ROOT
HETATM    1  N   UNL     1      -8.071  12.401  66.473  1.00  0.00    -0.391 N  
HETATM    2  C   UNL     1      -8.827  12.005  67.547  1.00  0.00    -0.172 C  
HETATM    3  H1  UNL     1      -7.872  11.683  65.777  1.00  0.00     0.000 HD 
HETATM    4  H2  UNL     1      -7.730  13.358  66.375  1.00  0.00     0.000 HD 
HETATM    5  O   UNL     1      -9.066  12.868  68.383  1.00  0.00    -0.190 OA 
ENDROOT
BRANCH   2   6
HETATM    6  C   UNL     1      -9.380  10.515  67.564  1.00  0.00    -0.162 C  
BRANCH   6   7
HETATM    7  C   UNL     1      -8.129   9.530  67.595  1.00  0.00    -0.110 A  
HETATM    8  C   UNL     1      -5.908   7.764  67.851  1.00  0.00    -0.040 A  
HETATM    9  C   UNL     1      -5.730   9.134  67.977  1.00  0.00    -0.038 A  
HETATM   10  C   UNL     1      -7.167   7.268  67.543  1.00  0.00    -0.090 A  
HETATM   11  C   UNL     1      -6.818  10.004  67.830  1.00  0.00    -0.075 A  
HETATM   12  C   UNL     1      -8.256   8.139  67.408  1.00  0.00    -0.122 A  
ENDBRANCH   6   7
BRANCH   6  13
HETATM   13  C   UNL     1     -10.281  10.319  68.840  1.00  0.00    -0.220 A  
HETATM   14  C   UNL     1     -11.562  10.917  68.917  1.00  0.00    -0.378 A  
HETATM   15  C   UNL     1     -12.350  10.830  70.070  1.00  0.00    -0.371 A  
HETATM   16  C   UNL     1     -11.899  10.117  71.172  1.00  0.00    -0.472 A  
HETATM   17  C   UNL     1      -9.876   9.566  69.954  1.00  0.00    -0.254 A  
HETATM   18  C   UNL     1     -10.663   9.473  71.110  1.00  0.00    -0.408 A  
ENDBRANCH   6  13
BRANCH   6  19
HETATM   19  C   UNL     1     -10.252  10.212  66.251  1.00  0.00    -0.288 C  
HETATM   20  C   UNL     1      -9.520  11.071  64.075  1.00  0.00    -0.246 C  
HETATM   21  N   UNL     1     -10.747  11.783  64.425  1.00  0.00    -0.305 NA 
HETATM   22  C   UNL     1     -11.229  11.273  65.718  1.00  0.00    -0.014 C  
HETATM   23  C   UNL     1      -9.473   9.847  64.975  1.00  0.00    -0.343 C  
BRANCH  21  24
HETATM   24  C   UNL     1     -10.615  13.252  64.419  1.00  0.00    -0.419 C  
BRANCH  24  25
HETATM   25  C   UNL     1     -11.829  14.008  64.990  1.00  0.00    -0.383 C  
BRANCH  25  26
HETATM   26  C   UNL     1     -11.502  14.706  66.297  1.00  0.00    -0.351 A  
HETATM   27  C   UNL     1     -12.086  14.268  67.493  1.00  0.00    -0.347 A  
HETATM   28  C   UNL     1     -11.747  14.905  68.678  1.00  0.00    -0.358 A  
HETATM   29  C   UNL     1     -10.841  15.948  68.686  1.00  0.00    -0.291 A  
HETATM   30  O   UNL     1     -10.585  16.453  69.932  1.00  0.00    -0.298 OA 
HETATM   31  C   UNL     1     -10.249  16.408  67.530  1.00  0.00    -0.273 A  
HETATM   32  C   UNL     1     -10.590  15.783  66.323  1.00  0.00    -0.313 A  
HETATM   33  C   UNL     1     -11.504  15.758  70.807  1.00  0.00    -0.393 C  
HETATM   34  C   UNL     1     -12.214  14.634  70.050  1.00  0.00    -0.385 C  
ENDBRANCH  25  26
ENDBRANCH  24  25
ENDBRANCH  21  24
ENDBRANCH   6  19
ENDBRANCH   2   6
TORSDOF 7
ENDMDL
MODEL       62
REMARK 921   NORMALIZED FREE ENERGY PREDICTED BY IDOCK:   -5.69 KCAL/MOL
REMARK 922        TOTAL FREE ENERGY PREDICTED BY IDOCK:   -9.80 KCAL/MOL
REMARK 923 INTER-LIGAND FREE ENERGY PREDICTED BY IDOCK:   -8.97 KCAL/MOL
REMARK 924 INTRA-LIGAND FREE ENERGY PREDICTED BY IDOCK:   -0.83 KCAL/MOL
REMARK 927      BINDING AFFINITY PREDICTED BY RF-SCORE:    0.00 PKD
ROOT
HETATM    1  N   UNL     1     -10.858  13.693  69.257  1.00  0.00    -0.422 N  
HETATM    2  C   UNL     1     -11.090  12.711  68.328  1.00  0.00    -0.261 C  
HETATM    3  H1  UNL     1      -9.974  14.194  69.167  1.00  0.00     0.000 HD 
HETATM    4  H2  UNL     1     -11.529  13.910  69.995  1.00  0.00     0.000 HD 
HETATM    5  O   UNL     1     -12.152  12.109  68.437  1.00  0.00    -0.369 OA 
ENDROOT
BRANCH   2   6
HETATM    6  C   UNL     1     -10.020  12.507  67.171  1.00  0.00    -0.217 C  
BRANCH   6   7
HETATM    7  C   UNL     1     -10.808  12.426  65.788  1.00  0.00    -0.312 A  
HETATM    8  C   UNL     1     -12.239  12.084  63.349  1.00  0.00    -0.627 A  
HETATM    9  C   UNL     1     -10.874  11.845  63.397  1.00  0.00    -0.469 A  
HETATM   10  C   UNL     1     -12.889  12.547  64.484  1.00  0.00    -0.352 A  
HETATM   11  C   UNL     1     -10.166  12.033  64.591  1.00  0.00    -0.313 A  
HETATM   12  C   UNL     1     -12.181  12.724  65.680  1.00  0.00    -0.503 A  
ENDBRANCH   6   7
BRANCH   6  13
HETATM   13  C   UNL     1      -9.021  13.723  67.177  1.00  0.00    -0.241 A  
HETATM   14  C   UNL     1      -9.388  14.960  66.593  1.00  0.00    -0.291 A  
HETATM   15  C   UNL     1      -8.492  16.031  66.509  1.00  0.00    -0.348 A  
HETATM   16  C   UNL     1      -7.212  15.915  67.032  1.00  0.00    -0.232 A  
HETATM   17  C   UNL     1      -7.736  13.654  67.738  1.00  0.00    -0.166 A  
HETATM   18  C   UNL     1      -6.836  14.726  67.660  1.00  0.00    -0.205 A  
ENDBRANCH   6  13
BRANCH   6  19
HETATM   19  C   UNL     1      -9.197  11.146  67.384  1.00  0.00    -0.157 C  
HETATM   20  C   UNL     1     -10.376   9.094  68.020  1.00  0.00    -0.222 C  
HETATM   21  N   UNL     1      -9.550   9.482  69.161  1.00  0.00    -0.164 NA 
HETATM   22  C   UNL     1      -8.807  10.701  68.803  1.00  0.00    -0.161 C  
HETATM   23  C   UNL     1      -9.832   9.861  66.826  1.00  0.00    -0.256 C  
BRANCH  21  24
HETATM   24  C   UNL     1     -10.296   9.635  70.423  1.00  0.00    -0.291 C  
BRANCH  24  25
HETATM   25  C   UNL     1     -11.501   8.688  70.577  1.00  0.00    -0.208 C  
BRANCH  25  26
HETATM   26  C   UNL     1     -11.116   7.380  71.244  1.00  0.00    -0.269 A  
HETATM   27  C   UNL     1     -10.675   6.299  70.470  1.00  0.00    -0.327 A  
HETATM   28  C   UNL     1     -10.302   5.125  71.109  1.00  0.00    -0.276 A  
HETATM   29  C   UNL     1     -10.353   5.022  72.486  1.00  0.00    -0.202 A  
HETATM   30  O   UNL     1      -9.925   3.815  72.970  1.00  0.00    -0.129 OA 
HETATM   31  C   UNL     1     -10.784   6.063  73.279  1.00  0.00    -0.284 A  
HETATM   32  C   UNL     1     -11.176   7.251  72.649  1.00  0.00    -0.355 A  
HETATM   33  C   UNL     1      -9.688   3.009  71.793  1.00  0.00    -0.160 C  
HETATM   34  C   UNL     1      -9.806   3.864  70.529  1.00  0.00    -0.180 C  
ENDBRANCH  25  26
ENDBRANCH  24  25
ENDBRANCH  21  24
ENDBRANCH   6  19
ENDBRANCH   2   6
TORSDOF 7
ENDMDL
MODEL       63
REMARK 921   NORMALIZED FREE ENERGY PREDICTED BY IDOCK:   -5.67 KCAL/MOL
REMARK 922        TOTAL FREE ENERGY PREDICTED BY IDOCK:   -9.77 KCAL/MOL
REMARK 923 INTER-LIGAND FREE ENERGY PREDICTED BY IDOCK:   -8.75 KCAL/MOL
REMARK 924 INTRA-LIGAND FREE ENERGY PREDICTED BY IDOCK:   -1.03 KCAL/MOL
REMARK 927      BINDING AFFINITY PREDICTED BY RF-SCORE:    0.00 PKD
ROOT
HETATM    1  N   UNL     1     -11.933   5.719  72.817  1.00  0.00    -0.539 N  
HETATM    2  C   UNL     1     -11.590   6.171  71.568  1.00  0.00    -0.241 C  
HETATM    3  H1  UNL     1     -11.204   5.226  73.330  1.00  0.00     0.000 HD 
HETATM    4  H2  UNL     1     -12.863   5.868  73.209  1.00  0.00     0.000 HD 
HETATM    5  O   UNL     1     -12.467   6.764  70.951  1.00  0.00    -0.364 OA 
ENDROOT
BRANCH   2   6
HETATM    6  C   UNL     1     -10.091   5.962  71.082  1.00  0.00    -0.249 C  
BRANCH   6   7
HETATM    7  C   UNL     1      -9.511   4.680  71.828  1.00  0.00    -0.205 A  
HETATM    8  C   UNL     1      -8.594   2.431  73.318  1.00  0.00    -0.070 A  
HETATM    9  C   UNL     1      -8.022   3.679  73.514  1.00  0.00    -0.079 A  
HETATM   10  C   UNL     1      -9.576   2.277  72.349  1.00  0.00    -0.171 A  
HETATM   11  C   UNL     1      -8.458   4.781  72.767  1.00  0.00    -0.112 A  
HETATM   12  C   UNL     1     -10.019   3.383  71.611  1.00  0.00    -0.177 A  
ENDBRANCH   6   7
BRANCH   6  13
HETATM   13  C   UNL     1     -10.084   5.754  69.522  1.00  0.00    -0.278 A  
HETATM   14  C   UNL     1      -9.113   4.923  68.910  1.00  0.00    -0.149 A  
HETATM   15  C   UNL     1      -9.030   4.785  67.520  1.00  0.00    -0.118 A  
HETATM   16  C   UNL     1      -9.929   5.447  66.697  1.00  0.00    -0.220 A  
HETATM   17  C   UNL     1     -11.008   6.370  68.663  1.00  0.00    -0.404 A  
HETATM   18  C   UNL     1     -10.930   6.233  67.270  1.00  0.00    -0.455 A  
ENDBRANCH   6  13
BRANCH   6  19
HETATM   19  C   UNL     1      -9.186   7.235  71.449  1.00  0.00    -0.145 C  
HETATM   20  C   UNL     1     -10.006   9.495  70.973  1.00  0.00    -0.199 C  
HETATM   21  N   UNL     1      -8.874   9.256  70.082  1.00  0.00    -0.193 NA 
HETATM   22  C   UNL     1      -8.339   7.913  70.359  1.00  0.00    -0.121 C  
HETATM   23  C   UNL     1      -9.911   8.443  72.066  1.00  0.00    -0.354 C  
BRANCH  21  24
HETATM   24  C   UNL     1      -9.177   9.450  68.652  1.00  0.00    -0.131 C  
BRANCH  24  25
HETATM   25  C   UNL     1     -10.627   9.877  68.355  1.00  0.00    -0.258 C  
BRANCH  25  26
HETATM   26  C   UNL     1     -10.757  10.546  66.999  1.00  0.00    -0.310 A  
HETATM   27  C   UNL     1     -11.530  11.706  66.859  1.00  0.00    -0.320 A  
HETATM   28  C   UNL     1     -11.608  12.314  65.614  1.00  0.00    -0.433 A  
HETATM   29  C   UNL     1     -10.928  11.794  64.530  1.00  0.00    -0.324 A  
HETATM   30  O   UNL     1     -11.077  12.521  63.379  1.00  0.00    -0.459 OA 
HETATM   31  C   UNL     1     -10.160  10.655  64.628  1.00  0.00    -0.417 A  
HETATM   32  C   UNL     1     -10.081  10.021  65.876  1.00  0.00    -0.319 A  
HETATM   33  C   UNL     1     -12.045  13.543  63.711  1.00  0.00    -0.425 C  
HETATM   34  C   UNL     1     -12.341  13.529  65.213  1.00  0.00    -0.506 C  
ENDBRANCH  25  26
ENDBRANCH  24  25
ENDBRANCH  21  24
ENDBRANCH   6  19
ENDBRANCH   2   6
TORSDOF 7
ENDMDL
MODEL       64
REMARK 921   NORMALIZED FREE ENERGY PREDICTED BY IDOCK:   -5.67 KCAL/MOL
REMARK 922        TOTAL FREE ENERGY PREDICTED BY IDOCK:   -9.77 KCAL/MOL
REMARK 923 INTER-LIGAND FREE ENERGY PREDICTED BY IDOCK:   -8.54 KCAL/MOL
REMARK 924 INTRA-LIGAND FREE ENERGY PREDICTED BY IDOCK:   -1.23 KCAL/MOL
REMARK 927      BINDING AFFINITY PREDICTED BY RF-SCORE:    0.00 PKD
ROOT
HETATM    1  N   UNL     1      -9.983  17.307  67.131  1.00  0.00    -0.273 N  
HETATM    2  C   UNL     1      -9.787  16.365  68.108  1.00  0.00    -0.238 C  
HETATM    3  H1  UNL     1     -10.547  17.014  66.333  1.00  0.00     0.000 HD 
HETATM    4  H2  UNL     1      -9.589  18.246  67.197  1.00  0.00     0.000 HD 
HETATM    5  O   UNL     1      -9.110  16.718  69.066  1.00  0.00    -0.256 OA 
ENDROOT
BRANCH   2   6
HETATM    6  C   UNL     1     -10.513  14.960  67.949  1.00  0.00    -0.250 C  
BRANCH   6   7
HETATM    7  C   UNL     1      -9.386  13.844  67.793  1.00  0.00    -0.204 A  
HETATM    8  C   UNL     1      -7.306  11.900  67.697  1.00  0.00    -0.123 A  
HETATM    9  C   UNL     1      -7.051  13.214  67.336  1.00  0.00    -0.116 A  
HETATM   10  C   UNL     1      -8.596  11.530  68.049  1.00  0.00    -0.150 A  
HETATM   11  C   UNL     1      -8.078  14.167  67.364  1.00  0.00    -0.205 A  
HETATM   12  C   UNL     1      -9.620  12.486  68.086  1.00  0.00    -0.215 A  
ENDBRANCH   6   7
BRANCH   6  13
HETATM   13  C   UNL     1     -11.394  14.692  69.226  1.00  0.00    -0.313 A  
HETATM   14  C   UNL     1     -11.473  13.394  69.787  1.00  0.00    -0.236 A  
HETATM   15  C   UNL     1     -12.312  13.108  70.870  1.00  0.00    -0.393 A  
HETATM   16  C   UNL     1     -13.076  14.112  71.447  1.00  0.00    -0.428 A  
HETATM   17  C   UNL     1     -12.143  15.695  69.862  1.00  0.00    -0.360 A  
HETATM   18  C   UNL     1     -12.982  15.413  70.949  1.00  0.00    -0.539 A  
ENDBRANCH   6  13
BRANCH   6  19
HETATM   19  C   UNL     1     -11.450  14.942  66.647  1.00  0.00    -0.297 C  
HETATM   20  C   UNL     1     -12.123  12.803  65.658  1.00  0.00    -0.459 C  
HETATM   21  N   UNL     1     -11.229  13.452  64.702  1.00  0.00    -0.343 NA 
HETATM   22  C   UNL     1     -10.824  14.754  65.255  1.00  0.00    -0.383 C  
HETATM   23  C   UNL     1     -12.573  13.891  66.620  1.00  0.00    -0.177 C  
BRANCH  21  24
HETATM   24  C   UNL     1     -10.071  12.631  64.305  1.00  0.00    -0.266 C  
BRANCH  24  25
HETATM   25  C   UNL     1     -10.431  11.306  63.608  1.00  0.00    -0.464 C  
BRANCH  25  26
HETATM   26  C   UNL     1      -9.653  10.133  64.177  1.00  0.00    -0.336 A  
HETATM   27  C   UNL     1      -9.891   9.702  65.489  1.00  0.00    -0.352 A  
HETATM   28  C   UNL     1      -9.187   8.610  65.974  1.00  0.00    -0.276 A  
HETATM   29  C   UNL     1      -8.273   7.947  65.177  1.00  0.00    -0.141 A  
HETATM   30  O   UNL     1      -7.682   6.872  65.784  1.00  0.00    -0.090 OA 
HETATM   31  C   UNL     1      -8.011   8.343  63.884  1.00  0.00    -0.158 A  
HETATM   32  C   UNL     1      -8.704   9.453  63.383  1.00  0.00    -0.219 A  
HETATM   33  C   UNL     1      -8.163   6.909  67.148  1.00  0.00    -0.118 C  
HETATM   34  C   UNL     1      -9.257   7.967  67.299  1.00  0.00    -0.164 C  
ENDBRANCH  25  26
ENDBRANCH  24  25
ENDBRANCH  21  24
ENDBRANCH   6  19
ENDBRANCH   2   6
TORSDOF 7
ENDMDL
MODEL       65
REMARK 921   NORMALIZED FREE ENERGY PREDICTED BY IDOCK:   -5.65 KCAL/MOL
REMARK 922        TOTAL FREE ENERGY PREDICTED BY IDOCK:   -9.75 KCAL/MOL
REMARK 923 INTER-LIGAND FREE ENERGY PREDICTED BY IDOCK:   -8.40 KCAL/MOL
REMARK 924 INTRA-LIGAND FREE ENERGY PREDICTED BY IDOCK:   -1.35 KCAL/MOL
REMARK 927      BINDING AFFINITY PREDICTED BY RF-SCORE:    0.00 PKD
ROOT
HETATM    1  N   UNL     1     -10.153  10.146  64.852  1.00  0.00    -0.314 N  
HETATM    2  C   UNL     1     -10.262  10.173  66.219  1.00  0.00    -0.219 C  
HETATM    3  H1  UNL     1     -10.059  11.052  64.393  1.00  0.00     0.000 HD 
HETATM    4  H2  UNL     1     -10.165   9.272  64.326  1.00  0.00     0.000 HD 
HETATM    5  O   UNL     1     -10.375   9.085  66.771  1.00  0.00    -0.261 OA 
ENDROOT
BRANCH   2   6
HETATM    6  C   UNL     1     -10.149  11.579  66.952  1.00  0.00    -0.241 C  
BRANCH   6   7
HETATM    7  C   UNL     1     -10.764  12.685  65.983  1.00  0.00    -0.295 A  
HETATM    8  C   UNL     1     -11.957  14.740  64.412  1.00  0.00    -0.433 A  
HETATM    9  C   UNL     1     -12.655  13.573  64.683  1.00  0.00    -0.303 A  
HETATM   10  C   UNL     1     -10.652  14.872  64.865  1.00  0.00    -0.417 A  
HETATM   11  C   UNL     1     -12.062  12.553  65.438  1.00  0.00    -0.494 A  
HETATM   12  C   UNL     1     -10.064  13.855  65.629  1.00  0.00    -0.332 A  
ENDBRANCH   6   7
BRANCH   6  13
HETATM   13  C   UNL     1     -10.945  11.515  68.308  1.00  0.00    -0.272 A  
HETATM   14  C   UNL     1     -11.466  12.695  68.894  1.00  0.00    -0.354 A  
HETATM   15  C   UNL     1     -12.105  12.681  70.138  1.00  0.00    -0.368 A  
HETATM   16  C   UNL     1     -12.273  11.487  70.825  1.00  0.00    -0.463 A  
HETATM   17  C   UNL     1     -11.174  10.319  69.005  1.00  0.00    -0.260 A  
HETATM   18  C   UNL     1     -11.816  10.299  70.251  1.00  0.00    -0.372 A  
ENDBRANCH   6  13
BRANCH   6  19
HETATM   19  C   UNL     1      -8.616  11.946  67.256  1.00  0.00    -0.170 C  
HETATM   20  C   UNL     1      -6.976  10.156  67.591  1.00  0.00    -0.085 C  
HETATM   21  N   UNL     1      -7.136  10.833  68.875  1.00  0.00    -0.074 NA 
HETATM   22  C   UNL     1      -8.099  11.933  68.705  1.00  0.00    -0.086 C  
HETATM   23  C   UNL     1      -7.549  11.098  66.544  1.00  0.00    -0.135 C  
BRANCH  21  24
HETATM   24  C   UNL     1      -7.504   9.938  69.988  1.00  0.00    -0.168 C  
BRANCH  24  25
HETATM   25  C   UNL     1      -8.132   8.600  69.557  1.00  0.00    -0.110 C  
BRANCH  25  26
HETATM   26  C   UNL     1      -8.858   7.916  70.701  1.00  0.00    -0.140 A  
HETATM   27  C   UNL     1      -9.157   6.549  70.628  1.00  0.00    -0.148 A  
HETATM   28  C   UNL     1      -9.796   5.944  71.701  1.00  0.00    -0.197 A  
HETATM   29  C   UNL     1     -10.124   6.670  72.829  1.00  0.00    -0.177 A  
HETATM   30  O   UNL     1     -10.721   5.929  73.813  1.00  0.00    -0.264 OA 
HETATM   31  C   UNL     1      -9.849   8.016  72.936  1.00  0.00    -0.357 A  
HETATM   32  C   UNL     1      -9.216   8.645  71.857  1.00  0.00    -0.345 A  
HETATM   33  C   UNL     1     -10.913   4.622  73.225  1.00  0.00    -0.303 C  
HETATM   34  C   UNL     1     -10.209   4.539  71.869  1.00  0.00    -0.241 C  
ENDBRANCH  25  26
ENDBRANCH  24  25
ENDBRANCH  21  24
ENDBRANCH   6  19
ENDBRANCH   2   6
TORSDOF 7
ENDMDL
MODEL       66
REMARK 921   NORMALIZED FREE ENERGY PREDICTED BY IDOCK:   -5.64 KCAL/MOL
REMARK 922        TOTAL FREE ENERGY PREDICTED BY IDOCK:   -9.73 KCAL/MOL
REMARK 923 INTER-LIGAND FREE ENERGY PREDICTED BY IDOCK:   -8.99 KCAL/MOL
REMARK 924 INTRA-LIGAND FREE ENERGY PREDICTED BY IDOCK:   -0.74 KCAL/MOL
REMARK 927      BINDING AFFINITY PREDICTED BY RF-SCORE:    0.00 PKD
ROOT
HETATM    1  N   UNL     1     -10.127  14.643  69.352  1.00  0.00    -0.407 N  
HETATM    2  C   UNL     1     -10.505  15.323  68.223  1.00  0.00    -0.244 C  
HETATM    3  H1  UNL     1      -9.123  14.520  69.486  1.00  0.00     0.000 HD 
HETATM    4  H2  UNL     1     -10.808  14.280  70.019  1.00  0.00     0.000 HD 
HETATM    5  O   UNL     1     -11.711  15.470  68.063  1.00  0.00    -0.322 OA 
ENDROOT
BRANCH   2   6
HETATM    6  C   UNL     1      -9.364  15.919  67.291  1.00  0.00    -0.218 C  
BRANCH   6   7
HETATM    7  C   UNL     1      -9.478  17.507  67.335  1.00  0.00    -0.255 A  
HETATM    8  C   UNL     1      -9.801  20.337  67.253  1.00  0.00    -0.593 A  
HETATM    9  C   UNL     1      -8.827  19.722  66.481  1.00  0.00    -0.420 A  
HETATM   10  C   UNL     1     -10.577  19.567  68.108  1.00  0.00    -0.404 A  
HETATM   11  C   UNL     1      -8.654  18.333  66.536  1.00  0.00    -0.283 A  
HETATM   12  C   UNL     1     -10.410  18.177  68.154  1.00  0.00    -0.393 A  
ENDBRANCH   6   7
BRANCH   6  13
HETATM   13  C   UNL     1      -7.963  15.442  67.827  1.00  0.00    -0.159 A  
HETATM   14  C   UNL     1      -7.399  14.221  67.383  1.00  0.00    -0.152 A  
HETATM   15  C   UNL     1      -6.197  13.731  67.904  1.00  0.00    -0.160 A  
HETATM   16  C   UNL     1      -5.502  14.456  68.861  1.00  0.00    -0.087 A  
HETATM   17  C   UNL     1      -7.212  16.174  68.760  1.00  0.00    -0.170 A  
HETATM   18  C   UNL     1      -6.004  15.689  69.282  1.00  0.00    -0.112 A  
ENDBRANCH   6  13
BRANCH   6  19
HETATM   19  C   UNL     1      -9.545  15.424  65.774  1.00  0.00    -0.368 C  
HETATM   20  C   UNL     1     -11.767  14.796  64.953  1.00  0.00    -0.390 C  
HETATM   21  N   UNL     1     -10.967  13.574  64.996  1.00  0.00    -0.318 NA 
HETATM   22  C   UNL     1      -9.615  13.920  65.463  1.00  0.00     0.022 C  
HETATM   23  C   UNL     1     -10.779  15.949  65.020  1.00  0.00    -0.426 C  
BRANCH  21  24
HETATM   24  C   UNL     1     -11.568  12.485  65.788  1.00  0.00    -0.392 C  
BRANCH  24  25
HETATM   25  C   UNL     1     -10.669  11.249  65.968  1.00  0.00    -0.301 C  
BRANCH  25  26
HETATM   26  C   UNL     1     -10.764  10.674  67.370  1.00  0.00    -0.326 A  
HETATM   27  C   UNL     1     -11.798  11.075  68.225  1.00  0.00    -0.221 A  
HETATM   28  C   UNL     1     -11.878  10.512  69.491  1.00  0.00    -0.287 A  
HETATM   29  C   UNL     1     -10.961   9.563  69.902  1.00  0.00    -0.238 A  
HETATM   30  O   UNL     1     -11.189   9.079  71.162  1.00  0.00    -0.260 OA 
HETATM   31  C   UNL     1      -9.930   9.146  69.089  1.00  0.00    -0.189 A  
HETATM   32  C   UNL     1      -9.828   9.714  67.812  1.00  0.00    -0.192 A  
HETATM   33  C   UNL     1     -12.284   9.876  71.671  1.00  0.00    -0.395 C  
HETATM   34  C   UNL     1     -12.860  10.759  70.563  1.00  0.00    -0.335 C  
ENDBRANCH  25  26
ENDBRANCH  24  25
ENDBRANCH  21  24
ENDBRANCH   6  19
ENDBRANCH   2   6
TORSDOF 7
ENDMDL
MODEL       67
REMARK 921   NORMALIZED FREE ENERGY PREDICTED BY IDOCK:   -5.62 KCAL/MOL
REMARK 922        TOTAL FREE ENERGY PREDICTED BY IDOCK:   -9.70 KCAL/MOL
REMARK 923 INTER-LIGAND FREE ENERGY PREDICTED BY IDOCK:   -8.85 KCAL/MOL
REMARK 924 INTRA-LIGAND FREE ENERGY PREDICTED BY IDOCK:   -0.85 KCAL/MOL
REMARK 927      BINDING AFFINITY PREDICTED BY RF-SCORE:    0.00 PKD
ROOT
HETATM    1  N   UNL     1     -10.157   8.828  66.102  1.00  0.00    -0.424 N  
HETATM    2  C   UNL     1     -10.433   9.015  67.432  1.00  0.00    -0.269 C  
HETATM    3  H1  UNL     1      -9.544   8.045  65.878  1.00  0.00     0.000 HD 
HETATM    4  H2  UNL     1     -10.542   9.437  65.379  1.00  0.00     0.000 HD 
HETATM    5  O   UNL     1     -11.170   9.957  67.701  1.00  0.00    -0.211 OA 
ENDROOT
BRANCH   2   6
HETATM    6  C   UNL     1      -9.851   7.964  68.473  1.00  0.00    -0.186 C  
BRANCH   6   7
HETATM    7  C   UNL     1     -10.821   7.940  69.736  1.00  0.00    -0.202 A  
HETATM    8  C   UNL     1     -12.711   7.902  71.868  1.00  0.00    -0.341 A  
HETATM    9  C   UNL     1     -12.315   9.107  71.306  1.00  0.00    -0.382 A  
HETATM   10  C   UNL     1     -12.135   6.722  71.421  1.00  0.00    -0.415 A  
HETATM   11  C   UNL     1     -11.370   9.128  70.272  1.00  0.00    -0.217 A  
HETATM   12  C   UNL     1     -11.198   6.744  70.379  1.00  0.00    -0.378 A  
ENDBRANCH   6   7
BRANCH   6  13
HETATM   13  C   UNL     1      -9.787   6.548  67.788  1.00  0.00    -0.139 A  
HETATM   14  C   UNL     1      -8.703   5.672  68.043  1.00  0.00    -0.099 A  
HETATM   15  C   UNL     1      -8.577   4.444  67.386  1.00  0.00    -0.105 A  
HETATM   16  C   UNL     1      -9.541   4.034  66.477  1.00  0.00    -0.223 A  
HETATM   17  C   UNL     1     -10.770   6.083  66.899  1.00  0.00    -0.407 A  
HETATM   18  C   UNL     1     -10.648   4.851  66.241  1.00  0.00    -0.307 A  
ENDBRANCH   6  13
BRANCH   6  19
HETATM   19  C   UNL     1      -8.378   8.385  68.952  1.00  0.00    -0.119 C  
HETATM   20  C   UNL     1      -7.909  10.716  69.545  1.00  0.00    -0.083 C  
HETATM   21  N   UNL     1      -7.161  10.428  68.324  1.00  0.00    -0.077 NA 
HETATM   22  C   UNL     1      -7.401   9.024  67.952  1.00  0.00    -0.084 C  
HETATM   23  C   UNL     1      -8.292   9.368  70.133  1.00  0.00    -0.197 C  
BRANCH  21  24
HETATM   24  C   UNL     1      -7.439  11.354  67.211  1.00  0.00    -0.134 C  
BRANCH  24  25
HETATM   25  C   UNL     1      -8.247  12.605  67.602  1.00  0.00    -0.174 C  
BRANCH  25  26
HETATM   26  C   UNL     1      -9.565  12.690  66.854  1.00  0.00    -0.232 A  
HETATM   27  C   UNL     1      -9.681  12.142  65.570  1.00  0.00    -0.197 A  
HETATM   28  C   UNL     1     -10.905  12.208  64.921  1.00  0.00    -0.352 A  
HETATM   29  C   UNL     1     -11.998  12.792  65.531  1.00  0.00    -0.449 A  
HETATM   30  O   UNL     1     -13.142  12.752  64.779  1.00  0.00    -0.813 OA 
HETATM   31  C   UNL     1     -11.922  13.342  66.791  1.00  0.00    -0.447 A  
HETATM   32  C   UNL     1     -10.689  13.296  67.456  1.00  0.00    -0.259 A  
HETATM   33  C   UNL     1     -12.728  12.201  63.508  1.00  0.00    -0.431 C  
HETATM   34  C   UNL     1     -11.282  11.709  63.585  1.00  0.00    -0.497 C  
ENDBRANCH  25  26
ENDBRANCH  24  25
ENDBRANCH  21  24
ENDBRANCH   6  19
ENDBRANCH   2   6
TORSDOF 7
ENDMDL
MODEL       68
REMARK 921   NORMALIZED FREE ENERGY PREDICTED BY IDOCK:   -5.61 KCAL/MOL
REMARK 922        TOTAL FREE ENERGY PREDICTED BY IDOCK:   -9.69 KCAL/MOL
REMARK 923 INTER-LIGAND FREE ENERGY PREDICTED BY IDOCK:   -7.98 KCAL/MOL
REMARK 924 INTRA-LIGAND FREE ENERGY PREDICTED BY IDOCK:   -1.71 KCAL/MOL
REMARK 927      BINDING AFFINITY PREDICTED BY RF-SCORE:    0.00 PKD
ROOT
HETATM    1  N   UNL     1     -12.923  12.357  64.365  1.00  0.00    -0.707 N  
HETATM    2  C   UNL     1     -11.552  12.406  64.381  1.00  0.00    -0.354 C  
HETATM    3  H1  UNL     1     -13.383  12.395  65.274  1.00  0.00     0.000 HD 
HETATM    4  H2  UNL     1     -13.451  12.288  63.495  1.00  0.00     0.000 HD 
HETATM    5  O   UNL     1     -11.000  12.360  63.288  1.00  0.00    -0.438 OA 
ENDROOT
BRANCH   2   6
HETATM    6  C   UNL     1     -10.827  12.597  65.782  1.00  0.00    -0.304 C  
BRANCH   6   7
HETATM    7  C   UNL     1      -9.640  11.537  65.866  1.00  0.00    -0.254 A  
HETATM    8  C   UNL     1      -7.603   9.571  66.184  1.00  0.00    -0.100 A  
HETATM    9  C   UNL     1      -7.504  10.792  66.835  1.00  0.00    -0.120 A  
HETATM   10  C   UNL     1      -8.674   9.340  65.332  1.00  0.00    -0.208 A  
HETATM   11  C   UNL     1      -8.495  11.767  66.662  1.00  0.00    -0.153 A  
HETATM   12  C   UNL     1      -9.670  10.312  65.169  1.00  0.00    -0.364 A  
ENDBRANCH   6   7
BRANCH   6  13
HETATM   13  C   UNL     1     -10.272  14.068  65.874  1.00  0.00    -0.332 A  
HETATM   14  C   UNL     1      -9.078  14.344  66.584  1.00  0.00    -0.265 A  
HETATM   15  C   UNL     1      -8.606  15.650  66.753  1.00  0.00    -0.309 A  
HETATM   16  C   UNL     1      -9.292  16.720  66.196  1.00  0.00    -0.288 A  
HETATM   17  C   UNL     1     -10.916  15.166  65.283  1.00  0.00    -0.405 A  
HETATM   18  C   UNL     1     -10.445  16.477  65.448  1.00  0.00    -0.291 A  
ENDBRANCH   6  13
BRANCH   6  19
HETATM   19  C   UNL     1     -11.844  12.339  66.996  1.00  0.00    -0.329 C  
HETATM   20  C   UNL     1     -11.120  12.742  69.302  1.00  0.00    -0.133 C  
HETATM   21  N   UNL     1     -11.311  11.301  69.161  1.00  0.00    -0.255 NA 
HETATM   22  C   UNL     1     -11.771  11.025  67.791  1.00  0.00    -0.088 C  
HETATM   23  C   UNL     1     -11.845  13.381  68.129  1.00  0.00    -0.396 C  
BRANCH  21  24
HETATM   24  C   UNL     1     -10.130  10.496  69.524  1.00  0.00    -0.178 C  
BRANCH  24  25
HETATM   25  C   UNL     1     -10.449   9.076  70.027  1.00  0.00    -0.233 C  
BRANCH  25  26
HETATM   26  C   UNL     1      -9.821   8.007  69.152  1.00  0.00    -0.178 A  
HETATM   27  C   UNL     1     -10.604   7.313  68.220  1.00  0.00    -0.217 A  
HETATM   28  C   UNL     1      -9.998   6.361  67.412  1.00  0.00    -0.172 A  
HETATM   29  C   UNL     1      -8.644   6.106  67.514  1.00  0.00    -0.106 A  
HETATM   30  O   UNL     1      -8.187   5.165  66.631  1.00  0.00    -0.108 OA 
HETATM   31  C   UNL     1      -7.843   6.767  68.420  1.00  0.00    -0.114 A  
HETATM   32  C   UNL     1      -8.442   7.722  69.252  1.00  0.00    -0.138 A  
HETATM   33  C   UNL     1      -9.376   4.668  65.974  1.00  0.00    -0.156 C  
HETATM   34  C   UNL     1     -10.592   5.510  66.366  1.00  0.00    -0.291 C  
ENDBRANCH  25  26
ENDBRANCH  24  25
ENDBRANCH  21  24
ENDBRANCH   6  19
ENDBRANCH   2   6
TORSDOF 7
ENDMDL
MODEL       69
REMARK 921   NORMALIZED FREE ENERGY PREDICTED BY IDOCK:   -5.60 KCAL/MOL
REMARK 922        TOTAL FREE ENERGY PREDICTED BY IDOCK:   -9.68 KCAL/MOL
REMARK 923 INTER-LIGAND FREE ENERGY PREDICTED BY IDOCK:   -7.90 KCAL/MOL
REMARK 924 INTRA-LIGAND FREE ENERGY PREDICTED BY IDOCK:   -1.78 KCAL/MOL
REMARK 927      BINDING AFFINITY PREDICTED BY RF-SCORE:    0.00 PKD
ROOT
HETATM    1  N   UNL     1     -12.294  15.666  68.469  1.00  0.00    -0.402 N  
HETATM    2  C   UNL     1     -11.740  14.421  68.313  1.00  0.00    -0.341 C  
HETATM    3  H1  UNL     1     -11.916  16.402  67.873  1.00  0.00     0.000 HD 
HETATM    4  H2  UNL     1     -13.041  15.845  69.141  1.00  0.00     0.000 HD 
HETATM    5  O   UNL     1     -12.195  13.537  69.030  1.00  0.00    -0.320 OA 
ENDROOT
BRANCH   2   6
HETATM    6  C   UNL     1     -10.640  14.227  67.182  1.00  0.00    -0.279 C  
BRANCH   6   7
HETATM    7  C   UNL     1      -9.528  15.349  67.386  1.00  0.00    -0.207 A  
HETATM    8  C   UNL     1      -7.686  17.492  67.751  1.00  0.00    -0.209 A  
HETATM    9  C   UNL     1      -8.111  17.145  66.477  1.00  0.00    -0.318 A  
HETATM   10  C   UNL     1      -8.121  16.749  68.839  1.00  0.00    -0.230 A  
HETATM   11  C   UNL     1      -9.001  16.078  66.295  1.00  0.00    -0.380 A  
HETATM   12  C   UNL     1      -9.020  15.689  68.656  1.00  0.00    -0.202 A  
ENDBRANCH   6   7
BRANCH   6  13
HETATM   13  C   UNL     1     -10.017  12.788  67.316  1.00  0.00    -0.219 A  
HETATM   14  C   UNL     1      -8.622  12.591  67.170  1.00  0.00    -0.200 A  
HETATM   15  C   UNL     1      -8.050  11.314  67.201  1.00  0.00    -0.150 A  
HETATM   16  C   UNL     1      -8.845  10.196  67.408  1.00  0.00    -0.135 A  
HETATM   17  C   UNL     1     -10.786  11.642  67.571  1.00  0.00    -0.287 A  
HETATM   18  C   UNL     1     -10.217  10.361  67.606  1.00  0.00    -0.240 A  
ENDBRANCH   6  13
BRANCH   6  19
HETATM   19  C   UNL     1     -11.285  14.390  65.721  1.00  0.00    -0.326 C  
HETATM   20  C   UNL     1     -12.643  12.581  64.778  1.00  0.00    -0.413 C  
HETATM   21  N   UNL     1     -11.423  12.659  63.979  1.00  0.00    -0.377 NA 
HETATM   22  C   UNL     1     -10.592  13.755  64.504  1.00  0.00    -0.386 C  
HETATM   23  C   UNL     1     -12.729  13.891  65.545  1.00  0.00    -0.536 C  
BRANCH  21  24
HETATM   24  C   UNL     1     -10.678  11.390  63.888  1.00  0.00    -0.397 C  
BRANCH  24  25
HETATM   25  C   UNL     1      -9.392  11.459  63.043  1.00  0.00    -0.344 C  
BRANCH  25  26
HETATM   26  C   UNL     1      -8.442  10.317  63.357  1.00  0.00    -0.185 A  
HETATM   27  C   UNL     1      -8.876   9.237  64.137  1.00  0.00    -0.178 A  
HETATM   28  C   UNL     1      -7.996   8.193  64.385  1.00  0.00    -0.145 A  
HETATM   29  C   UNL     1      -6.717   8.208  63.863  1.00  0.00    -0.071 A  
HETATM   30  O   UNL     1      -5.979   7.095  64.168  1.00  0.00    -0.036 OA 
HETATM   31  C   UNL     1      -6.255   9.253  63.094  1.00  0.00    -0.090 A  
HETATM   32  C   UNL     1      -7.126  10.322  62.845  1.00  0.00    -0.127 A  
HETATM   33  C   UNL     1      -6.811   6.339  65.077  1.00  0.00    -0.051 C  
HETATM   34  C   UNL     1      -8.208   6.958  65.162  1.00  0.00    -0.115 C  
ENDBRANCH  25  26
ENDBRANCH  24  25
ENDBRANCH  21  24
ENDBRANCH   6  19
ENDBRANCH   2   6
TORSDOF 7
ENDMDL
MODEL       70
REMARK 921   NORMALIZED FREE ENERGY PREDICTED BY IDOCK:   -5.60 KCAL/MOL
REMARK 922        TOTAL FREE ENERGY PREDICTED BY IDOCK:   -9.68 KCAL/MOL
REMARK 923 INTER-LIGAND FREE ENERGY PREDICTED BY IDOCK:   -9.00 KCAL/MOL
REMARK 924 INTRA-LIGAND FREE ENERGY PREDICTED BY IDOCK:   -0.67 KCAL/MOL
REMARK 927      BINDING AFFINITY PREDICTED BY RF-SCORE:    0.00 PKD
ROOT
HETATM    1  N   UNL     1     -11.222   6.406  68.227  1.00  0.00    -0.518 N  
HETATM    2  C   UNL     1     -11.036   6.292  69.581  1.00  0.00    -0.412 C  
HETATM    3  H1  UNL     1     -10.414   6.190  67.645  1.00  0.00     0.000 HD 
HETATM    4  H2  UNL     1     -12.117   6.689  67.826  1.00  0.00     0.000 HD 
HETATM    5  O   UNL     1     -12.008   6.551  70.281  1.00  0.00    -0.394 OA 
ENDROOT
BRANCH   2   6
HETATM    6  C   UNL     1      -9.631   5.764  70.102  1.00  0.00    -0.208 C  
BRANCH   6   7
HETATM    7  C   UNL     1      -9.878   4.992  71.474  1.00  0.00    -0.241 A  
HETATM    8  C   UNL     1     -10.420   3.474  73.823  1.00  0.00    -0.260 A  
HETATM    9  C   UNL     1     -11.351   4.387  73.351  1.00  0.00    -0.353 A  
HETATM   10  C   UNL     1      -9.200   3.350  73.174  1.00  0.00    -0.114 A  
HETATM   11  C   UNL     1     -11.077   5.149  72.207  1.00  0.00    -0.176 A  
HETATM   12  C   UNL     1      -8.931   4.105  72.025  1.00  0.00    -0.151 A  
ENDBRANCH   6   7
BRANCH   6  13
HETATM   13  C   UNL     1      -9.013   4.801  69.021  1.00  0.00    -0.139 A  
HETATM   14  C   UNL     1      -7.757   5.088  68.433  1.00  0.00    -0.079 A  
HETATM   15  C   UNL     1      -7.221   4.297  67.412  1.00  0.00    -0.068 A  
HETATM   16  C   UNL     1      -7.906   3.177  66.963  1.00  0.00    -0.079 A  
HETATM   17  C   UNL     1      -9.657   3.634  68.579  1.00  0.00    -0.163 A  
HETATM   18  C   UNL     1      -9.123   2.837  67.557  1.00  0.00    -0.213 A  
ENDBRANCH   6  13
BRANCH   6  19
HETATM   19  C   UNL     1      -8.620   6.983  70.363  1.00  0.00    -0.142 C  
HETATM   20  C   UNL     1      -9.423   9.019  71.465  1.00  0.00    -0.246 C  
HETATM   21  N   UNL     1      -9.109   9.377  70.084  1.00  0.00    -0.213 NA 
HETATM   22  C   UNL     1      -8.599   8.180  69.397  1.00  0.00    -0.135 C  
HETATM   23  C   UNL     1      -8.729   7.691  71.724  1.00  0.00    -0.137 C  
BRANCH  21  24
HETATM   24  C   UNL     1     -10.225  10.005  69.354  1.00  0.00    -0.222 C  
BRANCH  24  25
HETATM   25  C   UNL     1     -11.527  10.144  70.164  1.00  0.00    -0.368 C  
BRANCH  25  26
HETATM   26  C   UNL     1     -11.981  11.588  70.270  1.00  0.00    -0.455 A  
HETATM   27  C   UNL     1     -12.741  12.007  71.370  1.00  0.00    -0.380 A  
HETATM   28  C   UNL     1     -13.118  13.340  71.456  1.00  0.00    -0.414 A  
HETATM   29  C   UNL     1     -12.744  14.245  70.481  1.00  0.00    -0.328 A  
HETATM   30  O   UNL     1     -13.164  15.526  70.721  1.00  0.00    -0.475 OA 
HETATM   31  C   UNL     1     -11.999  13.869  69.385  1.00  0.00    -0.402 A  
HETATM   32  C   UNL     1     -11.621  12.524  69.276  1.00  0.00    -0.378 A  
HETATM   33  C   UNL     1     -13.997  15.426  71.899  1.00  0.00    -0.528 C  
HETATM   34  C   UNL     1     -13.905  14.022  72.500  1.00  0.00    -0.610 C  
ENDBRANCH  25  26
ENDBRANCH  24  25
ENDBRANCH  21  24
ENDBRANCH   6  19
ENDBRANCH   2   6
TORSDOF 7
ENDMDL
MODEL       71
REMARK 921   NORMALIZED FREE ENERGY PREDICTED BY IDOCK:   -5.60 KCAL/MOL
REMARK 922        TOTAL FREE ENERGY PREDICTED BY IDOCK:   -9.67 KCAL/MOL
REMARK 923 INTER-LIGAND FREE ENERGY PREDICTED BY IDOCK:   -8.14 KCAL/MOL
REMARK 924 INTRA-LIGAND FREE ENERGY PREDICTED BY IDOCK:   -1.52 KCAL/MOL
REMARK 927      BINDING AFFINITY PREDICTED BY RF-SCORE:    0.00 PKD
ROOT
HETATM    1  N   UNL     1     -13.234  14.327  65.653  1.00  0.00    -0.582 N  
HETATM    2  C   UNL     1     -12.460  13.201  65.538  1.00  0.00    -0.458 C  
HETATM    3  H1  UNL     1     -12.816  15.109  66.157  1.00  0.00     0.000 HD 
HETATM    4  H2  UNL     1     -14.174  14.380  65.258  1.00  0.00     0.000 HD 
HETATM    5  O   UNL     1     -12.963  12.262  64.933  1.00  0.00    -0.662 OA 
ENDROOT
BRANCH   2   6
HETATM    6  C   UNL     1     -10.980  13.248  66.115  1.00  0.00    -0.292 C  
BRANCH   6   7
HETATM    7  C   UNL     1     -10.677  14.748  66.559  1.00  0.00    -0.319 A  
HETATM    8  C   UNL     1     -10.298  17.486  67.248  1.00  0.00    -0.337 A  
HETATM    9  C   UNL     1      -9.795  16.990  66.054  1.00  0.00    -0.263 A  
HETATM   10  C   UNL     1     -10.935  16.624  68.128  1.00  0.00    -0.327 A  
HETATM   11  C   UNL     1      -9.963  15.639  65.724  1.00  0.00    -0.390 A  
HETATM   12  C   UNL     1     -11.112  15.275  67.791  1.00  0.00    -0.318 A  
ENDBRANCH   6   7
BRANCH   6  13
HETATM   13  C   UNL     1     -10.877  12.268  67.342  1.00  0.00    -0.277 A  
HETATM   14  C   UNL     1     -12.022  11.579  67.811  1.00  0.00    -0.100 A  
HETATM   15  C   UNL     1     -11.980  10.767  68.950  1.00  0.00    -0.210 A  
HETATM   16  C   UNL     1     -10.789  10.592  69.640  1.00  0.00    -0.320 A  
HETATM   17  C   UNL     1      -9.679  12.032  68.034  1.00  0.00    -0.198 A  
HETATM   18  C   UNL     1      -9.631  11.217  69.174  1.00  0.00    -0.024 A  
ENDBRANCH   6  13
BRANCH   6  19
HETATM   19  C   UNL     1      -9.914  12.809  64.998  1.00  0.00    -0.171 C  
HETATM   20  C   UNL     1     -10.353  10.846  63.598  1.00  0.00    -0.298 C  
HETATM   21  N   UNL     1      -9.221  10.512  64.457  1.00  0.00    -0.220 NA 
HETATM   22  C   UNL     1      -8.913  11.680  65.297  1.00  0.00     0.137 C  
HETATM   23  C   UNL     1     -10.482  12.360  63.640  1.00  0.00    -0.460 C  
BRANCH  21  24
HETATM   24  C   UNL     1      -9.408   9.286  65.255  1.00  0.00    -0.202 C  
BRANCH  24  25
HETATM   25  C   UNL     1      -8.171   8.848  66.061  1.00  0.00    -0.117 C  
BRANCH  25  26
HETATM   26  C   UNL     1      -8.546   8.294  67.424  1.00  0.00    -0.125 A  
HETATM   27  C   UNL     1      -9.786   7.670  67.612  1.00  0.00    -0.207 A  
HETATM   28  C   UNL     1     -10.090   7.148  68.861  1.00  0.00    -0.177 A  
HETATM   29  C   UNL     1      -9.185   7.229  69.902  1.00  0.00    -0.141 A  
HETATM   30  O   UNL     1      -9.616   6.642  71.061  1.00  0.00    -0.171 OA 
HETATM   31  C   UNL     1      -7.958   7.837  69.754  1.00  0.00    -0.115 A  
HETATM   32  C   UNL     1      -7.639   8.381  68.503  1.00  0.00    -0.096 A  
HETATM   33  C   UNL     1     -10.980   6.248  70.790  1.00  0.00    -0.297 C  
HETATM   34  C   UNL     1     -11.309   6.450  69.309  1.00  0.00    -0.405 C  
ENDBRANCH  25  26
ENDBRANCH  24  25
ENDBRANCH  21  24
ENDBRANCH   6  19
ENDBRANCH   2   6
TORSDOF 7
ENDMDL
MODEL       72
REMARK 921   NORMALIZED FREE ENERGY PREDICTED BY IDOCK:   -5.59 KCAL/MOL
REMARK 922        TOTAL FREE ENERGY PREDICTED BY IDOCK:   -9.66 KCAL/MOL
REMARK 923 INTER-LIGAND FREE ENERGY PREDICTED BY IDOCK:   -8.51 KCAL/MOL
REMARK 924 INTRA-LIGAND FREE ENERGY PREDICTED BY IDOCK:   -1.15 KCAL/MOL
REMARK 927      BINDING AFFINITY PREDICTED BY RF-SCORE:    0.00 PKD
ROOT
HETATM    1  N   UNL     1     -10.381  11.826  69.119  1.00  0.00    -0.418 N  
HETATM    2  C   UNL     1     -10.135  10.492  68.914  1.00  0.00    -0.202 C  
HETATM    3  H1  UNL     1     -10.058  12.458  68.388  1.00  0.00     0.000 HD 
HETATM    4  H2  UNL     1     -10.859  12.165  69.954  1.00  0.00     0.000 HD 
HETATM    5  O   UNL     1     -10.523   9.732  69.793  1.00  0.00    -0.215 OA 
ENDROOT
BRANCH   2   6
HETATM    6  C   UNL     1      -9.458  10.058  67.543  1.00  0.00    -0.169 C  
BRANCH   6   7
HETATM    7  C   UNL     1      -9.552   8.471  67.433  1.00  0.00    -0.204 A  
HETATM    8  C   UNL     1      -9.711   5.627  67.439  1.00  0.00    -0.138 A  
HETATM    9  C   UNL     1      -8.476   6.258  67.484  1.00  0.00    -0.108 A  
HETATM   10  C   UNL     1     -10.863   6.393  67.333  1.00  0.00    -0.457 A  
HETATM   11  C   UNL     1      -8.397   7.657  67.461  1.00  0.00    -0.120 A  
HETATM   12  C   UNL     1     -10.782   7.792  67.320  1.00  0.00    -0.326 A  
ENDBRANCH   6   7
BRANCH   6  13
HETATM   13  C   UNL     1     -10.224  10.748  66.353  1.00  0.00    -0.294 A  
HETATM   14  C   UNL     1      -9.865  10.476  65.010  1.00  0.00    -0.369 A  
HETATM   15  C   UNL     1     -10.470  11.136  63.935  1.00  0.00    -0.445 A  
HETATM   16  C   UNL     1     -11.473  12.067  64.162  1.00  0.00    -0.460 A  
HETATM   17  C   UNL     1     -11.275  11.659  66.545  1.00  0.00    -0.356 A  
HETATM   18  C   UNL     1     -11.886  12.321  65.471  1.00  0.00    -0.420 A  
ENDBRANCH   6  13
BRANCH   6  19
HETATM   19  C   UNL     1      -7.915  10.494  67.501  1.00  0.00    -0.107 C  
HETATM   20  C   UNL     1      -7.033  12.027  69.198  1.00  0.00    -0.066 C  
HETATM   21  N   UNL     1      -7.015  12.744  67.926  1.00  0.00    -0.100 NA 
HETATM   22  C   UNL     1      -7.516  11.842  66.876  1.00  0.00    -0.079 C  
HETATM   23  C   UNL     1      -7.178  10.554  68.850  1.00  0.00    -0.086 C  
BRANCH  21  24
HETATM   24  C   UNL     1      -7.736  14.030  67.946  1.00  0.00    -0.159 C  
BRANCH  24  25
HETATM   25  C   UNL     1      -8.815  14.180  66.857  1.00  0.00    -0.223 C  
BRANCH  25  26
HETATM   26  C   UNL     1      -9.378  15.588  66.803  1.00  0.00    -0.267 A  
HETATM   27  C   UNL     1      -9.092  16.499  67.828  1.00  0.00    -0.204 A  
HETATM   28  C   UNL     1      -9.596  17.789  67.738  1.00  0.00    -0.272 A  
HETATM   29  C   UNL     1     -10.357  18.177  66.653  1.00  0.00    -0.376 A  
HETATM   30  O   UNL     1     -10.755  19.486  66.692  1.00  0.00    -0.457 OA 
HETATM   31  C   UNL     1     -10.660  17.309  65.627  1.00  0.00    -0.173 A  
HETATM   32  C   UNL     1     -10.170  15.998  65.708  1.00  0.00    -0.401 A  
HETATM   33  C   UNL     1     -10.318  19.966  67.984  1.00  0.00    -0.408 C  
HETATM   34  C   UNL     1      -9.438  18.920  68.671  1.00  0.00    -0.427 C  
ENDBRANCH  25  26
ENDBRANCH  24  25
ENDBRANCH  21  24
ENDBRANCH   6  19
ENDBRANCH   2   6
TORSDOF 7
ENDMDL
MODEL       73
REMARK 921   NORMALIZED FREE ENERGY PREDICTED BY IDOCK:   -5.58 KCAL/MOL
REMARK 922        TOTAL FREE ENERGY PREDICTED BY IDOCK:   -9.65 KCAL/MOL
REMARK 923 INTER-LIGAND FREE ENERGY PREDICTED BY IDOCK:   -8.06 KCAL/MOL
REMARK 924 INTRA-LIGAND FREE ENERGY PREDICTED BY IDOCK:   -1.59 KCAL/MOL
REMARK 927      BINDING AFFINITY PREDICTED BY RF-SCORE:    0.00 PKD
ROOT
HETATM    1  N   UNL     1     -10.906   5.332  71.730  1.00  0.00    -0.176 N  
HETATM    2  C   UNL     1     -10.860   6.317  70.778  1.00  0.00    -0.281 C  
HETATM    3  H1  UNL     1     -10.429   5.536  72.608  1.00  0.00     0.000 HD 
HETATM    4  H2  UNL     1     -11.388   4.447  71.571  1.00  0.00     0.000 HD 
HETATM    5  O   UNL     1     -11.433   6.071  69.722  1.00  0.00    -0.395 OA 
ENDROOT
BRANCH   2   6
HETATM    6  C   UNL     1     -10.156   7.691  71.154  1.00  0.00    -0.196 C  
BRANCH   6   7
HETATM    7  C   UNL     1      -8.849   7.353  72.002  1.00  0.00    -0.141 A  
HETATM    8  C   UNL     1      -6.423   6.903  73.424  1.00  0.00    -0.066 A  
HETATM    9  C   UNL     1      -6.606   6.353  72.164  1.00  0.00    -0.063 A  
HETATM   10  C   UNL     1      -7.454   7.624  74.008  1.00  0.00    -0.154 A  
HETATM   11  C   UNL     1      -7.808   6.558  71.472  1.00  0.00    -0.100 A  
HETATM   12  C   UNL     1      -8.650   7.837  73.311  1.00  0.00    -0.240 A  
ENDBRANCH   6   7
BRANCH   6  13
HETATM   13  C   UNL     1      -9.783   8.455  69.830  1.00  0.00    -0.180 A  
HETATM   14  C   UNL     1     -10.521   8.239  68.641  1.00  0.00    -0.199 A  
HETATM   15  C   UNL     1     -10.163   8.840  67.429  1.00  0.00    -0.318 A  
HETATM   16  C   UNL     1      -9.075   9.699  67.370  1.00  0.00    -0.144 A  
HETATM   17  C   UNL     1      -8.718   9.366  69.746  1.00  0.00    -0.189 A  
HETATM   18  C   UNL     1      -8.356   9.973  68.535  1.00  0.00    -0.113 A  
ENDBRANCH   6  13
BRANCH   6  19
HETATM   19  C   UNL     1     -11.129   8.611  72.039  1.00  0.00    -0.437 C  
HETATM   20  C   UNL     1     -13.399   9.096  71.252  1.00  0.00    -0.227 C  
HETATM   21  N   UNL     1     -12.655  10.352  71.208  1.00  0.00    -0.381 NA 
HETATM   22  C   UNL     1     -11.291  10.103  71.699  1.00  0.00     0.314 C  
HETATM   23  C   UNL     1     -12.596   8.162  72.144  1.00  0.00    -0.349 C  
BRANCH  21  24
HETATM   24  C   UNL     1     -12.661  11.012  69.890  1.00  0.00    -0.136 C  
BRANCH  24  25
HETATM   25  C   UNL     1     -11.481  11.971  69.646  1.00  0.00    -0.322 C  
BRANCH  25  26
HETATM   26  C   UNL     1     -11.603  12.699  68.319  1.00  0.00    -0.377 A  
HETATM   27  C   UNL     1     -11.690  11.972  67.124  1.00  0.00    -0.344 A  
HETATM   28  C   UNL     1     -11.830  12.662  65.929  1.00  0.00    -0.499 A  
HETATM   29  C   UNL     1     -11.895  14.042  65.912  1.00  0.00    -0.383 A  
HETATM   30  O   UNL     1     -12.066  14.576  64.663  1.00  0.00    -0.438 OA 
HETATM   31  C   UNL     1     -11.811  14.790  67.066  1.00  0.00    -0.290 A  
HETATM   32  C   UNL     1     -11.657  14.109  68.281  1.00  0.00    -0.356 A  
HETATM   33  C   UNL     1     -11.980  13.446  63.764  1.00  0.00    -0.461 C  
HETATM   34  C   UNL     1     -11.945  12.137  64.556  1.00  0.00    -0.415 C  
ENDBRANCH  25  26
ENDBRANCH  24  25
ENDBRANCH  21  24
ENDBRANCH   6  19
ENDBRANCH   2   6
TORSDOF 7
ENDMDL
MODEL       74
REMARK 921   NORMALIZED FREE ENERGY PREDICTED BY IDOCK:   -5.58 KCAL/MOL
REMARK 922        TOTAL FREE ENERGY PREDICTED BY IDOCK:   -9.65 KCAL/MOL
REMARK 923 INTER-LIGAND FREE ENERGY PREDICTED BY IDOCK:   -8.98 KCAL/MOL
REMARK 924 INTRA-LIGAND FREE ENERGY PREDICTED BY IDOCK:   -0.66 KCAL/MOL
REMARK 927      BINDING AFFINITY PREDICTED BY RF-SCORE:    0.00 PKD
ROOT
HETATM    1  N   UNL     1     -12.714  16.330  69.395  1.00  0.00    -0.218 N  
HETATM    2  C   UNL     1     -11.526  15.659  69.534  1.00  0.00    -0.344 C  
HETATM    3  H1  UNL     1     -12.785  16.954  68.592  1.00  0.00     0.000 HD 
HETATM    4  H2  UNL     1     -13.482  16.210  70.056  1.00  0.00     0.000 HD 
HETATM    5  O   UNL     1     -11.441  14.909  70.499  1.00  0.00    -0.258 OA 
ENDROOT
BRANCH   2   6
HETATM    6  C   UNL     1     -10.422  15.850  68.406  1.00  0.00    -0.254 C  
BRANCH   6   7
HETATM    7  C   UNL     1     -10.891  15.031  67.122  1.00  0.00    -0.314 A  
HETATM    8  C   UNL     1     -11.866  13.710  64.794  1.00  0.00    -0.414 A  
HETATM    9  C   UNL     1     -12.481  13.509  66.021  1.00  0.00    -0.456 A  
HETATM   10  C   UNL     1     -10.738  14.515  64.723  1.00  0.00    -0.414 A  
HETATM   11  C   UNL     1     -11.989  14.142  67.170  1.00  0.00    -0.460 A  
HETATM   12  C   UNL     1     -10.254  15.156  65.871  1.00  0.00    -0.345 A  
ENDBRANCH   6   7
BRANCH   6  13
HETATM   13  C   UNL     1     -10.288  17.383  68.075  1.00  0.00    -0.362 A  
HETATM   14  C   UNL     1     -10.536  17.862  66.765  1.00  0.00    -0.315 A  
HETATM   15  C   UNL     1     -10.344  19.205  66.421  1.00  0.00    -0.536 A  
HETATM   16  C   UNL     1      -9.929  20.119  67.379  1.00  0.00    -0.570 A  
HETATM   17  C   UNL     1      -9.916  18.342  69.030  1.00  0.00    -0.304 A  
HETATM   18  C   UNL     1      -9.726  19.689  68.691  1.00  0.00    -0.486 A  
ENDBRANCH   6  13
BRANCH   6  19
HETATM   19  C   UNL     1      -9.000  15.289  68.893  1.00  0.00    -0.209 C  
HETATM   20  C   UNL     1      -7.404  14.418  67.250  1.00  0.00    -0.040 C  
HETATM   21  N   UNL     1      -7.850  13.283  68.054  1.00  0.00    -0.133 NA 
HETATM   22  C   UNL     1      -8.794  13.775  69.070  1.00  0.00     0.280 C  
HETATM   23  C   UNL     1      -7.779  15.664  68.035  1.00  0.00    -0.133 C  
BRANCH  21  24
HETATM   24  C   UNL     1      -8.410  12.168  67.268  1.00  0.00    -0.179 C  
BRANCH  24  25
HETATM   25  C   UNL     1      -9.884  11.844  67.571  1.00  0.00    -0.194 C  
BRANCH  25  26
HETATM   26  C   UNL     1     -10.108  10.359  67.792  1.00  0.00    -0.212 A  
HETATM   27  C   UNL     1     -10.331   9.866  69.084  1.00  0.00    -0.225 A  
HETATM   28  C   UNL     1     -10.561   8.508  69.254  1.00  0.00    -0.193 A  
HETATM   29  C   UNL     1     -10.582   7.654  68.168  1.00  0.00    -0.130 A  
HETATM   30  O   UNL     1     -10.851   6.351  68.491  1.00  0.00    -0.258 OA 
HETATM   31  C   UNL     1     -10.364   8.101  66.884  1.00  0.00    -0.401 A  
HETATM   32  C   UNL     1     -10.118   9.468  66.696  1.00  0.00    -0.321 A  
HETATM   33  C   UNL     1     -10.888   6.329  69.937  1.00  0.00    -0.335 C  
HETATM   34  C   UNL     1     -10.822   7.753  70.493  1.00  0.00    -0.245 C  
ENDBRANCH  25  26
ENDBRANCH  24  25
ENDBRANCH  21  24
ENDBRANCH   6  19
ENDBRANCH   2   6
TORSDOF 7
ENDMDL
MODEL       75
REMARK 921   NORMALIZED FREE ENERGY PREDICTED BY IDOCK:   -5.58 KCAL/MOL
REMARK 922        TOTAL FREE ENERGY PREDICTED BY IDOCK:   -9.65 KCAL/MOL
REMARK 923 INTER-LIGAND FREE ENERGY PREDICTED BY IDOCK:   -7.50 KCAL/MOL
REMARK 924 INTRA-LIGAND FREE ENERGY PREDICTED BY IDOCK:   -2.14 KCAL/MOL
REMARK 927      BINDING AFFINITY PREDICTED BY RF-SCORE:    0.00 PKD
ROOT
HETATM    1  N   UNL     1     -11.393  16.794  68.284  1.00  0.00    -0.178 N  
HETATM    2  C   UNL     1     -11.216  15.446  68.463  1.00  0.00    -0.318 C  
HETATM    3  H1  UNL     1     -10.768  17.242  67.615  1.00  0.00     0.000 HD 
HETATM    4  H2  UNL     1     -12.108  17.317  68.790  1.00  0.00     0.000 HD 
HETATM    5  O   UNL     1     -11.967  14.907  69.268  1.00  0.00    -0.306 OA 
ENDROOT
BRANCH   2   6
HETATM    6  C   UNL     1     -10.131  14.707  67.567  1.00  0.00    -0.224 C  
BRANCH   6   7
HETATM    7  C   UNL     1      -8.785  15.557  67.632  1.00  0.00    -0.183 A  
HETATM    8  C   UNL     1      -6.491  17.242  67.743  1.00  0.00    -0.164 A  
HETATM    9  C   UNL     1      -7.061  16.917  66.521  1.00  0.00    -0.281 A  
HETATM   10  C   UNL     1      -7.013  16.692  68.904  1.00  0.00    -0.200 A  
HETATM   11  C   UNL     1      -8.176  16.072  66.464  1.00  0.00    -0.334 A  
HETATM   12  C   UNL     1      -8.136  15.856  68.847  1.00  0.00    -0.214 A  
ENDBRANCH   6   7
BRANCH   6  13
HETATM   13  C   UNL     1      -9.905  13.254  68.130  1.00  0.00    -0.231 A  
HETATM   14  C   UNL     1      -8.603  12.699  68.189  1.00  0.00    -0.188 A  
HETATM   15  C   UNL     1      -8.381  11.382  68.606  1.00  0.00    -0.136 A  
HETATM   16  C   UNL     1      -9.445  10.586  69.005  1.00  0.00    -0.211 A  
HETATM   17  C   UNL     1     -10.953  12.439  68.586  1.00  0.00    -0.283 A  
HETATM   18  C   UNL     1     -10.735  11.120  69.007  1.00  0.00    -0.265 A  
ENDBRANCH   6  13
BRANCH   6  19
HETATM   19  C   UNL     1     -10.616  14.612  66.040  1.00  0.00    -0.314 C  
HETATM   20  C   UNL     1     -12.427  13.079  65.428  1.00  0.00    -0.476 C  
HETATM   21  N   UNL     1     -11.206  12.563  64.814  1.00  0.00    -0.296 NA 
HETATM   22  C   UNL     1     -10.100  13.476  65.141  1.00  0.00    -0.256 C  
HETATM   23  C   UNL     1     -12.134  14.523  65.802  1.00  0.00    -0.285 C  
BRANCH  21  24
HETATM   24  C   UNL     1     -10.897  11.165  65.165  1.00  0.00    -0.159 C  
BRANCH  24  25
HETATM   25  C   UNL     1      -9.407  10.791  65.062  1.00  0.00    -0.261 C  
BRANCH  25  26
HETATM   26  C   UNL     1      -9.125   9.412  65.633  1.00  0.00    -0.258 A  
HETATM   27  C   UNL     1     -10.158   8.670  66.220  1.00  0.00    -0.215 A  
HETATM   28  C   UNL     1      -9.879   7.402  66.708  1.00  0.00    -0.290 A  
HETATM   29  C   UNL     1      -8.608   6.870  66.608  1.00  0.00    -0.124 A  
HETATM   30  O   UNL     1      -8.496   5.599  67.105  1.00  0.00    -0.111 OA 
HETATM   31  C   UNL     1      -7.567   7.571  66.039  1.00  0.00    -0.088 A  
HETATM   32  C   UNL     1      -7.829   8.859  65.554  1.00  0.00    -0.100 A  
HETATM   33  C   UNL     1      -9.785   5.320  67.697  1.00  0.00    -0.142 C  
HETATM   34  C   UNL     1     -10.780   6.432  67.357  1.00  0.00    -0.411 C  
ENDBRANCH  25  26
ENDBRANCH  24  25
ENDBRANCH  21  24
ENDBRANCH   6  19
ENDBRANCH   2   6
TORSDOF 7
ENDMDL
MODEL       76
REMARK 921   NORMALIZED FREE ENERGY PREDICTED BY IDOCK:   -5.58 KCAL/MOL
REMARK 922        TOTAL FREE ENERGY PREDICTED BY IDOCK:   -9.64 KCAL/MOL
REMARK 923 INTER-LIGAND FREE ENERGY PREDICTED BY IDOCK:   -9.36 KCAL/MOL
REMARK 924 INTRA-LIGAND FREE ENERGY PREDICTED BY IDOCK:   -0.28 KCAL/MOL
REMARK 927      BINDING AFFINITY PREDICTED BY RF-SCORE:    0.00 PKD
ROOT
HETATM    1  N   UNL     1      -7.560  10.023  65.766  1.00  0.00    -0.114 N  
HETATM    2  C   UNL     1      -8.880   9.897  66.115  1.00  0.00    -0.144 C  
HETATM    3  H1  UNL     1      -7.165  10.960  65.840  1.00  0.00     0.000 HD 
HETATM    4  H2  UNL     1      -7.005   9.226  65.452  1.00  0.00     0.000 HD 
HETATM    5  O   UNL     1      -9.355   8.770  66.027  1.00  0.00    -0.210 OA 
ENDROOT
BRANCH   2   6
HETATM    6  C   UNL     1      -9.633  11.181  66.672  1.00  0.00    -0.215 C  
BRANCH   6   7
HETATM    7  C   UNL     1     -10.676  11.654  65.563  1.00  0.00    -0.333 A  
HETATM    8  C   UNL     1     -12.632  12.320  63.602  1.00  0.00    -0.599 A  
HETATM    9  C   UNL     1     -11.501  11.601  63.245  1.00  0.00    -0.266 A  
HETATM   10  C   UNL     1     -12.772  12.761  64.910  1.00  0.00    -0.479 A  
HETATM   11  C   UNL     1     -10.529  11.290  64.205  1.00  0.00    -0.431 A  
HETATM   12  C   UNL     1     -11.804  12.440  65.871  1.00  0.00    -0.467 A  
ENDBRANCH   6   7
BRANCH   6  13
HETATM   13  C   UNL     1     -10.371  10.803  68.010  1.00  0.00    -0.211 A  
HETATM   14  C   UNL     1     -11.603  11.412  68.350  1.00  0.00    -0.385 A  
HETATM   15  C   UNL     1     -12.240  11.158  69.570  1.00  0.00    -0.347 A  
HETATM   16  C   UNL     1     -11.684  10.267  70.477  1.00  0.00    -0.418 A  
HETATM   17  C   UNL     1      -9.860   9.871  68.927  1.00  0.00    -0.179 A  
HETATM   18  C   UNL     1     -10.496   9.611  70.149  1.00  0.00    -0.321 A  
ENDBRANCH   6  13
BRANCH   6  19
HETATM   19  C   UNL     1      -8.599  12.374  66.958  1.00  0.00    -0.191 C  
HETATM   20  C   UNL     1      -9.100  14.035  68.688  1.00  0.00    -0.107 C  
HETATM   21  N   UNL     1      -9.161  14.727  67.403  1.00  0.00    -0.188 NA 
HETATM   22  C   UNL     1      -8.840  13.762  66.340  1.00  0.00     0.126 C  
HETATM   23  C   UNL     1      -8.353  12.736  68.433  1.00  0.00    -0.119 C  
BRANCH  21  24
HETATM   24  C   UNL     1     -10.434  15.428  67.154  1.00  0.00    -0.290 C  
BRANCH  24  25
HETATM   25  C   UNL     1     -10.400  16.426  65.982  1.00  0.00    -0.365 C  
BRANCH  25  26
HETATM   26  C   UNL     1      -9.759  17.744  66.375  1.00  0.00    -0.315 A  
HETATM   27  C   UNL     1      -8.368  17.834  66.522  1.00  0.00    -0.294 A  
HETATM   28  C   UNL     1      -7.806  19.058  66.854  1.00  0.00    -0.256 A  
HETATM   29  C   UNL     1      -8.599  20.176  67.027  1.00  0.00    -0.336 A  
HETATM   30  O   UNL     1      -7.898  21.315  67.321  1.00  0.00    -0.313 OA 
HETATM   31  C   UNL     1      -9.969  20.126  66.894  1.00  0.00    -0.600 A  
HETATM   32  C   UNL     1     -10.554  18.894  66.572  1.00  0.00    -0.462 A  
HETATM   33  C   UNL     1      -6.529  20.876  67.476  1.00  0.00    -0.340 C  
HETATM   34  C   UNL     1      -6.389  19.410  67.059  1.00  0.00    -0.195 C  
ENDBRANCH  25  26
ENDBRANCH  24  25
ENDBRANCH  21  24
ENDBRANCH   6  19
ENDBRANCH   2   6
TORSDOF 7
ENDMDL
MODEL       77
REMARK 921   NORMALIZED FREE ENERGY PREDICTED BY IDOCK:   -5.58 KCAL/MOL
REMARK 922        TOTAL FREE ENERGY PREDICTED BY IDOCK:   -9.64 KCAL/MOL
REMARK 923 INTER-LIGAND FREE ENERGY PREDICTED BY IDOCK:   -8.13 KCAL/MOL
REMARK 924 INTRA-LIGAND FREE ENERGY PREDICTED BY IDOCK:   -1.51 KCAL/MOL
REMARK 927      BINDING AFFINITY PREDICTED BY RF-SCORE:    0.00 PKD
ROOT
HETATM    1  N   UNL     1     -11.070   5.906  71.393  1.00  0.00    -0.271 N  
HETATM    2  C   UNL     1      -9.953   6.701  71.395  1.00  0.00    -0.183 C  
HETATM    3  H1  UNL     1     -11.640   5.938  70.548  1.00  0.00     0.000 HD 
HETATM    4  H2  UNL     1     -11.317   5.317  72.189  1.00  0.00     0.000 HD 
HETATM    5  O   UNL     1      -9.268   6.662  72.411  1.00  0.00    -0.137 OA 
ENDROOT
BRANCH   2   6
HETATM    6  C   UNL     1      -9.611   7.516  70.075  1.00  0.00    -0.164 C  
BRANCH   6   7
HETATM    7  C   UNL     1      -9.838   6.547  68.831  1.00  0.00    -0.142 A  
HETATM    8  C   UNL     1     -10.382   4.717  66.716  1.00  0.00    -0.229 A  
HETATM    9  C   UNL     1      -9.468   4.389  67.707  1.00  0.00    -0.207 A  
HETATM   10  C   UNL     1     -10.984   5.967  66.734  1.00  0.00    -0.305 A  
HETATM   11  C   UNL     1      -9.185   5.297  68.736  1.00  0.00    -0.145 A  
HETATM   12  C   UNL     1     -10.708   6.870  67.770  1.00  0.00    -0.321 A  
ENDBRANCH   6   7
BRANCH   6  13
HETATM   13  C   UNL     1     -10.558   8.771  69.989  1.00  0.00    -0.232 A  
HETATM   14  C   UNL     1     -10.711   9.476  68.770  1.00  0.00    -0.218 A  
HETATM   15  C   UNL     1     -11.479  10.642  68.683  1.00  0.00    -0.332 A  
HETATM   16  C   UNL     1     -12.143  11.127  69.801  1.00  0.00    -0.414 A  
HETATM   17  C   UNL     1     -11.281   9.261  71.088  1.00  0.00    -0.413 A  
HETATM   18  C   UNL     1     -12.054  10.427  71.005  1.00  0.00    -0.488 A  
ENDBRANCH   6  13
BRANCH   6  19
HETATM   19  C   UNL     1      -8.083   8.007  70.083  1.00  0.00    -0.114 C  
HETATM   20  C   UNL     1      -7.537  10.309  69.442  1.00  0.00    -0.137 C  
HETATM   21  N   UNL     1      -6.994   9.437  68.403  1.00  0.00    -0.066 NA 
HETATM   22  C   UNL     1      -7.283   8.041  68.770  1.00  0.00    -0.083 C  
HETATM   23  C   UNL     1      -7.813   9.416  70.640  1.00  0.00    -0.178 C  
BRANCH  21  24
HETATM   24  C   UNL     1      -7.453   9.761  67.040  1.00  0.00    -0.091 C  
BRANCH  24  25
HETATM   25  C   UNL     1      -7.569  11.267  66.742  1.00  0.00    -0.151 C  
BRANCH  25  26
HETATM   26  C   UNL     1      -8.933  11.635  66.187  1.00  0.00    -0.180 A  
HETATM   27  C   UNL     1      -9.587  12.790  66.636  1.00  0.00    -0.255 A  
HETATM   28  C   UNL     1     -10.820  13.117  66.091  1.00  0.00    -0.293 A  
HETATM   29  C   UNL     1     -11.393  12.327  65.113  1.00  0.00    -0.329 A  
HETATM   30  O   UNL     1     -12.594  12.796  64.651  1.00  0.00    -0.574 OA 
HETATM   31  C   UNL     1     -10.781  11.184  64.648  1.00  0.00    -0.350 A  
HETATM   32  C   UNL     1      -9.541  10.832  65.197  1.00  0.00    -0.295 A  
HETATM   33  C   UNL     1     -12.894  13.933  65.494  1.00  0.00    -0.431 C  
HETATM   34  C   UNL     1     -11.696  14.266  66.387  1.00  0.00    -0.403 C  
ENDBRANCH  25  26
ENDBRANCH  24  25
ENDBRANCH  21  24
ENDBRANCH   6  19
ENDBRANCH   2   6
TORSDOF 7
ENDMDL
MODEL       78
REMARK 921   NORMALIZED FREE ENERGY PREDICTED BY IDOCK:   -5.56 KCAL/MOL
REMARK 922        TOTAL FREE ENERGY PREDICTED BY IDOCK:   -9.62 KCAL/MOL
REMARK 923 INTER-LIGAND FREE ENERGY PREDICTED BY IDOCK:   -8.95 KCAL/MOL
REMARK 924 INTRA-LIGAND FREE ENERGY PREDICTED BY IDOCK:   -0.67 KCAL/MOL
REMARK 927      BINDING AFFINITY PREDICTED BY RF-SCORE:    0.00 PKD
ROOT
HETATM    1  N   UNL     1      -7.981  12.728  66.726  1.00  0.00    -0.400 N  
HETATM    2  C   UNL     1      -9.007  12.512  67.611  1.00  0.00    -0.185 C  
HETATM    3  H1  UNL     1      -7.854  12.017  66.007  1.00  0.00     0.000 HD 
HETATM    4  H2  UNL     1      -7.381  13.551  66.784  1.00  0.00     0.000 HD 
HETATM    5  O   UNL     1      -9.159  13.367  68.476  1.00  0.00    -0.167 OA 
ENDROOT
BRANCH   2   6
HETATM    6  C   UNL     1      -9.936  11.243  67.385  1.00  0.00    -0.206 C  
BRANCH   6   7
HETATM    7  C   UNL     1      -9.022  10.063  66.825  1.00  0.00    -0.151 A  
HETATM    8  C   UNL     1      -7.398   8.043  65.643  1.00  0.00    -0.079 A  
HETATM    9  C   UNL     1      -8.781   7.952  65.583  1.00  0.00    -0.145 A  
HETATM   10  C   UNL     1      -6.816   9.096  66.334  1.00  0.00    -0.079 A  
HETATM   11  C   UNL     1      -9.580   8.935  66.182  1.00  0.00    -0.335 A  
HETATM   12  C   UNL     1      -7.616  10.083  66.923  1.00  0.00    -0.096 A  
ENDBRANCH   6   7
BRANCH   6  13
HETATM   13  C   UNL     1     -10.594  10.840  68.757  1.00  0.00    -0.229 A  
HETATM   14  C   UNL     1      -9.904  10.003  69.669  1.00  0.00    -0.261 A  
HETATM   15  C   UNL     1     -10.495   9.561  70.857  1.00  0.00    -0.382 A  
HETATM   16  C   UNL     1     -11.782   9.961  71.189  1.00  0.00    -0.478 A  
HETATM   17  C   UNL     1     -11.874  11.265  69.145  1.00  0.00    -0.423 A  
HETATM   18  C   UNL     1     -12.470  10.826  70.336  1.00  0.00    -0.430 A  
ENDBRANCH   6  13
BRANCH   6  19
HETATM   19  C   UNL     1     -11.092  11.560  66.318  1.00  0.00    -0.321 C  
HETATM   20  C   UNL     1     -10.676  13.160  64.508  1.00  0.00    -0.398 C  
HETATM   21  N   UNL     1     -11.668  13.765  65.394  1.00  0.00    -0.324 NA 
HETATM   22  C   UNL     1     -11.961  12.819  66.481  1.00  0.00    -0.358 C  
HETATM   23  C   UNL     1     -10.659  11.678  64.846  1.00  0.00    -0.349 C  
BRANCH  21  24
HETATM   24  C   UNL     1     -11.293  15.098  65.901  1.00  0.00    -0.225 C  
BRANCH  24  25
HETATM   25  C   UNL     1      -9.842  15.517  65.596  1.00  0.00    -0.377 C  
BRANCH  25  26
HETATM   26  C   UNL     1      -9.329  16.552  66.581  1.00  0.00    -0.279 A  
HETATM   27  C   UNL     1      -7.951  16.719  66.772  1.00  0.00    -0.275 A  
HETATM   28  C   UNL     1      -7.510  17.692  67.656  1.00  0.00    -0.206 A  
HETATM   29  C   UNL     1      -8.410  18.493  68.332  1.00  0.00    -0.332 A  
HETATM   30  O   UNL     1      -7.822  19.426  69.144  1.00  0.00    -0.336 OA 
HETATM   31  C   UNL     1      -9.771  18.357  68.173  1.00  0.00    -0.352 A  
HETATM   32  C   UNL     1     -10.234  17.370  67.292  1.00  0.00    -0.324 A  
HETATM   33  C   UNL     1      -6.409  19.126  69.089  1.00  0.00    -0.277 C  
HETATM   34  C   UNL     1      -6.131  18.063  68.024  1.00  0.00    -0.167 C  
ENDBRANCH  25  26
ENDBRANCH  24  25
ENDBRANCH  21  24
ENDBRANCH   6  19
ENDBRANCH   2   6
TORSDOF 7
ENDMDL
MODEL       79
REMARK 921   NORMALIZED FREE ENERGY PREDICTED BY IDOCK:   -5.56 KCAL/MOL
REMARK 922        TOTAL FREE ENERGY PREDICTED BY IDOCK:   -9.62 KCAL/MOL
REMARK 923 INTER-LIGAND FREE ENERGY PREDICTED BY IDOCK:   -8.94 KCAL/MOL
REMARK 924 INTRA-LIGAND FREE ENERGY PREDICTED BY IDOCK:   -0.68 KCAL/MOL
REMARK 927      BINDING AFFINITY PREDICTED BY RF-SCORE:    0.00 PKD
ROOT
HETATM    1  N   UNL     1     -11.096  14.462  68.819  1.00  0.00    -0.246 N  
HETATM    2  C   UNL     1     -11.109  13.207  68.267  1.00  0.00    -0.266 C  
HETATM    3  H1  UNL     1     -10.361  15.088  68.492  1.00  0.00     0.000 HD 
HETATM    4  H2  UNL     1     -11.782  14.754  69.516  1.00  0.00     0.000 HD 
HETATM    5  O   UNL     1     -11.993  12.455  68.662  1.00  0.00    -0.310 OA 
ENDROOT
BRANCH   2   6
HETATM    6  C   UNL     1     -10.049  12.879  67.130  1.00  0.00    -0.243 C  
BRANCH   6   7
HETATM    7  C   UNL     1     -10.852  12.583  65.786  1.00  0.00    -0.310 A  
HETATM    8  C   UNL     1     -12.274  12.250  63.340  1.00  0.00    -0.630 A  
HETATM    9  C   UNL     1     -12.946  12.626  64.494  1.00  0.00    -0.236 A  
HETATM   10  C   UNL     1     -10.914  11.982  63.402  1.00  0.00    -0.475 A  
HETATM   11  C   UNL     1     -12.250  12.770  65.701  1.00  0.00    -0.503 A  
HETATM   12  C   UNL     1     -10.218  12.137  64.608  1.00  0.00    -0.312 A  
ENDBRANCH   6   7
BRANCH   6  13
HETATM   13  C   UNL     1      -9.091  14.115  66.950  1.00  0.00    -0.260 A  
HETATM   14  C   UNL     1      -7.833  14.152  67.601  1.00  0.00    -0.190 A  
HETATM   15  C   UNL     1      -6.997  15.272  67.527  1.00  0.00    -0.225 A  
HETATM   16  C   UNL     1      -7.374  16.378  66.779  1.00  0.00    -0.261 A  
HETATM   17  C   UNL     1      -9.420  15.230  66.163  1.00  0.00    -0.361 A  
HETATM   18  C   UNL     1      -8.584  16.352  66.084  1.00  0.00    -0.343 A  
ENDBRANCH   6  13
BRANCH   6  19
HETATM   19  C   UNL     1      -9.177  11.586  67.513  1.00  0.00    -0.166 C  
HETATM   20  C   UNL     1     -10.298   9.476  68.057  1.00  0.00    -0.214 C  
HETATM   21  N   UNL     1      -9.673   9.957  69.287  1.00  0.00    -0.195 NA 
HETATM   22  C   UNL     1      -8.968  11.214  68.990  1.00  0.00    -0.015 C  
HETATM   23  C   UNL     1      -9.639  10.243  66.922  1.00  0.00    -0.211 C  
BRANCH  21  24
HETATM   24  C   UNL     1     -10.603  10.095  70.423  1.00  0.00    -0.224 C  
BRANCH  24  25
HETATM   25  C   UNL     1     -11.523   8.881  70.653  1.00  0.00    -0.280 C  
BRANCH  25  26
HETATM   26  C   UNL     1     -10.983   7.952  71.724  1.00  0.00    -0.290 A  
HETATM   27  C   UNL     1     -11.591   6.710  71.949  1.00  0.00    -0.344 A  
HETATM   28  C   UNL     1     -11.059   5.868  72.915  1.00  0.00    -0.306 A  
HETATM   29  C   UNL     1      -9.941   6.238  73.638  1.00  0.00    -0.207 A  
HETATM   30  O   UNL     1      -9.517   5.291  74.531  1.00  0.00    -0.126 OA 
HETATM   31  C   UNL     1      -9.318   7.452  73.447  1.00  0.00    -0.260 A  
HETATM   32  C   UNL     1      -9.850   8.319  72.484  1.00  0.00    -0.368 A  
HETATM   33  C   UNL     1     -10.524   4.254  74.475  1.00  0.00    -0.236 C  
HETATM   34  C   UNL     1     -11.506   4.526  73.333  1.00  0.00    -0.322 C  
ENDBRANCH  25  26
ENDBRANCH  24  25
ENDBRANCH  21  24
ENDBRANCH   6  19
ENDBRANCH   2   6
TORSDOF 7
ENDMDL
MODEL       80
REMARK 921   NORMALIZED FREE ENERGY PREDICTED BY IDOCK:   -5.55 KCAL/MOL
REMARK 922        TOTAL FREE ENERGY PREDICTED BY IDOCK:   -9.60 KCAL/MOL
REMARK 923 INTER-LIGAND FREE ENERGY PREDICTED BY IDOCK:   -8.93 KCAL/MOL
REMARK 924 INTRA-LIGAND FREE ENERGY PREDICTED BY IDOCK:   -0.67 KCAL/MOL
REMARK 927      BINDING AFFINITY PREDICTED BY RF-SCORE:    0.00 PKD
ROOT
HETATM    1  N   UNL     1     -10.837  12.391  69.294  1.00  0.00    -0.444 N  
HETATM    2  C   UNL     1     -10.979  11.480  68.279  1.00  0.00    -0.224 C  
HETATM    3  H1  UNL     1     -10.038  13.020  69.221  1.00  0.00     0.000 HD 
HETATM    4  H2  UNL     1     -11.491  12.437  70.075  1.00  0.00     0.000 HD 
HETATM    5  O   UNL     1     -11.940  10.724  68.366  1.00  0.00    -0.508 OA 
ENDROOT
BRANCH   2   6
HETATM    6  C   UNL     1      -9.955  11.545  67.065  1.00  0.00    -0.225 C  
BRANCH   6   7
HETATM    7  C   UNL     1     -10.788  11.844  65.740  1.00  0.00    -0.341 A  
HETATM    8  C   UNL     1     -12.209  12.569  63.380  1.00  0.00    -0.613 A  
HETATM    9  C   UNL     1     -12.770  12.789  64.629  1.00  0.00    -0.439 A  
HETATM   10  C   UNL     1     -10.975  11.941  63.290  1.00  0.00    -0.399 A  
HETATM   11  C   UNL     1     -12.081  12.414  65.789  1.00  0.00    -0.381 A  
HETATM   12  C   UNL     1     -10.282  11.577  64.452  1.00  0.00    -0.350 A  
ENDBRANCH   6   7
BRANCH   6  13
HETATM   13  C   UNL     1      -8.907  12.687  67.340  1.00  0.00    -0.189 A  
HETATM   14  C   UNL     1      -9.175  14.020  66.945  1.00  0.00    -0.271 A  
HETATM   15  C   UNL     1      -8.230  15.040  67.100  1.00  0.00    -0.251 A  
HETATM   16  C   UNL     1      -7.000  14.770  67.681  1.00  0.00    -0.204 A  
HETATM   17  C   UNL     1      -7.673  12.457  67.967  1.00  0.00    -0.135 A  
HETATM   18  C   UNL     1      -6.724  13.477  68.127  1.00  0.00    -0.120 A  
ENDBRANCH   6  13
BRANCH   6  19
HETATM   19  C   UNL     1      -9.182  10.149  66.892  1.00  0.00    -0.168 C  
HETATM   20  C   UNL     1     -10.411   8.039  67.097  1.00  0.00    -0.338 C  
HETATM   21  N   UNL     1      -9.505   8.117  68.240  1.00  0.00    -0.141 NA 
HETATM   22  C   UNL     1      -8.731   9.364  68.135  1.00  0.00    -0.124 C  
HETATM   23  C   UNL     1      -9.904   9.055  66.087  1.00  0.00    -0.349 C  
BRANCH  21  24
HETATM   24  C   UNL     1     -10.170   7.983  69.549  1.00  0.00    -0.209 C  
BRANCH  24  25
HETATM   25  C   UNL     1     -11.174   6.819  69.644  1.00  0.00    -0.345 C  
BRANCH  25  26
HETATM   26  C   UNL     1     -10.673   5.707  70.548  1.00  0.00    -0.344 A  
HETATM   27  C   UNL     1     -10.952   5.738  71.921  1.00  0.00    -0.318 A  
HETATM   28  C   UNL     1     -10.506   4.693  72.718  1.00  0.00    -0.261 A  
HETATM   29  C   UNL     1      -9.810   3.633  72.171  1.00  0.00    -0.170 A  
HETATM   30  O   UNL     1      -9.466   2.666  73.078  1.00  0.00    -0.087 OA 
HETATM   31  C   UNL     1      -9.516   3.569  70.827  1.00  0.00    -0.240 A  
HETATM   32  C   UNL     1      -9.947   4.622  70.009  1.00  0.00    -0.302 A  
HETATM   33  C   UNL     1      -9.867   3.204  74.359  1.00  0.00    -0.118 C  
HETATM   34  C   UNL     1     -10.671   4.491  74.170  1.00  0.00    -0.319 C  
ENDBRANCH  25  26
ENDBRANCH  24  25
ENDBRANCH  21  24
ENDBRANCH   6  19
ENDBRANCH   2   6
TORSDOF 7
ENDMDL
MODEL       81
REMARK 921   NORMALIZED FREE ENERGY PREDICTED BY IDOCK:   -5.53 KCAL/MOL
REMARK 922        TOTAL FREE ENERGY PREDICTED BY IDOCK:   -9.57 KCAL/MOL
REMARK 923 INTER-LIGAND FREE ENERGY PREDICTED BY IDOCK:   -8.74 KCAL/MOL
REMARK 924 INTRA-LIGAND FREE ENERGY PREDICTED BY IDOCK:   -0.84 KCAL/MOL
REMARK 927      BINDING AFFINITY PREDICTED BY RF-SCORE:    0.00 PKD
ROOT
HETATM    1  N   UNL     1     -10.146   4.897  69.467  1.00  0.00    -0.230 N  
HETATM    2  C   UNL     1     -10.202   5.365  70.755  1.00  0.00    -0.243 C  
HETATM    3  H1  UNL     1     -10.027   5.602  68.740  1.00  0.00     0.000 HD 
HETATM    4  H2  UNL     1     -10.218   3.903  69.249  1.00  0.00     0.000 HD 
HETATM    5  O   UNL     1     -10.345   4.517  71.629  1.00  0.00    -0.175 OA 
ENDROOT
BRANCH   2   6
HETATM    6  C   UNL     1      -9.997   6.922  70.996  1.00  0.00    -0.199 C  
BRANCH   6   7
HETATM    7  C   UNL     1     -11.402   7.540  71.422  1.00  0.00    -0.284 A  
HETATM    8  C   UNL     1     -13.914   8.748  72.011  1.00  0.00    -0.511 A  
HETATM    9  C   UNL     1     -12.732   9.403  72.326  1.00  0.00    -0.416 A  
HETATM   10  C   UNL     1     -13.860   7.475  71.461  1.00  0.00    -0.487 A  
HETATM   11  C   UNL     1     -11.497   8.800  72.055  1.00  0.00    -0.441 A  
HETATM   12  C   UNL     1     -12.623   6.879  71.180  1.00  0.00    -0.366 A  
ENDBRANCH   6   7
BRANCH   6  13
HETATM   13  C   UNL     1      -8.926   7.128  72.132  1.00  0.00    -0.142 A  
HETATM   14  C   UNL     1      -9.284   7.744  73.356  1.00  0.00    -0.344 A  
HETATM   15  C   UNL     1      -8.338   8.015  74.350  1.00  0.00    -0.244 A  
HETATM   16  C   UNL     1      -7.011   7.654  74.169  1.00  0.00    -0.123 A  
HETATM   17  C   UNL     1      -7.586   6.732  72.001  1.00  0.00    -0.094 A  
HETATM   18  C   UNL     1      -6.635   6.999  72.996  1.00  0.00    -0.065 A  
ENDBRANCH   6  13
BRANCH   6  19
HETATM   19  C   UNL     1      -9.491   7.648  69.657  1.00  0.00    -0.156 C  
HETATM   20  C   UNL     1      -9.302  10.091  69.590  1.00  0.00    -0.220 C  
HETATM   21  N   UNL     1     -10.389   9.722  68.686  1.00  0.00    -0.193 NA 
HETATM   22  C   UNL     1     -10.514   8.256  68.682  1.00  0.00    -0.168 C  
HETATM   23  C   UNL     1      -8.508   8.818  69.835  1.00  0.00    -0.131 C  
BRANCH  21  24
HETATM   24  C   UNL     1     -11.670  10.390  68.977  1.00  0.00    -0.096 C  
BRANCH  24  25
HETATM   25  C   UNL     1     -11.545  11.865  69.403  1.00  0.00    -0.388 C  
BRANCH  25  26
HETATM   26  C   UNL     1     -11.444  12.796  68.209  1.00  0.00    -0.354 A  
HETATM   27  C   UNL     1     -10.904  14.080  68.362  1.00  0.00    -0.263 A  
HETATM   28  C   UNL     1     -10.797  14.900  67.248  1.00  0.00    -0.306 A  
HETATM   29  C   UNL     1     -11.204  14.458  66.004  1.00  0.00    -0.333 A  
HETATM   30  O   UNL     1     -11.006  15.367  64.999  1.00  0.00    -0.391 OA 
HETATM   31  C   UNL     1     -11.741  13.204  65.815  1.00  0.00    -0.415 A  
HETATM   32  C   UNL     1     -11.868  12.368  66.932  1.00  0.00    -0.377 A  
HETATM   33  C   UNL     1     -10.541  16.562  65.669  1.00  0.00    -0.304 C  
HETATM   34  C   UNL     1     -10.268  16.272  67.146  1.00  0.00    -0.276 C  
ENDBRANCH  25  26
ENDBRANCH  24  25
ENDBRANCH  21  24
ENDBRANCH   6  19
ENDBRANCH   2   6
TORSDOF 7
ENDMDL
MODEL       82
REMARK 921   NORMALIZED FREE ENERGY PREDICTED BY IDOCK:   -5.51 KCAL/MOL
REMARK 922        TOTAL FREE ENERGY PREDICTED BY IDOCK:   -9.55 KCAL/MOL
REMARK 923 INTER-LIGAND FREE ENERGY PREDICTED BY IDOCK:   -9.39 KCAL/MOL
REMARK 924 INTRA-LIGAND FREE ENERGY PREDICTED BY IDOCK:   -0.16 KCAL/MOL
REMARK 927      BINDING AFFINITY PREDICTED BY RF-SCORE:    0.00 PKD
ROOT
HETATM    1  N   UNL     1      -8.572  16.257  68.978  1.00  0.00    -0.252 N  
HETATM    2  C   UNL     1      -9.821  16.113  68.431  1.00  0.00    -0.222 C  
HETATM    3  H1  UNL     1      -8.113  15.397  69.278  1.00  0.00     0.000 HD 
HETATM    4  H2  UNL     1      -8.127  17.170  69.080  1.00  0.00     0.000 HD 
HETATM    5  O   UNL     1     -10.372  17.147  68.071  1.00  0.00    -0.318 OA 
ENDROOT
BRANCH   2   6
HETATM    6  C   UNL     1     -10.390  14.642  68.240  1.00  0.00    -0.230 C  
BRANCH   6   7
HETATM    7  C   UNL     1     -11.408  14.354  69.431  1.00  0.00    -0.319 A  
HETATM    8  C   UNL     1     -13.378  13.849  71.426  1.00  0.00    -0.363 A  
HETATM    9  C   UNL     1     -13.077  15.151  71.055  1.00  0.00    -0.513 A  
HETATM   10  C   UNL     1     -12.670  12.799  70.858  1.00  0.00    -0.277 A  
HETATM   11  C   UNL     1     -12.094  15.401  70.089  1.00  0.00    -0.400 A  
HETATM   12  C   UNL     1     -11.695  13.051  69.884  1.00  0.00    -0.326 A  
ENDBRANCH   6   7
BRANCH   6  13
HETATM   13  C   UNL     1     -11.117  14.551  66.846  1.00  0.00    -0.325 A  
HETATM   14  C   UNL     1     -10.709  15.371  65.766  1.00  0.00    -0.360 A  
HETATM   15  C   UNL     1     -11.388  15.373  64.543  1.00  0.00    -0.321 A  
HETATM   16  C   UNL     1     -12.477  14.535  64.347  1.00  0.00    -0.335 A  
HETATM   17  C   UNL     1     -12.191  13.681  66.599  1.00  0.00    -0.437 A  
HETATM   18  C   UNL     1     -12.872  13.677  65.374  1.00  0.00    -0.440 A  
ENDBRANCH   6  13
BRANCH   6  19
HETATM   19  C   UNL     1      -9.207  13.558  68.290  1.00  0.00    -0.195 C  
HETATM   20  C   UNL     1      -8.834  12.070  66.380  1.00  0.00    -0.126 C  
HETATM   21  N   UNL     1      -9.310  11.237  67.481  1.00  0.00    -0.161 NA 
HETATM   22  C   UNL     1      -9.522  12.098  68.656  1.00  0.00    -0.045 C  
HETATM   23  C   UNL     1      -8.380  13.379  67.006  1.00  0.00    -0.089 C  
BRANCH  21  24
HETATM   24  C   UNL     1     -10.503  10.432  67.159  1.00  0.00    -0.256 C  
BRANCH  24  25
HETATM   25  C   UNL     1     -10.243   8.919  67.035  1.00  0.00    -0.345 C  
BRANCH  25  26
HETATM   26  C   UNL     1     -10.534   8.183  68.331  1.00  0.00    -0.205 A  
HETATM   27  C   UNL     1     -10.666   8.897  69.530  1.00  0.00    -0.206 A  
HETATM   28  C   UNL     1     -10.961   8.202  70.694  1.00  0.00    -0.255 A  
HETATM   29  C   UNL     1     -11.134   6.831  70.675  1.00  0.00    -0.291 A  
HETATM   30  O   UNL     1     -11.451   6.293  71.893  1.00  0.00    -0.282 OA 
HETATM   31  C   UNL     1     -11.010   6.096  69.516  1.00  0.00    -0.463 A  
HETATM   32  C   UNL     1     -10.699   6.781  68.333  1.00  0.00    -0.284 A  
HETATM   33  C   UNL     1     -11.355   7.399  72.820  1.00  0.00    -0.308 C  
HETATM   34  C   UNL     1     -11.152   8.713  72.063  1.00  0.00    -0.437 C  
ENDBRANCH  25  26
ENDBRANCH  24  25
ENDBRANCH  21  24
ENDBRANCH   6  19
ENDBRANCH   2   6
TORSDOF 7
ENDMDL
MODEL       83
REMARK 921   NORMALIZED FREE ENERGY PREDICTED BY IDOCK:   -5.51 KCAL/MOL
REMARK 922        TOTAL FREE ENERGY PREDICTED BY IDOCK:   -9.54 KCAL/MOL
REMARK 923 INTER-LIGAND FREE ENERGY PREDICTED BY IDOCK:   -8.03 KCAL/MOL
REMARK 924 INTRA-LIGAND FREE ENERGY PREDICTED BY IDOCK:   -1.52 KCAL/MOL
REMARK 927      BINDING AFFINITY PREDICTED BY RF-SCORE:    0.00 PKD
ROOT
HETATM    1  N   UNL     1     -12.706  14.522  66.068  1.00  0.00    -0.309 N  
HETATM    2  C   UNL     1     -12.197  13.255  65.945  1.00  0.00    -0.441 C  
HETATM    3  H1  UNL     1     -12.198  15.149  66.691  1.00  0.00     0.000 HD 
HETATM    4  H2  UNL     1     -13.543  14.820  65.566  1.00  0.00     0.000 HD 
HETATM    5  O   UNL     1     -12.807  12.500  65.196  1.00  0.00    -0.685 OA 
ENDROOT
BRANCH   2   6
HETATM    6  C   UNL     1     -10.842  12.915  66.704  1.00  0.00    -0.288 C  
BRANCH   6   7
HETATM    7  C   UNL     1     -10.281  11.547  66.111  1.00  0.00    -0.272 A  
HETATM    8  C   UNL     1      -9.098   9.149  65.127  1.00  0.00    -0.234 A  
HETATM    9  C   UNL     1      -9.014  10.322  64.392  1.00  0.00    -0.255 A  
HETATM   10  C   UNL     1      -9.812   9.141  66.317  1.00  0.00    -0.359 A  
HETATM   11  C   UNL     1      -9.613  11.497  64.866  1.00  0.00    -0.212 A  
HETATM   12  C   UNL     1     -10.402  10.320  66.794  1.00  0.00    -0.288 A  
ENDBRANCH   6   7
BRANCH   6  13
HETATM   13  C   UNL     1      -9.818  14.088  66.474  1.00  0.00    -0.298 A  
HETATM   14  C   UNL     1      -8.551  14.073  67.106  1.00  0.00    -0.220 A  
HETATM   15  C   UNL     1      -7.653  15.139  66.987  1.00  0.00    -0.121 A  
HETATM   16  C   UNL     1      -7.978  16.242  66.209  1.00  0.00    -0.208 A  
HETATM   17  C   UNL     1     -10.095  15.196  65.657  1.00  0.00    -0.392 A  
HETATM   18  C   UNL     1      -9.198  16.266  65.532  1.00  0.00     0.241 A  
ENDBRANCH   6  13
BRANCH   6  19
HETATM   19  C   UNL     1     -11.096  12.737  68.279  1.00  0.00    -0.288 C  
HETATM   20  C   UNL     1     -12.430  14.394  69.495  1.00  0.00    -0.125 C  
HETATM   21  N   UNL     1     -11.058  14.513  69.980  1.00  0.00    -0.180 NA 
HETATM   22  C   UNL     1     -10.231  13.513  69.286  1.00  0.00     0.280 C  
HETATM   23  C   UNL     1     -12.513  13.050  68.790  1.00  0.00     0.377 C  
BRANCH  21  24
HETATM   24  C   UNL     1     -10.495  15.872  69.872  1.00  0.00    -0.310 C  
BRANCH  24  25
HETATM   25  C   UNL     1     -11.143  16.753  68.788  1.00  0.00    -0.220 C  
BRANCH  25  26
HETATM   26  C   UNL     1     -10.252  17.916  68.392  1.00  0.00    -0.398 A  
HETATM   27  C   UNL     1      -8.958  18.023  68.920  1.00  0.00    -0.139 A  
HETATM   28  C   UNL     1      -8.156  19.081  68.518  1.00  0.00    -0.385 A  
HETATM   29  C   UNL     1      -8.615  20.010  67.605  1.00  0.00    -0.326 A  
HETATM   30  O   UNL     1      -7.698  20.975  67.284  1.00  0.00    -0.313 OA 
HETATM   31  C   UNL     1      -9.881  19.939  67.067  1.00  0.00    -0.540 A  
HETATM   32  C   UNL     1     -10.710  18.884  67.472  1.00  0.00    -0.509 A  
HETATM   33  C   UNL     1      -6.577  20.725  68.163  1.00  0.00    -0.261 C  
HETATM   34  C   UNL     1      -6.775  19.409  68.918  1.00  0.00    -0.348 C  
ENDBRANCH  25  26
ENDBRANCH  24  25
ENDBRANCH  21  24
ENDBRANCH   6  19
ENDBRANCH   2   6
TORSDOF 7
ENDMDL
MODEL       84
REMARK 921   NORMALIZED FREE ENERGY PREDICTED BY IDOCK:   -5.49 KCAL/MOL
REMARK 922        TOTAL FREE ENERGY PREDICTED BY IDOCK:   -9.51 KCAL/MOL
REMARK 923 INTER-LIGAND FREE ENERGY PREDICTED BY IDOCK:   -8.11 KCAL/MOL
REMARK 924 INTRA-LIGAND FREE ENERGY PREDICTED BY IDOCK:   -1.41 KCAL/MOL
REMARK 927      BINDING AFFINITY PREDICTED BY RF-SCORE:    0.00 PKD
ROOT
HETATM    1  N   UNL     1      -6.792   9.967  64.064  1.00  0.00    -0.122 N  
HETATM    2  C   UNL     1      -8.051   9.469  64.277  1.00  0.00    -0.142 C  
HETATM    3  H1  UNL     1      -6.361  10.447  64.855  1.00  0.00     0.000 HD 
HETATM    4  H2  UNL     1      -6.313   9.863  63.169  1.00  0.00     0.000 HD 
HETATM    5  O   UNL     1      -8.568   8.892  63.327  1.00  0.00    -0.183 OA 
ENDROOT
BRANCH   2   6
HETATM    6  C   UNL     1      -8.677   9.609  65.731  1.00  0.00    -0.168 C  
BRANCH   6   7
HETATM    7  C   UNL     1      -9.818  10.719  65.666  1.00  0.00    -0.299 A  
HETATM    8  C   UNL     1     -11.737  12.825  65.658  1.00  0.00    -0.443 A  
HETATM    9  C   UNL     1     -11.679  11.936  66.722  1.00  0.00    -0.281 A  
HETATM   10  C   UNL     1     -10.891  12.644  64.574  1.00  0.00    -0.365 A  
HETATM   11  C   UNL     1     -10.749  10.888  66.716  1.00  0.00    -0.309 A  
HETATM   12  C   UNL     1      -9.954  11.601  64.575  1.00  0.00    -0.290 A  
ENDBRANCH   6   7
BRANCH   6  13
HETATM   13  C   UNL     1      -9.272   8.219  66.168  1.00  0.00    -0.250 A  
HETATM   14  C   UNL     1      -8.585   7.016  65.873  1.00  0.00    -0.152 A  
HETATM   15  C   UNL     1      -9.128   5.762  66.175  1.00  0.00    -0.161 A  
HETATM   16  C   UNL     1     -10.360   5.668  66.807  1.00  0.00    -0.316 A  
HETATM   17  C   UNL     1     -10.492   8.090  66.850  1.00  0.00    -0.387 A  
HETATM   18  C   UNL     1     -11.039   6.836  67.158  1.00  0.00    -0.404 A  
ENDBRANCH   6  13
BRANCH   6  19
HETATM   19  C   UNL     1      -7.564  10.064  66.793  1.00  0.00    -0.103 C  
HETATM   20  C   UNL     1      -8.245  10.868  69.006  1.00  0.00    -0.124 C  
HETATM   21  N   UNL     1      -7.678  12.010  68.293  1.00  0.00    -0.120 NA 
HETATM   22  C   UNL     1      -7.235  11.557  66.965  1.00  0.00    -0.146 C  
HETATM   23  C   UNL     1      -7.784   9.631  68.253  1.00  0.00    -0.082 C  
BRANCH  21  24
HETATM   24  C   UNL     1      -8.575  13.178  68.211  1.00  0.00    -0.166 C  
BRANCH  24  25
HETATM   25  C   UNL     1      -8.288  14.129  67.035  1.00  0.00    -0.142 C  
BRANCH  25  26
HETATM   26  C   UNL     1      -8.998  15.461  67.192  1.00  0.00    -0.236 A  
HETATM   27  C   UNL     1      -8.487  16.608  66.570  1.00  0.00    -0.327 A  
HETATM   28  C   UNL     1      -9.172  17.807  66.707  1.00  0.00    -0.281 A  
HETATM   29  C   UNL     1     -10.345  17.872  67.435  1.00  0.00    -0.378 A  
HETATM   30  O   UNL     1     -10.920  19.114  67.453  1.00  0.00    -0.475 OA 
HETATM   31  C   UNL     1     -10.876  16.767  68.063  1.00  0.00    -0.341 A  
HETATM   32  C   UNL     1     -10.189  15.550  67.945  1.00  0.00    -0.238 A  
HETATM   33  C   UNL     1      -9.970  19.970  66.777  1.00  0.00    -0.454 C  
HETATM   34  C   UNL     1      -8.849  19.135  66.154  1.00  0.00    -0.224 C  
ENDBRANCH  25  26
ENDBRANCH  24  25
ENDBRANCH  21  24
ENDBRANCH   6  19
ENDBRANCH   2   6
TORSDOF 7
ENDMDL
MODEL       85
REMARK 921   NORMALIZED FREE ENERGY PREDICTED BY IDOCK:   -5.47 KCAL/MOL
REMARK 922        TOTAL FREE ENERGY PREDICTED BY IDOCK:   -9.49 KCAL/MOL
REMARK 923 INTER-LIGAND FREE ENERGY PREDICTED BY IDOCK:   -7.64 KCAL/MOL
REMARK 924 INTRA-LIGAND FREE ENERGY PREDICTED BY IDOCK:   -1.85 KCAL/MOL
REMARK 927      BINDING AFFINITY PREDICTED BY RF-SCORE:    0.00 PKD
ROOT
HETATM    1  N   UNL     1     -10.721  15.713  67.323  1.00  0.00    -0.304 N  
HETATM    2  C   UNL     1     -11.307  14.478  67.223  1.00  0.00    -0.350 C  
HETATM    3  H1  UNL     1      -9.806  15.740  67.771  1.00  0.00     0.000 HD 
HETATM    4  H2  UNL     1     -11.174  16.557  66.969  1.00  0.00     0.000 HD 
HETATM    5  O   UNL     1     -12.408  14.446  66.685  1.00  0.00    -0.409 OA 
ENDROOT
BRANCH   2   6
HETATM    6  C   UNL     1     -10.484  13.216  67.729  1.00  0.00    -0.232 C  
BRANCH   6   7
HETATM    7  C   UNL     1     -11.277  12.576  68.955  1.00  0.00    -0.330 A  
HETATM    8  C   UNL     1     -12.865  11.488  71.055  1.00  0.00    -0.358 A  
HETATM    9  C   UNL     1     -12.523  12.832  71.062  1.00  0.00    -0.369 A  
HETATM   10  C   UNL     1     -12.379  10.668  70.047  1.00  0.00    -0.341 A  
HETATM   11  C   UNL     1     -11.725  13.363  70.040  1.00  0.00    -0.297 A  
HETATM   12  C   UNL     1     -11.590  11.203  69.020  1.00  0.00    -0.392 A  
ENDBRANCH   6   7
BRANCH   6  13
HETATM   13  C   UNL     1     -10.351  12.184  66.548  1.00  0.00    -0.239 A  
HETATM   14  C   UNL     1     -10.050  10.825  66.809  1.00  0.00    -0.267 A  
HETATM   15  C   UNL     1      -9.844   9.903  65.777  1.00  0.00    -0.356 A  
HETATM   16  C   UNL     1      -9.959  10.300  64.452  1.00  0.00    -0.331 A  
HETATM   17  C   UNL     1     -10.508  12.541  65.199  1.00  0.00    -0.320 A  
HETATM   18  C   UNL     1     -10.305  11.621  64.162  1.00  0.00    -0.386 A  
ENDBRANCH   6  13
BRANCH   6  19
HETATM   19  C   UNL     1      -9.019  13.646  68.222  1.00  0.00    -0.187 C  
HETATM   20  C   UNL     1      -7.039  12.613  67.214  1.00  0.00    -0.098 C  
HETATM   21  N   UNL     1      -7.101  12.153  68.598  1.00  0.00    -0.099 NA 
HETATM   22  C   UNL     1      -8.268  12.775  69.244  1.00  0.00     0.778 C  
HETATM   23  C   UNL     1      -7.949  13.828  67.132  1.00  0.00    -0.065 C  
BRANCH  21  24
HETATM   24  C   UNL     1      -7.098  10.686  68.749  1.00  0.00    -0.076 C  
BRANCH  24  25
HETATM   25  C   UNL     1      -7.474  10.183  70.155  1.00  0.00    -0.146 C  
BRANCH  25  26
HETATM   26  C   UNL     1      -8.653   9.227  70.122  1.00  0.00    -0.215 A  
HETATM   27  C   UNL     1      -9.490   9.104  71.239  1.00  0.00    -0.313 A  
HETATM   28  C   UNL     1     -10.576   8.244  71.171  1.00  0.00    -0.258 A  
HETATM   29  C   UNL     1     -10.840   7.528  70.019  1.00  0.00    -0.249 A  
HETATM   30  O   UNL     1     -11.963   6.748  70.094  1.00  0.00    -0.328 OA 
HETATM   31  C   UNL     1     -10.040   7.622  68.902  1.00  0.00    -0.202 A  
HETATM   32  C   UNL     1      -8.930   8.476  68.959  1.00  0.00    -0.146 A  
HETATM   33  C   UNL     1     -12.406   6.870  71.466  1.00  0.00    -0.376 C  
HETATM   34  C   UNL     1     -11.595   7.944  72.194  1.00  0.00    -0.380 C  
ENDBRANCH  25  26
ENDBRANCH  24  25
ENDBRANCH  21  24
ENDBRANCH   6  19
ENDBRANCH   2   6
TORSDOF 7
ENDMDL
MODEL       86
REMARK 921   NORMALIZED FREE ENERGY PREDICTED BY IDOCK:   -5.46 KCAL/MOL
REMARK 922        TOTAL FREE ENERGY PREDICTED BY IDOCK:   -9.48 KCAL/MOL
REMARK 923 INTER-LIGAND FREE ENERGY PREDICTED BY IDOCK:   -8.09 KCAL/MOL
REMARK 924 INTRA-LIGAND FREE ENERGY PREDICTED BY IDOCK:   -1.39 KCAL/MOL
REMARK 927      BINDING AFFINITY PREDICTED BY RF-SCORE:    0.00 PKD
ROOT
HETATM    1  N   UNL     1     -10.525  11.160  69.583  1.00  0.00    -0.451 N  
HETATM    2  C   UNL     1     -10.953  11.006  68.289  1.00  0.00    -0.235 C  
HETATM    3  H1  UNL     1      -9.530  11.011  69.746  1.00  0.00     0.000 HD 
HETATM    4  H2  UNL     1     -11.165  11.408  70.338  1.00  0.00     0.000 HD 
HETATM    5  O   UNL     1     -12.149  11.185  68.093  1.00  0.00    -0.633 OA 
ENDROOT
BRANCH   2   6
HETATM    6  C   UNL     1      -9.864  10.699  67.172  1.00  0.00    -0.208 C  
BRANCH   6   7
HETATM    7  C   UNL     1      -8.641  11.695  67.397  1.00  0.00    -0.149 A  
HETATM    8  C   UNL     1      -6.471  13.529  67.607  1.00  0.00    -0.169 A  
HETATM    9  C   UNL     1      -6.254  12.240  67.142  1.00  0.00    -0.118 A  
HETATM   10  C   UNL     1      -7.743  13.897  68.022  1.00  0.00    -0.151 A  
HETATM   11  C   UNL     1      -7.317  11.331  67.058  1.00  0.00    -0.136 A  
HETATM   12  C   UNL     1      -8.807  12.990  67.927  1.00  0.00    -0.193 A  
ENDBRANCH   6   7
BRANCH   6  13
HETATM   13  C   UNL     1      -9.400   9.201  67.307  1.00  0.00    -0.166 A  
HETATM   14  C   UNL     1      -9.358   8.355  66.172  1.00  0.00    -0.267 A  
HETATM   15  C   UNL     1      -9.030   6.998  66.275  1.00  0.00    -0.175 A  
HETATM   16  C   UNL     1      -8.705   6.449  67.506  1.00  0.00    -0.113 A  
HETATM   17  C   UNL     1      -9.020   8.625  68.530  1.00  0.00    -0.139 A  
HETATM   18  C   UNL     1      -8.688   7.267  68.637  1.00  0.00    -0.127 A  
ENDBRANCH   6  13
BRANCH   6  19
HETATM   19  C   UNL     1     -10.466  10.935  65.703  1.00  0.00    -0.274 C  
HETATM   20  C   UNL     1     -10.213  13.117  64.617  1.00  0.00    -0.306 C  
HETATM   21  N   UNL     1     -11.635  12.946  64.904  1.00  0.00    -0.314 NA 
HETATM   22  C   UNL     1     -11.827  11.632  65.536  1.00  0.00     0.227 C  
HETATM   23  C   UNL     1      -9.593  11.733  64.719  1.00  0.00    -0.110 C  
BRANCH  21  24
HETATM   24  C   UNL     1     -12.226  14.039  65.698  1.00  0.00    -0.442 C  
BRANCH  24  25
HETATM   25  C   UNL     1     -11.231  15.132  66.130  1.00  0.00    -0.271 C  
BRANCH  25  26
HETATM   26  C   UNL     1     -11.301  15.410  67.620  1.00  0.00    -0.292 A  
HETATM   27  C   UNL     1     -11.985  14.528  68.469  1.00  0.00    -0.321 A  
HETATM   28  C   UNL     1     -12.008  14.792  69.831  1.00  0.00    -0.378 A  
HETATM   29  C   UNL     1     -11.360  15.897  70.349  1.00  0.00    -0.385 A  
HETATM   30  O   UNL     1     -11.446  16.004  71.711  1.00  0.00    -0.413 OA 
HETATM   31  C   UNL     1     -10.680  16.786  69.546  1.00  0.00    -0.273 A  
HETATM   32  C   UNL     1     -10.658  16.542  68.166  1.00  0.00    -0.329 A  
HETATM   33  C   UNL     1     -12.338  14.938  72.109  1.00  0.00    -0.351 C  
HETATM   34  C   UNL     1     -12.646  14.027  70.918  1.00  0.00    -0.431 C  
ENDBRANCH  25  26
ENDBRANCH  24  25
ENDBRANCH  21  24
ENDBRANCH   6  19
ENDBRANCH   2   6
TORSDOF 7
ENDMDL
MODEL       87
REMARK 921   NORMALIZED FREE ENERGY PREDICTED BY IDOCK:   -5.44 KCAL/MOL
REMARK 922        TOTAL FREE ENERGY PREDICTED BY IDOCK:   -9.44 KCAL/MOL
REMARK 923 INTER-LIGAND FREE ENERGY PREDICTED BY IDOCK:   -7.53 KCAL/MOL
REMARK 924 INTRA-LIGAND FREE ENERGY PREDICTED BY IDOCK:   -1.92 KCAL/MOL
REMARK 927      BINDING AFFINITY PREDICTED BY RF-SCORE:    0.00 PKD
ROOT
HETATM    1  N   UNL     1      -7.366  12.076  66.826  1.00  0.00    -0.367 N  
HETATM    2  C   UNL     1      -7.995  11.567  67.934  1.00  0.00    -0.126 C  
HETATM    3  H1  UNL     1      -7.868  11.979  65.944  1.00  0.00     0.000 HD 
HETATM    4  H2  UNL     1      -6.452  12.524  66.881  1.00  0.00     0.000 HD 
HETATM    5  O   UNL     1      -7.391  11.684  68.995  1.00  0.00    -0.112 OA 
ENDROOT
BRANCH   2   6
HETATM    6  C   UNL     1      -9.454  10.963  67.757  1.00  0.00    -0.165 C  
BRANCH   6   7
HETATM    7  C   UNL     1      -9.843  10.222  69.113  1.00  0.00    -0.228 A  
HETATM    8  C   UNL     1     -10.477   9.062  71.636  1.00  0.00    -0.426 A  
HETATM    9  C   UNL     1      -9.187   8.978  71.133  1.00  0.00    -0.326 A  
HETATM   10  C   UNL     1     -11.467   9.665  70.873  1.00  0.00    -0.427 A  
HETATM   11  C   UNL     1      -8.880   9.531  69.883  1.00  0.00    -0.227 A  
HETATM   12  C   UNL     1     -11.155  10.227  69.628  1.00  0.00    -0.323 A  
ENDBRANCH   6   7
BRANCH   6  13
HETATM   13  C   UNL     1     -10.459  12.134  67.449  1.00  0.00    -0.233 A  
HETATM   14  C   UNL     1     -11.308  12.076  66.316  1.00  0.00    -0.415 A  
HETATM   15  C   UNL     1     -12.151  13.137  65.971  1.00  0.00    -0.495 A  
HETATM   16  C   UNL     1     -12.198  14.278  66.759  1.00  0.00    -0.384 A  
HETATM   17  C   UNL     1     -10.566  13.281  68.251  1.00  0.00    -0.262 A  
HETATM   18  C   UNL     1     -11.412  14.346  67.910  1.00  0.00    -0.346 A  
ENDBRANCH   6  13
BRANCH   6  19
HETATM   19  C   UNL     1      -9.493   9.903  66.553  1.00  0.00    -0.230 C  
HETATM   20  C   UNL     1     -10.306   7.626  66.957  1.00  0.00    -0.330 C  
HETATM   21  N   UNL     1      -8.877   7.524  66.673  1.00  0.00    -0.139 NA 
HETATM   22  C   UNL     1      -8.359   8.874  66.400  1.00  0.00    -0.116 C  
HETATM   23  C   UNL     1     -10.736   9.000  66.468  1.00  0.00     0.074 C  
BRANCH  21  24
HETATM   24  C   UNL     1      -8.101   6.831  67.717  1.00  0.00    -0.113 C  
BRANCH  24  25
HETATM   25  C   UNL     1      -8.750   5.541  68.251  1.00  0.00    -0.098 C  
BRANCH  25  26
HETATM   26  C   UNL     1      -8.844   5.535  69.766  1.00  0.00    -0.129 A  
HETATM   27  C   UNL     1     -10.090   5.408  70.393  1.00  0.00    -0.314 A  
HETATM   28  C   UNL     1     -10.143   5.377  71.779  1.00  0.00    -0.251 A  
HETATM   29  C   UNL     1      -8.988   5.457  72.533  1.00  0.00    -0.133 A  
HETATM   30  O   UNL     1      -9.199   5.381  73.884  1.00  0.00    -0.122 OA 
HETATM   31  C   UNL     1      -7.746   5.584  71.952  1.00  0.00    -0.104 A  
HETATM   32  C   UNL     1      -7.675   5.631  70.554  1.00  0.00    -0.094 A  
HETATM   33  C   UNL     1     -10.638   5.375  74.033  1.00  0.00    -0.267 C  
HETATM   34  C   UNL     1     -11.314   5.248  72.666  1.00  0.00    -0.296 C  
ENDBRANCH  25  26
ENDBRANCH  24  25
ENDBRANCH  21  24
ENDBRANCH   6  19
ENDBRANCH   2   6
TORSDOF 7
ENDMDL
MODEL       88
REMARK 921   NORMALIZED FREE ENERGY PREDICTED BY IDOCK:   -5.41 KCAL/MOL
REMARK 922        TOTAL FREE ENERGY PREDICTED BY IDOCK:   -9.40 KCAL/MOL
REMARK 923 INTER-LIGAND FREE ENERGY PREDICTED BY IDOCK:   -8.45 KCAL/MOL
REMARK 924 INTRA-LIGAND FREE ENERGY PREDICTED BY IDOCK:   -0.96 KCAL/MOL
REMARK 927      BINDING AFFINITY PREDICTED BY RF-SCORE:    0.00 PKD
ROOT
HETATM    1  N   UNL     1      -9.731   7.465  74.115  1.00  0.00    -0.416 N  
HETATM    2  C   UNL     1      -8.956   7.117  73.038  1.00  0.00    -0.133 C  
HETATM    3  H1  UNL     1     -10.728   7.575  73.932  1.00  0.00     0.000 HD 
HETATM    4  H2  UNL     1      -9.333   7.604  75.044  1.00  0.00     0.000 HD 
HETATM    5  O   UNL     1      -7.758   6.984  73.258  1.00  0.00    -0.089 OA 
ENDROOT
BRANCH   2   6
HETATM    6  C   UNL     1      -9.682   6.841  71.651  1.00  0.00    -0.166 C  
BRANCH   6   7
HETATM    7  C   UNL     1      -9.739   5.263  71.435  1.00  0.00    -0.219 A  
HETATM    8  C   UNL     1      -9.639   2.439  71.075  1.00  0.00    -0.203 A  
HETATM    9  C   UNL     1      -9.404   3.289  70.005  1.00  0.00    -0.238 A  
HETATM   10  C   UNL     1      -9.980   2.977  72.308  1.00  0.00    -0.237 A  
HETATM   11  C   UNL     1      -9.473   4.677  70.176  1.00  0.00    -0.246 A  
HETATM   12  C   UNL     1     -10.038   4.367  72.481  1.00  0.00    -0.237 A  
ENDBRANCH   6   7
BRANCH   6  13
HETATM   13  C   UNL     1     -11.132   7.452  71.702  1.00  0.00    -0.264 A  
HETATM   14  C   UNL     1     -12.246   6.704  71.248  1.00  0.00    -0.369 A  
HETATM   15  C   UNL     1     -13.533   7.249  71.204  1.00  0.00    -0.243 A  
HETATM   16  C   UNL     1     -13.757   8.548  71.638  1.00  0.00    -0.411 A  
HETATM   17  C   UNL     1     -11.401   8.745  72.179  1.00  0.00    -0.411 A  
HETATM   18  C   UNL     1     -12.690   9.295  72.139  1.00  0.00    -0.465 A  
ENDBRANCH   6  13
BRANCH   6  19
HETATM   19  C   UNL     1      -8.872   7.506  70.436  1.00  0.00    -0.145 C  
HETATM   20  C   UNL     1      -8.982   9.928  70.076  1.00  0.00    -0.169 C  
HETATM   21  N   UNL     1      -9.666   9.297  68.950  1.00  0.00    -0.158 NA 
HETATM   22  C   UNL     1      -9.597   7.838  69.121  1.00  0.00    -0.155 C  
HETATM   23  C   UNL     1      -8.154   8.834  70.731  1.00  0.00    -0.156 C  
BRANCH  21  24
HETATM   24  C   UNL     1     -11.048   9.769  68.741  1.00  0.00    -0.095 C  
BRANCH  24  25
HETATM   25  C   UNL     1     -11.189  10.916  67.723  1.00  0.00    -0.384 C  
BRANCH  25  26
HETATM   26  C   UNL     1     -11.286  12.270  68.401  1.00  0.00    -0.340 A  
HETATM   27  C   UNL     1     -10.715  13.400  67.799  1.00  0.00    -0.259 A  
HETATM   28  C   UNL     1     -10.844  14.631  68.427  1.00  0.00    -0.250 A  
HETATM   29  C   UNL     1     -11.532  14.748  69.619  1.00  0.00    -0.292 A  
HETATM   30  O   UNL     1     -11.600  16.029  70.098  1.00  0.00    -0.333 OA 
HETATM   31  C   UNL     1     -12.104  13.660  70.241  1.00  0.00    -0.427 A  
HETATM   32  C   UNL     1     -11.972  12.407  69.627  1.00  0.00    -0.341 A  
HETATM   33  C   UNL     1     -10.774  16.803  69.199  1.00  0.00    -0.329 C  
HETATM   34  C   UNL     1     -10.345  15.951  68.002  1.00  0.00    -0.262 C  
ENDBRANCH  25  26
ENDBRANCH  24  25
ENDBRANCH  21  24
ENDBRANCH   6  19
ENDBRANCH   2   6
TORSDOF 7
ENDMDL
MODEL       89
REMARK 921   NORMALIZED FREE ENERGY PREDICTED BY IDOCK:   -5.40 KCAL/MOL
REMARK 922        TOTAL FREE ENERGY PREDICTED BY IDOCK:   -9.38 KCAL/MOL
REMARK 923 INTER-LIGAND FREE ENERGY PREDICTED BY IDOCK:   -8.69 KCAL/MOL
REMARK 924 INTRA-LIGAND FREE ENERGY PREDICTED BY IDOCK:   -0.70 KCAL/MOL
REMARK 927      BINDING AFFINITY PREDICTED BY RF-SCORE:    0.00 PKD
ROOT
HETATM    1  N   UNL     1     -10.851  14.969  70.699  1.00  0.00    -0.518 N  
HETATM    2  C   UNL     1     -11.301  15.301  69.446  1.00  0.00    -0.294 C  
HETATM    3  H1  UNL     1      -9.860  14.740  70.772  1.00  0.00     0.000 HD 
HETATM    4  H2  UNL     1     -11.471  14.954  71.509  1.00  0.00     0.000 HD 
HETATM    5  O   UNL     1     -12.492  15.577  69.358  1.00  0.00    -0.197 OA 
ENDROOT
BRANCH   2   6
HETATM    6  C   UNL     1     -10.240  15.377  68.265  1.00  0.00    -0.229 C  
BRANCH   6   7
HETATM    7  C   UNL     1     -11.004  15.067  66.902  1.00  0.00    -0.324 A  
HETATM    8  C   UNL     1     -12.213  14.404  64.409  1.00  0.00    -0.481 A  
HETATM    9  C   UNL     1     -11.335  15.473  64.497  1.00  0.00    -0.322 A  
HETATM   10  C   UNL     1     -12.541  13.697  65.558  1.00  0.00    -0.541 A  
HETATM   11  C   UNL     1     -10.756  15.813  65.727  1.00  0.00    -0.337 A  
HETATM   12  C   UNL     1     -11.953  14.031  66.785  1.00  0.00    -0.473 A  
ENDBRANCH   6   7
BRANCH   6  13
HETATM   13  C   UNL     1      -9.606  16.817  68.238  1.00  0.00    -0.244 A  
HETATM   14  C   UNL     1     -10.392  17.944  67.897  1.00  0.00    -0.396 A  
HETATM   15  C   UNL     1      -9.839  19.224  67.783  1.00  0.00    -0.431 A  
HETATM   16  C   UNL     1      -8.490  19.427  68.036  1.00  0.00    -0.355 A  
HETATM   17  C   UNL     1      -8.256  17.064  68.534  1.00  0.00    -0.259 A  
HETATM   18  C   UNL     1      -7.697  18.346  68.425  1.00  0.00    -0.314 A  
ENDBRANCH   6  13
BRANCH   6  19
HETATM   19  C   UNL     1      -9.075  14.291  68.469  1.00  0.00    -0.191 C  
HETATM   20  C   UNL     1      -8.431  12.829  66.611  1.00  0.00     0.056 C  
HETATM   21  N   UNL     1      -9.059  11.982  67.621  1.00  0.00    -0.173 NA 
HETATM   22  C   UNL     1      -9.438  12.826  68.766  1.00  0.00     0.124 C  
HETATM   23  C   UNL     1      -8.073  14.129  67.314  1.00  0.00    -0.188 C  
BRANCH  21  24
HETATM   24  C   UNL     1     -10.192  11.182  67.120  1.00  0.00    -0.200 C  
BRANCH  24  25
HETATM   25  C   UNL     1     -11.215  10.771  68.196  1.00  0.00    -0.365 C  
BRANCH  25  26
HETATM   26  C   UNL     1     -10.793   9.513  68.932  1.00  0.00    -0.177 A  
HETATM   27  C   UNL     1     -10.853   9.463  70.331  1.00  0.00    -0.321 A  
HETATM   28  C   UNL     1     -10.488   8.290  70.976  1.00  0.00    -0.241 A  
HETATM   29  C   UNL     1     -10.083   7.183  70.255  1.00  0.00    -0.188 A  
HETATM   30  O   UNL     1      -9.787   6.093  71.030  1.00  0.00    -0.178 OA 
HETATM   31  C   UNL     1     -10.009   7.195  68.880  1.00  0.00    -0.163 A  
HETATM   32  C   UNL     1     -10.361   8.376  68.213  1.00  0.00    -0.244 A  
HETATM   33  C   UNL     1      -9.889   6.570  72.391  1.00  0.00    -0.159 C  
HETATM   34  C   UNL     1     -10.469   7.986  72.419  1.00  0.00    -0.368 C  
ENDBRANCH  25  26
ENDBRANCH  24  25
ENDBRANCH  21  24
ENDBRANCH   6  19
ENDBRANCH   2   6
TORSDOF 7
ENDMDL
MODEL       90
REMARK 921   NORMALIZED FREE ENERGY PREDICTED BY IDOCK:   -5.37 KCAL/MOL
REMARK 922        TOTAL FREE ENERGY PREDICTED BY IDOCK:   -9.34 KCAL/MOL
REMARK 923 INTER-LIGAND FREE ENERGY PREDICTED BY IDOCK:   -8.30 KCAL/MOL
REMARK 924 INTRA-LIGAND FREE ENERGY PREDICTED BY IDOCK:   -1.04 KCAL/MOL
REMARK 927      BINDING AFFINITY PREDICTED BY RF-SCORE:    0.00 PKD
ROOT
HETATM    1  N   UNL     1      -8.585   7.273  65.557  1.00  0.00    -0.282 N  
HETATM    2  C   UNL     1      -8.164   7.848  66.729  1.00  0.00    -0.116 C  
HETATM    3  H1  UNL     1      -9.376   7.722  65.097  1.00  0.00     0.000 HD 
HETATM    4  H2  UNL     1      -8.133   6.444  65.168  1.00  0.00     0.000 HD 
HETATM    5  O   UNL     1      -7.213   7.307  67.281  1.00  0.00    -0.087 OA 
ENDROOT
BRANCH   2   6
HETATM    6  C   UNL     1      -8.879   9.184  67.206  1.00  0.00    -0.132 C  
BRANCH   6   7
HETATM    7  C   UNL     1      -9.553   8.897  68.621  1.00  0.00    -0.158 A  
HETATM    8  C   UNL     1     -10.602   8.264  71.193  1.00  0.00    -0.258 A  
HETATM    9  C   UNL     1     -10.848   7.429  70.113  1.00  0.00    -0.270 A  
HETATM   10  C   UNL     1      -9.891   9.439  70.996  1.00  0.00    -0.317 A  
HETATM   11  C   UNL     1     -10.350   7.750  68.844  1.00  0.00    -0.224 A  
HETATM   12  C   UNL     1      -9.384   9.753  69.728  1.00  0.00    -0.249 A  
ENDBRANCH   6   7
BRANCH   6  13
HETATM   13  C   UNL     1      -7.804  10.328  67.319  1.00  0.00    -0.103 A  
HETATM   14  C   UNL     1      -8.007  11.424  68.193  1.00  0.00    -0.133 A  
HETATM   15  C   UNL     1      -7.110  12.496  68.254  1.00  0.00    -0.104 A  
HETATM   16  C   UNL     1      -5.967  12.497  67.467  1.00  0.00    -0.152 A  
HETATM   17  C   UNL     1      -6.615  10.337  66.573  1.00  0.00    -0.085 A  
HETATM   18  C   UNL     1      -5.712  11.408  66.632  1.00  0.00    -0.142 A  
ENDBRANCH   6  13
BRANCH   6  19
HETATM   19  C   UNL     1     -10.017   9.629  66.166  1.00  0.00    -0.346 C  
HETATM   20  C   UNL     1      -9.973  11.880  65.198  1.00  0.00    -0.247 C  
HETATM   21  N   UNL     1     -11.142  11.814  66.071  1.00  0.00    -0.319 NA 
HETATM   22  C   UNL     1     -11.214  10.464  66.651  1.00  0.00     0.288 C  
HETATM   23  C   UNL     1      -9.555  10.441  64.943  1.00  0.00    -0.348 C  
BRANCH  21  24
HETATM   24  C   UNL     1     -11.187  12.867  67.102  1.00  0.00    -0.289 C  
BRANCH  24  25
HETATM   25  C   UNL     1     -11.210  12.347  68.551  1.00  0.00    -0.321 C  
BRANCH  25  26
HETATM   26  C   UNL     1     -11.472  13.459  69.551  1.00  0.00    -0.308 A  
HETATM   27  C   UNL     1     -12.344  13.245  70.627  1.00  0.00    -0.416 A  
HETATM   28  C   UNL     1     -12.542  14.269  71.542  1.00  0.00    -0.432 A  
HETATM   29  C   UNL     1     -11.885  15.477  71.406  1.00  0.00    -0.401 A  
HETATM   30  O   UNL     1     -12.159  16.375  72.403  1.00  0.00    -0.509 OA 
HETATM   31  C   UNL     1     -11.022  15.724  70.361  1.00  0.00    -0.369 A  
HETATM   32  C   UNL     1     -10.820  14.705  69.420  1.00  0.00    -0.261 A  
HETATM   33  C   UNL     1     -13.186  15.740  73.198  1.00  0.00    -0.591 C  
HETATM   34  C   UNL     1     -13.394  14.293  72.746  1.00  0.00    -0.621 C  
ENDBRANCH  25  26
ENDBRANCH  24  25
ENDBRANCH  21  24
ENDBRANCH   6  19
ENDBRANCH   2   6
TORSDOF 7
ENDMDL
MODEL       91
REMARK 921   NORMALIZED FREE ENERGY PREDICTED BY IDOCK:   -5.36 KCAL/MOL
REMARK 922        TOTAL FREE ENERGY PREDICTED BY IDOCK:   -9.33 KCAL/MOL
REMARK 923 INTER-LIGAND FREE ENERGY PREDICTED BY IDOCK:   -8.91 KCAL/MOL
REMARK 924 INTRA-LIGAND FREE ENERGY PREDICTED BY IDOCK:   -0.42 KCAL/MOL
REMARK 927      BINDING AFFINITY PREDICTED BY RF-SCORE:    0.00 PKD
ROOT
HETATM    1  N   UNL     1      -8.197  15.416  66.657  1.00  0.00    -0.341 N  
HETATM    2  C   UNL     1      -9.514  15.089  66.455  1.00  0.00    -0.297 C  
HETATM    3  H1  UNL     1      -7.615  14.691  67.075  1.00  0.00     0.000 HD 
HETATM    4  H2  UNL     1      -7.822  16.331  66.403  1.00  0.00     0.000 HD 
HETATM    5  O   UNL     1     -10.213  15.961  65.952  1.00  0.00    -0.306 OA 
ENDROOT
BRANCH   2   6
HETATM    6  C   UNL     1      -9.981  13.612  66.806  1.00  0.00    -0.270 C  
BRANCH   6   7
HETATM    7  C   UNL     1     -10.831  13.676  68.152  1.00  0.00    -0.262 A  
HETATM    8  C   UNL     1     -12.211  13.678  70.645  1.00  0.00    -0.434 A  
HETATM    9  C   UNL     1     -12.390  12.635  69.748  1.00  0.00    -0.090 A  
HETATM   10  C   UNL     1     -11.399  14.747  70.292  1.00  0.00    -0.277 A  
HETATM   11  C   UNL     1     -11.728  12.644  68.513  1.00  0.00    -0.372 A  
HETATM   12  C   UNL     1     -10.729  14.748  69.061  1.00  0.00    -0.251 A  
ENDBRANCH   6   7
BRANCH   6  13
HETATM   13  C   UNL     1     -10.851  13.054  65.619  1.00  0.00    -0.293 A  
HETATM   14  C   UNL     1     -10.234  12.550  64.448  1.00  0.00    -0.346 A  
HETATM   15  C   UNL     1     -10.981  12.125  63.344  1.00  0.00    -0.480 A  
HETATM   16  C   UNL     1     -12.368  12.160  63.383  1.00  0.00    -0.648 A  
HETATM   17  C   UNL     1     -12.255  13.031  65.644  1.00  0.00    -0.521 A  
HETATM   18  C   UNL     1     -13.008  12.603  64.542  1.00  0.00    -0.236 A  
ENDBRANCH   6  13
BRANCH   6  19
HETATM   19  C   UNL     1      -8.717  12.649  67.032  1.00  0.00    -0.198 C  
HETATM   20  C   UNL     1      -9.053  10.235  67.295  1.00  0.00    -0.138 C  
HETATM   21  N   UNL     1      -8.585  10.743  68.582  1.00  0.00    -0.144 NA 
HETATM   22  C   UNL     1      -8.349  12.190  68.453  1.00  0.00    -0.143 C  
HETATM   23  C   UNL     1      -8.724  11.311  66.273  1.00  0.00    -0.184 C  
BRANCH  21  24
HETATM   24  C   UNL     1      -9.470  10.422  69.717  1.00  0.00    -0.003 C  
BRANCH  24  25
HETATM   25  C   UNL     1     -10.597   9.424  69.392  1.00  0.00    -0.235 C  
BRANCH  25  26
HETATM   26  C   UNL     1     -10.716   8.337  70.445  1.00  0.00    -0.239 A  
HETATM   27  C   UNL     1     -10.049   8.469  71.670  1.00  0.00    -0.338 A  
HETATM   28  C   UNL     1     -10.199   7.474  72.625  1.00  0.00    -0.297 A  
HETATM   29  C   UNL     1     -11.001   6.376  72.382  1.00  0.00    -0.250 A  
HETATM   30  O   UNL     1     -11.074   5.498  73.431  1.00  0.00    -0.282 OA 
HETATM   31  C   UNL     1     -11.670   6.211  71.190  1.00  0.00    -0.201 A  
HETATM   32  C   UNL     1     -11.519   7.200  70.209  1.00  0.00    -0.287 A  
HETATM   33  C   UNL     1     -10.134   6.007  74.404  1.00  0.00    -0.304 C  
HETATM   34  C   UNL     1      -9.615   7.381  73.976  1.00  0.00    -0.244 C  
ENDBRANCH  25  26
ENDBRANCH  24  25
ENDBRANCH  21  24
ENDBRANCH   6  19
ENDBRANCH   2   6
TORSDOF 7
ENDMDL
MODEL       92
REMARK 921   NORMALIZED FREE ENERGY PREDICTED BY IDOCK:   -5.36 KCAL/MOL
REMARK 922        TOTAL FREE ENERGY PREDICTED BY IDOCK:   -9.33 KCAL/MOL
REMARK 923 INTER-LIGAND FREE ENERGY PREDICTED BY IDOCK:   -9.15 KCAL/MOL
REMARK 924 INTRA-LIGAND FREE ENERGY PREDICTED BY IDOCK:   -0.18 KCAL/MOL
REMARK 927      BINDING AFFINITY PREDICTED BY RF-SCORE:    0.00 PKD
ROOT
HETATM    1  N   UNL     1     -10.894  15.827  66.003  1.00  0.00    -0.294 N  
HETATM    2  C   UNL     1     -11.223  15.051  67.085  1.00  0.00    -0.336 C  
HETATM    3  H1  UNL     1     -10.121  16.477  66.137  1.00  0.00     0.000 HD 
HETATM    4  H2  UNL     1     -11.394  15.756  65.116  1.00  0.00     0.000 HD 
HETATM    5  O   UNL     1     -12.152  14.269  66.924  1.00  0.00    -0.431 OA 
ENDROOT
BRANCH   2   6
HETATM    6  C   UNL     1     -10.331  15.177  68.394  1.00  0.00    -0.229 C  
BRANCH   6   7
HETATM    7  C   UNL     1      -9.691  16.636  68.411  1.00  0.00    -0.243 A  
HETATM    8  C   UNL     1      -8.558  19.240  68.640  1.00  0.00    -0.401 A  
HETATM    9  C   UNL     1      -9.935  19.074  68.640  1.00  0.00    -0.482 A  
HETATM   10  C   UNL     1      -7.740  18.132  68.470  1.00  0.00    -0.307 A  
HETATM   11  C   UNL     1     -10.493  17.796  68.506  1.00  0.00    -0.332 A  
HETATM   12  C   UNL     1      -8.300  16.853  68.347  1.00  0.00    -0.238 A  
ENDBRANCH   6   7
BRANCH   6  13
HETATM   13  C   UNL     1     -11.241  14.950  69.658  1.00  0.00    -0.300 A  
HETATM   14  C   UNL     1     -11.066  15.735  70.823  1.00  0.00    -0.371 A  
HETATM   15  C   UNL     1     -11.803  15.502  71.989  1.00  0.00    -0.538 A  
HETATM   16  C   UNL     1     -12.760  14.497  72.022  1.00  0.00    -0.410 A  
HETATM   17  C   UNL     1     -12.250  13.974  69.709  1.00  0.00    -0.396 A  
HETATM   18  C   UNL     1     -12.993  13.738  70.874  1.00  0.00    -0.287 A  
ENDBRANCH   6  13
BRANCH   6  19
HETATM   19  C   UNL     1      -9.151  14.089  68.392  1.00  0.00    -0.191 C  
HETATM   20  C   UNL     1      -8.743  12.736  66.390  1.00  0.00     0.123 C  
HETATM   21  N   UNL     1      -9.241  11.831  67.422  1.00  0.00    -0.171 NA 
HETATM   22  C   UNL     1      -9.474  12.608  68.649  1.00  0.00     0.005 C  
HETATM   23  C   UNL     1      -8.300  13.997  67.113  1.00  0.00    -0.174 C  
BRANCH  21  24
HETATM   24  C   UNL     1     -10.428  11.053  67.022  1.00  0.00    -0.240 C  
BRANCH  24  25
HETATM   25  C   UNL     1     -10.155   9.564  66.735  1.00  0.00    -0.312 C  
BRANCH  25  26
HETATM   26  C   UNL     1     -10.507   8.682  67.920  1.00  0.00    -0.269 A  
HETATM   27  C   UNL     1     -10.796   9.259  69.164  1.00  0.00    -0.154 A  
HETATM   28  C   UNL     1     -11.142   8.430  70.222  1.00  0.00    -0.216 A  
HETATM   29  C   UNL     1     -11.213   7.061  70.054  1.00  0.00    -0.269 A  
HETATM   30  O   UNL     1     -11.598   6.382  71.179  1.00  0.00    -0.314 OA 
HETATM   31  C   UNL     1     -10.933   6.459  68.847  1.00  0.00    -0.412 A  
HETATM   32  C   UNL     1     -10.569   7.280  67.771  1.00  0.00    -0.289 A  
HETATM   33  C   UNL     1     -11.665   7.390  72.213  1.00  0.00    -0.286 C  
HETATM   34  C   UNL     1     -11.492   8.786  71.610  1.00  0.00    -0.386 C  
ENDBRANCH  25  26
ENDBRANCH  24  25
ENDBRANCH  21  24
ENDBRANCH   6  19
ENDBRANCH   2   6
TORSDOF 7
ENDMDL
MODEL       93
REMARK 921   NORMALIZED FREE ENERGY PREDICTED BY IDOCK:   -5.35 KCAL/MOL
REMARK 922        TOTAL FREE ENERGY PREDICTED BY IDOCK:   -9.32 KCAL/MOL
REMARK 923 INTER-LIGAND FREE ENERGY PREDICTED BY IDOCK:   -7.18 KCAL/MOL
REMARK 924 INTRA-LIGAND FREE ENERGY PREDICTED BY IDOCK:   -2.14 KCAL/MOL
REMARK 927      BINDING AFFINITY PREDICTED BY RF-SCORE:    0.00 PKD
ROOT
HETATM    1  N   UNL     1      -9.747   2.496  68.142  1.00  0.00    -0.215 N  
HETATM    2  C   UNL     1      -8.751   2.601  69.079  1.00  0.00    -0.084 C  
HETATM    3  H1  UNL     1     -10.502   3.177  68.213  1.00  0.00     0.000 HD 
HETATM    4  H2  UNL     1      -9.732   1.779  67.415  1.00  0.00     0.000 HD 
HETATM    5  O   UNL     1      -7.844   1.782  68.993  1.00  0.00    -0.046 OA 
ENDROOT
BRANCH   2   6
HETATM    6  C   UNL     1      -8.824   3.802  70.117  1.00  0.00    -0.138 C  
BRANCH   6   7
HETATM    7  C   UNL     1      -9.472   5.052  69.371  1.00  0.00    -0.206 A  
HETATM    8  C   UNL     1     -10.692   7.160  67.894  1.00  0.00    -0.258 A  
HETATM    9  C   UNL     1      -9.400   6.755  67.595  1.00  0.00    -0.121 A  
HETATM   10  C   UNL     1     -11.363   6.569  68.955  1.00  0.00    -0.296 A  
HETATM   11  C   UNL     1      -8.792   5.732  68.335  1.00  0.00    -0.109 A  
HETATM   12  C   UNL     1     -10.757   5.538  69.687  1.00  0.00    -0.349 A  
ENDBRANCH   6   7
BRANCH   6  13
HETATM   13  C   UNL     1      -9.703   3.365  71.347  1.00  0.00    -0.234 A  
HETATM   14  C   UNL     1     -10.278   4.335  72.204  1.00  0.00    -0.234 A  
HETATM   15  C   UNL     1     -10.994   3.976  73.350  1.00  0.00    -0.342 A  
HETATM   16  C   UNL     1     -11.187   2.638  73.664  1.00  0.00    -0.315 A  
HETATM   17  C   UNL     1      -9.958   2.021  71.666  1.00  0.00    -0.192 A  
HETATM   18  C   UNL     1     -10.677   1.657  72.812  1.00  0.00    -0.235 A  
ENDBRANCH   6  13
BRANCH   6  19
HETATM   19  C   UNL     1      -7.358   4.204  70.632  1.00  0.00    -0.041 C  
HETATM   20  C   UNL     1      -7.077   5.206  72.851  1.00  0.00    -0.087 C  
HETATM   21  N   UNL     1      -6.747   6.239  71.872  1.00  0.00    -0.062 NA 
HETATM   22  C   UNL     1      -6.881   5.663  70.525  1.00  0.00    -0.052 C  
HETATM   23  C   UNL     1      -7.031   3.885  72.102  1.00  0.00    -0.049 C  
BRANCH  21  24
HETATM   24  C   UNL     1      -7.520   7.485  72.024  1.00  0.00    -0.080 C  
BRANCH  24  25
HETATM   25  C   UNL     1      -8.734   7.379  72.965  1.00  0.00    -0.178 C  
BRANCH  25  26
HETATM   26  C   UNL     1      -9.945   8.114  72.419  1.00  0.00    -0.345 A  
HETATM   27  C   UNL     1      -9.797   9.023  71.363  1.00  0.00    -0.381 A  
HETATM   28  C   UNL     1     -10.925   9.660  70.864  1.00  0.00    -0.412 A  
HETATM   29  C   UNL     1     -12.175   9.396  71.389  1.00  0.00    -0.356 A  
HETATM   30  O   UNL     1     -13.191  10.077  70.772  1.00  0.00    -0.348 OA 
HETATM   31  C   UNL     1     -12.359   8.511  72.428  1.00  0.00    -0.424 A  
HETATM   32  C   UNL     1     -11.229   7.869  72.952  1.00  0.00    -0.429 A  
HETATM   33  C   UNL     1     -12.529  10.961  69.839  1.00  0.00    -0.224 C  
HETATM   34  C   UNL     1     -11.035  10.642  69.770  1.00  0.00    -0.340 C  
ENDBRANCH  25  26
ENDBRANCH  24  25
ENDBRANCH  21  24
ENDBRANCH   6  19
ENDBRANCH   2   6
TORSDOF 7
ENDMDL
MODEL       94
REMARK 921   NORMALIZED FREE ENERGY PREDICTED BY IDOCK:   -5.31 KCAL/MOL
REMARK 922        TOTAL FREE ENERGY PREDICTED BY IDOCK:   -9.26 KCAL/MOL
REMARK 923 INTER-LIGAND FREE ENERGY PREDICTED BY IDOCK:   -8.16 KCAL/MOL
REMARK 924 INTRA-LIGAND FREE ENERGY PREDICTED BY IDOCK:   -1.11 KCAL/MOL
REMARK 927      BINDING AFFINITY PREDICTED BY RF-SCORE:    0.00 PKD
ROOT
HETATM    1  N   UNL     1      -7.234  10.389  63.760  1.00  0.00    -0.317 N  
HETATM    2  C   UNL     1      -8.520  10.135  64.162  1.00  0.00    -0.180 C  
HETATM    3  H1  UNL     1      -6.570  10.612  64.501  1.00  0.00     0.000 HD 
HETATM    4  H2  UNL     1      -6.958  10.357  62.778  1.00  0.00     0.000 HD 
HETATM    5  O   UNL     1      -9.319   9.868  63.271  1.00  0.00    -0.277 OA 
ENDROOT
BRANCH   2   6
HETATM    6  C   UNL     1      -8.830  10.128  65.720  1.00  0.00    -0.177 C  
BRANCH   6   7
HETATM    7  C   UNL     1      -9.931  11.245  66.004  1.00  0.00    -0.273 A  
HETATM    8  C   UNL     1     -12.034  13.119  66.427  1.00  0.00    -0.462 A  
HETATM    9  C   UNL     1     -11.368  13.079  65.211  1.00  0.00    -0.325 A  
HETATM   10  C   UNL     1     -11.628  12.278  67.453  1.00  0.00    -0.425 A  
HETATM   11  C   UNL     1     -10.320  12.171  65.009  1.00  0.00    -0.320 A  
HETATM   12  C   UNL     1     -10.587  11.363  67.246  1.00  0.00    -0.264 A  
ENDBRANCH   6   7
BRANCH   6  13
HETATM   13  C   UNL     1      -9.359   8.703  66.131  1.00  0.00    -0.291 A  
HETATM   14  C   UNL     1     -10.544   8.566  66.894  1.00  0.00    -0.279 A  
HETATM   15  C   UNL     1     -10.993   7.320  67.344  1.00  0.00    -0.257 A  
HETATM   16  C   UNL     1     -10.292   6.167  67.022  1.00  0.00    -0.295 A  
HETATM   17  C   UNL     1      -8.700   7.513  65.782  1.00  0.00    -0.142 A  
HETATM   18  C   UNL     1      -9.148   6.262  66.228  1.00  0.00    -0.166 A  
ENDBRANCH   6  13
BRANCH   6  19
HETATM   19  C   UNL     1      -7.511  10.466  66.570  1.00  0.00    -0.119 C  
HETATM   20  C   UNL     1      -7.718  11.312  68.860  1.00  0.00    -0.125 C  
HETATM   21  N   UNL     1      -7.178  12.402  68.051  1.00  0.00    -0.094 NA 
HETATM   22  C   UNL     1      -7.017  11.919  66.670  1.00  0.00     0.087 C  
HETATM   23  C   UNL     1      -7.515  10.043  68.049  1.00  0.00    -0.088 C  
BRANCH  21  24
HETATM   24  C   UNL     1      -7.960  13.650  68.117  1.00  0.00    -0.148 C  
BRANCH  24  25
HETATM   25  C   UNL     1      -7.224  14.899  67.598  1.00  0.00    -0.207 C  
BRANCH  25  26
HETATM   26  C   UNL     1      -8.187  15.992  67.173  1.00  0.00    -0.226 A  
HETATM   27  C   UNL     1      -7.968  17.317  67.575  1.00  0.00    -0.194 A  
HETATM   28  C   UNL     1      -8.849  18.301  67.148  1.00  0.00    -0.260 A  
HETATM   29  C   UNL     1      -9.918  17.987  66.331  1.00  0.00    -0.362 A  
HETATM   30  O   UNL     1     -10.677  19.068  65.969  1.00  0.00    -0.437 OA 
HETATM   31  C   UNL     1     -10.165  16.697  65.917  1.00  0.00    -0.358 A  
HETATM   32  C   UNL     1      -9.294  15.689  66.350  1.00  0.00    -0.332 A  
HETATM   33  C   UNL     1     -10.125  20.174  66.719  1.00  0.00    -0.457 C  
HETATM   34  C   UNL     1      -8.835  19.749  67.425  1.00  0.00    -0.393 C  
ENDBRANCH  25  26
ENDBRANCH  24  25
ENDBRANCH  21  24
ENDBRANCH   6  19
ENDBRANCH   2   6
TORSDOF 7
ENDMDL
MODEL       95
REMARK 921   NORMALIZED FREE ENERGY PREDICTED BY IDOCK:   -5.31 KCAL/MOL
REMARK 922        TOTAL FREE ENERGY PREDICTED BY IDOCK:   -9.26 KCAL/MOL
REMARK 923 INTER-LIGAND FREE ENERGY PREDICTED BY IDOCK:   -8.97 KCAL/MOL
REMARK 924 INTRA-LIGAND FREE ENERGY PREDICTED BY IDOCK:   -0.29 KCAL/MOL
REMARK 927      BINDING AFFINITY PREDICTED BY RF-SCORE:    0.00 PKD
ROOT
HETATM    1  N   UNL     1      -8.749  13.955  66.500  1.00  0.00    -0.452 N  
HETATM    2  C   UNL     1      -9.078  12.944  67.367  1.00  0.00    -0.197 C  
HETATM    3  H1  UNL     1      -9.430  14.155  65.768  1.00  0.00     0.000 HD 
HETATM    4  H2  UNL     1      -7.875  14.475  66.582  1.00  0.00     0.000 HD 
HETATM    5  O   UNL     1      -8.260  12.703  68.247  1.00  0.00    -0.159 OA 
ENDROOT
BRANCH   2   6
HETATM    6  C   UNL     1     -10.499  12.251  67.205  1.00  0.00    -0.236 C  
BRANCH   6   7
HETATM    7  C   UNL     1     -10.795  12.103  65.647  1.00  0.00    -0.323 A  
HETATM    8  C   UNL     1     -11.349  11.642  62.891  1.00  0.00     0.277 A  
HETATM    9  C   UNL     1     -10.063  11.472  63.383  1.00  0.00    -0.454 A  
HETATM   10  C   UNL     1     -12.348  12.094  63.740  1.00  0.00    -0.635 A  
HETATM   11  C   UNL     1      -9.786  11.718  64.734  1.00  0.00    -0.184 A  
HETATM   12  C   UNL     1     -12.071  12.330  65.094  1.00  0.00    -0.379 A  
ENDBRANCH   6   7
BRANCH   6  13
HETATM   13  C   UNL     1     -10.464  10.842  67.906  1.00  0.00    -0.227 A  
HETATM   14  C   UNL     1     -10.208   9.670  67.154  1.00  0.00    -0.305 A  
HETATM   15  C   UNL     1     -10.253   8.397  67.732  1.00  0.00    -0.283 A  
HETATM   16  C   UNL     1     -10.525   8.253  69.085  1.00  0.00    -0.217 A  
HETATM   17  C   UNL     1     -10.688  10.666  69.280  1.00  0.00    -0.275 A  
HETATM   18  C   UNL     1     -10.731   9.392  69.865  1.00  0.00    -0.258 A  
ENDBRANCH   6  13
BRANCH   6  19
HETATM   19  C   UNL     1     -11.653  13.145  67.874  1.00  0.00    -0.375 C  
HETATM   20  C   UNL     1     -11.707  15.563  67.479  1.00  0.00     0.002 C  
HETATM   21  N   UNL     1     -11.382  15.368  68.890  1.00  0.00    -0.293 NA 
HETATM   22  C   UNL     1     -11.366  13.923  69.168  1.00  0.00    -0.286 C  
HETATM   23  C   UNL     1     -12.276  14.240  66.991  1.00  0.00    -0.338 C  
BRANCH  21  24
HETATM   24  C   UNL     1     -10.138  16.033  69.321  1.00  0.00    -0.249 C  
BRANCH  24  25
HETATM   25  C   UNL     1     -10.238  17.564  69.447  1.00  0.00    -0.089 C  
BRANCH  25  26
HETATM   26  C   UNL     1      -9.462  18.277  68.354  1.00  0.00    -0.336 A  
HETATM   27  C   UNL     1      -8.363  17.652  67.750  1.00  0.00    -0.226 A  
HETATM   28  C   UNL     1      -7.689  18.315  66.734  1.00  0.00    -0.247 A  
HETATM   29  C   UNL     1      -8.099  19.565  66.313  1.00  0.00    -0.334 A  
HETATM   30  O   UNL     1      -7.356  20.076  65.283  1.00  0.00    -0.329 OA 
HETATM   31  C   UNL     1      -9.173  20.211  66.884  1.00  0.00    -0.499 A  
HETATM   32  C   UNL     1      -9.856  19.562  67.921  1.00  0.00    -0.485 A  
HETATM   33  C   UNL     1      -6.283  19.124  65.095  1.00  0.00    -0.282 C  
HETATM   34  C   UNL     1      -6.522  17.877  65.948  1.00  0.00    -0.294 C  
ENDBRANCH  25  26
ENDBRANCH  24  25
ENDBRANCH  21  24
ENDBRANCH   6  19
ENDBRANCH   2   6
TORSDOF 7
ENDMDL
MODEL       96
REMARK 921   NORMALIZED FREE ENERGY PREDICTED BY IDOCK:   -5.30 KCAL/MOL
REMARK 922        TOTAL FREE ENERGY PREDICTED BY IDOCK:   -9.25 KCAL/MOL
REMARK 923 INTER-LIGAND FREE ENERGY PREDICTED BY IDOCK:   -8.46 KCAL/MOL
REMARK 924 INTRA-LIGAND FREE ENERGY PREDICTED BY IDOCK:   -0.79 KCAL/MOL
REMARK 927      BINDING AFFINITY PREDICTED BY RF-SCORE:    0.00 PKD
ROOT
HETATM    1  N   UNL     1      -7.102   8.898  69.249  1.00  0.00    -0.057 N  
HETATM    2  C   UNL     1      -7.807  10.074  69.206  1.00  0.00    -0.125 C  
HETATM    3  H1  UNL     1      -7.547   8.093  68.808  1.00  0.00     0.000 HD 
HETATM    4  H2  UNL     1      -6.187   8.832  69.696  1.00  0.00     0.000 HD 
HETATM    5  O   UNL     1      -7.272  11.040  69.736  1.00  0.00    -0.113 OA 
ENDROOT
BRANCH   2   6
HETATM    6  C   UNL     1      -9.185  10.092  68.415  1.00  0.00    -0.131 C  
BRANCH   6   7
HETATM    7  C   UNL     1      -8.853  10.108  66.856  1.00  0.00    -0.142 A  
HETATM    8  C   UNL     1      -8.191   9.947  64.090  1.00  0.00    -0.159 A  
HETATM    9  C   UNL     1      -7.225  10.300  65.020  1.00  0.00    -0.111 A  
HETATM   10  C   UNL     1      -9.495   9.730  64.513  1.00  0.00    -0.269 A  
HETATM   11  C   UNL     1      -7.554  10.399  66.378  1.00  0.00    -0.123 A  
HETATM   12  C   UNL     1      -9.820   9.819  65.873  1.00  0.00    -0.352 A  
ENDBRANCH   6   7
BRANCH   6  13
HETATM   13  C   UNL     1     -10.013   8.809  68.798  1.00  0.00    -0.197 A  
HETATM   14  C   UNL     1     -10.450   8.605  70.130  1.00  0.00    -0.228 A  
HETATM   15  C   UNL     1     -11.115   7.437  70.518  1.00  0.00    -0.280 A  
HETATM   16  C   UNL     1     -11.392   6.448  69.586  1.00  0.00    -0.479 A  
HETATM   17  C   UNL     1     -10.352   7.812  67.870  1.00  0.00    -0.276 A  
HETATM   18  C   UNL     1     -11.020   6.640  68.254  1.00  0.00    -0.321 A  
ENDBRANCH   6  13
BRANCH   6  19
HETATM   19  C   UNL     1     -10.039  11.401  68.780  1.00  0.00    -0.199 C  
HETATM   20  C   UNL     1     -11.733  12.229  67.214  1.00  0.00    -0.324 C  
HETATM   21  N   UNL     1     -10.661  13.221  67.247  1.00  0.00    -0.254 NA 
HETATM   22  C   UNL     1      -9.635  12.766  68.199  1.00  0.00    -0.223 C  
HETATM   23  C   UNL     1     -11.541  11.360  68.447  1.00  0.00    -0.385 C  
BRANCH  21  24
HETATM   24  C   UNL     1     -10.092  13.539  65.924  1.00  0.00    -0.303 C  
BRANCH  24  25
HETATM   25  C   UNL     1     -10.670  14.803  65.262  1.00  0.00    -0.406 C  
BRANCH  25  26
HETATM   26  C   UNL     1     -10.000  16.068  65.768  1.00  0.00    -0.382 A  
HETATM   27  C   UNL     1     -10.766  17.211  66.035  1.00  0.00    -0.113 A  
HETATM   28  C   UNL     1     -10.131  18.344  66.523  1.00  0.00    -0.406 A  
HETATM   29  C   UNL     1      -8.770  18.347  66.755  1.00  0.00    -0.277 A  
HETATM   30  O   UNL     1      -8.295  19.525  67.266  1.00  0.00    -0.279 OA 
HETATM   31  C   UNL     1      -7.984  17.244  66.503  1.00  0.00    -0.318 A  
HETATM   32  C   UNL     1      -8.607  16.095  65.997  1.00  0.00    -0.231 A  
HETATM   33  C   UNL     1      -9.433  20.418  67.251  1.00  0.00    -0.431 C  
HETATM   34  C   UNL     1     -10.706  19.654  66.882  1.00  0.00    -0.570 C  
ENDBRANCH  25  26
ENDBRANCH  24  25
ENDBRANCH  21  24
ENDBRANCH   6  19
ENDBRANCH   2   6
TORSDOF 7
ENDMDL
MODEL       97
REMARK 921   NORMALIZED FREE ENERGY PREDICTED BY IDOCK:   -5.28 KCAL/MOL
REMARK 922        TOTAL FREE ENERGY PREDICTED BY IDOCK:   -9.23 KCAL/MOL
REMARK 923 INTER-LIGAND FREE ENERGY PREDICTED BY IDOCK:   -8.59 KCAL/MOL
REMARK 924 INTRA-LIGAND FREE ENERGY PREDICTED BY IDOCK:   -0.64 KCAL/MOL
REMARK 927      BINDING AFFINITY PREDICTED BY RF-SCORE:    0.00 PKD
ROOT
HETATM    1  N   UNL     1      -9.494  15.669  65.803  1.00  0.00    -0.330 N  
HETATM    2  C   UNL     1      -9.955  15.047  66.935  1.00  0.00    -0.244 C  
HETATM    3  H1  UNL     1      -9.025  16.563  65.943  1.00  0.00     0.000 HD 
HETATM    4  H2  UNL     1      -9.614  15.262  64.875  1.00  0.00     0.000 HD 
HETATM    5  O   UNL     1     -10.519  13.972  66.765  1.00  0.00    -0.274 OA 
ENDROOT
BRANCH   2   6
HETATM    6  C   UNL     1      -9.645  15.723  68.339  1.00  0.00    -0.200 C  
BRANCH   6   7
HETATM    7  C   UNL     1      -9.629  17.302  68.128  1.00  0.00    -0.283 A  
HETATM    8  C   UNL     1      -9.492  20.094  67.583  1.00  0.00    -0.514 A  
HETATM    9  C   UNL     1      -8.463  19.465  68.268  1.00  0.00    -0.376 A  
HETATM   10  C   UNL     1     -10.613  19.363  67.218  1.00  0.00    -0.599 A  
HETATM   11  C   UNL     1      -8.539  18.096  68.554  1.00  0.00    -0.307 A  
HETATM   12  C   UNL     1     -10.682  17.991  67.495  1.00  0.00    -0.352 A  
ENDBRANCH   6   7
BRANCH   6  13
HETATM   13  C   UNL     1     -10.763  15.305  69.366  1.00  0.00    -0.266 A  
HETATM   14  C   UNL     1     -11.416  14.054  69.251  1.00  0.00    -0.344 A  
HETATM   15  C   UNL     1     -12.470  13.691  70.096  1.00  0.00    -0.305 A  
HETATM   16  C   UNL     1     -12.887  14.550  71.102  1.00  0.00    -0.408 A  
HETATM   17  C   UNL     1     -11.177  16.131  70.423  1.00  0.00    -0.394 A  
HETATM   18  C   UNL     1     -12.230  15.770  71.275  1.00  0.00    -0.491 A  
ENDBRANCH   6  13
BRANCH   6  19
HETATM   19  C   UNL     1      -8.215  15.255  68.898  1.00  0.00    -0.186 C  
HETATM   20  C   UNL     1      -6.547  14.329  67.360  1.00  0.00     0.082 C  
HETATM   21  N   UNL     1      -6.970  13.240  68.237  1.00  0.00    -0.094 NA 
HETATM   22  C   UNL     1      -7.956  13.768  69.193  1.00  0.00     0.247 C  
HETATM   23  C   UNL     1      -6.988  15.614  68.041  1.00  0.00    -0.141 C  
BRANCH  21  24
HETATM   24  C   UNL     1      -7.467  12.048  67.525  1.00  0.00    -0.140 C  
BRANCH  24  25
HETATM   25  C   UNL     1      -7.368  10.735  68.322  1.00  0.00    -0.086 C  
BRANCH  25  26
HETATM   26  C   UNL     1      -8.690  10.359  68.968  1.00  0.00    -0.170 A  
HETATM   27  C   UNL     1      -8.706   9.714  70.212  1.00  0.00    -0.248 A  
HETATM   28  C   UNL     1      -9.929   9.409  70.792  1.00  0.00    -0.358 A  
HETATM   29  C   UNL     1     -11.113   9.742  70.164  1.00  0.00    -0.285 A  
HETATM   30  O   UNL     1     -12.234   9.404  70.874  1.00  0.00    -0.286 OA 
HETATM   31  C   UNL     1     -11.136  10.374  68.940  1.00  0.00    -0.296 A  
HETATM   32  C   UNL     1      -9.910  10.678  68.334  1.00  0.00    -0.170 A  
HETATM   33  C   UNL     1     -11.738   8.670  72.017  1.00  0.00    -0.369 C  
HETATM   34  C   UNL     1     -10.211   8.746  72.078  1.00  0.00    -0.401 C  
ENDBRANCH  25  26
ENDBRANCH  24  25
ENDBRANCH  21  24
ENDBRANCH   6  19
ENDBRANCH   2   6
TORSDOF 7
ENDMDL
MODEL       98
REMARK 921   NORMALIZED FREE ENERGY PREDICTED BY IDOCK:   -5.28 KCAL/MOL
REMARK 922        TOTAL FREE ENERGY PREDICTED BY IDOCK:   -9.22 KCAL/MOL
REMARK 923 INTER-LIGAND FREE ENERGY PREDICTED BY IDOCK:   -7.35 KCAL/MOL
REMARK 924 INTRA-LIGAND FREE ENERGY PREDICTED BY IDOCK:   -1.88 KCAL/MOL
REMARK 927      BINDING AFFINITY PREDICTED BY RF-SCORE:    0.00 PKD
ROOT
HETATM    1  N   UNL     1     -11.426   7.025  67.079  1.00  0.00    -0.528 N  
HETATM    2  C   UNL     1     -10.144   7.508  67.119  1.00  0.00    -0.247 C  
HETATM    3  H1  UNL     1     -11.988   7.176  67.917  1.00  0.00     0.000 HD 
HETATM    4  H2  UNL     1     -11.798   6.543  66.260  1.00  0.00     0.000 HD 
HETATM    5  O   UNL     1      -9.469   7.326  66.112  1.00  0.00    -0.118 OA 
ENDROOT
BRANCH   2   6
HETATM    6  C   UNL     1      -9.688   8.317  68.408  1.00  0.00    -0.170 C  
BRANCH   6   7
HETATM    7  C   UNL     1     -10.331   9.772  68.324  1.00  0.00    -0.231 A  
HETATM    8  C   UNL     1     -11.662  12.286  68.171  1.00  0.00    -0.408 A  
HETATM    9  C   UNL     1     -11.390  11.569  67.016  1.00  0.00    -0.340 A  
HETATM   10  C   UNL     1     -11.229  11.795  69.395  1.00  0.00    -0.300 A  
HETATM   11  C   UNL     1     -10.717  10.342  67.089  1.00  0.00    -0.303 A  
HETATM   12  C   UNL     1     -10.566  10.563  69.467  1.00  0.00    -0.278 A  
ENDBRANCH   6   7
BRANCH   6  13
HETATM   13  C   UNL     1     -10.187   7.556  69.693  1.00  0.00    -0.205 A  
HETATM   14  C   UNL     1      -9.638   6.299  70.045  1.00  0.00    -0.176 A  
HETATM   15  C   UNL     1     -10.120   5.562  71.132  1.00  0.00    -0.267 A  
HETATM   16  C   UNL     1     -11.143   6.067  71.921  1.00  0.00    -0.331 A  
HETATM   17  C   UNL     1     -11.187   8.060  70.540  1.00  0.00    -0.252 A  
HETATM   18  C   UNL     1     -11.671   7.326  71.632  1.00  0.00    -0.316 A  
ENDBRANCH   6  13
BRANCH   6  19
HETATM   19  C   UNL     1      -8.090   8.455  68.464  1.00  0.00    -0.123 C  
HETATM   20  C   UNL     1      -7.043   9.817  70.212  1.00  0.00    -0.143 C  
HETATM   21  N   UNL     1      -6.810  10.500  68.942  1.00  0.00    -0.059 NA 
HETATM   22  C   UNL     1      -7.406   9.695  67.864  1.00  0.00    -0.082 C  
HETATM   23  C   UNL     1      -7.440   8.393  69.858  1.00  0.00    -0.064 C  
BRANCH  21  24
HETATM   24  C   UNL     1      -7.276  11.899  68.915  1.00  0.00    -0.098 C  
BRANCH  24  25
HETATM   25  C   UNL     1      -7.927  12.334  67.589  1.00  0.00    -0.161 C  
BRANCH  25  26
HETATM   26  C   UNL     1      -8.514  13.732  67.674  1.00  0.00    -0.183 A  
HETATM   27  C   UNL     1      -9.052  14.339  66.531  1.00  0.00    -0.212 A  
HETATM   28  C   UNL     1      -9.608  15.605  66.644  1.00  0.00    -0.267 A  
HETATM   29  C   UNL     1      -9.644  16.256  67.863  1.00  0.00    -0.227 A  
HETATM   30  O   UNL     1     -10.251  17.482  67.821  1.00  0.00    -0.317 OA 
HETATM   31  C   UNL     1      -9.123  15.691  69.006  1.00  0.00    -0.241 A  
HETATM   32  C   UNL     1      -8.545  14.418  68.907  1.00  0.00    -0.064 A  
HETATM   33  C   UNL     1     -10.528  17.708  66.419  1.00  0.00    -0.286 C  
HETATM   34  C   UNL     1     -10.234  16.445  65.607  1.00  0.00    -0.349 C  
ENDBRANCH  25  26
ENDBRANCH  24  25
ENDBRANCH  21  24
ENDBRANCH   6  19
ENDBRANCH   2   6
TORSDOF 7
ENDMDL
MODEL       99
REMARK 921   NORMALIZED FREE ENERGY PREDICTED BY IDOCK:   -5.28 KCAL/MOL
REMARK 922        TOTAL FREE ENERGY PREDICTED BY IDOCK:   -9.21 KCAL/MOL
REMARK 923 INTER-LIGAND FREE ENERGY PREDICTED BY IDOCK:   -8.56 KCAL/MOL
REMARK 924 INTRA-LIGAND FREE ENERGY PREDICTED BY IDOCK:   -0.65 KCAL/MOL
REMARK 927      BINDING AFFINITY PREDICTED BY RF-SCORE:    0.00 PKD
ROOT
HETATM    1  N   UNL     1     -11.527   6.394  67.913  1.00  0.00    -0.604 N  
HETATM    2  C   UNL     1     -11.300   6.419  69.265  1.00  0.00    -0.338 C  
HETATM    3  H1  UNL     1     -10.714   6.205  67.327  1.00  0.00     0.000 HD 
HETATM    4  H2  UNL     1     -12.453   6.554  67.516  1.00  0.00     0.000 HD 
HETATM    5  O   UNL     1     -12.277   6.647  69.970  1.00  0.00    -0.193 OA 
ENDROOT
BRANCH   2   6
HETATM    6  C   UNL     1      -9.839   6.075  69.786  1.00  0.00    -0.208 C  
BRANCH   6   7
HETATM    7  C   UNL     1      -9.986   5.215  71.119  1.00  0.00    -0.272 A  
HETATM    8  C   UNL     1     -10.119   3.803  73.590  1.00  0.00    -0.189 A  
HETATM    9  C   UNL     1      -9.117   3.517  72.675  1.00  0.00    -0.128 A  
HETATM   10  C   UNL     1     -11.089   4.740  73.265  1.00  0.00    -0.411 A  
HETATM   11  C   UNL     1      -9.063   4.197  71.451  1.00  0.00    -0.182 A  
HETATM   12  C   UNL     1     -11.027   5.427  72.046  1.00  0.00    -0.244 A  
ENDBRANCH   6   7
BRANCH   6  13
HETATM   13  C   UNL     1      -9.077   5.261  68.675  1.00  0.00    -0.129 A  
HETATM   14  C   UNL     1      -7.876   5.759  68.113  1.00  0.00    -0.104 A  
HETATM   15  C   UNL     1      -7.222   5.099  67.066  1.00  0.00    -0.081 A  
HETATM   16  C   UNL     1      -7.728   3.907  66.567  1.00  0.00    -0.089 A  
HETATM   17  C   UNL     1      -9.535   4.030  68.180  1.00  0.00    -0.215 A  
HETATM   18  C   UNL     1      -8.882   3.364  67.133  1.00  0.00    -0.150 A  
ENDBRANCH   6  13
BRANCH   6  19
HETATM   19  C   UNL     1      -9.017   7.414  70.117  1.00  0.00    -0.148 C  
HETATM   20  C   UNL     1      -9.969   9.087  71.634  1.00  0.00    -0.313 C  
HETATM   21  N   UNL     1      -9.934   9.688  70.303  1.00  0.00    -0.257 NA 
HETATM   22  C   UNL     1      -9.344   8.717  69.368  1.00  0.00    -0.157 C  
HETATM   23  C   UNL     1      -9.033   7.890  71.579  1.00  0.00    -0.167 C  
BRANCH  21  24
HETATM   24  C   UNL     1     -11.238  10.191  69.833  1.00  0.00    -0.287 C  
BRANCH  24  25
HETATM   25  C   UNL     1     -11.335  11.725  69.726  1.00  0.00    -0.245 C  
BRANCH  25  26
HETATM   26  C   UNL     1     -11.434  12.190  68.284  1.00  0.00    -0.360 A  
HETATM   27  C   UNL     1     -10.977  11.366  67.247  1.00  0.00    -0.336 A  
HETATM   28  C   UNL     1     -11.105  11.804  65.937  1.00  0.00    -0.355 A  
HETATM   29  C   UNL     1     -11.684  13.026  65.653  1.00  0.00    -0.375 A  
HETATM   30  O   UNL     1     -11.769  13.305  64.315  1.00  0.00    -0.369 OA 
HETATM   31  C   UNL     1     -12.143  13.864  66.646  1.00  0.00    -0.485 A  
HETATM   32  C   UNL     1     -12.009  13.442  67.976  1.00  0.00    -0.357 A  
HETATM   33  C   UNL     1     -11.068  12.218  63.668  1.00  0.00    -0.469 C  
HETATM   34  C   UNL     1     -10.712  11.132  64.685  1.00  0.00    -0.350 C  
ENDBRANCH  25  26
ENDBRANCH  24  25
ENDBRANCH  21  24
ENDBRANCH   6  19
ENDBRANCH   2   6
TORSDOF 7
ENDMDL
MODEL      100
REMARK 921   NORMALIZED FREE ENERGY PREDICTED BY IDOCK:   -5.24 KCAL/MOL
REMARK 922        TOTAL FREE ENERGY PREDICTED BY IDOCK:   -9.17 KCAL/MOL
REMARK 923 INTER-LIGAND FREE ENERGY PREDICTED BY IDOCK:   -8.15 KCAL/MOL
REMARK 924 INTRA-LIGAND FREE ENERGY PREDICTED BY IDOCK:   -1.02 KCAL/MOL
REMARK 927      BINDING AFFINITY PREDICTED BY RF-SCORE:    0.00 PKD
ROOT
HETATM    1  N   UNL     1     -12.087   7.511  72.538  1.00  0.00    -0.535 N  
HETATM    2  C   UNL     1     -11.712   7.255  71.244  1.00  0.00    -0.296 C  
HETATM    3  H1  UNL     1     -11.386   7.958  73.128  1.00  0.00     0.000 HD 
HETATM    4  H2  UNL     1     -13.014   7.268  72.891  1.00  0.00     0.000 HD 
HETATM    5  O   UNL     1     -12.555   6.717  70.536  1.00  0.00    -0.211 OA 
ENDROOT
BRANCH   2   6
HETATM    6  C   UNL     1     -10.277   7.747  70.770  1.00  0.00    -0.200 C  
BRANCH   6   7
HETATM    7  C   UNL     1      -9.196   7.127  71.763  1.00  0.00    -0.147 A  
HETATM    8  C   UNL     1      -7.386   6.066  73.690  1.00  0.00    -0.089 A  
HETATM    9  C   UNL     1      -7.370   7.420  73.387  1.00  0.00    -0.094 A  
HETATM   10  C   UNL     1      -8.252   5.226  73.003  1.00  0.00    -0.112 A  
HETATM   11  C   UNL     1      -8.246   7.939  72.424  1.00  0.00    -0.174 A  
HETATM   12  C   UNL     1      -9.135   5.749  72.049  1.00  0.00    -0.143 A  
ENDBRANCH   6   7
BRANCH   6  13
HETATM   13  C   UNL     1     -10.030   7.258  69.294  1.00  0.00    -0.170 A  
HETATM   14  C   UNL     1      -8.733   6.880  68.868  1.00  0.00    -0.130 A  
HETATM   15  C   UNL     1      -8.467   6.521  67.543  1.00  0.00    -0.120 A  
HETATM   16  C   UNL     1      -9.490   6.497  66.606  1.00  0.00    -0.193 A  
HETATM   17  C   UNL     1     -11.051   7.176  68.334  1.00  0.00     0.003 A  
HETATM   18  C   UNL     1     -10.790   6.814  67.005  1.00  0.00    -0.453 A  
ENDBRANCH   6  13
BRANCH   6  19
HETATM   19  C   UNL     1     -10.174   9.348  70.819  1.00  0.00    -0.368 C  
HETATM   20  C   UNL     1     -11.463  10.703  69.235  1.00  0.00    -0.281 C  
HETATM   21  N   UNL     1     -10.053  10.869  68.890  1.00  0.00    -0.194 NA 
HETATM   22  C   UNL     1      -9.246  10.087  69.839  1.00  0.00    -0.158 C  
HETATM   23  C   UNL     1     -11.487  10.130  70.643  1.00  0.00    -0.432 C  
BRANCH  21  24
HETATM   24  C   UNL     1      -9.732  10.546  67.487  1.00  0.00    -0.166 C  
BRANCH  24  25
HETATM   25  C   UNL     1     -10.904  10.717  66.503  1.00  0.00    -0.196 C  
BRANCH  25  26
HETATM   26  C   UNL     1     -11.017  12.143  65.994  1.00  0.00    -0.332 A  
HETATM   27  C   UNL     1     -10.144  13.131  66.470  1.00  0.00    -0.280 A  
HETATM   28  C   UNL     1     -10.251  14.419  65.966  1.00  0.00    -0.328 A  
HETATM   29  C   UNL     1     -11.192  14.726  65.003  1.00  0.00    -0.395 A  
HETATM   30  O   UNL     1     -11.155  16.028  64.583  1.00  0.00    -0.548 OA 
HETATM   31  C   UNL     1     -12.068  13.782  64.513  1.00  0.00    -0.463 A  
HETATM   32  C   UNL     1     -11.983  12.479  65.021  1.00  0.00    -0.478 A  
HETATM   33  C   UNL     1     -10.179  16.664  65.441  1.00  0.00    -0.111 C  
HETATM   34  C   UNL     1      -9.460  15.619  66.296  1.00  0.00    -0.351 C  
ENDBRANCH  25  26
ENDBRANCH  24  25
ENDBRANCH  21  24
ENDBRANCH   6  19
ENDBRANCH   2   6
TORSDOF 7
ENDMDL
MODEL      101
REMARK 921   NORMALIZED FREE ENERGY PREDICTED BY IDOCK:   -5.21 KCAL/MOL
REMARK 922        TOTAL FREE ENERGY PREDICTED BY IDOCK:   -9.13 KCAL/MOL
REMARK 923 INTER-LIGAND FREE ENERGY PREDICTED BY IDOCK:   -8.66 KCAL/MOL
REMARK 924 INTRA-LIGAND FREE ENERGY PREDICTED BY IDOCK:   -0.47 KCAL/MOL
REMARK 927      BINDING AFFINITY PREDICTED BY RF-SCORE:    0.00 PKD
ROOT
HETATM    1  N   UNL     1     -10.615  12.316  69.222  1.00  0.00    -0.440 N  
HETATM    2  C   UNL     1     -11.072  11.480  68.235  1.00  0.00    -0.239 C  
HETATM    3  H1  UNL     1      -9.669  12.677  69.100  1.00  0.00     0.000 HD 
HETATM    4  H2  UNL     1     -11.187  12.562  70.030  1.00  0.00     0.000 HD 
HETATM    5  O   UNL     1     -12.208  11.046  68.382  1.00  0.00    -0.586 OA 
ENDROOT
BRANCH   2   6
HETATM    6  C   UNL     1     -10.135  11.225  66.977  1.00  0.00    -0.238 C  
BRANCH   6   7
HETATM    7  C   UNL     1     -10.030   9.650  66.758  1.00  0.00    -0.289 A  
HETATM    8  C   UNL     1      -9.701   6.831  66.511  1.00  0.00    -0.183 A  
HETATM    9  C   UNL     1      -8.867   7.696  65.817  1.00  0.00    -0.134 A  
HETATM   10  C   UNL     1     -10.732   7.352  67.280  1.00  0.00    -0.379 A  
HETATM   11  C   UNL     1      -9.042   9.082  65.922  1.00  0.00    -0.264 A  
HETATM   12  C   UNL     1     -10.898   8.739  67.393  1.00  0.00    -0.087 A  
ENDBRANCH   6   7
BRANCH   6  13
HETATM   13  C   UNL     1     -10.769  11.925  65.717  1.00  0.00    -0.327 A  
HETATM   14  C   UNL     1     -11.149  13.288  65.765  1.00  0.00    -0.296 A  
HETATM   15  C   UNL     1     -11.789  13.914  64.691  1.00  0.00    -0.428 A  
HETATM   16  C   UNL     1     -12.045  13.210  63.522  1.00  0.00    -0.585 A  
HETATM   17  C   UNL     1     -10.998  11.255  64.504  1.00  0.00    -0.301 A  
HETATM   18  C   UNL     1     -11.637  11.879  63.424  1.00  0.00    -0.477 A  
ENDBRANCH   6  13
BRANCH   6  19
HETATM   19  C   UNL     1      -8.665  11.817  67.226  1.00  0.00    -0.163 C  
HETATM   20  C   UNL     1      -6.788  10.294  67.631  1.00  0.00    -0.075 C  
HETATM   21  N   UNL     1      -7.024  11.020  68.876  1.00  0.00    -0.080 NA 
HETATM   22  C   UNL     1      -8.131  11.965  68.661  1.00  0.00    -0.086 C  
HETATM   23  C   UNL     1      -7.499  11.081  66.543  1.00  0.00    -0.145 C  
BRANCH  21  24
HETATM   24  C   UNL     1      -7.250  10.154  70.048  1.00  0.00    -0.161 C  
BRANCH  24  25
HETATM   25  C   UNL     1      -7.589   8.690  69.710  1.00  0.00    -0.079 C  
BRANCH  25  26
HETATM   26  C   UNL     1      -8.909   8.256  70.321  1.00  0.00    -0.141 A  
HETATM   27  C   UNL     1      -9.843   9.216  70.732  1.00  0.00    -0.334 A  
HETATM   28  C   UNL     1     -11.053   8.790  71.261  1.00  0.00    -0.348 A  
HETATM   29  C   UNL     1     -11.341   7.443  71.373  1.00  0.00    -0.256 A  
HETATM   30  O   UNL     1     -12.585   7.181  71.883  1.00  0.00    -0.323 OA 
HETATM   31  C   UNL     1     -10.447   6.471  70.982  1.00  0.00    -0.260 A  
HETATM   32  C   UNL     1      -9.215   6.884  70.457  1.00  0.00    -0.156 A  
HETATM   33  C   UNL     1     -13.111   8.476  72.256  1.00  0.00    -0.334 C  
HETATM   34  C   UNL     1     -12.189   9.590  71.756  1.00  0.00    -0.465 C  
ENDBRANCH  25  26
ENDBRANCH  24  25
ENDBRANCH  21  24
ENDBRANCH   6  19
ENDBRANCH   2   6
TORSDOF 7
ENDMDL
MODEL      102
REMARK 921   NORMALIZED FREE ENERGY PREDICTED BY IDOCK:   -5.21 KCAL/MOL
REMARK 922        TOTAL FREE ENERGY PREDICTED BY IDOCK:   -9.12 KCAL/MOL
REMARK 923 INTER-LIGAND FREE ENERGY PREDICTED BY IDOCK:   -8.70 KCAL/MOL
REMARK 924 INTRA-LIGAND FREE ENERGY PREDICTED BY IDOCK:   -0.42 KCAL/MOL
REMARK 927      BINDING AFFINITY PREDICTED BY RF-SCORE:    0.00 PKD
ROOT
HETATM    1  N   UNL     1     -10.759  18.889  66.041  1.00  0.00    -0.381 N  
HETATM    2  C   UNL     1     -10.477  17.570  65.794  1.00  0.00    -0.207 C  
HETATM    3  H1  UNL     1     -10.413  19.263  66.924  1.00  0.00     0.000 HD 
HETATM    4  H2  UNL     1     -11.283  19.463  65.379  1.00  0.00     0.000 HD 
HETATM    5  O   UNL     1     -10.892  17.121  64.733  1.00  0.00    -0.834 OA 
ENDROOT
BRANCH   2   6
HETATM    6  C   UNL     1      -9.583  16.786  66.849  1.00  0.00    -0.253 C  
BRANCH   6   7
HETATM    7  C   UNL     1      -8.441  17.777  67.353  1.00  0.00    -0.230 A  
HETATM    8  C   UNL     1      -6.484  19.691  68.140  1.00  0.00    -0.280 A  
HETATM    9  C   UNL     1      -6.316  18.958  66.974  1.00  0.00    -0.193 A  
HETATM   10  C   UNL     1      -7.584  19.441  68.948  1.00  0.00    -0.398 A  
HETATM   11  C   UNL     1      -7.268  18.002  66.598  1.00  0.00    -0.248 A  
HETATM   12  C   UNL     1      -8.541  18.492  68.564  1.00  0.00    -0.349 A  
ENDBRANCH   6   7
BRANCH   6  13
HETATM   13  C   UNL     1     -10.493  16.322  68.047  1.00  0.00    -0.293 A  
HETATM   14  C   UNL     1     -10.066  16.499  69.386  1.00  0.00    -0.230 A  
HETATM   15  C   UNL     1     -10.815  16.023  70.468  1.00  0.00    -0.235 A  
HETATM   16  C   UNL     1     -12.026  15.382  70.252  1.00  0.00    -0.386 A  
HETATM   17  C   UNL     1     -11.745  15.713  67.865  1.00  0.00    -0.097 A  
HETATM   18  C   UNL     1     -12.499  15.237  68.947  1.00  0.00     0.146 A  
ENDBRANCH   6  13
BRANCH   6  19
HETATM   19  C   UNL     1      -8.898  15.499  66.177  1.00  0.00    -0.273 C  
HETATM   20  C   UNL     1     -10.096  13.362  66.136  1.00  0.00    -0.302 C  
HETATM   21  N   UNL     1      -8.955  13.194  67.033  1.00  0.00    -0.226 NA 
HETATM   22  C   UNL     1      -8.197  14.455  67.062  1.00  0.00    -0.109 C  
HETATM   23  C   UNL     1      -9.806  14.606  65.314  1.00  0.00    -0.228 C  
BRANCH  21  24
HETATM   24  C   UNL     1      -9.312  12.727  68.385  1.00  0.00    -0.143 C  
BRANCH  24  25
HETATM   25  C   UNL     1     -10.667  12.001  68.478  1.00  0.00    -0.261 C  
BRANCH  25  26
HETATM   26  C   UNL     1     -10.630  10.851  69.468  1.00  0.00    -0.217 A  
HETATM   27  C   UNL     1     -11.770  10.532  70.217  1.00  0.00    -0.420 A  
HETATM   28  C   UNL     1     -11.717   9.457  71.094  1.00  0.00    -0.418 A  
HETATM   29  C   UNL     1     -10.565   8.705  71.221  1.00  0.00    -0.239 A  
HETATM   30  O   UNL     1     -10.677   7.661  72.100  1.00  0.00    -0.220 OA 
HETATM   31  C   UNL     1      -9.425   8.990  70.504  1.00  0.00    -0.265 A  
HETATM   32  C   UNL     1      -9.457  10.080  69.623  1.00  0.00    -0.247 A  
HETATM   33  C   UNL     1     -11.985   7.820  72.696  1.00  0.00    -0.205 C  
HETATM   34  C   UNL     1     -12.767   8.923  71.980  1.00  0.00    -0.456 C  
ENDBRANCH  25  26
ENDBRANCH  24  25
ENDBRANCH  21  24
ENDBRANCH   6  19
ENDBRANCH   2   6
TORSDOF 7
ENDMDL
MODEL      103
REMARK 921   NORMALIZED FREE ENERGY PREDICTED BY IDOCK:   -5.20 KCAL/MOL
REMARK 922        TOTAL FREE ENERGY PREDICTED BY IDOCK:   -9.10 KCAL/MOL
REMARK 923 INTER-LIGAND FREE ENERGY PREDICTED BY IDOCK:   -9.04 KCAL/MOL
REMARK 924 INTRA-LIGAND FREE ENERGY PREDICTED BY IDOCK:   -0.07 KCAL/MOL
REMARK 927      BINDING AFFINITY PREDICTED BY RF-SCORE:    0.00 PKD
ROOT
HETATM    1  N   UNL     1      -8.468  13.511  68.967  1.00  0.00    -0.336 N  
HETATM    2  C   UNL     1      -8.857  12.559  68.060  1.00  0.00    -0.187 C  
HETATM    3  H1  UNL     1      -8.836  14.449  68.815  1.00  0.00     0.000 HD 
HETATM    4  H2  UNL     1      -7.849  13.293  69.748  1.00  0.00     0.000 HD 
HETATM    5  O   UNL     1      -8.415  11.430  68.242  1.00  0.00    -0.141 OA 
ENDROOT
BRANCH   2   6
HETATM    6  C   UNL     1      -9.890  12.980  66.928  1.00  0.00    -0.240 C  
BRANCH   6   7
HETATM    7  C   UNL     1      -9.616  14.506  66.561  1.00  0.00    -0.311 A  
HETATM    8  C   UNL     1      -9.206  17.284  66.082  1.00  0.00    -0.193 A  
HETATM    9  C   UNL     1     -10.425  16.695  65.779  1.00  0.00    -0.324 A  
HETATM   10  C   UNL     1      -8.172  16.496  66.566  1.00  0.00    -0.335 A  
HETATM   11  C   UNL     1     -10.620  15.325  65.995  1.00  0.00    -0.327 A  
HETATM   12  C   UNL     1      -8.372  15.128  66.792  1.00  0.00    -0.225 A  
ENDBRANCH   6   7
BRANCH   6  13
HETATM   13  C   UNL     1      -9.680  12.055  65.672  1.00  0.00    -0.241 A  
HETATM   14  C   UNL     1     -10.476  12.222  64.513  1.00  0.00    -0.339 A  
HETATM   15  C   UNL     1     -10.369  11.363  63.414  1.00  0.00    -0.458 A  
HETATM   16  C   UNL     1      -9.446  10.327  63.423  1.00  0.00    -0.340 A  
HETATM   17  C   UNL     1      -8.723  11.028  65.630  1.00  0.00    -0.162 A  
HETATM   18  C   UNL     1      -8.611  10.166  64.530  1.00  0.00    -0.198 A  
ENDBRANCH   6  13
BRANCH   6  19
HETATM   19  C   UNL     1     -11.402  12.831  67.447  1.00  0.00    -0.363 C  
HETATM   20  C   UNL     1     -11.894  13.015  69.840  1.00  0.00    -0.307 C  
HETATM   21  N   UNL     1     -12.150  11.629  69.458  1.00  0.00    -0.295 NA 
HETATM   22  C   UNL     1     -11.887  11.488  68.017  1.00  0.00    -0.217 C  
HETATM   23  C   UNL     1     -11.854  13.809  68.545  1.00  0.00    -0.406 C  
BRANCH  21  24
HETATM   24  C   UNL     1     -11.411  10.635  70.258  1.00  0.00    -0.337 C  
BRANCH  24  25
HETATM   25  C   UNL     1     -10.885   9.428  69.460  1.00  0.00    -0.231 C  
BRANCH  25  26
HETATM   26  C   UNL     1     -10.840   8.164  70.300  1.00  0.00    -0.244 A  
HETATM   27  C   UNL     1     -10.640   8.248  71.684  1.00  0.00    -0.306 A  
HETATM   28  C   UNL     1     -10.632   7.079  72.432  1.00  0.00    -0.252 A  
HETATM   29  C   UNL     1     -10.828   5.852  71.828  1.00  0.00    -0.260 A  
HETATM   30  O   UNL     1     -10.824   4.796  72.699  1.00  0.00    -0.210 OA 
HETATM   31  C   UNL     1     -11.024   5.731  70.470  1.00  0.00    -0.320 A  
HETATM   32  C   UNL     1     -11.023   6.900  69.698  1.00  0.00    -0.298 A  
HETATM   33  C   UNL     1     -10.469   5.374  73.977  1.00  0.00    -0.284 C  
HETATM   34  C   UNL     1     -10.448   6.901  73.884  1.00  0.00    -0.352 C  
ENDBRANCH  25  26
ENDBRANCH  24  25
ENDBRANCH  21  24
ENDBRANCH   6  19
ENDBRANCH   2   6
TORSDOF 7
ENDMDL
MODEL      104
REMARK 921   NORMALIZED FREE ENERGY PREDICTED BY IDOCK:   -5.17 KCAL/MOL
REMARK 922        TOTAL FREE ENERGY PREDICTED BY IDOCK:   -9.07 KCAL/MOL
REMARK 923 INTER-LIGAND FREE ENERGY PREDICTED BY IDOCK:   -7.69 KCAL/MOL
REMARK 924 INTRA-LIGAND FREE ENERGY PREDICTED BY IDOCK:   -1.37 KCAL/MOL
REMARK 927      BINDING AFFINITY PREDICTED BY RF-SCORE:    0.00 PKD
ROOT
HETATM    1  N   UNL     1     -11.902   6.574  69.257  1.00  0.00    -0.506 N  
HETATM    2  C   UNL     1     -10.751   6.098  69.831  1.00  0.00    -0.301 C  
HETATM    3  H1  UNL     1     -11.967   7.587  69.160  1.00  0.00     0.000 HD 
HETATM    4  H2  UNL     1     -12.648   5.952  68.944  1.00  0.00     0.000 HD 
HETATM    5  O   UNL     1     -10.673   4.880  69.947  1.00  0.00    -0.051 OA 
ENDROOT
BRANCH   2   6
HETATM    6  C   UNL     1      -9.614   7.142  70.207  1.00  0.00    -0.169 C  
BRANCH   6   7
HETATM    7  C   UNL     1      -8.272   6.326  70.478  1.00  0.00    -0.118 A  
HETATM    8  C   UNL     1      -5.774   5.042  70.950  1.00  0.00    -0.016 A  
HETATM    9  C   UNL     1      -6.196   5.292  69.653  1.00  0.00    -0.026 A  
HETATM   10  C   UNL     1      -6.605   5.370  72.011  1.00  0.00    -0.056 A  
HETATM   11  C   UNL     1      -7.434   5.905  69.419  1.00  0.00    -0.087 A  
HETATM   12  C   UNL     1      -7.838   5.993  71.776  1.00  0.00    -0.102 A  
ENDBRANCH   6   7
BRANCH   6  13
HETATM   13  C   UNL     1      -9.427   8.148  69.011  1.00  0.00    -0.155 A  
HETATM   14  C   UNL     1     -10.122   7.956  67.792  1.00  0.00    -0.246 A  
HETATM   15  C   UNL     1      -9.913   8.785  66.685  1.00  0.00    -0.355 A  
HETATM   16  C   UNL     1      -9.028   9.850  66.766  1.00  0.00    -0.155 A  
HETATM   17  C   UNL     1      -8.575   9.263  69.075  1.00  0.00    -0.134 A  
HETATM   18  C   UNL     1      -8.365  10.098  67.969  1.00  0.00    -0.117 A  
ENDBRANCH   6  13
BRANCH   6  19
HETATM   19  C   UNL     1     -10.003   7.962  71.531  1.00  0.00    -0.214 C  
HETATM   20  C   UNL     1     -12.351   8.150  72.204  1.00  0.00    -0.338 C  
HETATM   21  N   UNL     1     -11.914   9.485  71.804  1.00  0.00    -0.382 NA 
HETATM   22  C   UNL     1     -10.497   9.414  71.416  1.00  0.00    -0.288 C  
HETATM   23  C   UNL     1     -11.084   7.343  72.433  1.00  0.00    -0.331 C  
BRANCH  21  24
HETATM   24  C   UNL     1     -12.748  10.105  70.757  1.00  0.00    -0.311 C  
BRANCH  24  25
HETATM   25  C   UNL     1     -12.022  10.356  69.422  1.00  0.00    -0.151 C  
BRANCH  25  26
HETATM   26  C   UNL     1     -11.854  11.837  69.134  1.00  0.00    -0.389 A  
HETATM   27  C   UNL     1     -11.509  12.268  67.846  1.00  0.00    -0.390 A  
HETATM   28  C   UNL     1     -11.389  13.629  67.605  1.00  0.00    -0.328 A  
HETATM   29  C   UNL     1     -11.617  14.548  68.611  1.00  0.00    -0.315 A  
HETATM   30  O   UNL     1     -11.492  15.852  68.211  1.00  0.00    -0.363 OA 
HETATM   31  C   UNL     1     -11.955  14.162  69.889  1.00  0.00    -0.398 A  
HETATM   32  C   UNL     1     -12.067  12.791  70.153  1.00  0.00    -0.370 A  
HETATM   33  C   UNL     1     -11.016  15.776  66.847  1.00  0.00    -0.207 C  
HETATM   34  C   UNL     1     -11.046  14.328  66.353  1.00  0.00    -0.325 C  
ENDBRANCH  25  26
ENDBRANCH  24  25
ENDBRANCH  21  24
ENDBRANCH   6  19
ENDBRANCH   2   6
TORSDOF 7
ENDMDL
MODEL      105
REMARK 921   NORMALIZED FREE ENERGY PREDICTED BY IDOCK:   -5.16 KCAL/MOL
REMARK 922        TOTAL FREE ENERGY PREDICTED BY IDOCK:   -9.05 KCAL/MOL
REMARK 923 INTER-LIGAND FREE ENERGY PREDICTED BY IDOCK:   -8.31 KCAL/MOL
REMARK 924 INTRA-LIGAND FREE ENERGY PREDICTED BY IDOCK:   -0.74 KCAL/MOL
REMARK 927      BINDING AFFINITY PREDICTED BY RF-SCORE:    0.00 PKD
ROOT
HETATM    1  N   UNL     1     -12.498   6.001  72.474  1.00  0.00    -0.513 N  
HETATM    2  C   UNL     1     -12.036   6.594  71.327  1.00  0.00    -0.341 C  
HETATM    3  H1  UNL     1     -11.793   5.560  73.064  1.00  0.00     0.000 HD 
HETATM    4  H2  UNL     1     -13.487   6.001  72.723  1.00  0.00     0.000 HD 
HETATM    5  O   UNL     1     -12.884   7.124  70.617  1.00  0.00    -0.149 OA 
ENDROOT
BRANCH   2   6
HETATM    6  C   UNL     1     -10.468   6.611  71.071  1.00  0.00    -0.246 C  
BRANCH   6   7
HETATM    7  C   UNL     1      -9.801   5.555  72.061  1.00  0.00    -0.204 A  
HETATM    8  C   UNL     1      -8.772   3.684  73.946  1.00  0.00    -0.089 A  
HETATM    9  C   UNL     1      -8.595   5.045  74.145  1.00  0.00    -0.111 A  
HETATM   10  C   UNL     1      -9.403   3.242  72.792  1.00  0.00    -0.137 A  
HETATM   11  C   UNL     1      -9.083   5.965  73.208  1.00  0.00    -0.133 A  
HETATM   12  C   UNL     1      -9.900   4.164  71.861  1.00  0.00    -0.251 A  
ENDBRANCH   6   7
BRANCH   6  13
HETATM   13  C   UNL     1     -10.189   6.227  69.570  1.00  0.00    -0.239 A  
HETATM   14  C   UNL     1     -11.137   6.528  68.562  1.00  0.00    -0.347 A  
HETATM   15  C   UNL     1     -10.955   6.126  67.234  1.00  0.00    -0.418 A  
HETATM   16  C   UNL     1      -9.808   5.437  66.863  1.00  0.00    -0.186 A  
HETATM   17  C   UNL     1      -9.019   5.573  69.153  1.00  0.00    -0.120 A  
HETATM   18  C   UNL     1      -8.831   5.170  67.823  1.00  0.00    -0.106 A  
ENDBRANCH   6  13
BRANCH   6  19
HETATM   19  C   UNL     1      -9.854   8.065  71.367  1.00  0.00    -0.213 C  
HETATM   20  C   UNL     1     -10.811  10.039  70.275  1.00  0.00    -0.313 C  
HETATM   21  N   UNL     1      -9.470   9.856  69.726  1.00  0.00    -0.222 NA 
HETATM   22  C   UNL     1      -8.855   8.690  70.380  1.00  0.00    -0.157 C  
HETATM   23  C   UNL     1     -10.861   9.214  71.551  1.00  0.00    -0.436 C  
BRANCH  21  24
HETATM   24  C   UNL     1      -9.427   9.756  68.255  1.00  0.00    -0.139 C  
BRANCH  24  25
HETATM   25  C   UNL     1     -10.722  10.189  67.544  1.00  0.00    -0.347 C  
BRANCH  25  26
HETATM   26  C   UNL     1     -10.592  11.561  66.907  1.00  0.00    -0.284 A  
HETATM   27  C   UNL     1     -11.659  12.101  66.177  1.00  0.00    -0.418 A  
HETATM   28  C   UNL     1     -11.522  13.369  65.630  1.00  0.00    -0.335 A  
HETATM   29  C   UNL     1     -10.360  14.095  65.808  1.00  0.00    -0.325 A  
HETATM   30  O   UNL     1     -10.388  15.339  65.236  1.00  0.00    -0.369 OA 
HETATM   31  C   UNL     1      -9.290  13.596  66.517  1.00  0.00    -0.242 A  
HETATM   32  C   UNL     1      -9.406  12.311  67.065  1.00  0.00    -0.205 A  
HETATM   33  C   UNL     1     -11.638  15.383  64.511  1.00  0.00    -0.296 C  
HETATM   34  C   UNL     1     -12.487  14.151  64.835  1.00  0.00    -0.419 C  
ENDBRANCH  25  26
ENDBRANCH  24  25
ENDBRANCH  21  24
ENDBRANCH   6  19
ENDBRANCH   2   6
TORSDOF 7
ENDMDL
MODEL      106
REMARK 921   NORMALIZED FREE ENERGY PREDICTED BY IDOCK:   -5.15 KCAL/MOL
REMARK 922        TOTAL FREE ENERGY PREDICTED BY IDOCK:   -9.03 KCAL/MOL
REMARK 923 INTER-LIGAND FREE ENERGY PREDICTED BY IDOCK:   -7.59 KCAL/MOL
REMARK 924 INTRA-LIGAND FREE ENERGY PREDICTED BY IDOCK:   -1.44 KCAL/MOL
REMARK 927      BINDING AFFINITY PREDICTED BY RF-SCORE:    0.00 PKD
ROOT
HETATM    1  N   UNL     1      -9.832  13.176  64.643  1.00  0.00    -0.595 N  
HETATM    2  C   UNL     1     -10.489  12.148  65.270  1.00  0.00    -0.276 C  
HETATM    3  H1  UNL     1      -9.042  13.576  65.147  1.00  0.00     0.000 HD 
HETATM    4  H2  UNL     1     -10.118  13.520  63.726  1.00  0.00     0.000 HD 
HETATM    5  O   UNL     1     -11.439  11.668  64.664  1.00  0.00    -0.273 OA 
ENDROOT
BRANCH   2   6
HETATM    6  C   UNL     1      -9.915  11.630  66.659  1.00  0.00    -0.230 C  
BRANCH   6   7
HETATM    7  C   UNL     1     -10.823  12.237  67.819  1.00  0.00    -0.256 A  
HETATM    8  C   UNL     1     -12.277  13.372  69.989  1.00  0.00    -0.367 A  
HETATM    9  C   UNL     1     -11.832  12.060  70.057  1.00  0.00    -0.392 A  
HETATM   10  C   UNL     1     -12.057  14.106  68.832  1.00  0.00    -0.339 A  
HETATM   11  C   UNL     1     -11.134  11.495  68.981  1.00  0.00    -0.302 A  
HETATM   12  C   UNL     1     -11.350  13.543  67.762  1.00  0.00    -0.327 A  
ENDBRANCH   6   7
BRANCH   6  13
HETATM   13  C   UNL     1      -9.960  10.057  66.676  1.00  0.00    -0.274 A  
HETATM   14  C   UNL     1     -10.865   9.371  67.523  1.00  0.00    -0.208 A  
HETATM   15  C   UNL     1     -10.871   7.976  67.621  1.00  0.00    -0.108 A  
HETATM   16  C   UNL     1      -9.996   7.217  66.858  1.00  0.00    -0.302 A  
HETATM   17  C   UNL     1      -9.121   9.258  65.882  1.00  0.00    -0.246 A  
HETATM   18  C   UNL     1      -9.125   7.859  65.976  1.00  0.00    -0.181 A  
ENDBRANCH   6  13
BRANCH   6  19
HETATM   19  C   UNL     1      -8.400  12.117  66.871  1.00  0.00    -0.151 C  
HETATM   20  C   UNL     1      -6.654  10.480  67.396  1.00  0.00    -0.067 C  
HETATM   21  N   UNL     1      -6.828  11.313  68.583  1.00  0.00    -0.070 NA 
HETATM   22  C   UNL     1      -7.855  12.326  68.294  1.00  0.00    -0.153 C  
HETATM   23  C   UNL     1      -7.299  11.241  66.249  1.00  0.00     0.000 C  
BRANCH  21  24
HETATM   24  C   UNL     1      -7.123  10.556  69.814  1.00  0.00    -0.150 C  
BRANCH  24  25
HETATM   25  C   UNL     1      -7.074   9.025  69.656  1.00  0.00    -0.059 C  
BRANCH  25  26
HETATM   26  C   UNL     1      -8.318   8.355  70.209  1.00  0.00    -0.124 A  
HETATM   27  C   UNL     1      -9.363   9.131  70.727  1.00  0.00    -0.325 A  
HETATM   28  C   UNL     1     -10.501   8.493  71.199  1.00  0.00    -0.278 A  
HETATM   29  C   UNL     1     -10.613   7.117  71.151  1.00  0.00    -0.223 A  
HETATM   30  O   UNL     1     -11.805   6.638  71.624  1.00  0.00    -0.304 OA 
HETATM   31  C   UNL     1      -9.606   6.321  70.650  1.00  0.00    -0.189 A  
HETATM   32  C   UNL     1      -8.444   6.949  70.181  1.00  0.00    -0.140 A  
HETATM   33  C   UNL     1     -12.489   7.801  72.145  1.00  0.00    -0.243 C  
HETATM   34  C   UNL     1     -11.724   9.076  71.782  1.00  0.00    -0.440 C  
ENDBRANCH  25  26
ENDBRANCH  24  25
ENDBRANCH  21  24
ENDBRANCH   6  19
ENDBRANCH   2   6
TORSDOF 7
ENDMDL
MODEL      107
REMARK 921   NORMALIZED FREE ENERGY PREDICTED BY IDOCK:   -5.15 KCAL/MOL
REMARK 922        TOTAL FREE ENERGY PREDICTED BY IDOCK:   -9.03 KCAL/MOL
REMARK 923 INTER-LIGAND FREE ENERGY PREDICTED BY IDOCK:   -7.73 KCAL/MOL
REMARK 924 INTRA-LIGAND FREE ENERGY PREDICTED BY IDOCK:   -1.30 KCAL/MOL
REMARK 927      BINDING AFFINITY PREDICTED BY RF-SCORE:    0.00 PKD
ROOT
HETATM    1  N   UNL     1     -12.633  16.021  69.430  1.00  0.00    -0.427 N  
HETATM    2  C   UNL     1     -11.450  15.335  69.530  1.00  0.00    -0.305 C  
HETATM    3  H1  UNL     1     -12.695  16.698  68.670  1.00  0.00     0.000 HD 
HETATM    4  H2  UNL     1     -13.406  15.864  70.077  1.00  0.00     0.000 HD 
HETATM    5  O   UNL     1     -11.377  14.521  70.443  1.00  0.00    -0.233 OA 
ENDROOT
BRANCH   2   6
HETATM    6  C   UNL     1     -10.339  15.592  68.423  1.00  0.00    -0.231 C  
BRANCH   6   7
HETATM    7  C   UNL     1     -10.722  14.731  67.138  1.00  0.00    -0.299 A  
HETATM    8  C   UNL     1     -11.567  13.312  64.817  1.00  0.00    -0.364 A  
HETATM    9  C   UNL     1     -12.088  12.989  66.062  1.00  0.00    -0.493 A  
HETATM   10  C   UNL     1     -10.589  14.291  64.722  1.00  0.00    -0.434 A  
HETATM   11  C   UNL     1     -11.658  13.673  67.206  1.00  0.00    -0.387 A  
HETATM   12  C   UNL     1     -10.168  14.982  65.866  1.00  0.00    -0.335 A  
ENDBRANCH   6   7
BRANCH   6  13
HETATM   13  C   UNL     1     -10.305  17.128  68.079  1.00  0.00    -0.353 A  
HETATM   14  C   UNL     1      -9.883  18.073  69.046  1.00  0.00    -0.249 A  
HETATM   15  C   UNL     1      -9.921  19.450  68.798  1.00  0.00    -0.522 A  
HETATM   16  C   UNL     1     -10.353  19.927  67.568  1.00  0.00    -0.557 A  
HETATM   17  C   UNL     1     -10.690  17.641  66.830  1.00  0.00    -0.148 A  
HETATM   18  C   UNL     1     -10.727  19.019  66.576  1.00  0.00    -0.412 A  
ENDBRANCH   6  13
BRANCH   6  19
HETATM   19  C   UNL     1      -8.892  15.136  68.945  1.00  0.00    -0.205 C  
HETATM   20  C   UNL     1      -7.062  14.817  67.347  1.00  0.00    -0.143 C  
HETATM   21  N   UNL     1      -7.398  13.499  67.879  1.00  0.00    -0.130 NA 
HETATM   22  C   UNL     1      -8.480  13.656  68.863  1.00  0.00     0.165 C  
HETATM   23  C   UNL     1      -7.677  15.827  68.303  1.00  0.00    -0.132 C  
BRANCH  21  24
HETATM   24  C   UNL     1      -7.724  12.496  66.848  1.00  0.00     0.057 C  
BRANCH  24  25
HETATM   25  C   UNL     1      -8.891  11.559  67.209  1.00  0.00    -0.160 C  
BRANCH  25  26
HETATM   26  C   UNL     1      -8.703  10.167  66.634  1.00  0.00    -0.134 A  
HETATM   27  C   UNL     1      -9.496   9.105  67.090  1.00  0.00    -0.197 A  
HETATM   28  C   UNL     1      -9.322   7.849  66.527  1.00  0.00    -0.255 A  
HETATM   29  C   UNL     1      -8.393   7.646  65.525  1.00  0.00    -0.135 A  
HETATM   30  O   UNL     1      -8.360   6.363  65.048  1.00  0.00    -0.140 OA 
HETATM   31  C   UNL     1      -7.595   8.664  65.053  1.00  0.00    -0.098 A  
HETATM   32  C   UNL     1      -7.748   9.937  65.620  1.00  0.00    -0.121 A  
HETATM   33  C   UNL     1      -9.267   5.629  65.904  1.00  0.00    -0.132 C  
HETATM   34  C   UNL     1     -10.025   6.587  66.825  1.00  0.00    -0.224 C  
ENDBRANCH  25  26
ENDBRANCH  24  25
ENDBRANCH  21  24
ENDBRANCH   6  19
ENDBRANCH   2   6
TORSDOF 7
ENDMDL
MODEL      108
REMARK 921   NORMALIZED FREE ENERGY PREDICTED BY IDOCK:   -5.12 KCAL/MOL
REMARK 922        TOTAL FREE ENERGY PREDICTED BY IDOCK:   -8.99 KCAL/MOL
REMARK 923 INTER-LIGAND FREE ENERGY PREDICTED BY IDOCK:   -8.54 KCAL/MOL
REMARK 924 INTRA-LIGAND FREE ENERGY PREDICTED BY IDOCK:   -0.45 KCAL/MOL
REMARK 927      BINDING AFFINITY PREDICTED BY RF-SCORE:    0.00 PKD
ROOT
HETATM    1  N   UNL     1     -13.247  14.106  65.710  1.00  0.00    -0.549 N  
HETATM    2  C   UNL     1     -11.947  13.777  65.427  1.00  0.00    -0.379 C  
HETATM    3  H1  UNL     1     -13.421  14.479  66.643  1.00  0.00     0.000 HD 
HETATM    4  H2  UNL     1     -13.997  13.987  65.028  1.00  0.00     0.000 HD 
HETATM    5  O   UNL     1     -11.738  13.329  64.305  1.00  0.00    -0.369 OA 
ENDROOT
BRANCH   2   6
HETATM    6  C   UNL     1     -10.841  14.079  66.528  1.00  0.00    -0.300 C  
BRANCH   6   7
HETATM    7  C   UNL     1     -10.710  15.661  66.666  1.00  0.00    -0.296 A  
HETATM    8  C   UNL     1     -10.671  18.501  66.872  1.00  0.00    -0.332 A  
HETATM    9  C   UNL     1     -10.536  17.889  65.635  1.00  0.00    -0.110 A  
HETATM   10  C   UNL     1     -10.767  17.717  68.012  1.00  0.00    -0.317 A  
HETATM   11  C   UNL     1     -10.534  16.491  65.535  1.00  0.00    -0.320 A  
HETATM   12  C   UNL     1     -10.776  16.320  67.910  1.00  0.00    -0.329 A  
ENDBRANCH   6   7
BRANCH   6  13
HETATM   13  C   UNL     1     -11.286  13.432  67.892  1.00  0.00    -0.322 A  
HETATM   14  C   UNL     1     -11.680  12.073  67.950  1.00  0.00    -0.393 A  
HETATM   15  C   UNL     1     -12.160  11.493  69.130  1.00  0.00    -0.329 A  
HETATM   16  C   UNL     1     -12.233  12.240  70.296  1.00  0.00    -0.342 A  
HETATM   17  C   UNL     1     -11.328  14.146  69.100  1.00  0.00    -0.318 A  
HETATM   18  C   UNL     1     -11.804  13.569  70.285  1.00  0.00    -0.327 A  
ENDBRANCH   6  13
BRANCH   6  19
HETATM   19  C   UNL     1      -9.419  13.472  66.095  1.00  0.00    -0.159 C  
HETATM   20  C   UNL     1      -8.894  11.128  66.579  1.00  0.00    -0.171 C  
HETATM   21  N   UNL     1      -8.015  11.943  67.414  1.00  0.00    -0.153 NA 
HETATM   22  C   UNL     1      -8.287  13.361  67.129  1.00  0.00    -0.139 C  
HETATM   23  C   UNL     1      -9.427  12.054  65.498  1.00  0.00    -0.116 C  
BRANCH  21  24
HETATM   24  C   UNL     1      -8.095  11.639  68.854  1.00  0.00    -0.004 C  
BRANCH  24  25
HETATM   25  C   UNL     1      -7.456  10.299  69.265  1.00  0.00    -0.112 C  
BRANCH  25  26
HETATM   26  C   UNL     1      -8.231   9.616  70.377  1.00  0.00    -0.194 A  
HETATM   27  C   UNL     1      -9.630   9.560  70.327  1.00  0.00    -0.314 A  
HETATM   28  C   UNL     1     -10.311   8.903  71.342  1.00  0.00    -0.377 A  
HETATM   29  C   UNL     1      -9.625   8.304  72.381  1.00  0.00    -0.294 A  
HETATM   30  O   UNL     1     -10.432   7.670  73.288  1.00  0.00    -0.348 OA 
HETATM   31  C   UNL     1      -8.251   8.340  72.465  1.00  0.00    -0.224 A  
HETATM   32  C   UNL     1      -7.548   9.010  71.455  1.00  0.00    -0.078 A  
HETATM   33  C   UNL     1     -11.779   7.990  72.869  1.00  0.00    -0.160 C  
HETATM   34  C   UNL     1     -11.762   8.704  71.516  1.00  0.00    -0.369 C  
ENDBRANCH  25  26
ENDBRANCH  24  25
ENDBRANCH  21  24
ENDBRANCH   6  19
ENDBRANCH   2   6
TORSDOF 7
ENDMDL
MODEL      109
REMARK 921   NORMALIZED FREE ENERGY PREDICTED BY IDOCK:   -5.08 KCAL/MOL
REMARK 922        TOTAL FREE ENERGY PREDICTED BY IDOCK:   -8.94 KCAL/MOL
REMARK 923 INTER-LIGAND FREE ENERGY PREDICTED BY IDOCK:   -8.35 KCAL/MOL
REMARK 924 INTRA-LIGAND FREE ENERGY PREDICTED BY IDOCK:   -0.59 KCAL/MOL
REMARK 927      BINDING AFFINITY PREDICTED BY RF-SCORE:    0.00 PKD
ROOT
HETATM    1  N   UNL     1     -11.760  13.424  68.360  1.00  0.00    -0.334 N  
HETATM    2  C   UNL     1     -10.824  12.422  68.326  1.00  0.00    -0.237 C  
HETATM    3  H1  UNL     1     -11.884  13.950  67.496  1.00  0.00     0.000 HD 
HETATM    4  H2  UNL     1     -12.300  13.632  69.201  1.00  0.00     0.000 HD 
HETATM    5  O   UNL     1     -10.675  11.790  69.366  1.00  0.00    -0.137 OA 
ENDROOT
BRANCH   2   6
HETATM    6  C   UNL     1     -10.096  12.124  66.946  1.00  0.00    -0.222 C  
BRANCH   6   7
HETATM    7  C   UNL     1     -10.003  10.542  66.775  1.00  0.00    -0.252 A  
HETATM    8  C   UNL     1      -9.681   7.718  66.595  1.00  0.00    -0.292 A  
HETATM    9  C   UNL     1      -8.940   8.559  65.778  1.00  0.00    -0.229 A  
HETATM   10  C   UNL     1     -10.621   8.262  67.458  1.00  0.00    -0.291 A  
HETATM   11  C   UNL     1      -9.113   9.947  65.852  1.00  0.00    -0.201 A  
HETATM   12  C   UNL     1     -10.785   9.652  67.538  1.00  0.00    -0.321 A  
ENDBRANCH   6   7
BRANCH   6  13
HETATM   13  C   UNL     1     -10.932  12.767  65.777  1.00  0.00    -0.306 A  
HETATM   14  C   UNL     1     -11.817  11.976  65.005  1.00  0.00    -0.291 A  
HETATM   15  C   UNL     1     -12.510  12.500  63.908  1.00  0.00    -0.540 A  
HETATM   16  C   UNL     1     -12.365  13.836  63.563  1.00  0.00    -0.172 A  
HETATM   17  C   UNL     1     -10.845  14.125  65.431  1.00  0.00    -0.341 A  
HETATM   18  C   UNL     1     -11.539  14.655  64.335  1.00  0.00    -0.315 A  
ENDBRANCH   6  13
BRANCH   6  19
HETATM   19  C   UNL     1      -8.613  12.738  66.935  1.00  0.00    -0.140 C  
HETATM   20  C   UNL     1      -7.470  13.204  69.051  1.00  0.00     0.093 C  
HETATM   21  N   UNL     1      -7.743  14.494  68.422  1.00  0.00    -0.120 NA 
HETATM   22  C   UNL     1      -8.409  14.250  67.132  1.00  0.00    -0.180 C  
HETATM   23  C   UNL     1      -7.619  12.160  67.957  1.00  0.00    -0.123 C  
BRANCH  21  24
HETATM   24  C   UNL     1      -8.499  15.433  69.270  1.00  0.00    -0.258 C  
BRANCH  24  25
HETATM   25  C   UNL     1      -9.439  16.380  68.502  1.00  0.00    -0.227 C  
BRANCH  25  26
HETATM   26  C   UNL     1      -8.780  17.711  68.193  1.00  0.00    -0.265 A  
HETATM   27  C   UNL     1      -7.554  18.043  68.785  1.00  0.00    -0.277 A  
HETATM   28  C   UNL     1      -6.959  19.254  68.463  1.00  0.00    -0.329 A  
HETATM   29  C   UNL     1      -7.556  20.118  67.564  1.00  0.00    -0.298 A  
HETATM   30  O   UNL     1      -6.834  21.257  67.324  1.00  0.00    -0.492 OA 
HETATM   31  C   UNL     1      -8.761  19.827  66.964  1.00  0.00    -0.386 A  
HETATM   32  C   UNL     1      -9.382  18.613  67.289  1.00  0.00    -0.299 A  
HETATM   33  C   UNL     1      -5.722  21.189  68.246  1.00  0.00    -0.317 C  
HETATM   34  C   UNL     1      -5.687  19.826  68.940  1.00  0.00    -0.252 C  
ENDBRANCH  25  26
ENDBRANCH  24  25
ENDBRANCH  21  24
ENDBRANCH   6  19
ENDBRANCH   2   6
TORSDOF 7
ENDMDL
MODEL      110
REMARK 921   NORMALIZED FREE ENERGY PREDICTED BY IDOCK:   -5.08 KCAL/MOL
REMARK 922        TOTAL FREE ENERGY PREDICTED BY IDOCK:   -8.94 KCAL/MOL
REMARK 923 INTER-LIGAND FREE ENERGY PREDICTED BY IDOCK:   -8.37 KCAL/MOL
REMARK 924 INTRA-LIGAND FREE ENERGY PREDICTED BY IDOCK:   -0.57 KCAL/MOL
REMARK 927      BINDING AFFINITY PREDICTED BY RF-SCORE:    0.00 PKD
ROOT
HETATM    1  N   UNL     1     -11.112   7.875  67.631  1.00  0.00    -0.466 N  
HETATM    2  C   UNL     1     -10.399   9.043  67.546  1.00  0.00    -0.264 C  
HETATM    3  H1  UNL     1     -11.215   7.480  68.566  1.00  0.00     0.000 HD 
HETATM    4  H2  UNL     1     -11.516   7.427  66.808  1.00  0.00     0.000 HD 
HETATM    5  O   UNL     1     -10.276   9.517  66.423  1.00  0.00    -0.264 OA 
ENDROOT
BRANCH   2   6
HETATM    6  C   UNL     1      -9.882   9.705  68.896  1.00  0.00    -0.179 C  
BRANCH   6   7
HETATM    7  C   UNL     1     -10.358   8.783  70.105  1.00  0.00    -0.225 A  
HETATM    8  C   UNL     1     -11.046   7.194  72.367  1.00  0.00    -0.302 A  
HETATM    9  C   UNL     1     -10.176   6.701  71.405  1.00  0.00    -0.220 A  
HETATM   10  C   UNL     1     -11.622   8.443  72.186  1.00  0.00    -0.442 A  
HETATM   11  C   UNL     1      -9.854   7.474  70.282  1.00  0.00    -0.183 A  
HETATM   12  C   UNL     1     -11.290   9.219  71.068  1.00  0.00    -0.390 A  
ENDBRANCH   6   7
BRANCH   6  13
HETATM   13  C   UNL     1      -8.312   9.803  68.849  1.00  0.00    -0.120 A  
HETATM   14  C   UNL     1      -7.610   9.560  67.643  1.00  0.00    -0.094 A  
HETATM   15  C   UNL     1      -6.212   9.557  67.590  1.00  0.00    -0.053 A  
HETATM   16  C   UNL     1      -5.469   9.826  68.731  1.00  0.00    -0.036 A  
HETATM   17  C   UNL     1      -7.532  10.118  69.973  1.00  0.00    -0.171 A  
HETATM   18  C   UNL     1      -6.131  10.120  69.924  1.00  0.00    -0.057 A  
ENDBRANCH   6  13
BRANCH   6  19
HETATM   19  C   UNL     1     -10.497  11.175  69.086  1.00  0.00    -0.211 C  
HETATM   20  C   UNL     1     -11.890  12.154  67.323  1.00  0.00    -0.223 C  
HETATM   21  N   UNL     1     -10.655  12.932  67.372  1.00  0.00    -0.232 NA 
HETATM   22  C   UNL     1      -9.803  12.386  68.440  1.00  0.00    -0.198 C  
HETATM   23  C   UNL     1     -11.952  11.379  68.630  1.00  0.00    -0.317 C  
BRANCH  21  24
HETATM   24  C   UNL     1      -9.944  13.020  66.083  1.00  0.00    -0.278 C  
BRANCH  24  25
HETATM   25  C   UNL     1     -10.301  14.255  65.235  1.00  0.00    -0.417 C  
BRANCH  25  26
HETATM   26  C   UNL     1      -9.782  15.540  65.855  1.00  0.00    -0.392 A  
HETATM   27  C   UNL     1     -10.541  16.716  65.774  1.00  0.00    -0.278 A  
HETATM   28  C   UNL     1     -10.056  17.869  66.374  1.00  0.00    -0.369 A  
HETATM   29  C   UNL     1      -8.852  17.862  67.050  1.00  0.00    -0.250 A  
HETATM   30  O   UNL     1      -8.523  19.065  67.614  1.00  0.00    -0.281 OA 
HETATM   31  C   UNL     1      -8.077  16.727  67.148  1.00  0.00    -0.210 A  
HETATM   32  C   UNL     1      -8.546  15.556  66.537  1.00  0.00    -0.320 A  
HETATM   33  C   UNL     1      -9.549  19.978  67.159  1.00  0.00    -0.402 C  
HETATM   34  C   UNL     1     -10.658  19.214  66.433  1.00  0.00    -0.522 C  
ENDBRANCH  25  26
ENDBRANCH  24  25
ENDBRANCH  21  24
ENDBRANCH   6  19
ENDBRANCH   2   6
TORSDOF 7
ENDMDL
MODEL      111
REMARK 921   NORMALIZED FREE ENERGY PREDICTED BY IDOCK:   -5.07 KCAL/MOL
REMARK 922        TOTAL FREE ENERGY PREDICTED BY IDOCK:   -8.92 KCAL/MOL
REMARK 923 INTER-LIGAND FREE ENERGY PREDICTED BY IDOCK:   -7.65 KCAL/MOL
REMARK 924 INTRA-LIGAND FREE ENERGY PREDICTED BY IDOCK:   -1.28 KCAL/MOL
REMARK 927      BINDING AFFINITY PREDICTED BY RF-SCORE:    0.00 PKD
ROOT
HETATM    1  N   UNL     1      -8.549   9.897  65.660  1.00  0.00    -0.140 N  
HETATM    2  C   UNL     1      -9.462  10.014  66.677  1.00  0.00    -0.171 C  
HETATM    3  H1  UNL     1      -7.722  10.489  65.731  1.00  0.00     0.000 HD 
HETATM    4  H2  UNL     1      -8.689   9.256  64.878  1.00  0.00     0.000 HD 
HETATM    5  O   UNL     1     -10.456   9.302  66.591  1.00  0.00    -0.237 OA 
ENDROOT
BRANCH   2   6
HETATM    6  C   UNL     1      -9.112  10.979  67.890  1.00  0.00    -0.147 C  
BRANCH   6   7
HETATM    7  C   UNL     1      -9.800  12.388  67.606  1.00  0.00    -0.198 A  
HETATM    8  C   UNL     1     -11.210  14.812  67.105  1.00  0.00    -0.346 A  
HETATM    9  C   UNL     1     -10.885  13.963  66.057  1.00  0.00    -0.290 A  
HETATM   10  C   UNL     1     -10.791  14.497  68.390  1.00  0.00    -0.250 A  
HETATM   11  C   UNL     1     -10.174  12.781  66.300  1.00  0.00    -0.264 A  
HETATM   12  C   UNL     1     -10.090  13.309  68.633  1.00  0.00    -0.151 A  
ENDBRANCH   6   7
BRANCH   6  13
HETATM   13  C   UNL     1      -9.659  10.346  69.223  1.00  0.00    -0.226 A  
HETATM   14  C   UNL     1      -8.863   9.445  69.972  1.00  0.00    -0.231 A  
HETATM   15  C   UNL     1      -9.352   8.803  71.115  1.00  0.00    -0.297 A  
HETATM   16  C   UNL     1     -10.639   9.060  71.564  1.00  0.00    -0.415 A  
HETATM   17  C   UNL     1     -10.938  10.620  69.731  1.00  0.00    -0.340 A  
HETATM   18  C   UNL     1     -11.432   9.981  70.877  1.00  0.00    -0.452 A  
ENDBRANCH   6  13
BRANCH   6  19
HETATM   19  C   UNL     1      -7.526  11.189  68.017  1.00  0.00    -0.094 C  
HETATM   20  C   UNL     1      -6.644  13.053  69.342  1.00  0.00    -0.063 C  
HETATM   21  N   UNL     1      -6.320  13.332  67.945  1.00  0.00    -0.128 NA 
HETATM   22  C   UNL     1      -6.815  12.218  67.121  1.00  0.00    -0.101 C  
HETATM   23  C   UNL     1      -6.990  11.574  69.407  1.00  0.00    -0.071 C  
BRANCH  21  24
HETATM   24  C   UNL     1      -6.803  14.639  67.462  1.00  0.00    -0.149 C  
BRANCH  24  25
HETATM   25  C   UNL     1      -6.447  15.831  68.369  1.00  0.00    -0.113 C  
BRANCH  25  26
HETATM   26  C   UNL     1      -7.206  17.088  67.982  1.00  0.00    -0.172 A  
HETATM   27  C   UNL     1      -8.330  17.002  67.150  1.00  0.00    -0.213 A  
HETATM   28  C   UNL     1      -9.022  18.163  66.836  1.00  0.00    -0.275 A  
HETATM   29  C   UNL     1      -8.620  19.384  67.342  1.00  0.00    -0.297 A  
HETATM   30  O   UNL     1      -9.420  20.431  66.969  1.00  0.00    -0.399 OA 
HETATM   31  C   UNL     1      -7.519  19.508  68.160  1.00  0.00    -0.335 A  
HETATM   32  C   UNL     1      -6.801  18.347  68.477  1.00  0.00    -0.263 A  
HETATM   33  C   UNL     1     -10.361  19.860  66.031  1.00  0.00    -0.486 C  
HETATM   34  C   UNL     1     -10.222  18.337  65.997  1.00  0.00    -0.334 C  
ENDBRANCH  25  26
ENDBRANCH  24  25
ENDBRANCH  21  24
ENDBRANCH   6  19
ENDBRANCH   2   6
TORSDOF 7
ENDMDL
MODEL      112
REMARK 921   NORMALIZED FREE ENERGY PREDICTED BY IDOCK:   -5.06 KCAL/MOL
REMARK 922        TOTAL FREE ENERGY PREDICTED BY IDOCK:   -8.91 KCAL/MOL
REMARK 923 INTER-LIGAND FREE ENERGY PREDICTED BY IDOCK:   -7.02 KCAL/MOL
REMARK 924 INTRA-LIGAND FREE ENERGY PREDICTED BY IDOCK:   -1.88 KCAL/MOL
REMARK 927      BINDING AFFINITY PREDICTED BY RF-SCORE:    0.00 PKD
ROOT
HETATM    1  N   UNL     1     -10.871  15.835  66.933  1.00  0.00    -0.301 N  
HETATM    2  C   UNL     1     -11.385  14.564  66.876  1.00  0.00    -0.348 C  
HETATM    3  H1  UNL     1      -9.920  15.917  67.292  1.00  0.00     0.000 HD 
HETATM    4  H2  UNL     1     -11.407  16.649  66.633  1.00  0.00     0.000 HD 
HETATM    5  O   UNL     1     -12.527  14.466  66.445  1.00  0.00    -0.389 OA 
ENDROOT
BRANCH   2   6
HETATM    6  C   UNL     1     -10.439  13.355  67.288  1.00  0.00    -0.248 C  
BRANCH   6   7
HETATM    7  C   UNL     1     -11.161  12.548  68.457  1.00  0.00    -0.322 A  
HETATM    8  C   UNL     1     -12.274  11.093  70.638  1.00  0.00    -0.492 A  
HETATM    9  C   UNL     1     -11.678  10.420  69.582  1.00  0.00    -0.283 A  
HETATM   10  C   UNL     1     -12.375  12.476  70.594  1.00  0.00    -0.369 A  
HETATM   11  C   UNL     1     -11.149  11.135  68.499  1.00  0.00    -0.298 A  
HETATM   12  C   UNL     1     -11.835  13.189  69.516  1.00  0.00    -0.383 A  
ENDBRANCH   6   7
BRANCH   6  13
HETATM   13  C   UNL     1     -10.207  12.436  66.032  1.00  0.00    -0.267 A  
HETATM   14  C   UNL     1     -10.305  12.967  64.723  1.00  0.00    -0.345 A  
HETATM   15  C   UNL     1     -10.186  12.158  63.587  1.00  0.00    -0.459 A  
HETATM   16  C   UNL     1      -9.936  10.800  63.719  1.00  0.00    -0.411 A  
HETATM   17  C   UNL     1      -9.906  11.068  66.130  1.00  0.00    -0.268 A  
HETATM   18  C   UNL     1      -9.783  10.254  64.995  1.00  0.00    -0.370 A  
ENDBRANCH   6  13
BRANCH   6  19
HETATM   19  C   UNL     1      -9.023  13.890  67.821  1.00  0.00    -0.188 C  
HETATM   20  C   UNL     1      -6.971  12.670  67.266  1.00  0.00    -0.100 C  
HETATM   21  N   UNL     1      -7.178  12.523  68.704  1.00  0.00    -0.102 NA 
HETATM   22  C   UNL     1      -8.392  13.266  69.077  1.00  0.00     0.379 C  
HETATM   23  C   UNL     1      -7.847  13.833  66.830  1.00  0.00     0.283 C  
BRANCH  21  24
HETATM   24  C   UNL     1      -7.216  11.125  69.170  1.00  0.00    -0.123 C  
BRANCH  24  25
HETATM   25  C   UNL     1      -6.972  10.074  68.071  1.00  0.00    -0.080 C  
BRANCH  25  26
HETATM   26  C   UNL     1      -7.908   8.886  68.202  1.00  0.00    -0.101 A  
HETATM   27  C   UNL     1      -8.640   8.694  69.381  1.00  0.00    -0.127 A  
HETATM   28  C   UNL     1      -9.509   7.615  69.462  1.00  0.00    -0.152 A  
HETATM   29  C   UNL     1      -9.663   6.749  68.397  1.00  0.00    -0.128 A  
HETATM   30  O   UNL     1     -10.577   5.754  68.617  1.00  0.00    -0.223 OA 
HETATM   31  C   UNL     1      -8.959   6.904  67.223  1.00  0.00    -0.118 A  
HETATM   32  C   UNL     1      -8.067   7.981  67.129  1.00  0.00    -0.117 A  
HETATM   33  C   UNL     1     -10.968   5.912  70.000  1.00  0.00    -0.360 C  
HETATM   34  C   UNL     1     -10.383   7.203  70.576  1.00  0.00    -0.215 C  
ENDBRANCH  25  26
ENDBRANCH  24  25
ENDBRANCH  21  24
ENDBRANCH   6  19
ENDBRANCH   2   6
TORSDOF 7
ENDMDL
MODEL      113
REMARK 921   NORMALIZED FREE ENERGY PREDICTED BY IDOCK:   -5.05 KCAL/MOL
REMARK 922        TOTAL FREE ENERGY PREDICTED BY IDOCK:   -8.89 KCAL/MOL
REMARK 923 INTER-LIGAND FREE ENERGY PREDICTED BY IDOCK:   -8.55 KCAL/MOL
REMARK 924 INTRA-LIGAND FREE ENERGY PREDICTED BY IDOCK:   -0.35 KCAL/MOL
REMARK 927      BINDING AFFINITY PREDICTED BY RF-SCORE:    0.00 PKD
ROOT
HETATM    1  N   UNL     1     -13.031  13.520  65.500  1.00  0.00    -0.583 N  
HETATM    2  C   UNL     1     -11.873  12.834  65.241  1.00  0.00    -0.403 C  
HETATM    3  H1  UNL     1     -13.051  14.052  66.370  1.00  0.00     0.000 HD 
HETATM    4  H2  UNL     1     -13.826  13.501  64.861  1.00  0.00     0.000 HD 
HETATM    5  O   UNL     1     -11.849  12.194  64.195  1.00  0.00    -0.373 OA 
ENDROOT
BRANCH   2   6
HETATM    6  C   UNL     1     -10.662  12.996  66.258  1.00  0.00    -0.290 C  
BRANCH   6   7
HETATM    7  C   UNL     1     -10.122  14.490  66.139  1.00  0.00    -0.319 A  
HETATM    8  C   UNL     1      -9.253  17.202  66.096  1.00  0.00    -0.216 A  
HETATM    9  C   UNL     1     -10.486  16.855  65.565  1.00  0.00    -0.220 A  
HETATM   10  C   UNL     1      -8.423  16.208  66.595  1.00  0.00    -0.315 A  
HETATM   11  C   UNL     1     -10.905  15.518  65.567  1.00  0.00    -0.372 A  
HETATM   12  C   UNL     1      -8.849  14.873  66.607  1.00  0.00    -0.287 A  
ENDBRANCH   6   7
BRANCH   6  13
HETATM   13  C   UNL     1     -11.176  12.700  67.717  1.00  0.00    -0.319 A  
HETATM   14  C   UNL     1     -11.849  11.489  68.012  1.00  0.00    -0.287 A  
HETATM   15  C   UNL     1     -12.390  11.235  69.277  1.00  0.00    -0.172 A  
HETATM   16  C   UNL     1     -12.251  12.165  70.296  1.00  0.00    -0.344 A  
HETATM   17  C   UNL     1     -11.012  13.599  68.782  1.00  0.00    -0.292 A  
HETATM   18  C   UNL     1     -11.550  13.347  70.052  1.00  0.00    -0.219 A  
ENDBRANCH   6  13
BRANCH   6  19
HETATM   19  C   UNL     1      -9.473  11.979  65.901  1.00  0.00    -0.207 C  
HETATM   20  C   UNL     1      -9.785   9.571  66.231  1.00  0.00    -0.245 C  
HETATM   21  N   UNL     1      -8.788  10.009  67.205  1.00  0.00    -0.135 NA 
HETATM   22  C   UNL     1      -8.557  11.450  67.018  1.00  0.00    -0.157 C  
HETATM   23  C   UNL     1      -9.870  10.674  65.189  1.00  0.00    -0.344 C  
BRANCH  21  24
HETATM   24  C   UNL     1      -9.119   9.674  68.602  1.00  0.00    -0.132 C  
BRANCH  24  25
HETATM   25  C   UNL     1     -10.053   8.461  68.769  1.00  0.00    -0.209 C  
BRANCH  25  26
HETATM   26  C   UNL     1     -10.238   8.081  70.227  1.00  0.00    -0.200 A  
HETATM   27  C   UNL     1      -9.181   7.501  70.941  1.00  0.00    -0.153 A  
HETATM   28  C   UNL     1      -9.369   7.189  72.280  1.00  0.00    -0.157 A  
HETATM   29  C   UNL     1     -10.571   7.455  72.906  1.00  0.00    -0.321 A  
HETATM   30  O   UNL     1     -10.592   7.122  74.234  1.00  0.00    -0.206 OA 
HETATM   31  C   UNL     1     -11.632   8.023  72.236  1.00  0.00    -0.424 A  
HETATM   32  C   UNL     1     -11.464   8.331  70.880  1.00  0.00    -0.296 A  
HETATM   33  C   UNL     1      -9.327   6.462  74.469  1.00  0.00    -0.222 C  
HETATM   34  C   UNL     1      -8.425   6.585  73.239  1.00  0.00    -0.125 C  
ENDBRANCH  25  26
ENDBRANCH  24  25
ENDBRANCH  21  24
ENDBRANCH   6  19
ENDBRANCH   2   6
TORSDOF 7
ENDMDL
MODEL      114
REMARK 921   NORMALIZED FREE ENERGY PREDICTED BY IDOCK:   -5.05 KCAL/MOL
REMARK 922        TOTAL FREE ENERGY PREDICTED BY IDOCK:   -8.89 KCAL/MOL
REMARK 923 INTER-LIGAND FREE ENERGY PREDICTED BY IDOCK:   -8.15 KCAL/MOL
REMARK 924 INTRA-LIGAND FREE ENERGY PREDICTED BY IDOCK:   -0.74 KCAL/MOL
REMARK 927      BINDING AFFINITY PREDICTED BY RF-SCORE:    0.00 PKD
ROOT
HETATM    1  N   UNL     1      -8.595  12.269  66.323  1.00  0.00    -0.405 N  
HETATM    2  C   UNL     1      -9.195  12.186  67.553  1.00  0.00    -0.182 C  
HETATM    3  H1  UNL     1      -9.209  12.491  65.540  1.00  0.00     0.000 HD 
HETATM    4  H2  UNL     1      -7.594  12.117  66.198  1.00  0.00     0.000 HD 
HETATM    5  O   UNL     1      -8.456  11.918  68.494  1.00  0.00    -0.159 OA 
ENDROOT
BRANCH   2   6
HETATM    6  C   UNL     1     -10.745  12.520  67.655  1.00  0.00    -0.242 C  
BRANCH   6   7
HETATM    7  C   UNL     1     -10.907  13.802  68.586  1.00  0.00    -0.280 A  
HETATM    8  C   UNL     1     -11.212  16.206  70.085  1.00  0.00    -0.374 A  
HETATM    9  C   UNL     1      -9.960  15.821  69.628  1.00  0.00    -0.284 A  
HETATM   10  C   UNL     1     -12.303  15.380  69.855  1.00  0.00    -0.324 A  
HETATM   11  C   UNL     1      -9.806  14.629  68.909  1.00  0.00    -0.211 A  
HETATM   12  C   UNL     1     -12.149  14.194  69.126  1.00  0.00    -0.362 A  
ENDBRANCH   6   7
BRANCH   6  13
HETATM   13  C   UNL     1     -11.304  12.802  66.210  1.00  0.00    -0.365 A  
HETATM   14  C   UNL     1     -11.318  11.779  65.231  1.00  0.00    -0.284 A  
HETATM   15  C   UNL     1     -11.731  12.021  63.916  1.00  0.00    -0.537 A  
HETATM   16  C   UNL     1     -12.170  13.283  63.543  1.00  0.00    -0.513 A  
HETATM   17  C   UNL     1     -11.800  14.054  65.813  1.00  0.00    -0.393 A  
HETATM   18  C   UNL     1     -12.217  14.301  64.497  1.00  0.00    -0.476 A  
ENDBRANCH   6  13
BRANCH   6  19
HETATM   19  C   UNL     1     -11.555  11.296  68.305  1.00  0.00    -0.370 C  
HETATM   20  C   UNL     1     -10.678  10.175  70.299  1.00  0.00    -0.293 C  
HETATM   21  N   UNL     1     -10.597   9.216  69.201  1.00  0.00    -0.223 NA 
HETATM   22  C   UNL     1     -11.140   9.849  67.989  1.00  0.00    -0.158 C  
HETATM   23  C   UNL     1     -11.637  11.261  69.840  1.00  0.00    -0.413 C  
BRANCH  21  24
HETATM   24  C   UNL     1      -9.249   8.659  68.982  1.00  0.00    -0.145 C  
BRANCH  24  25
HETATM   25  C   UNL     1      -9.226   7.188  68.529  1.00  0.00    -0.134 C  
BRANCH  25  26
HETATM   26  C   UNL     1      -8.626   7.027  67.144  1.00  0.00    -0.121 A  
HETATM   27  C   UNL     1      -8.755   8.053  66.199  1.00  0.00    -0.177 A  
HETATM   28  C   UNL     1      -8.171   7.891  64.950  1.00  0.00    -0.128 A  
HETATM   29  C   UNL     1      -7.464   6.745  64.643  1.00  0.00    -0.097 A  
HETATM   30  O   UNL     1      -6.922   6.746  63.386  1.00  0.00    -0.051 OA 
HETATM   31  C   UNL     1      -7.318   5.715  65.546  1.00  0.00    -0.073 A  
HETATM   32  C   UNL     1      -7.912   5.856  66.807  1.00  0.00    -0.102 A  
HETATM   33  C   UNL     1      -7.425   7.953  62.768  1.00  0.00    -0.109 C  
HETATM   34  C   UNL     1      -8.160   8.813  63.799  1.00  0.00    -0.165 C  
ENDBRANCH  25  26
ENDBRANCH  24  25
ENDBRANCH  21  24
ENDBRANCH   6  19
ENDBRANCH   2   6
TORSDOF 7
ENDMDL
MODEL      115
REMARK 921   NORMALIZED FREE ENERGY PREDICTED BY IDOCK:   -5.03 KCAL/MOL
REMARK 922        TOTAL FREE ENERGY PREDICTED BY IDOCK:   -8.87 KCAL/MOL
REMARK 923 INTER-LIGAND FREE ENERGY PREDICTED BY IDOCK:   -7.63 KCAL/MOL
REMARK 924 INTRA-LIGAND FREE ENERGY PREDICTED BY IDOCK:   -1.24 KCAL/MOL
REMARK 927      BINDING AFFINITY PREDICTED BY RF-SCORE:    0.00 PKD
ROOT
HETATM    1  N   UNL     1      -8.472   5.121  69.122  1.00  0.00    -0.090 N  
HETATM    2  C   UNL     1      -8.551   6.222  69.935  1.00  0.00    -0.134 C  
HETATM    3  H1  UNL     1      -8.900   5.213  68.202  1.00  0.00     0.000 HD 
HETATM    4  H2  UNL     1      -8.012   4.260  69.421  1.00  0.00     0.000 HD 
HETATM    5  O   UNL     1      -8.037   6.112  71.042  1.00  0.00    -0.117 OA 
ENDROOT
BRANCH   2   6
HETATM    6  C   UNL     1      -9.215   7.541  69.347  1.00  0.00    -0.149 C  
BRANCH   6   7
HETATM    7  C   UNL     1     -10.556   7.817  70.161  1.00  0.00    -0.237 A  
HETATM    8  C   UNL     1     -12.858   8.249  71.783  1.00  0.00    -0.362 A  
HETATM    9  C   UNL     1     -12.596   6.990  71.263  1.00  0.00    -0.418 A  
HETATM   10  C   UNL     1     -12.021   9.307  71.458  1.00  0.00    -0.439 A  
HETATM   11  C   UNL     1     -11.475   6.782  70.449  1.00  0.00    -0.419 A  
HETATM   12  C   UNL     1     -10.894   9.094  70.652  1.00  0.00    -0.321 A  
ENDBRANCH   6   7
BRANCH   6  13
HETATM   13  C   UNL     1      -8.205   8.738  69.507  1.00  0.00    -0.111 A  
HETATM   14  C   UNL     1      -8.645  10.076  69.361  1.00  0.00    -0.182 A  
HETATM   15  C   UNL     1      -7.757  11.156  69.415  1.00  0.00     0.026 A  
HETATM   16  C   UNL     1      -6.406  10.938  69.647  1.00  0.00    -0.100 A  
HETATM   17  C   UNL     1      -6.842   8.556  69.788  1.00  0.00    -0.043 A  
HETATM   18  C   UNL     1      -5.948   9.635  69.846  1.00  0.00    -0.041 A  
ENDBRANCH   6  13
BRANCH   6  19
HETATM   19  C   UNL     1      -9.575   7.358  67.793  1.00  0.00    -0.162 C  
HETATM   20  C   UNL     1      -8.344   8.628  66.098  1.00  0.00    -0.125 C  
HETATM   21  N   UNL     1      -9.713   9.138  66.101  1.00  0.00    -0.270 NA 
HETATM   22  C   UNL     1     -10.489   8.378  67.094  1.00  0.00    -0.310 C  
HETATM   23  C   UNL     1      -8.391   7.289  66.814  1.00  0.00    -0.119 C  
BRANCH  21  24
HETATM   24  C   UNL     1      -9.815  10.594  66.310  1.00  0.00    -0.214 C  
BRANCH  24  25
HETATM   25  C   UNL     1     -11.241  11.162  66.190  1.00  0.00    -0.059 C  
BRANCH  25  26
HETATM   26  C   UNL     1     -11.504  12.261  67.203  1.00  0.00    -0.419 A  
HETATM   27  C   UNL     1     -11.781  11.936  68.538  1.00  0.00    -0.388 A  
HETATM   28  C   UNL     1     -11.988  12.961  69.449  1.00  0.00    -0.327 A  
HETATM   29  C   UNL     1     -11.913  14.283  69.055  1.00  0.00    -0.325 A  
HETATM   30  O   UNL     1     -12.110  15.179  70.071  1.00  0.00    -0.308 OA 
HETATM   31  C   UNL     1     -11.646  14.642  67.752  1.00  0.00    -0.382 A  
HETATM   32  C   UNL     1     -11.446  13.618  66.816  1.00  0.00    -0.370 A  
HETATM   33  C   UNL     1     -12.469  14.367  71.213  1.00  0.00    -0.352 C  
HETATM   34  C   UNL     1     -12.287  12.883  70.891  1.00  0.00    -0.365 C  
ENDBRANCH  25  26
ENDBRANCH  24  25
ENDBRANCH  21  24
ENDBRANCH   6  19
ENDBRANCH   2   6
TORSDOF 7
ENDMDL
MODEL      116
REMARK 921   NORMALIZED FREE ENERGY PREDICTED BY IDOCK:   -5.03 KCAL/MOL
REMARK 922        TOTAL FREE ENERGY PREDICTED BY IDOCK:   -8.86 KCAL/MOL
REMARK 923 INTER-LIGAND FREE ENERGY PREDICTED BY IDOCK:   -8.05 KCAL/MOL
REMARK 924 INTRA-LIGAND FREE ENERGY PREDICTED BY IDOCK:   -0.81 KCAL/MOL
REMARK 927      BINDING AFFINITY PREDICTED BY RF-SCORE:    0.00 PKD
ROOT
HETATM    1  N   UNL     1     -11.092   7.173  68.043  1.00  0.00    -0.505 N  
HETATM    2  C   UNL     1     -11.086   6.855  69.377  1.00  0.00    -0.206 C  
HETATM    3  H1  UNL     1     -10.238   7.594  67.680  1.00  0.00     0.000 HD 
HETATM    4  H2  UNL     1     -11.904   6.999  67.450  1.00  0.00     0.000 HD 
HETATM    5  O   UNL     1     -12.113   6.349  69.815  1.00  0.00    -0.111 OA 
ENDROOT
BRANCH   2   6
HETATM    6  C   UNL     1      -9.744   7.089  70.196  1.00  0.00    -0.176 C  
BRANCH   6   7
HETATM    7  C   UNL     1      -9.354   5.712  70.897  1.00  0.00    -0.190 A  
HETATM    8  C   UNL     1      -8.523   3.222  72.004  1.00  0.00    -0.090 A  
HETATM    9  C   UNL     1      -9.486   3.257  71.007  1.00  0.00    -0.228 A  
HETATM   10  C   UNL     1      -8.011   4.414  72.497  1.00  0.00    -0.093 A  
HETATM   11  C   UNL     1      -9.910   4.482  70.476  1.00  0.00    -0.297 A  
HETATM   12  C   UNL     1      -8.428   5.638  71.958  1.00  0.00    -0.126 A  
ENDBRANCH   6   7
BRANCH   6  13
HETATM   13  C   UNL     1      -8.613   7.553  69.204  1.00  0.00    -0.136 A  
HETATM   14  C   UNL     1      -8.270   6.761  68.081  1.00  0.00    -0.114 A  
HETATM   15  C   UNL     1      -7.215   7.105  67.230  1.00  0.00    -0.086 A  
HETATM   16  C   UNL     1      -6.487   8.265  67.453  1.00  0.00    -0.058 A  
HETATM   17  C   UNL     1      -7.888   8.743  69.374  1.00  0.00    -0.095 A  
HETATM   18  C   UNL     1      -6.832   9.094  68.521  1.00  0.00    -0.063 A  
ENDBRANCH   6  13
BRANCH   6  19
HETATM   19  C   UNL     1      -9.949   8.210  71.325  1.00  0.00    -0.225 C  
HETATM   20  C   UNL     1     -12.209   8.956  71.908  1.00  0.00    -0.374 C  
HETATM   21  N   UNL     1     -11.542  10.083  71.260  1.00  0.00    -0.370 NA 
HETATM   22  C   UNL     1     -10.170   9.677  70.917  1.00  0.00    -0.232 C  
HETATM   23  C   UNL     1     -11.107   7.991  72.314  1.00  0.00    -0.393 C  
BRANCH  21  24
HETATM   24  C   UNL     1     -12.269  10.627  70.097  1.00  0.00    -0.320 C  
BRANCH  24  25
HETATM   25  C   UNL     1     -11.615  11.863  69.452  1.00  0.00    -0.388 C  
BRANCH  25  26
HETATM   26  C   UNL     1     -11.308  11.644  67.982  1.00  0.00    -0.366 A  
HETATM   27  C   UNL     1     -11.853  12.499  67.015  1.00  0.00    -0.394 A  
HETATM   28  C   UNL     1     -11.532  12.292  65.681  1.00  0.00    -0.416 A  
HETATM   29  C   UNL     1     -10.681  11.270  65.308  1.00  0.00    -0.237 A  
HETATM   30  O   UNL     1     -10.435  11.213  63.963  1.00  0.00    -0.339 OA 
HETATM   31  C   UNL     1     -10.128  10.408  66.231  1.00  0.00    -0.292 A  
HETATM   32  C   UNL     1     -10.452  10.595  67.581  1.00  0.00    -0.267 A  
HETATM   33  C   UNL     1     -11.304  12.215  63.387  1.00  0.00    -0.411 C  
HETATM   34  C   UNL     1     -11.965  13.045  64.489  1.00  0.00    -0.450 C  
ENDBRANCH  25  26
ENDBRANCH  24  25
ENDBRANCH  21  24
ENDBRANCH   6  19
ENDBRANCH   2   6
TORSDOF 7
ENDMDL
MODEL      117
REMARK 921   NORMALIZED FREE ENERGY PREDICTED BY IDOCK:   -5.02 KCAL/MOL
REMARK 922        TOTAL FREE ENERGY PREDICTED BY IDOCK:   -8.85 KCAL/MOL
REMARK 923 INTER-LIGAND FREE ENERGY PREDICTED BY IDOCK:   -6.80 KCAL/MOL
REMARK 924 INTRA-LIGAND FREE ENERGY PREDICTED BY IDOCK:   -2.05 KCAL/MOL
REMARK 927      BINDING AFFINITY PREDICTED BY RF-SCORE:    0.00 PKD
ROOT
HETATM    1  N   UNL     1      -7.447   2.762  69.286  1.00  0.00    -0.044 N  
HETATM    2  C   UNL     1      -8.620   3.462  69.170  1.00  0.00    -0.071 C  
HETATM    3  H1  UNL     1      -6.678   3.250  69.744  1.00  0.00     0.000 HD 
HETATM    4  H2  UNL     1      -7.349   1.808  68.936  1.00  0.00     0.000 HD 
HETATM    5  O   UNL     1      -9.544   2.875  68.619  1.00  0.00    -0.161 OA 
ENDROOT
BRANCH   2   6
HETATM    6  C   UNL     1      -8.696   4.910  69.821  1.00  0.00    -0.110 C  
BRANCH   6   7
HETATM    7  C   UNL     1      -9.227   5.918  68.708  1.00  0.00    -0.120 A  
HETATM    8  C   UNL     1     -10.146   7.576  66.581  1.00  0.00    -0.263 A  
HETATM    9  C   UNL     1      -8.790   7.482  66.857  1.00  0.00    -0.145 A  
HETATM   10  C   UNL     1     -11.053   6.902  67.387  1.00  0.00    -0.322 A  
HETATM   11  C   UNL     1      -8.339   6.682  67.916  1.00  0.00    -0.119 A  
HETATM   12  C   UNL     1     -10.599   6.094  68.438  1.00  0.00    -0.324 A  
ENDBRANCH   6   7
BRANCH   6  13
HETATM   13  C   UNL     1      -9.677   4.866  71.052  1.00  0.00    -0.252 A  
HETATM   14  C   UNL     1      -9.698   3.745  71.917  1.00  0.00    -0.237 A  
HETATM   15  C   UNL     1     -10.615   3.642  72.969  1.00  0.00    -0.252 A  
HETATM   16  C   UNL     1     -11.520   4.665  73.210  1.00  0.00    -0.346 A  
HETATM   17  C   UNL     1     -10.572   5.905  71.353  1.00  0.00    -0.309 A  
HETATM   18  C   UNL     1     -11.491   5.807  72.408  1.00  0.00    -0.343 A  
ENDBRANCH   6  13
BRANCH   6  19
HETATM   19  C   UNL     1      -7.248   5.393  70.317  1.00  0.00    -0.066 C  
HETATM   20  C   UNL     1      -7.052   6.850  72.277  1.00  0.00    -0.073 C  
HETATM   21  N   UNL     1      -6.647   7.640  71.117  1.00  0.00    -0.038 NA 
HETATM   22  C   UNL     1      -6.728   6.786  69.921  1.00  0.00    -0.049 C  
HETATM   23  C   UNL     1      -7.004   5.397  71.836  1.00  0.00    -0.075 C  
BRANCH  21  24
HETATM   24  C   UNL     1      -7.393   8.901  70.952  1.00  0.00    -0.097 C  
BRANCH  24  25
HETATM   25  C   UNL     1      -8.876   8.828  71.360  1.00  0.00    -0.292 C  
BRANCH  25  26
HETATM   26  C   UNL     1      -9.771   9.578  70.390  1.00  0.00    -0.328 A  
HETATM   27  C   UNL     1      -9.220  10.199  69.261  1.00  0.00    -0.220 A  
HETATM   28  C   UNL     1     -10.065  10.852  68.376  1.00  0.00    -0.196 A  
HETATM   29  C   UNL     1     -11.429  10.884  68.593  1.00  0.00    -0.311 A  
HETATM   30  O   UNL     1     -12.132  11.538  67.617  1.00  0.00    -0.623 OA 
HETATM   31  C   UNL     1     -12.006  10.287  69.691  1.00  0.00    -0.130 A  
HETATM   32  C   UNL     1     -11.166   9.633  70.603  1.00  0.00    -0.385 A  
HETATM   33  C   UNL     1     -11.121  12.094  66.744  1.00  0.00    -0.300 C  
HETATM   34  C   UNL     1      -9.737  11.570  67.130  1.00  0.00    -0.199 C  
ENDBRANCH  25  26
ENDBRANCH  24  25
ENDBRANCH  21  24
ENDBRANCH   6  19
ENDBRANCH   2   6
TORSDOF 7
ENDMDL
MODEL      118
REMARK 921   NORMALIZED FREE ENERGY PREDICTED BY IDOCK:   -5.01 KCAL/MOL
REMARK 922        TOTAL FREE ENERGY PREDICTED BY IDOCK:   -8.84 KCAL/MOL
REMARK 923 INTER-LIGAND FREE ENERGY PREDICTED BY IDOCK:   -6.75 KCAL/MOL
REMARK 924 INTRA-LIGAND FREE ENERGY PREDICTED BY IDOCK:   -2.10 KCAL/MOL
REMARK 927      BINDING AFFINITY PREDICTED BY RF-SCORE:    0.00 PKD
ROOT
HETATM    1  N   UNL     1      -7.485   1.742  68.963  1.00  0.00    -0.043 N  
HETATM    2  C   UNL     1      -8.672   2.396  69.179  1.00  0.00    -0.082 C  
HETATM    3  H1  UNL     1      -6.660   2.160  69.391  1.00  0.00     0.000 HD 
HETATM    4  H2  UNL     1      -7.432   0.889  68.407  1.00  0.00     0.000 HD 
HETATM    5  O   UNL     1      -9.664   1.893  68.663  1.00  0.00    -0.137 OA 
ENDROOT
BRANCH   2   6
HETATM    6  C   UNL     1      -8.663   3.671  70.128  1.00  0.00    -0.122 C  
BRANCH   6   7
HETATM    7  C   UNL     1      -9.247   4.900  69.299  1.00  0.00    -0.160 A  
HETATM    8  C   UNL     1     -10.229   7.217  67.966  1.00  0.00    -0.225 A  
HETATM    9  C   UNL     1     -11.009   6.574  68.915  1.00  0.00    -0.376 A  
HETATM   10  C   UNL     1      -8.992   6.688  67.630  1.00  0.00    -0.111 A  
HETATM   11  C   UNL     1     -10.535   5.423  69.557  1.00  0.00    -0.343 A  
HETATM   12  C   UNL     1      -8.514   5.542  68.280  1.00  0.00    -0.097 A  
ENDBRANCH   6   7
BRANCH   6  13
HETATM   13  C   UNL     1      -9.552   3.374  71.392  1.00  0.00    -0.236 A  
HETATM   14  C   UNL     1     -10.160   4.433  72.110  1.00  0.00    -0.262 A  
HETATM   15  C   UNL     1     -10.886   4.207  73.284  1.00  0.00    -0.315 A  
HETATM   16  C   UNL     1     -11.055   2.916  73.765  1.00  0.00    -0.302 A  
HETATM   17  C   UNL     1      -9.782   2.077  71.878  1.00  0.00    -0.205 A  
HETATM   18  C   UNL     1     -10.511   1.846  73.053  1.00  0.00    -0.223 A  
ENDBRANCH   6  13
BRANCH   6  19
HETATM   19  C   UNL     1      -7.170   4.022  70.602  1.00  0.00    -0.038 C  
HETATM   20  C   UNL     1      -6.806   5.162  72.740  1.00  0.00    -0.076 C  
HETATM   21  N   UNL     1      -6.429   6.101  71.687  1.00  0.00    -0.049 NA 
HETATM   22  C   UNL     1      -6.612   5.439  70.386  1.00  0.00    -0.039 C  
HETATM   23  C   UNL     1      -6.846   3.790  72.088  1.00  0.00    -0.026 C  
BRANCH  21  24
HETATM   24  C   UNL     1      -7.127   7.398  71.755  1.00  0.00    -0.063 C  
BRANCH  24  25
HETATM   25  C   UNL     1      -8.378   7.410  72.653  1.00  0.00    -0.131 C  
BRANCH  25  26
HETATM   26  C   UNL     1      -9.508   8.220  72.045  1.00  0.00    -0.304 A  
HETATM   27  C   UNL     1     -10.810   8.097  72.548  1.00  0.00    -0.431 A  
HETATM   28  C   UNL     1     -11.819   8.871  71.992  1.00  0.00    -0.438 A  
HETATM   29  C   UNL     1     -11.548   9.757  70.967  1.00  0.00    -0.376 A  
HETATM   30  O   UNL     1     -12.638  10.470  70.546  1.00  0.00    -0.331 OA 
HETATM   31  C   UNL     1     -10.282   9.902  70.445  1.00  0.00    -0.299 A  
HETATM   32  C   UNL     1      -9.253   9.119  70.987  1.00  0.00    -0.321 A  
HETATM   33  C   UNL     1     -13.751   9.910  71.280  1.00  0.00    -0.106 C  
HETATM   34  C   UNL     1     -13.250   8.929  72.342  1.00  0.00    -0.482 C  
ENDBRANCH  25  26
ENDBRANCH  24  25
ENDBRANCH  21  24
ENDBRANCH   6  19
ENDBRANCH   2   6
TORSDOF 7
ENDMDL
MODEL      119
REMARK 921   NORMALIZED FREE ENERGY PREDICTED BY IDOCK:   -5.01 KCAL/MOL
REMARK 922        TOTAL FREE ENERGY PREDICTED BY IDOCK:   -8.84 KCAL/MOL
REMARK 923 INTER-LIGAND FREE ENERGY PREDICTED BY IDOCK:   -8.56 KCAL/MOL
REMARK 924 INTRA-LIGAND FREE ENERGY PREDICTED BY IDOCK:   -0.28 KCAL/MOL
REMARK 927      BINDING AFFINITY PREDICTED BY RF-SCORE:    0.00 PKD
ROOT
HETATM    1  N   UNL     1     -11.399   9.827  67.518  1.00  0.00    -0.288 N  
HETATM    2  C   UNL     1     -11.120  10.926  68.289  1.00  0.00    -0.266 C  
HETATM    3  H1  UNL     1     -11.149   9.896  66.532  1.00  0.00     0.000 HD 
HETATM    4  H2  UNL     1     -11.831   8.989  67.908  1.00  0.00     0.000 HD 
HETATM    5  O   UNL     1     -11.420  10.843  69.474  1.00  0.00    -0.249 OA 
ENDROOT
BRANCH   2   6
HETATM    6  C   UNL     1     -10.371  12.150  67.605  1.00  0.00    -0.215 C  
BRANCH   6   7
HETATM    7  C   UNL     1     -10.917  12.284  66.114  1.00  0.00    -0.328 A  
HETATM    8  C   UNL     1     -11.948  12.330  63.459  1.00  0.00    -0.625 A  
HETATM    9  C   UNL     1     -10.653  11.892  63.698  1.00  0.00    -0.500 A  
HETATM   10  C   UNL     1     -12.714  12.798  64.516  1.00  0.00    -0.405 A  
HETATM   11  C   UNL     1     -10.139  11.889  65.001  1.00  0.00    -0.297 A  
HETATM   12  C   UNL     1     -12.201  12.784  65.820  1.00  0.00    -0.469 A  
ENDBRANCH   6   7
BRANCH   6  13
HETATM   13  C   UNL     1     -10.666  13.457  68.430  1.00  0.00    -0.271 A  
HETATM   14  C   UNL     1      -9.696  14.485  68.522  1.00  0.00    -0.224 A  
HETATM   15  C   UNL     1      -9.897  15.620  69.315  1.00  0.00    -0.269 A  
HETATM   16  C   UNL     1     -11.082  15.782  70.017  1.00  0.00    -0.348 A  
HETATM   17  C   UNL     1     -11.873  13.674  69.114  1.00  0.00    -0.394 A  
HETATM   18  C   UNL     1     -12.079  14.811  69.907  1.00  0.00    -0.381 A  
ENDBRANCH   6  13
BRANCH   6  19
HETATM   19  C   UNL     1      -8.786  11.900  67.560  1.00  0.00    -0.163 C  
HETATM   20  C   UNL     1      -7.917   9.643  67.161  1.00  0.00    -0.106 C  
HETATM   21  N   UNL     1      -7.574   9.995  68.537  1.00  0.00    -0.086 NA 
HETATM   22  C   UNL     1      -8.061  11.358  68.804  1.00  0.00    -0.112 C  
HETATM   23  C   UNL     1      -8.267  10.949  66.467  1.00  0.00    -0.157 C  
BRANCH  21  24
HETATM   24  C   UNL     1      -8.047   9.028  69.544  1.00  0.00    -0.105 C  
BRANCH  24  25
HETATM   25  C   UNL     1      -8.746   7.785  68.964  1.00  0.00    -0.135 C  
BRANCH  25  26
HETATM   26  C   UNL     1      -9.600   7.076  69.999  1.00  0.00    -0.164 A  
HETATM   27  C   UNL     1      -9.000   6.252  70.961  1.00  0.00    -0.143 A  
HETATM   28  C   UNL     1      -9.802   5.639  71.913  1.00  0.00    -0.203 A  
HETATM   29  C   UNL     1     -11.168   5.843  71.924  1.00  0.00    -0.264 A  
HETATM   30  O   UNL     1     -11.819   5.197  72.941  1.00  0.00    -0.256 OA 
HETATM   31  C   UNL     1     -11.794   6.643  70.993  1.00  0.00    -0.427 A  
HETATM   32  C   UNL     1     -11.000   7.259  70.017  1.00  0.00    -0.273 A  
HETATM   33  C   UNL     1     -10.798   4.397  73.581  1.00  0.00    -0.288 C  
HETATM   34  C   UNL     1      -9.418   4.742  73.019  1.00  0.00    -0.146 C  
ENDBRANCH  25  26
ENDBRANCH  24  25
ENDBRANCH  21  24
ENDBRANCH   6  19
ENDBRANCH   2   6
TORSDOF 7
ENDMDL
MODEL      120
REMARK 921   NORMALIZED FREE ENERGY PREDICTED BY IDOCK:   -4.99 KCAL/MOL
REMARK 922        TOTAL FREE ENERGY PREDICTED BY IDOCK:   -8.81 KCAL/MOL
REMARK 923 INTER-LIGAND FREE ENERGY PREDICTED BY IDOCK:   -7.40 KCAL/MOL
REMARK 924 INTRA-LIGAND FREE ENERGY PREDICTED BY IDOCK:   -1.41 KCAL/MOL
REMARK 927      BINDING AFFINITY PREDICTED BY RF-SCORE:    0.00 PKD
ROOT
HETATM    1  N   UNL     1     -12.346  14.870  68.053  1.00  0.00    -0.512 N  
HETATM    2  C   UNL     1     -11.972  14.081  66.996  1.00  0.00    -0.438 C  
HETATM    3  H1  UNL     1     -11.697  14.902  68.839  1.00  0.00     0.000 HD 
HETATM    4  H2  UNL     1     -13.222  15.394  68.054  1.00  0.00     0.000 HD 
HETATM    5  O   UNL     1     -12.752  14.042  66.051  1.00  0.00    -0.475 OA 
ENDROOT
BRANCH   2   6
HETATM    6  C   UNL     1     -10.551  13.371  67.057  1.00  0.00    -0.264 C  
BRANCH   6   7
HETATM    7  C   UNL     1      -9.477  14.466  67.489  1.00  0.00    -0.207 A  
HETATM    8  C   UNL     1      -7.709  16.554  68.282  1.00  0.00    -0.176 A  
HETATM    9  C   UNL     1      -8.090  16.427  66.954  1.00  0.00    -0.262 A  
HETATM   10  C   UNL     1      -8.151  15.621  69.209  1.00  0.00    -0.244 A  
HETATM   11  C   UNL     1      -8.943  15.388  66.561  1.00  0.00    -0.344 A  
HETATM   12  C   UNL     1      -9.014  14.589  68.815  1.00  0.00    -0.157 A  
ENDBRANCH   6   7
BRANCH   6  13
HETATM   13  C   UNL     1     -10.609  12.198  68.105  1.00  0.00    -0.236 A  
HETATM   14  C   UNL     1      -9.419  11.587  68.570  1.00  0.00    -0.175 A  
HETATM   15  C   UNL     1      -9.442  10.489  69.436  1.00  0.00    -0.158 A  
HETATM   16  C   UNL     1     -10.652   9.983  69.891  1.00  0.00    -0.324 A  
HETATM   17  C   UNL     1     -11.813  11.693  68.621  1.00  0.00    -0.370 A  
HETATM   18  C   UNL     1     -11.841  10.594  69.492  1.00  0.00    -0.345 A  
ENDBRANCH   6  13
BRANCH   6  19
HETATM   19  C   UNL     1     -10.143  12.778  65.622  1.00  0.00    -0.281 C  
HETATM   20  C   UNL     1     -10.660  10.446  65.074  1.00  0.00     0.065 C  
HETATM   21  N   UNL     1      -9.206  10.549  65.170  1.00  0.00    -0.191 NA 
HETATM   22  C   UNL     1      -8.858  11.946  65.474  1.00  0.00     0.276 C  
HETATM   23  C   UNL     1     -11.176  11.869  64.933  1.00  0.00    -0.350 C  
BRANCH  21  24
HETATM   24  C   UNL     1      -8.594   9.603  66.121  1.00  0.00    -0.127 C  
BRANCH  24  25
HETATM   25  C   UNL     1      -8.948   8.124  65.874  1.00  0.00    -0.195 C  
BRANCH  25  26
HETATM   26  C   UNL     1      -9.422   7.433  67.139  1.00  0.00    -0.187 A  
HETATM   27  C   UNL     1      -8.522   7.183  68.183  1.00  0.00    -0.123 A  
HETATM   28  C   UNL     1      -8.989   6.576  69.340  1.00  0.00    -0.132 A  
HETATM   29  C   UNL     1     -10.321   6.232  69.470  1.00  0.00    -0.212 A  
HETATM   30  O   UNL     1     -10.635   5.670  70.679  1.00  0.00    -0.256 OA 
HETATM   31  C   UNL     1     -11.234   6.460  68.465  1.00  0.00    -0.321 A  
HETATM   32  C   UNL     1     -10.776   7.061  67.284  1.00  0.00    -0.412 A  
HETATM   33  C   UNL     1      -9.366   5.520  71.356  1.00  0.00    -0.147 C  
HETATM   34  C   UNL     1      -8.254   6.213  70.566  1.00  0.00    -0.114 C  
ENDBRANCH  25  26
ENDBRANCH  24  25
ENDBRANCH  21  24
ENDBRANCH   6  19
ENDBRANCH   2   6
TORSDOF 7
ENDMDL
MODEL      121
REMARK 921   NORMALIZED FREE ENERGY PREDICTED BY IDOCK:   -4.97 KCAL/MOL
REMARK 922        TOTAL FREE ENERGY PREDICTED BY IDOCK:   -8.78 KCAL/MOL
REMARK 923 INTER-LIGAND FREE ENERGY PREDICTED BY IDOCK:   -8.59 KCAL/MOL
REMARK 924 INTRA-LIGAND FREE ENERGY PREDICTED BY IDOCK:   -0.19 KCAL/MOL
REMARK 927      BINDING AFFINITY PREDICTED BY RF-SCORE:    0.00 PKD
ROOT
HETATM    1  N   UNL     1     -10.898  14.700  69.288  1.00  0.00    -0.254 N  
HETATM    2  C   UNL     1     -10.503  15.844  68.642  1.00  0.00    -0.240 C  
HETATM    3  H1  UNL     1     -10.474  13.832  68.961  1.00  0.00     0.000 HD 
HETATM    4  H2  UNL     1     -11.575  14.716  70.051  1.00  0.00     0.000 HD 
HETATM    5  O   UNL     1     -11.012  16.886  69.036  1.00  0.00    -0.283 OA 
ENDROOT
BRANCH   2   6
HETATM    6  C   UNL     1      -9.381  15.722  67.523  1.00  0.00    -0.210 C  
BRANCH   6   7
HETATM    7  C   UNL     1      -9.089  17.186  66.964  1.00  0.00    -0.242 A  
HETATM    8  C   UNL     1      -8.546  19.863  66.155  1.00  0.00    -0.348 A  
HETATM    9  C   UNL     1      -9.835  19.486  66.506  1.00  0.00    -0.498 A  
HETATM   10  C   UNL     1      -7.538  18.910  66.147  1.00  0.00    -0.286 A  
HETATM   11  C   UNL     1     -10.106  18.165  66.884  1.00  0.00    -0.362 A  
HETATM   12  C   UNL     1      -7.809  17.591  66.536  1.00  0.00    -0.312 A  
ENDBRANCH   6   7
BRANCH   6  13
HETATM   13  C   UNL     1      -8.085  15.098  68.163  1.00  0.00    -0.137 A  
HETATM   14  C   UNL     1      -7.342  14.112  67.469  1.00  0.00    -0.193 A  
HETATM   15  C   UNL     1      -6.235  13.480  68.046  1.00  0.00    -0.136 A  
HETATM   16  C   UNL     1      -5.815  13.831  69.321  1.00  0.00    -0.087 A  
HETATM   17  C   UNL     1      -7.605  15.465  69.431  1.00  0.00    -0.224 A  
HETATM   18  C   UNL     1      -6.495  14.836  70.012  1.00  0.00    -0.169 A  
ENDBRANCH   6  13
BRANCH   6  19
HETATM   19  C   UNL     1      -9.874  14.790  66.314  1.00  0.00    -0.316 C  
HETATM   20  C   UNL     1     -12.162  13.911  66.306  1.00  0.00    -0.461 C  
HETATM   21  N   UNL     1     -11.268  12.771  66.495  1.00  0.00    -0.293 NA 
HETATM   22  C   UNL     1      -9.881  13.261  66.480  1.00  0.00    -0.281 C  
HETATM   23  C   UNL     1     -11.295  15.044  65.782  1.00  0.00    -0.279 C  
BRANCH  21  24
HETATM   24  C   UNL     1     -11.562  11.965  67.694  1.00  0.00    -0.312 C  
BRANCH  24  25
HETATM   25  C   UNL     1     -11.130  10.490  67.598  1.00  0.00    -0.375 C  
BRANCH  25  26
HETATM   26  C   UNL     1     -10.333  10.049  68.812  1.00  0.00    -0.216 A  
HETATM   27  C   UNL     1     -10.979   9.427  69.889  1.00  0.00    -0.251 A  
HETATM   28  C   UNL     1     -10.222   9.008  70.974  1.00  0.00    -0.347 A  
HETATM   29  C   UNL     1      -8.852   9.190  70.992  1.00  0.00    -0.202 A  
HETATM   30  O   UNL     1      -8.241   8.697  72.114  1.00  0.00    -0.285 OA 
HETATM   31  C   UNL     1      -8.183   9.800  69.954  1.00  0.00    -0.196 A  
HETATM   32  C   UNL     1      -8.935  10.240  68.856  1.00  0.00    -0.164 A  
HETATM   33  C   UNL     1      -9.327   8.264  72.965  1.00  0.00    -0.240 C  
HETATM   34  C   UNL     1     -10.656   8.334  72.211  1.00  0.00    -0.393 C  
ENDBRANCH  25  26
ENDBRANCH  24  25
ENDBRANCH  21  24
ENDBRANCH   6  19
ENDBRANCH   2   6
TORSDOF 7
ENDMDL
MODEL      122
REMARK 921   NORMALIZED FREE ENERGY PREDICTED BY IDOCK:   -4.95 KCAL/MOL
REMARK 922        TOTAL FREE ENERGY PREDICTED BY IDOCK:   -8.75 KCAL/MOL
REMARK 923 INTER-LIGAND FREE ENERGY PREDICTED BY IDOCK:   -8.82 KCAL/MOL
REMARK 924 INTRA-LIGAND FREE ENERGY PREDICTED BY IDOCK:    0.08 KCAL/MOL
REMARK 927      BINDING AFFINITY PREDICTED BY RF-SCORE:    0.00 PKD
ROOT
HETATM    1  N   UNL     1      -8.153  12.681  66.844  1.00  0.00    -0.381 N  
HETATM    2  C   UNL     1      -8.721  11.596  67.462  1.00  0.00    -0.156 C  
HETATM    3  H1  UNL     1      -8.445  12.851  65.883  1.00  0.00     0.000 HD 
HETATM    4  H2  UNL     1      -7.478  13.282  67.319  1.00  0.00     0.000 HD 
HETATM    5  O   UNL     1      -8.370  11.391  68.619  1.00  0.00    -0.153 OA 
ENDROOT
BRANCH   2   6
HETATM    6  C   UNL     1      -9.823  10.773  66.666  1.00  0.00    -0.241 C  
BRANCH   6   7
HETATM    7  C   UNL     1      -9.329  10.629  65.158  1.00  0.00    -0.254 A  
HETATM    8  C   UNL     1      -8.497  10.178  62.471  1.00  0.00    -0.180 A  
HETATM    9  C   UNL     1      -7.630   9.923  63.524  1.00  0.00    -0.143 A  
HETATM   10  C   UNL     1      -9.751  10.709  62.737  1.00  0.00    -0.279 A  
HETATM   11  C   UNL     1      -8.032  10.164  64.844  1.00  0.00    -0.150 A  
HETATM   12  C   UNL     1     -10.155  10.939  64.059  1.00  0.00    -0.419 A  
ENDBRANCH   6   7
BRANCH   6  13
HETATM   13  C   UNL     1      -9.991   9.359  67.338  1.00  0.00    -0.252 A  
HETATM   14  C   UNL     1      -9.821   9.201  68.736  1.00  0.00    -0.175 A  
HETATM   15  C   UNL     1      -9.881   7.945  69.349  1.00  0.00    -0.180 A  
HETATM   16  C   UNL     1     -10.143   6.811  68.595  1.00  0.00    -0.163 A  
HETATM   17  C   UNL     1     -10.302   8.199  66.612  1.00  0.00    -0.284 A  
HETATM   18  C   UNL     1     -10.366   6.939  67.223  1.00  0.00    -0.320 A  
ENDBRANCH   6  13
BRANCH   6  19
HETATM   19  C   UNL     1     -11.234  11.537  66.684  1.00  0.00    -0.336 C  
HETATM   20  C   UNL     1     -11.297  13.986  66.618  1.00  0.00    -0.335 C  
HETATM   21  N   UNL     1     -11.779  13.582  67.937  1.00  0.00    -0.337 NA 
HETATM   22  C   UNL     1     -11.778  12.112  68.002  1.00  0.00    -0.344 C  
HETATM   23  C   UNL     1     -11.376  12.746  65.743  1.00  0.00    -0.357 C  
BRANCH  21  24
HETATM   24  C   UNL     1     -11.044  14.191  69.061  1.00  0.00    -0.263 C  
BRANCH  24  25
HETATM   25  C   UNL     1     -11.364  15.676  69.310  1.00  0.00    -0.348 C  
BRANCH  25  26
HETATM   26  C   UNL     1     -10.194  16.578  68.961  1.00  0.00    -0.285 A  
HETATM   27  C   UNL     1     -10.423  17.836  68.387  1.00  0.00    -0.351 A  
HETATM   28  C   UNL     1      -9.336  18.651  68.104  1.00  0.00    -0.347 A  
HETATM   29  C   UNL     1      -8.049  18.239  68.392  1.00  0.00    -0.307 A  
HETATM   30  O   UNL     1      -7.087  19.164  68.085  1.00  0.00    -0.245 OA 
HETATM   31  C   UNL     1      -7.785  17.009  68.954  1.00  0.00    -0.231 A  
HETATM   32  C   UNL     1      -8.871  16.168  69.234  1.00  0.00    -0.195 A  
HETATM   33  C   UNL     1      -7.802  20.232  67.420  1.00  0.00    -0.326 C  
HETATM   34  C   UNL     1      -9.311  20.001  67.512  1.00  0.00    -0.485 C  
ENDBRANCH  25  26
ENDBRANCH  24  25
ENDBRANCH  21  24
ENDBRANCH   6  19
ENDBRANCH   2   6
TORSDOF 7
ENDMDL
MODEL      123
REMARK 921   NORMALIZED FREE ENERGY PREDICTED BY IDOCK:   -4.94 KCAL/MOL
REMARK 922        TOTAL FREE ENERGY PREDICTED BY IDOCK:   -8.74 KCAL/MOL
REMARK 923 INTER-LIGAND FREE ENERGY PREDICTED BY IDOCK:   -8.28 KCAL/MOL
REMARK 924 INTRA-LIGAND FREE ENERGY PREDICTED BY IDOCK:   -0.46 KCAL/MOL
REMARK 927      BINDING AFFINITY PREDICTED BY RF-SCORE:    0.00 PKD
ROOT
HETATM    1  N   UNL     1      -8.655  12.025  69.004  1.00  0.00    -0.344 N  
HETATM    2  C   UNL     1      -8.270  10.979  68.205  1.00  0.00    -0.130 C  
HETATM    3  H1  UNL     1      -9.574  11.941  69.438  1.00  0.00     0.000 HD 
HETATM    4  H2  UNL     1      -8.058  12.838  69.156  1.00  0.00     0.000 HD 
HETATM    5  O   UNL     1      -7.165  11.080  67.684  1.00  0.00    -0.088 OA 
ENDROOT
BRANCH   2   6
HETATM    6  C   UNL     1      -9.236   9.722  68.100  1.00  0.00    -0.132 C  
BRANCH   6   7
HETATM    7  C   UNL     1      -8.382   8.496  67.545  1.00  0.00    -0.128 A  
HETATM    8  C   UNL     1      -6.945   6.333  66.374  1.00  0.00    -0.067 A  
HETATM    9  C   UNL     1      -8.218   6.130  66.886  1.00  0.00    -0.106 A  
HETATM   10  C   UNL     1      -6.357   7.584  66.490  1.00  0.00    -0.045 A  
HETATM   11  C   UNL     1      -8.917   7.189  67.481  1.00  0.00    -0.121 A  
HETATM   12  C   UNL     1      -7.062   8.645  67.074  1.00  0.00    -0.075 A  
ENDBRANCH   6   7
BRANCH   6  13
HETATM   13  C   UNL     1      -9.815   9.400  69.528  1.00  0.00    -0.192 A  
HETATM   14  C   UNL     1      -8.957   8.999  70.580  1.00  0.00    -0.263 A  
HETATM   15  C   UNL     1      -9.452   8.627  71.835  1.00  0.00    -0.369 A  
HETATM   16  C   UNL     1     -10.815   8.672  72.091  1.00  0.00    -0.424 A  
HETATM   17  C   UNL     1     -11.183   9.481  69.834  1.00  0.00    -0.209 A  
HETATM   18  C   UNL     1     -11.683   9.112  71.091  1.00  0.00    -0.380 A  
ENDBRANCH   6  13
BRANCH   6  19
HETATM   19  C   UNL     1     -10.449  10.013  67.091  1.00  0.00    -0.305 C  
HETATM   20  C   UNL     1     -10.006  11.064  64.921  1.00  0.00    -0.288 C  
HETATM   21  N   UNL     1     -10.761  12.029  65.716  1.00  0.00    -0.269 NA 
HETATM   22  C   UNL     1     -11.066  11.420  67.021  1.00  0.00    -0.303 C  
HETATM   23  C   UNL     1     -10.195   9.718  65.602  1.00  0.00    -0.178 C  
BRANCH  21  24
HETATM   24  C   UNL     1     -10.105  13.342  65.855  1.00  0.00    -0.293 C  
BRANCH  24  25
HETATM   25  C   UNL     1     -11.003  14.548  65.523  1.00  0.00    -0.337 C  
BRANCH  25  26
HETATM   26  C   UNL     1     -10.738  15.726  66.442  1.00  0.00    -0.277 A  
HETATM   27  C   UNL     1     -10.443  16.986  65.904  1.00  0.00    -0.282 A  
HETATM   28  C   UNL     1     -10.234  18.052  66.768  1.00  0.00    -0.367 A  
HETATM   29  C   UNL     1     -10.325  17.882  68.136  1.00  0.00    -0.389 A  
HETATM   30  O   UNL     1     -10.124  19.030  68.854  1.00  0.00    -0.403 OA 
HETATM   31  C   UNL     1     -10.611  16.658  68.701  1.00  0.00    -0.337 A  
HETATM   32  C   UNL     1     -10.812  15.569  67.844  1.00  0.00    -0.307 A  
HETATM   33  C   UNL     1      -9.744  20.019  67.869  1.00  0.00    -0.390 C  
HETATM   34  C   UNL     1      -9.917  19.458  66.456  1.00  0.00    -0.485 C  
ENDBRANCH  25  26
ENDBRANCH  24  25
ENDBRANCH  21  24
ENDBRANCH   6  19
ENDBRANCH   2   6
TORSDOF 7
ENDMDL
MODEL      124
REMARK 921   NORMALIZED FREE ENERGY PREDICTED BY IDOCK:   -4.92 KCAL/MOL
REMARK 922        TOTAL FREE ENERGY PREDICTED BY IDOCK:   -8.72 KCAL/MOL
REMARK 923 INTER-LIGAND FREE ENERGY PREDICTED BY IDOCK:   -7.94 KCAL/MOL
REMARK 924 INTRA-LIGAND FREE ENERGY PREDICTED BY IDOCK:   -0.78 KCAL/MOL
REMARK 927      BINDING AFFINITY PREDICTED BY RF-SCORE:    0.00 PKD
ROOT
HETATM    1  N   UNL     1     -12.230  15.754  68.666  1.00  0.00    -0.469 N  
HETATM    2  C   UNL     1     -11.410  14.865  68.020  1.00  0.00    -0.324 C  
HETATM    3  H1  UNL     1     -12.045  16.741  68.490  1.00  0.00     0.000 HD 
HETATM    4  H2  UNL     1     -12.980  15.447  69.286  1.00  0.00     0.000 HD 
HETATM    5  O   UNL     1     -11.631  13.678  68.232  1.00  0.00    -0.295 OA 
ENDROOT
BRANCH   2   6
HETATM    6  C   UNL     1     -10.325  15.442  67.012  1.00  0.00    -0.280 C  
BRANCH   6   7
HETATM    7  C   UNL     1     -10.428  17.031  67.043  1.00  0.00    -0.279 A  
HETATM    8  C   UNL     1     -10.410  19.879  67.097  1.00  0.00    -0.581 A  
HETATM    9  C   UNL     1     -10.305  19.158  68.277  1.00  0.00    -0.448 A  
HETATM   10  C   UNL     1     -10.582  19.202  65.898  1.00  0.00    -0.495 A  
HETATM   11  C   UNL     1     -10.334  17.757  68.253  1.00  0.00    -0.387 A  
HETATM   12  C   UNL     1     -10.600  17.801  65.875  1.00  0.00    -0.205 A  
ENDBRANCH   6   7
BRANCH   6  13
HETATM   13  C   UNL     1      -8.896  14.963  67.468  1.00  0.00    -0.195 A  
HETATM   14  C   UNL     1      -7.738  15.677  67.076  1.00  0.00    -0.257 A  
HETATM   15  C   UNL     1      -6.451  15.230  67.396  1.00  0.00    -0.080 A  
HETATM   16  C   UNL     1      -6.279  14.073  68.142  1.00  0.00    -0.132 A  
HETATM   17  C   UNL     1      -8.689  13.824  68.262  1.00  0.00    -0.179 A  
HETATM   18  C   UNL     1      -7.401  13.373  68.587  1.00  0.00    -0.106 A  
ENDBRANCH   6  13
BRANCH   6  19
HETATM   19  C   UNL     1     -10.601  14.929  65.517  1.00  0.00    -0.373 C  
HETATM   20  C   UNL     1     -12.469  13.405  65.074  1.00  0.00    -0.428 C  
HETATM   21  N   UNL     1     -11.239  12.651  64.842  1.00  0.00    -0.288 NA 
HETATM   22  C   UNL     1     -10.094  13.546  65.075  1.00  0.00    -0.256 C  
HETATM   23  C   UNL     1     -12.071  14.872  65.067  1.00  0.00    -0.216 C  
BRANCH  21  24
HETATM   24  C   UNL     1     -11.139  11.403  65.621  1.00  0.00    -0.141 C  
BRANCH  24  25
HETATM   25  C   UNL     1      -9.775  11.178  66.301  1.00  0.00    -0.244 C  
BRANCH  25  26
HETATM   26  C   UNL     1      -9.207   9.804  65.995  1.00  0.00    -0.226 A  
HETATM   27  C   UNL     1      -8.122   9.671  65.119  1.00  0.00    -0.124 A  
HETATM   28  C   UNL     1      -7.604   8.406  64.880  1.00  0.00    -0.100 A  
HETATM   29  C   UNL     1      -8.138   7.294  65.502  1.00  0.00    -0.132 A  
HETATM   30  O   UNL     1      -7.502   6.123  65.190  1.00  0.00    -0.077 OA 
HETATM   31  C   UNL     1      -9.206   7.385  66.367  1.00  0.00    -0.203 A  
HETATM   32  C   UNL     1      -9.750   8.654  66.610  1.00  0.00    -0.315 A  
HETATM   33  C   UNL     1      -6.539   6.486  64.174  1.00  0.00    -0.037 C  
HETATM   34  C   UNL     1      -6.479   8.006  64.015  1.00  0.00    -0.066 C  
ENDBRANCH  25  26
ENDBRANCH  24  25
ENDBRANCH  21  24
ENDBRANCH   6  19
ENDBRANCH   2   6
TORSDOF 7
ENDMDL
MODEL      125
REMARK 921   NORMALIZED FREE ENERGY PREDICTED BY IDOCK:   -4.92 KCAL/MOL
REMARK 922        TOTAL FREE ENERGY PREDICTED BY IDOCK:   -8.71 KCAL/MOL
REMARK 923 INTER-LIGAND FREE ENERGY PREDICTED BY IDOCK:   -7.86 KCAL/MOL
REMARK 924 INTRA-LIGAND FREE ENERGY PREDICTED BY IDOCK:   -0.86 KCAL/MOL
REMARK 927      BINDING AFFINITY PREDICTED BY RF-SCORE:    0.00 PKD
ROOT
HETATM    1  N   UNL     1     -11.089   7.994  69.218  1.00  0.00    -0.435 N  
HETATM    2  C   UNL     1     -10.460   8.328  68.047  1.00  0.00    -0.181 C  
HETATM    3  H1  UNL     1     -10.763   8.477  70.055  1.00  0.00     0.000 HD 
HETATM    4  H2  UNL     1     -11.840   7.304  69.251  1.00  0.00     0.000 HD 
HETATM    5  O   UNL     1     -10.853   7.748  67.041  1.00  0.00    -0.316 OA 
ENDROOT
BRANCH   2   6
HETATM    6  C   UNL     1      -9.360   9.475  68.088  1.00  0.00    -0.141 C  
BRANCH   6   7
HETATM    7  C   UNL     1      -8.190   8.993  69.056  1.00  0.00    -0.119 A  
HETATM    8  C   UNL     1      -5.967   8.195  70.648  1.00  0.00    -0.032 A  
HETATM    9  C   UNL     1      -6.471   7.344  69.676  1.00  0.00    -0.036 A  
HETATM   10  C   UNL     1      -6.591   9.413  70.876  1.00  0.00    -0.098 A  
HETATM   11  C   UNL     1      -7.578   7.728  68.907  1.00  0.00    -0.101 A  
HETATM   12  C   UNL     1      -7.690   9.800  70.098  1.00  0.00    -0.188 A  
ENDBRANCH   6   7
BRANCH   6  13
HETATM   13  C   UNL     1      -8.818   9.717  66.630  1.00  0.00    -0.153 A  
HETATM   14  C   UNL     1      -9.684   9.617  65.513  1.00  0.00    -0.372 A  
HETATM   15  C   UNL     1      -9.214   9.745  64.202  1.00  0.00    -0.277 A  
HETATM   16  C   UNL     1      -7.873  10.005  63.961  1.00  0.00    -0.150 A  
HETATM   17  C   UNL     1      -7.477  10.028  66.355  1.00  0.00    -0.104 A  
HETATM   18  C   UNL     1      -7.002  10.159  65.042  1.00  0.00    -0.135 A  
ENDBRANCH   6  13
BRANCH   6  19
HETATM   19  C   UNL     1      -9.978  10.843  68.655  1.00  0.00    -0.196 C  
HETATM   20  C   UNL     1     -11.638  12.071  67.336  1.00  0.00    -0.318 C  
HETATM   21  N   UNL     1     -10.430  12.891  67.370  1.00  0.00    -0.232 NA 
HETATM   22  C   UNL     1      -9.417  12.193  68.178  1.00  0.00    -0.205 C  
HETATM   23  C   UNL     1     -11.489  11.053  68.455  1.00  0.00    -0.378 C  
BRANCH  21  24
HETATM   24  C   UNL     1      -9.918  13.270  66.040  1.00  0.00    -0.292 C  
BRANCH  24  25
HETATM   25  C   UNL     1     -10.593  14.507  65.419  1.00  0.00    -0.385 C  
BRANCH  25  26
HETATM   26  C   UNL     1      -9.906  15.797  65.829  1.00  0.00    -0.383 A  
HETATM   27  C   UNL     1     -10.611  17.007  65.803  1.00  0.00    -0.218 A  
HETATM   28  C   UNL     1      -9.966  18.167  66.210  1.00  0.00    -0.342 A  
HETATM   29  C   UNL     1      -8.655  18.132  66.645  1.00  0.00    -0.267 A  
HETATM   30  O   UNL     1      -8.168  19.348  67.042  1.00  0.00    -0.260 OA 
HETATM   31  C   UNL     1      -7.930  16.961  66.682  1.00  0.00    -0.300 A  
HETATM   32  C   UNL     1      -8.562  15.783  66.262  1.00  0.00    -0.307 A  
HETATM   33  C   UNL     1      -9.219  20.288  66.721  1.00  0.00    -0.327 C  
HETATM   34  C   UNL     1     -10.482  19.546  66.279  1.00  0.00    -0.609 C  
ENDBRANCH  25  26
ENDBRANCH  24  25
ENDBRANCH  21  24
ENDBRANCH   6  19
ENDBRANCH   2   6
TORSDOF 7
ENDMDL
MODEL      126
REMARK 921   NORMALIZED FREE ENERGY PREDICTED BY IDOCK:   -4.91 KCAL/MOL
REMARK 922        TOTAL FREE ENERGY PREDICTED BY IDOCK:   -8.69 KCAL/MOL
REMARK 923 INTER-LIGAND FREE ENERGY PREDICTED BY IDOCK:   -7.87 KCAL/MOL
REMARK 924 INTRA-LIGAND FREE ENERGY PREDICTED BY IDOCK:   -0.83 KCAL/MOL
REMARK 927      BINDING AFFINITY PREDICTED BY RF-SCORE:    0.00 PKD
ROOT
HETATM    1  N   UNL     1      -9.206   7.555  65.934  1.00  0.00    -0.383 N  
HETATM    2  C   UNL     1      -8.478   8.178  66.915  1.00  0.00    -0.119 C  
HETATM    3  H1  UNL     1     -10.142   7.924  65.769  1.00  0.00     0.000 HD 
HETATM    4  H2  UNL     1      -8.833   6.769  65.401  1.00  0.00     0.000 HD 
HETATM    5  O   UNL     1      -7.354   7.734  67.114  1.00  0.00    -0.087 OA 
ENDROOT
BRANCH   2   6
HETATM    6  C   UNL     1      -9.117   9.446  67.631  1.00  0.00    -0.131 C  
BRANCH   6   7
HETATM    7  C   UNL     1      -9.503   9.024  69.118  1.00  0.00    -0.153 A  
HETATM    8  C   UNL     1     -10.230   8.463  71.814  1.00  0.00    -0.323 A  
HETATM    9  C   UNL     1      -8.935   8.853  71.507  1.00  0.00    -0.275 A  
HETATM   10  C   UNL     1     -11.151   8.293  70.790  1.00  0.00    -0.280 A  
HETATM   11  C   UNL     1      -8.572   9.109  70.178  1.00  0.00    -0.195 A  
HETATM   12  C   UNL     1     -10.788   8.560  69.463  1.00  0.00    -0.134 A  
ENDBRANCH   6   7
BRANCH   6  13
HETATM   13  C   UNL     1      -8.064  10.616  67.635  1.00  0.00    -0.107 A  
HETATM   14  C   UNL     1      -7.010  10.640  66.689  1.00  0.00    -0.119 A  
HETATM   15  C   UNL     1      -6.012  11.620  66.720  1.00  0.00    -0.137 A  
HETATM   16  C   UNL     1      -6.049  12.625  67.677  1.00  0.00    -0.147 A  
HETATM   17  C   UNL     1      -8.098  11.672  68.558  1.00  0.00    -0.145 A  
HETATM   18  C   UNL     1      -7.102  12.659  68.592  1.00  0.00    -0.096 A  
ENDBRANCH   6  13
BRANCH   6  19
HETATM   19  C   UNL     1     -10.441   9.930  66.864  1.00  0.00    -0.284 C  
HETATM   20  C   UNL     1     -10.321  11.796  65.280  1.00  0.00    -0.274 C  
HETATM   21  N   UNL     1     -11.110  12.255  66.421  1.00  0.00    -0.287 NA 
HETATM   22  C   UNL     1     -11.224  11.148  67.383  1.00  0.00    -0.294 C  
HETATM   23  C   UNL     1     -10.288  10.280  65.374  1.00  0.00    -0.233 C  
BRANCH  21  24
HETATM   24  C   UNL     1     -10.604  13.490  67.049  1.00  0.00    -0.269 C  
BRANCH  24  25
HETATM   25  C   UNL     1      -9.681  14.336  66.152  1.00  0.00    -0.325 C  
BRANCH  25  26
HETATM   26  C   UNL     1      -9.517  15.751  66.677  1.00  0.00    -0.279 A  
HETATM   27  C   UNL     1     -10.130  16.822  66.014  1.00  0.00    -0.350 A  
HETATM   28  C   UNL     1      -9.988  18.101  66.533  1.00  0.00    -0.374 A  
HETATM   29  C   UNL     1      -9.264  18.319  67.689  1.00  0.00    -0.267 A  
HETATM   30  O   UNL     1      -9.240  19.627  68.093  1.00  0.00    -0.333 OA 
HETATM   31  C   UNL     1      -8.646  17.291  68.367  1.00  0.00    -0.251 A  
HETATM   32  C   UNL     1      -8.769  15.994  67.849  1.00  0.00    -0.165 A  
HETATM   33  C   UNL     1      -9.907  20.351  67.033  1.00  0.00    -0.453 C  
HETATM   34  C   UNL     1     -10.530  19.377  66.031  1.00  0.00    -0.596 C  
ENDBRANCH  25  26
ENDBRANCH  24  25
ENDBRANCH  21  24
ENDBRANCH   6  19
ENDBRANCH   2   6
TORSDOF 7
ENDMDL
MODEL      127
REMARK 921   NORMALIZED FREE ENERGY PREDICTED BY IDOCK:   -4.89 KCAL/MOL
REMARK 922        TOTAL FREE ENERGY PREDICTED BY IDOCK:   -8.67 KCAL/MOL
REMARK 923 INTER-LIGAND FREE ENERGY PREDICTED BY IDOCK:   -8.04 KCAL/MOL
REMARK 924 INTRA-LIGAND FREE ENERGY PREDICTED BY IDOCK:   -0.63 KCAL/MOL
REMARK 927      BINDING AFFINITY PREDICTED BY RF-SCORE:    0.00 PKD
ROOT
HETATM    1  N   UNL     1     -10.788  16.902  69.909  1.00  0.00    -0.348 N  
HETATM    2  C   UNL     1     -11.250  16.104  68.893  1.00  0.00    -0.351 C  
HETATM    3  H1  UNL     1      -9.833  17.245  69.809  1.00  0.00     0.000 HD 
HETATM    4  H2  UNL     1     -11.366  17.138  70.716  1.00  0.00     0.000 HD 
HETATM    5  O   UNL     1     -12.398  15.692  69.013  1.00  0.00    -0.194 OA 
ENDROOT
BRANCH   2   6
HETATM    6  C   UNL     1     -10.302  15.864  67.640  1.00  0.00    -0.281 C  
BRANCH   6   7
HETATM    7  C   UNL     1     -11.157  15.124  66.517  1.00  0.00    -0.305 A  
HETATM    8  C   UNL     1     -12.529  13.677  64.483  1.00  0.00    -0.335 A  
HETATM    9  C   UNL     1     -11.665  14.708  64.145  1.00  0.00    -0.196 A  
HETATM   10  C   UNL     1     -12.762  13.396  65.821  1.00  0.00    -0.383 A  
HETATM   11  C   UNL     1     -11.006  15.434  65.146  1.00  0.00    -0.430 A  
HETATM   12  C   UNL     1     -12.093  14.115  66.821  1.00  0.00    -0.474 A  
ENDBRANCH   6   7
BRANCH   6  13
HETATM   13  C   UNL     1      -9.778  17.254  67.120  1.00  0.00    -0.259 A  
HETATM   14  C   UNL     1      -8.396  17.464  66.894  1.00  0.00    -0.260 A  
HETATM   15  C   UNL     1      -7.891  18.712  66.512  1.00  0.00    -0.287 A  
HETATM   16  C   UNL     1      -8.751  19.783  66.315  1.00  0.00    -0.403 A  
HETATM   17  C   UNL     1     -10.625  18.345  66.866  1.00  0.00    -0.381 A  
HETATM   18  C   UNL     1     -10.124  19.596  66.481  1.00  0.00    -0.568 A  
ENDBRANCH   6  13
BRANCH   6  19
HETATM   19  C   UNL     1      -9.050  14.942  68.036  1.00  0.00    -0.180 C  
HETATM   20  C   UNL     1      -8.738  12.771  66.941  1.00  0.00    -0.168 C  
HETATM   21  N   UNL     1      -9.065  12.501  68.339  1.00  0.00    -0.173 NA 
HETATM   22  C   UNL     1      -9.235  13.786  69.034  1.00  0.00     0.259 C  
HETATM   23  C   UNL     1      -8.323  14.232  66.881  1.00  0.00    -0.084 C  
BRANCH  21  24
HETATM   24  C   UNL     1     -10.224  11.608  68.528  1.00  0.00    -0.210 C  
BRANCH  24  25
HETATM   25  C   UNL     1     -10.081  10.606  69.688  1.00  0.00    -0.120 C  
BRANCH  25  26
HETATM   26  C   UNL     1     -10.344   9.179  69.243  1.00  0.00    -0.223 A  
HETATM   27  C   UNL     1      -9.925   8.748  67.977  1.00  0.00    -0.220 A  
HETATM   28  C   UNL     1     -10.153   7.430  67.608  1.00  0.00    -0.240 A  
HETATM   29  C   UNL     1     -10.772   6.550  68.474  1.00  0.00    -0.273 A  
HETATM   30  O   UNL     1     -10.898   5.279  67.980  1.00  0.00    -0.023 OA 
HETATM   31  C   UNL     1     -11.200   6.937  69.725  1.00  0.00    -0.315 A  
HETATM   32  C   UNL     1     -10.989   8.268  70.109  1.00  0.00    -0.222 A  
HETATM   33  C   UNL     1     -10.429   5.367  66.615  1.00  0.00    -0.298 C  
HETATM   34  C   UNL     1      -9.810   6.741  66.351  1.00  0.00    -0.096 C  
ENDBRANCH  25  26
ENDBRANCH  24  25
ENDBRANCH  21  24
ENDBRANCH   6  19
ENDBRANCH   2   6
TORSDOF 7
ENDMDL
MODEL      128
REMARK 921   NORMALIZED FREE ENERGY PREDICTED BY IDOCK:   -4.88 KCAL/MOL
REMARK 922        TOTAL FREE ENERGY PREDICTED BY IDOCK:   -8.65 KCAL/MOL
REMARK 923 INTER-LIGAND FREE ENERGY PREDICTED BY IDOCK:   -7.28 KCAL/MOL
REMARK 924 INTRA-LIGAND FREE ENERGY PREDICTED BY IDOCK:   -1.37 KCAL/MOL
REMARK 927      BINDING AFFINITY PREDICTED BY RF-SCORE:    0.00 PKD
ROOT
HETATM    1  N   UNL     1      -9.107   4.757  71.702  1.00  0.00    -0.133 N  
HETATM    2  C   UNL     1      -9.282   6.084  72.000  1.00  0.00    -0.146 C  
HETATM    3  H1  UNL     1      -9.167   4.509  70.715  1.00  0.00     0.000 HD 
HETATM    4  H2  UNL     1      -8.928   4.059  72.425  1.00  0.00     0.000 HD 
HETATM    5  O   UNL     1      -9.211   6.382  73.187  1.00  0.00    -0.130 OA 
ENDROOT
BRANCH   2   6
HETATM    6  C   UNL     1      -9.473   7.103  70.796  1.00  0.00    -0.164 C  
BRANCH   6   7
HETATM    7  C   UNL     1     -10.761   7.989  71.106  1.00  0.00    -0.250 A  
HETATM    8  C   UNL     1     -13.117   9.549  71.467  1.00  0.00    -0.470 A  
HETATM    9  C   UNL     1     -11.953  10.139  70.997  1.00  0.00    -0.474 A  
HETATM   10  C   UNL     1     -13.106   8.206  71.813  1.00  0.00    -0.367 A  
HETATM   11  C   UNL     1     -10.788   9.377  70.839  1.00  0.00    -0.392 A  
HETATM   12  C   UNL     1     -11.943   7.442  71.644  1.00  0.00    -0.339 A  
ENDBRANCH   6   7
BRANCH   6  13
HETATM   13  C   UNL     1      -8.188   8.005  70.680  1.00  0.00    -0.114 A  
HETATM   14  C   UNL     1      -6.928   7.523  71.111  1.00  0.00    -0.054 A  
HETATM   15  C   UNL     1      -5.785   8.329  71.098  1.00  0.00    -0.033 A  
HETATM   16  C   UNL     1      -5.854   9.632  70.626  1.00  0.00    -0.066 A  
HETATM   17  C   UNL     1      -8.213   9.310  70.164  1.00  0.00    -0.176 A  
HETATM   18  C   UNL     1      -7.069  10.121  70.146  1.00  0.00    -0.162 A  
ENDBRANCH   6  13
BRANCH   6  19
HETATM   19  C   UNL     1      -9.696   6.322  69.412  1.00  0.00    -0.162 C  
HETATM   20  C   UNL     1      -8.731   7.206  67.341  1.00  0.00    -0.120 C  
HETATM   21  N   UNL     1     -10.181   7.329  67.222  1.00  0.00    -0.224 NA 
HETATM   22  C   UNL     1     -10.797   6.782  68.441  1.00  0.00    -0.223 C  
HETATM   23  C   UNL     1      -8.483   6.222  68.472  1.00  0.00    -0.115 C  
BRANCH  21  24
HETATM   24  C   UNL     1     -10.650   8.695  66.925  1.00  0.00    -0.200 C  
BRANCH  24  25
HETATM   25  C   UNL     1      -9.580   9.791  67.083  1.00  0.00    -0.211 C  
BRANCH  25  26
HETATM   26  C   UNL     1     -10.187  11.182  67.092  1.00  0.00    -0.235 A  
HETATM   27  C   UNL     1      -9.845  12.091  68.102  1.00  0.00    -0.201 A  
HETATM   28  C   UNL     1     -10.393  13.366  68.069  1.00  0.00    -0.242 A  
HETATM   29  C   UNL     1     -11.251  13.741  67.053  1.00  0.00    -0.311 A  
HETATM   30  O   UNL     1     -11.683  15.038  67.141  1.00  0.00    -0.327 OA 
HETATM   31  C   UNL     1     -11.611  12.874  66.045  1.00  0.00    -0.424 A  
HETATM   32  C   UNL     1     -11.078  11.579  66.071  1.00  0.00    -0.289 A  
HETATM   33  C   UNL     1     -11.155  15.518  68.399  1.00  0.00    -0.315 C  
HETATM   34  C   UNL     1     -10.192  14.492  68.999  1.00  0.00    -0.210 C  
ENDBRANCH  25  26
ENDBRANCH  24  25
ENDBRANCH  21  24
ENDBRANCH   6  19
ENDBRANCH   2   6
TORSDOF 7
ENDMDL
MODEL      129
REMARK 921   NORMALIZED FREE ENERGY PREDICTED BY IDOCK:   -4.83 KCAL/MOL
REMARK 922        TOTAL FREE ENERGY PREDICTED BY IDOCK:   -8.59 KCAL/MOL
REMARK 923 INTER-LIGAND FREE ENERGY PREDICTED BY IDOCK:   -8.23 KCAL/MOL
REMARK 924 INTRA-LIGAND FREE ENERGY PREDICTED BY IDOCK:   -0.36 KCAL/MOL
REMARK 927      BINDING AFFINITY PREDICTED BY RF-SCORE:    0.00 PKD
ROOT
HETATM    1  N   UNL     1     -11.827  12.458  68.680  1.00  0.00    -0.317 N  
HETATM    2  C   UNL     1     -10.554  11.952  68.628  1.00  0.00    -0.234 C  
HETATM    3  H1  UNL     1     -12.064  13.148  67.968  1.00  0.00     0.000 HD 
HETATM    4  H2  UNL     1     -12.498  12.162  69.390  1.00  0.00     0.000 HD 
HETATM    5  O   UNL     1     -10.269  11.123  69.484  1.00  0.00    -0.091 OA 
ENDROOT
BRANCH   2   6
HETATM    6  C   UNL     1      -9.612  12.417  67.435  1.00  0.00    -0.184 C  
BRANCH   6   7
HETATM    7  C   UNL     1     -10.545  12.902  66.238  1.00  0.00    -0.281 A  
HETATM    8  C   UNL     1     -12.324  13.868  64.234  1.00  0.00    -0.390 A  
HETATM    9  C   UNL     1     -12.623  12.709  64.934  1.00  0.00    -0.525 A  
HETATM   10  C   UNL     1     -11.124  14.519  64.478  1.00  0.00    -0.280 A  
HETATM   11  C   UNL     1     -11.739  12.222  65.906  1.00  0.00    -0.451 A  
HETATM   12  C   UNL     1     -10.246  14.037  65.458  1.00  0.00    -0.362 A  
ENDBRANCH   6   7
BRANCH   6  13
HETATM   13  C   UNL     1      -8.689  13.589  67.938  1.00  0.00    -0.183 A  
HETATM   14  C   UNL     1      -7.304  13.592  67.643  1.00  0.00    -0.180 A  
HETATM   15  C   UNL     1      -6.444  14.575  68.145  1.00  0.00    -0.143 A  
HETATM   16  C   UNL     1      -6.943  15.602  68.933  1.00  0.00    -0.130 A  
HETATM   17  C   UNL     1      -9.168  14.668  68.697  1.00  0.00    -0.194 A  
HETATM   18  C   UNL     1      -8.311  15.657  69.200  1.00  0.00    -0.251 A  
ENDBRANCH   6  13
BRANCH   6  19
HETATM   19  C   UNL     1      -8.694  11.204  66.923  1.00  0.00    -0.152 C  
HETATM   20  C   UNL     1      -9.569   9.627  65.264  1.00  0.00    -0.277 C  
HETATM   21  N   UNL     1      -9.417   8.889  66.515  1.00  0.00    -0.192 NA 
HETATM   22  C   UNL     1      -8.869   9.802  67.530  1.00  0.00    -0.125 C  
HETATM   23  C   UNL     1      -8.740  10.891  65.417  1.00  0.00    -0.162 C  
BRANCH  21  24
HETATM   24  C   UNL     1     -10.648   8.219  66.975  1.00  0.00    -0.258 C  
BRANCH  24  25
HETATM   25  C   UNL     1     -10.477   6.729  67.324  1.00  0.00    -0.352 C  
BRANCH  25  26
HETATM   26  C   UNL     1     -10.451   6.494  68.823  1.00  0.00    -0.245 A  
HETATM   27  C   UNL     1     -10.673   7.560  69.706  1.00  0.00    -0.249 A  
HETATM   28  C   UNL     1     -10.672   7.311  71.071  1.00  0.00    -0.247 A  
HETATM   29  C   UNL     1     -10.468   6.034  71.557  1.00  0.00    -0.228 A  
HETATM   30  O   UNL     1     -10.527   5.942  72.922  1.00  0.00    -0.201 OA 
HETATM   31  C   UNL     1     -10.244   4.963  70.720  1.00  0.00    -0.276 A  
HETATM   32  C   UNL     1     -10.229   5.199  69.339  1.00  0.00    -0.293 A  
HETATM   33  C   UNL     1     -10.659   7.309  73.377  1.00  0.00    -0.389 C  
HETATM   34  C   UNL     1     -10.882   8.248  72.190  1.00  0.00    -0.390 C  
ENDBRANCH  25  26
ENDBRANCH  24  25
ENDBRANCH  21  24
ENDBRANCH   6  19
ENDBRANCH   2   6
TORSDOF 7
ENDMDL
MODEL      130
REMARK 921   NORMALIZED FREE ENERGY PREDICTED BY IDOCK:   -4.82 KCAL/MOL
REMARK 922        TOTAL FREE ENERGY PREDICTED BY IDOCK:   -8.57 KCAL/MOL
REMARK 923 INTER-LIGAND FREE ENERGY PREDICTED BY IDOCK:   -7.46 KCAL/MOL
REMARK 924 INTRA-LIGAND FREE ENERGY PREDICTED BY IDOCK:   -1.11 KCAL/MOL
REMARK 927      BINDING AFFINITY PREDICTED BY RF-SCORE:    0.00 PKD
ROOT
HETATM    1  N   UNL     1     -10.169   6.213  70.138  1.00  0.00    -0.189 N  
HETATM    2  C   UNL     1      -9.302   7.274  70.090  1.00  0.00    -0.155 C  
HETATM    3  H1  UNL     1     -10.975   6.265  69.516  1.00  0.00     0.000 HD 
HETATM    4  H2  UNL     1     -10.016   5.418  70.759  1.00  0.00     0.000 HD 
HETATM    5  O   UNL     1      -8.333   7.211  70.838  1.00  0.00    -0.119 OA 
ENDROOT
BRANCH   2   6
HETATM    6  C   UNL     1      -9.584   8.424  69.030  1.00  0.00    -0.160 C  
BRANCH   6   7
HETATM    7  C   UNL     1     -10.743   9.350  69.611  1.00  0.00    -0.251 A  
HETATM    8  C   UNL     1     -12.676  11.100  70.757  1.00  0.00    -0.388 A  
HETATM    9  C   UNL     1     -12.291   9.949  71.428  1.00  0.00    -0.498 A  
HETATM   10  C   UNL     1     -12.155  11.360  69.498  1.00  0.00    -0.370 A  
HETATM   11  C   UNL     1     -11.355   9.077  70.856  1.00  0.00    -0.351 A  
HETATM   12  C   UNL     1     -11.211  10.493  68.932  1.00  0.00    -0.323 A  
ENDBRANCH   6   7
BRANCH   6  13
HETATM   13  C   UNL     1      -8.263   9.252  68.809  1.00  0.00    -0.112 A  
HETATM   14  C   UNL     1      -7.044   8.597  68.506  1.00  0.00    -0.073 A  
HETATM   15  C   UNL     1      -5.839   9.298  68.387  1.00  0.00    -0.041 A  
HETATM   16  C   UNL     1      -5.815  10.678  68.536  1.00  0.00    -0.040 A  
HETATM   17  C   UNL     1      -8.212  10.652  68.906  1.00  0.00    -0.145 A  
HETATM   18  C   UNL     1      -7.008  11.359  68.784  1.00  0.00    -0.097 A  
ENDBRANCH   6  13
BRANCH   6  19
HETATM   19  C   UNL     1     -10.061   7.807  67.627  1.00  0.00    -0.254 C  
HETATM   20  C   UNL     1      -8.419   7.392  65.856  1.00  0.00    -0.150 C  
HETATM   21  N   UNL     1      -9.282   8.475  65.392  1.00  0.00    -0.057 NA 
HETATM   22  C   UNL     1     -10.298   8.735  66.424  1.00  0.00    -0.099 C  
HETATM   23  C   UNL     1      -9.158   6.727  67.006  1.00  0.00    -0.139 C  
BRANCH  21  24
HETATM   24  C   UNL     1      -8.559   9.699  65.001  1.00  0.00    -0.162 C  
BRANCH  24  25
HETATM   25  C   UNL     1      -9.335  10.629  64.050  1.00  0.00    -0.303 C  
BRANCH  25  26
HETATM   26  C   UNL     1     -10.257  11.572  64.802  1.00  0.00    -0.331 A  
HETATM   27  C   UNL     1      -9.776  12.300  65.899  1.00  0.00    -0.247 A  
HETATM   28  C   UNL     1     -10.632  13.176  66.550  1.00  0.00    -0.290 A  
HETATM   29  C   UNL     1     -11.935  13.340  66.121  1.00  0.00    -0.418 A  
HETATM   30  O   UNL     1     -12.647  14.261  66.843  1.00  0.00    -0.233 OA 
HETATM   31  C   UNL     1     -12.444  12.641  65.049  1.00  0.00    -0.556 A  
HETATM   32  C   UNL     1     -11.596  11.742  64.388  1.00  0.00    -0.325 A  
HETATM   33  C   UNL     1     -11.764  14.644  67.923  1.00  0.00    -0.351 C  
HETATM   34  C   UNL     1     -10.371  14.047  67.710  1.00  0.00    -0.236 C  
ENDBRANCH  25  26
ENDBRANCH  24  25
ENDBRANCH  21  24
ENDBRANCH   6  19
ENDBRANCH   2   6
TORSDOF 7
ENDMDL
MODEL      131
REMARK 921   NORMALIZED FREE ENERGY PREDICTED BY IDOCK:   -4.82 KCAL/MOL
REMARK 922        TOTAL FREE ENERGY PREDICTED BY IDOCK:   -8.57 KCAL/MOL
REMARK 923 INTER-LIGAND FREE ENERGY PREDICTED BY IDOCK:   -7.72 KCAL/MOL
REMARK 924 INTRA-LIGAND FREE ENERGY PREDICTED BY IDOCK:   -0.85 KCAL/MOL
REMARK 927      BINDING AFFINITY PREDICTED BY RF-SCORE:    0.00 PKD
ROOT
HETATM    1  N   UNL     1     -11.152  19.075  67.644  1.00  0.00    -0.234 N  
HETATM    2  C   UNL     1     -10.539  18.376  66.637  1.00  0.00    -0.325 C  
HETATM    3  H1  UNL     1     -11.081  18.670  68.577  1.00  0.00     0.000 HD 
HETATM    4  H2  UNL     1     -11.651  19.948  67.471  1.00  0.00     0.000 HD 
HETATM    5  O   UNL     1     -10.625  18.862  65.515  1.00  0.00    -0.572 OA 
ENDROOT
BRANCH   2   6
HETATM    6  C   UNL     1      -9.717  17.071  67.023  1.00  0.00    -0.264 C  
BRANCH   6   7
HETATM    7  C   UNL     1      -8.225  17.516  67.361  1.00  0.00    -0.217 A  
HETATM    8  C   UNL     1      -5.563  18.184  68.121  1.00  0.00    -0.161 A  
HETATM    9  C   UNL     1      -6.640  18.825  68.715  1.00  0.00    -0.282 A  
HETATM   10  C   UNL     1      -5.792  17.258  67.114  1.00  0.00    -0.181 A  
HETATM   11  C   UNL     1      -7.949  18.511  68.327  1.00  0.00    -0.325 A  
HETATM   12  C   UNL     1      -7.103  16.938  66.735  1.00  0.00    -0.273 A  
ENDBRANCH   6   7
BRANCH   6  13
HETATM   13  C   UNL     1     -10.396  16.390  68.270  1.00  0.00    -0.279 A  
HETATM   14  C   UNL     1      -9.609  15.917  69.349  1.00  0.00    -0.265 A  
HETATM   15  C   UNL     1     -10.175  15.234  70.431  1.00  0.00     0.000 A  
HETATM   16  C   UNL     1     -11.546  15.026  70.486  1.00  0.00    -0.343 A  
HETATM   17  C   UNL     1     -11.783  16.206  68.380  1.00  0.00    -0.126 A  
HETATM   18  C   UNL     1     -12.355  15.524  69.464  1.00  0.00    -0.184 A  
ENDBRANCH   6  13
BRANCH   6  19
HETATM   19  C   UNL     1      -9.688  16.029  65.803  1.00  0.00    -0.340 C  
HETATM   20  C   UNL     1     -11.675  14.686  65.297  1.00  0.00    -0.346 C  
HETATM   21  N   UNL     1     -10.651  13.766  65.784  1.00  0.00    -0.286 NA 
HETATM   22  C   UNL     1      -9.432  14.537  66.076  1.00  0.00    -0.229 C  
HETATM   23  C   UNL     1     -10.946  15.965  64.919  1.00  0.00    -0.427 C  
BRANCH  21  24
HETATM   24  C   UNL     1     -11.076  12.942  66.931  1.00  0.00    -0.278 C  
BRANCH  24  25
HETATM   25  C   UNL     1     -11.236  11.442  66.621  1.00  0.00    -0.298 C  
BRANCH  25  26
HETATM   26  C   UNL     1     -10.359  10.579  67.509  1.00  0.00    -0.265 A  
HETATM   27  C   UNL     1      -9.220  11.126  68.117  1.00  0.00    -0.166 A  
HETATM   28  C   UNL     1      -8.452  10.322  68.947  1.00  0.00    -0.138 A  
HETATM   29  C   UNL     1      -8.806   9.007  69.183  1.00  0.00    -0.142 A  
HETATM   30  O   UNL     1      -7.969   8.353  70.047  1.00  0.00    -0.103 OA 
HETATM   31  C   UNL     1      -9.916   8.435  68.602  1.00  0.00    -0.197 A  
HETATM   32  C   UNL     1     -10.695   9.229  67.751  1.00  0.00    -0.270 A  
HETATM   33  C   UNL     1      -6.898   9.291  70.303  1.00  0.00    -0.071 C  
HETATM   34  C   UNL     1      -7.227  10.656  69.696  1.00  0.00    -0.139 C  
ENDBRANCH  25  26
ENDBRANCH  24  25
ENDBRANCH  21  24
ENDBRANCH   6  19
ENDBRANCH   2   6
TORSDOF 7
ENDMDL
MODEL      132
REMARK 921   NORMALIZED FREE ENERGY PREDICTED BY IDOCK:   -4.80 KCAL/MOL
REMARK 922        TOTAL FREE ENERGY PREDICTED BY IDOCK:   -8.55 KCAL/MOL
REMARK 923 INTER-LIGAND FREE ENERGY PREDICTED BY IDOCK:   -7.27 KCAL/MOL
REMARK 924 INTRA-LIGAND FREE ENERGY PREDICTED BY IDOCK:   -1.28 KCAL/MOL
REMARK 927      BINDING AFFINITY PREDICTED BY RF-SCORE:    0.00 PKD
ROOT
HETATM    1  N   UNL     1     -10.058   8.282  69.825  1.00  0.00    -0.193 N  
HETATM    2  C   UNL     1      -9.875   9.441  69.115  1.00  0.00    -0.174 C  
HETATM    3  H1  UNL     1      -9.833   7.417  69.335  1.00  0.00     0.000 HD 
HETATM    4  H2  UNL     1     -10.400   8.285  70.786  1.00  0.00     0.000 HD 
HETATM    5  O   UNL     1     -10.147  10.481  69.705  1.00  0.00    -0.214 OA 
ENDROOT
BRANCH   2   6
HETATM    6  C   UNL     1      -9.261   9.335  67.653  1.00  0.00    -0.139 C  
BRANCH   6   7
HETATM    7  C   UNL     1      -9.428   7.829  67.162  1.00  0.00    -0.198 A  
HETATM    8  C   UNL     1      -9.764   5.207  66.099  1.00  0.00    -0.192 A  
HETATM    9  C   UNL     1     -10.866   5.939  66.516  1.00  0.00    -0.214 A  
HETATM   10  C   UNL     1      -8.493   5.742  66.259  1.00  0.00    -0.126 A  
HETATM   11  C   UNL     1     -10.700   7.220  67.058  1.00  0.00    -0.406 A  
HETATM   12  C   UNL     1      -8.330   7.028  66.791  1.00  0.00    -0.116 A  
ENDBRANCH   6   7
BRANCH   6  13
HETATM   13  C   UNL     1     -10.031  10.325  66.701  1.00  0.00    -0.270 A  
HETATM   14  C   UNL     1     -11.024  11.193  67.216  1.00  0.00    -0.354 A  
HETATM   15  C   UNL     1     -11.783  12.023  66.383  1.00  0.00    -0.326 A  
HETATM   16  C   UNL     1     -11.555  12.036  65.014  1.00  0.00    -0.323 A  
HETATM   17  C   UNL     1      -9.792  10.398  65.320  1.00  0.00    -0.361 A  
HETATM   18  C   UNL     1     -10.548  11.230  64.482  1.00  0.00    -0.401 A  
ENDBRANCH   6  13
BRANCH   6  19
HETATM   19  C   UNL     1      -7.701   9.713  67.658  1.00  0.00    -0.095 C  
HETATM   20  C   UNL     1      -6.752  10.959  69.543  1.00  0.00    -0.117 C  
HETATM   21  N   UNL     1      -6.711  11.845  68.382  1.00  0.00    -0.062 NA 
HETATM   22  C   UNL     1      -7.252  11.119  67.223  1.00  0.00    -0.113 C  
HETATM   23  C   UNL     1      -6.956   9.556  68.995  1.00  0.00    -0.058 C  
BRANCH  21  24
HETATM   24  C   UNL     1      -7.381  13.143  68.588  1.00  0.00    -0.102 C  
BRANCH  24  25
HETATM   25  C   UNL     1      -8.399  13.522  67.496  1.00  0.00    -0.185 C  
BRANCH  25  26
HETATM   26  C   UNL     1      -8.998  14.897  67.729  1.00  0.00    -0.177 A  
HETATM   27  C   UNL     1      -8.163  15.994  67.978  1.00  0.00    -0.151 A  
HETATM   28  C   UNL     1      -8.736  17.245  68.158  1.00  0.00    -0.243 A  
HETATM   29  C   UNL     1     -10.105  17.413  68.082  1.00  0.00    -0.328 A  
HETATM   30  O   UNL     1     -10.517  18.708  68.250  1.00  0.00    -0.353 OA 
HETATM   31  C   UNL     1     -10.957  16.358  67.841  1.00  0.00    -0.298 A  
HETATM   32  C   UNL     1     -10.396  15.085  67.670  1.00  0.00    -0.243 A  
HETATM   33  C   UNL     1      -9.314  19.436  68.591  1.00  0.00    -0.390 C  
HETATM   34  C   UNL     1      -8.085  18.540  68.426  1.00  0.00    -0.346 C  
ENDBRANCH  25  26
ENDBRANCH  24  25
ENDBRANCH  21  24
ENDBRANCH   6  19
ENDBRANCH   2   6
TORSDOF 7
ENDMDL
MODEL      133
REMARK 921   NORMALIZED FREE ENERGY PREDICTED BY IDOCK:   -4.80 KCAL/MOL
REMARK 922        TOTAL FREE ENERGY PREDICTED BY IDOCK:   -8.54 KCAL/MOL
REMARK 923 INTER-LIGAND FREE ENERGY PREDICTED BY IDOCK:   -8.03 KCAL/MOL
REMARK 924 INTRA-LIGAND FREE ENERGY PREDICTED BY IDOCK:   -0.51 KCAL/MOL
REMARK 927      BINDING AFFINITY PREDICTED BY RF-SCORE:    0.00 PKD
ROOT
HETATM    1  N   UNL     1     -11.152  19.031  67.728  1.00  0.00    -0.252 N  
HETATM    2  C   UNL     1     -10.230  18.630  66.795  1.00  0.00    -0.393 C  
HETATM    3  H1  UNL     1     -11.325  18.381  68.494  1.00  0.00     0.000 HD 
HETATM    4  H2  UNL     1     -11.636  19.927  67.660  1.00  0.00     0.000 HD 
HETATM    5  O   UNL     1     -10.022  19.412  65.875  1.00  0.00    -0.410 OA 
ENDROOT
BRANCH   2   6
HETATM    6  C   UNL     1      -9.470  17.255  67.036  1.00  0.00    -0.264 C  
BRANCH   6   7
HETATM    7  C   UNL     1      -7.945  17.589  67.354  1.00  0.00    -0.217 A  
HETATM    8  C   UNL     1      -5.227  18.051  68.070  1.00  0.00    -0.152 A  
HETATM    9  C   UNL     1      -6.247  18.715  68.735  1.00  0.00    -0.232 A  
HETATM   10  C   UNL     1      -5.540  17.205  67.016  1.00  0.00    -0.203 A  
HETATM   11  C   UNL     1      -7.583  18.504  68.369  1.00  0.00    -0.312 A  
HETATM   12  C   UNL     1      -6.878  16.987  66.659  1.00  0.00    -0.279 A  
ENDBRANCH   6   7
BRANCH   6  13
HETATM   13  C   UNL     1     -10.143  16.503  68.244  1.00  0.00    -0.259 A  
HETATM   14  C   UNL     1      -9.350  15.930  69.268  1.00  0.00    -0.259 A  
HETATM   15  C   UNL     1      -9.914  15.185  70.309  1.00  0.00     0.125 A  
HETATM   16  C   UNL     1     -11.289  15.012  70.380  1.00  0.00    -0.309 A  
HETATM   17  C   UNL     1     -11.533  16.351  68.372  1.00  0.00    -0.181 A  
HETATM   18  C   UNL     1     -12.103  15.607  69.415  1.00  0.00    -0.287 A  
ENDBRANCH   6  13
BRANCH   6  19
HETATM   19  C   UNL     1      -9.540  16.325  65.730  1.00  0.00    -0.266 C  
HETATM   20  C   UNL     1     -11.609  15.125  65.196  1.00  0.00    -0.245 C  
HETATM   21  N   UNL     1     -10.614  14.119  65.558  1.00  0.00    -0.309 NA 
HETATM   22  C   UNL     1      -9.348  14.804  65.861  1.00  0.00    -0.154 C  
HETATM   23  C   UNL     1     -10.833  16.398  64.899  1.00  0.00    -0.268 C  
BRANCH  21  24
HETATM   24  C   UNL     1     -11.034  13.217  66.646  1.00  0.00    -0.283 C  
BRANCH  24  25
HETATM   25  C   UNL     1     -11.622  11.873  66.177  1.00  0.00    -0.299 C  
BRANCH  25  26
HETATM   26  C   UNL     1     -10.712  11.168  65.187  1.00  0.00    -0.279 A  
HETATM   27  C   UNL     1      -9.865  10.139  65.620  1.00  0.00    -0.347 A  
HETATM   28  C   UNL     1      -9.066   9.492  64.689  1.00  0.00    -0.263 A  
HETATM   29  C   UNL     1      -9.109   9.845  63.353  1.00  0.00    -0.261 A  
HETATM   30  O   UNL     1      -8.288   9.096  62.554  1.00  0.00    -0.163 OA 
HETATM   31  C   UNL     1      -9.927  10.852  62.891  1.00  0.00    -0.251 A  
HETATM   32  C   UNL     1     -10.732  11.524  63.821  1.00  0.00    -0.474 A  
HETATM   33  C   UNL     1      -7.546   8.258  63.470  1.00  0.00    -0.134 C  
HETATM   34  C   UNL     1      -8.106   8.391  64.887  1.00  0.00    -0.149 C  
ENDBRANCH  25  26
ENDBRANCH  24  25
ENDBRANCH  21  24
ENDBRANCH   6  19
ENDBRANCH   2   6
TORSDOF 7
ENDMDL
MODEL      134
REMARK 921   NORMALIZED FREE ENERGY PREDICTED BY IDOCK:   -4.79 KCAL/MOL
REMARK 922        TOTAL FREE ENERGY PREDICTED BY IDOCK:   -8.53 KCAL/MOL
REMARK 923 INTER-LIGAND FREE ENERGY PREDICTED BY IDOCK:   -7.67 KCAL/MOL
REMARK 924 INTRA-LIGAND FREE ENERGY PREDICTED BY IDOCK:   -0.86 KCAL/MOL
REMARK 927      BINDING AFFINITY PREDICTED BY RF-SCORE:    0.00 PKD
ROOT
HETATM    1  N   UNL     1     -10.411  14.580  69.173  1.00  0.00    -0.306 N  
HETATM    2  C   UNL     1     -10.613  15.557  68.231  1.00  0.00    -0.255 C  
HETATM    3  H1  UNL     1      -9.455  14.239  69.265  1.00  0.00     0.000 HD 
HETATM    4  H2  UNL     1     -11.172  14.216  69.747  1.00  0.00     0.000 HD 
HETATM    5  O   UNL     1     -11.763  15.967  68.120  1.00  0.00    -0.292 OA 
ENDROOT
BRANCH   2   6
HETATM    6  C   UNL     1      -9.349  16.115  67.448  1.00  0.00    -0.220 C  
BRANCH   6   7
HETATM    7  C   UNL     1      -9.341  17.701  67.600  1.00  0.00    -0.246 A  
HETATM    8  C   UNL     1      -9.192  20.515  68.020  1.00  0.00    -0.108 A  
HETATM    9  C   UNL     1     -10.042  19.737  68.793  1.00  0.00    -0.523 A  
HETATM   10  C   UNL     1      -8.459  19.918  67.004  1.00  0.00    -0.380 A  
HETATM   11  C   UNL     1     -10.131  18.356  68.573  1.00  0.00    -0.413 A  
HETATM   12  C   UNL     1      -8.541  18.535  66.793  1.00  0.00    -0.290 A  
ENDBRANCH   6   7
BRANCH   6  13
HETATM   13  C   UNL     1      -8.045  15.486  68.066  1.00  0.00    -0.140 A  
HETATM   14  C   UNL     1      -7.307  14.510  67.352  1.00  0.00    -0.183 A  
HETATM   15  C   UNL     1      -6.193  13.873  67.908  1.00  0.00    -0.164 A  
HETATM   16  C   UNL     1      -5.760  14.210  69.183  1.00  0.00    -0.085 A  
HETATM   17  C   UNL     1      -7.552  15.837  69.333  1.00  0.00    -0.214 A  
HETATM   18  C   UNL     1      -6.434  15.204  69.894  1.00  0.00    -0.171 A  
ENDBRANCH   6  13
BRANCH   6  19
HETATM   19  C   UNL     1      -9.428  15.740  65.889  1.00  0.00    -0.377 C  
HETATM   20  C   UNL     1     -11.552  15.964  64.687  1.00  0.00    -0.200 C  
HETATM   21  N   UNL     1     -11.253  14.537  64.762  1.00  0.00    -0.389 NA 
HETATM   22  C   UNL     1      -9.968  14.366  65.458  1.00  0.00    -0.329 C  
HETATM   23  C   UNL     1     -10.249  16.685  64.993  1.00  0.00     0.350 C  
BRANCH  21  24
HETATM   24  C   UNL     1     -12.326  13.725  65.366  1.00  0.00    -0.475 C  
BRANCH  24  25
HETATM   25  C   UNL     1     -12.642  12.417  64.618  1.00  0.00    -0.459 C  
BRANCH  25  26
HETATM   26  C   UNL     1     -11.451  11.477  64.585  1.00  0.00    -0.168 A  
HETATM   27  C   UNL     1     -11.106  10.739  65.725  1.00  0.00     0.138 A  
HETATM   28  C   UNL     1     -10.030   9.866  65.658  1.00  0.00    -0.353 A  
HETATM   29  C   UNL     1      -9.315   9.714  64.486  1.00  0.00    -0.182 A  
HETATM   30  O   UNL     1      -8.304   8.794  64.567  1.00  0.00    -0.161 OA 
HETATM   31  C   UNL     1      -9.623  10.423  63.346  1.00  0.00    -0.361 A  
HETATM   32  C   UNL     1     -10.699  11.320  63.401  1.00  0.00    -0.349 A  
HETATM   33  C   UNL     1      -8.276   8.398  65.958  1.00  0.00    -0.112 C  
HETATM   34  C   UNL     1      -9.477   8.985  66.703  1.00  0.00    -0.251 C  
ENDBRANCH  25  26
ENDBRANCH  24  25
ENDBRANCH  21  24
ENDBRANCH   6  19
ENDBRANCH   2   6
TORSDOF 7
ENDMDL
MODEL      135
REMARK 921   NORMALIZED FREE ENERGY PREDICTED BY IDOCK:   -4.77 KCAL/MOL
REMARK 922        TOTAL FREE ENERGY PREDICTED BY IDOCK:   -8.49 KCAL/MOL
REMARK 923 INTER-LIGAND FREE ENERGY PREDICTED BY IDOCK:   -7.96 KCAL/MOL
REMARK 924 INTRA-LIGAND FREE ENERGY PREDICTED BY IDOCK:   -0.54 KCAL/MOL
REMARK 927      BINDING AFFINITY PREDICTED BY RF-SCORE:    0.00 PKD
ROOT
HETATM    1  N   UNL     1      -7.991   3.975  71.640  1.00  0.00    -0.072 N  
HETATM    2  C   UNL     1      -8.963   4.894  71.939  1.00  0.00    -0.135 C  
HETATM    3  H1  UNL     1      -7.177   4.330  71.139  1.00  0.00     0.000 HD 
HETATM    4  H2  UNL     1      -8.076   2.993  71.904  1.00  0.00     0.000 HD 
HETATM    5  O   UNL     1      -9.941   4.467  72.542  1.00  0.00    -0.155 OA 
ENDROOT
BRANCH   2   6
HETATM    6  C   UNL     1      -8.698   6.414  71.558  1.00  0.00    -0.134 C  
BRANCH   6   7
HETATM    7  C   UNL     1     -10.101   7.170  71.566  1.00  0.00    -0.197 A  
HETATM    8  C   UNL     1     -12.572   8.577  71.389  1.00  0.00    -0.309 A  
HETATM    9  C   UNL     1     -11.407   9.251  71.725  1.00  0.00    -0.437 A  
HETATM   10  C   UNL     1     -12.532   7.204  71.197  1.00  0.00    -0.400 A  
HETATM   11  C   UNL     1     -10.195   8.556  71.832  1.00  0.00    -0.369 A  
HETATM   12  C   UNL     1     -11.317   6.512  71.293  1.00  0.00    -0.355 A  
ENDBRANCH   6   7
BRANCH   6  13
HETATM   13  C   UNL     1      -7.716   7.044  72.615  1.00  0.00    -0.091 A  
HETATM   14  C   UNL     1      -8.208   7.876  73.650  1.00  0.00    -0.264 A  
HETATM   15  C   UNL     1      -7.352   8.516  74.553  1.00  0.00    -0.230 A  
HETATM   16  C   UNL     1      -5.981   8.323  74.472  1.00  0.00    -0.117 A  
HETATM   17  C   UNL     1      -6.329   6.832  72.591  1.00  0.00    -0.054 A  
HETATM   18  C   UNL     1      -5.467   7.468  73.495  1.00  0.00    -0.045 A  
ENDBRANCH   6  13
BRANCH   6  19
HETATM   19  C   UNL     1      -8.048   6.535  70.096  1.00  0.00    -0.121 C  
HETATM   20  C   UNL     1      -8.057   8.690  68.929  1.00  0.00    -0.118 C  
HETATM   21  N   UNL     1      -8.949   7.801  68.190  1.00  0.00    -0.128 NA 
HETATM   22  C   UNL     1      -8.949   6.486  68.850  1.00  0.00    -0.128 C  
HETATM   23  C   UNL     1      -7.208   7.793  69.815  1.00  0.00    -0.067 C  
BRANCH  21  24
HETATM   24  C   UNL     1     -10.313   8.331  68.005  1.00  0.00    -0.213 C  
BRANCH  24  25
HETATM   25  C   UNL     1     -10.464   9.835  68.300  1.00  0.00    -0.255 C  
BRANCH  25  26
HETATM   26  C   UNL     1     -10.714  10.641  67.038  1.00  0.00    -0.317 A  
HETATM   27  C   UNL     1     -11.485  11.810  67.091  1.00  0.00    -0.366 A  
HETATM   28  C   UNL     1     -11.673  12.542  65.928  1.00  0.00    -0.480 A  
HETATM   29  C   UNL     1     -11.103  12.136  64.736  1.00  0.00    -0.316 A  
HETATM   30  O   UNL     1     -11.353  12.977  63.685  1.00  0.00    -0.418 OA 
HETATM   31  C   UNL     1     -10.341  10.992  64.645  1.00  0.00    -0.410 A  
HETATM   32  C   UNL     1     -10.152  10.233  65.808  1.00  0.00    -0.325 A  
HETATM   33  C   UNL     1     -12.275  13.960  64.210  1.00  0.00    -0.408 C  
HETATM   34  C   UNL     1     -12.429  13.792  65.723  1.00  0.00    -0.527 C  
ENDBRANCH  25  26
ENDBRANCH  24  25
ENDBRANCH  21  24
ENDBRANCH   6  19
ENDBRANCH   2   6
TORSDOF 7
ENDMDL
MODEL      136
REMARK 921   NORMALIZED FREE ENERGY PREDICTED BY IDOCK:   -4.76 KCAL/MOL
REMARK 922        TOTAL FREE ENERGY PREDICTED BY IDOCK:   -8.49 KCAL/MOL
REMARK 923 INTER-LIGAND FREE ENERGY PREDICTED BY IDOCK:   -8.21 KCAL/MOL
REMARK 924 INTRA-LIGAND FREE ENERGY PREDICTED BY IDOCK:   -0.28 KCAL/MOL
REMARK 927      BINDING AFFINITY PREDICTED BY RF-SCORE:    0.00 PKD
ROOT
HETATM    1  N   UNL     1     -11.245   6.190  69.804  1.00  0.00    -0.414 N  
HETATM    2  C   UNL     1     -10.356   7.130  70.261  1.00  0.00    -0.201 C  
HETATM    3  H1  UNL     1     -11.805   6.460  68.996  1.00  0.00     0.000 HD 
HETATM    4  H2  UNL     1     -11.340   5.275  70.245  1.00  0.00     0.000 HD 
HETATM    5  O   UNL     1      -9.683   6.805  71.232  1.00  0.00    -0.173 OA 
ENDROOT
BRANCH   2   6
HETATM    6  C   UNL     1     -10.226   8.492  69.453  1.00  0.00    -0.211 C  
BRANCH   6   7
HETATM    7  C   UNL     1     -11.228   9.545  70.106  1.00  0.00    -0.275 A  
HETATM    8  C   UNL     1     -12.887  11.449  71.424  1.00  0.00    -0.502 A  
HETATM    9  C   UNL     1     -12.942  10.109  71.780  1.00  0.00    -0.567 A  
HETATM   10  C   UNL     1     -12.060  11.842  70.382  1.00  0.00    -0.421 A  
HETATM   11  C   UNL     1     -12.141   9.169  71.118  1.00  0.00    -0.365 A  
HETATM   12  C   UNL     1     -11.251  10.902  69.729  1.00  0.00    -0.351 A  
ENDBRANCH   6   7
BRANCH   6  13
HETATM   13  C   UNL     1      -8.739   9.001  69.546  1.00  0.00    -0.144 A  
HETATM   14  C   UNL     1      -7.675   8.088  69.745  1.00  0.00    -0.101 A  
HETATM   15  C   UNL     1      -6.355   8.517  69.914  1.00  0.00    -0.034 A  
HETATM   16  C   UNL     1      -6.047   9.869  69.860  1.00  0.00    -0.048 A  
HETATM   17  C   UNL     1      -8.387  10.357  69.448  1.00  0.00    -0.152 A  
HETATM   18  C   UNL     1      -7.065  10.792  69.614  1.00  0.00    -0.136 A  
ENDBRANCH   6  13
BRANCH   6  19
HETATM   19  C   UNL     1     -10.618   8.285  67.911  1.00  0.00    -0.212 C  
HETATM   20  C   UNL     1      -8.960   8.727  66.160  1.00  0.00    -0.185 C  
HETATM   21  N   UNL     1      -9.998   9.746  66.032  1.00  0.00    -0.273 NA 
HETATM   22  C   UNL     1     -11.026   9.496  67.055  1.00  0.00     0.084 C  
HETATM   23  C   UNL     1      -9.560   7.620  67.013  1.00  0.00    -0.228 C  
BRANCH  21  24
HETATM   24  C   UNL     1      -9.494  11.131  66.076  1.00  0.00    -0.208 C  
BRANCH  24  25
HETATM   25  C   UNL     1     -10.306  12.083  66.974  1.00  0.00    -0.235 C  
BRANCH  25  26
HETATM   26  C   UNL     1     -10.006  13.541  66.678  1.00  0.00    -0.282 A  
HETATM   27  C   UNL     1      -8.743  14.072  66.970  1.00  0.00    -0.220 A  
HETATM   28  C   UNL     1      -8.487  15.401  66.662  1.00  0.00    -0.296 A  
HETATM   29  C   UNL     1      -9.453  16.187  66.067  1.00  0.00    -0.339 A  
HETATM   30  O   UNL     1      -9.042  17.465  65.796  1.00  0.00    -0.517 OA 
HETATM   31  C   UNL     1     -10.706  15.701  65.766  1.00  0.00    -0.350 A  
HETATM   32  C   UNL     1     -10.986  14.365  66.083  1.00  0.00    -0.320 A  
HETATM   33  C   UNL     1      -7.723  17.559  66.382  1.00  0.00    -0.297 C  
HETATM   34  C   UNL     1      -7.254  16.184  66.864  1.00  0.00    -0.240 C  
ENDBRANCH  25  26
ENDBRANCH  24  25
ENDBRANCH  21  24
ENDBRANCH   6  19
ENDBRANCH   2   6
TORSDOF 7
ENDMDL
MODEL      137
REMARK 921   NORMALIZED FREE ENERGY PREDICTED BY IDOCK:   -4.74 KCAL/MOL
REMARK 922        TOTAL FREE ENERGY PREDICTED BY IDOCK:   -8.46 KCAL/MOL
REMARK 923 INTER-LIGAND FREE ENERGY PREDICTED BY IDOCK:   -7.56 KCAL/MOL
REMARK 924 INTRA-LIGAND FREE ENERGY PREDICTED BY IDOCK:   -0.90 KCAL/MOL
REMARK 927      BINDING AFFINITY PREDICTED BY RF-SCORE:    0.00 PKD
ROOT
HETATM    1  N   UNL     1      -9.916   9.479  65.048  1.00  0.00    -0.355 N  
HETATM    2  C   UNL     1     -10.137  10.006  66.295  1.00  0.00    -0.243 C  
HETATM    3  H1  UNL     1      -9.302   8.665  65.009  1.00  0.00     0.000 HD 
HETATM    4  H2  UNL     1     -10.340   9.877  64.210  1.00  0.00     0.000 HD 
HETATM    5  O   UNL     1     -10.874  10.984  66.342  1.00  0.00    -0.257 OA 
ENDROOT
BRANCH   2   6
HETATM    6  C   UNL     1      -9.497   9.264  67.546  1.00  0.00    -0.160 C  
BRANCH   6   7
HETATM    7  C   UNL     1     -10.402   9.584  68.818  1.00  0.00    -0.228 A  
HETATM    8  C   UNL     1     -11.851  10.203  71.191  1.00  0.00    -0.472 A  
HETATM    9  C   UNL     1     -11.308   8.939  71.014  1.00  0.00    -0.350 A  
HETATM   10  C   UNL     1     -11.731  11.143  70.178  1.00  0.00    -0.439 A  
HETATM   11  C   UNL     1     -10.613   8.628  69.838  1.00  0.00    -0.227 A  
HETATM   12  C   UNL     1     -11.026  10.834  69.007  1.00  0.00    -0.289 A  
ENDBRANCH   6   7
BRANCH   6  13
HETATM   13  C   UNL     1      -9.461   7.716  67.260  1.00  0.00    -0.185 A  
HETATM   14  C   UNL     1     -10.652   7.009  66.967  1.00  0.00    -0.412 A  
HETATM   15  C   UNL     1     -10.663   5.621  66.790  1.00  0.00    -0.358 A  
HETATM   16  C   UNL     1      -9.482   4.898  66.869  1.00  0.00    -0.156 A  
HETATM   17  C   UNL     1      -8.277   6.961  67.285  1.00  0.00    -0.118 A  
HETATM   18  C   UNL     1      -8.282   5.571  67.106  1.00  0.00    -0.101 A  
ENDBRANCH   6  13
BRANCH   6  19
HETATM   19  C   UNL     1      -8.005   9.785  67.822  1.00  0.00    -0.101 C  
HETATM   20  C   UNL     1      -7.645  11.793  69.180  1.00  0.00     0.081 C  
HETATM   21  N   UNL     1      -7.245  12.124  67.815  1.00  0.00    -0.102 NA 
HETATM   22  C   UNL     1      -7.425  10.930  66.975  1.00  0.00    -0.122 C  
HETATM   23  C   UNL     1      -7.697  10.275  69.247  1.00  0.00    -0.130 C  
BRANCH  21  24
HETATM   24  C   UNL     1      -7.925  13.307  67.255  1.00  0.00    -0.125 C  
BRANCH  24  25
HETATM   25  C   UNL     1      -9.187  13.745  68.021  1.00  0.00    -0.195 C  
BRANCH  25  26
HETATM   26  C   UNL     1      -9.294  15.256  68.126  1.00  0.00    -0.198 A  
HETATM   27  C   UNL     1      -8.138  16.033  68.283  1.00  0.00    -0.150 A  
HETATM   28  C   UNL     1      -8.262  17.413  68.348  1.00  0.00    -0.262 A  
HETATM   29  C   UNL     1      -9.501  18.017  68.248  1.00  0.00    -0.302 A  
HETATM   30  O   UNL     1      -9.458  19.385  68.297  1.00  0.00    -0.330 OA 
HETATM   31  C   UNL     1     -10.658  17.286  68.096  1.00  0.00    -0.386 A  
HETATM   32  C   UNL     1     -10.552  15.890  68.042  1.00  0.00    -0.287 A  
HETATM   33  C   UNL     1      -8.076  19.700  68.580  1.00  0.00    -0.304 C  
HETATM   34  C   UNL     1      -7.214  18.438  68.503  1.00  0.00    -0.298 C  
ENDBRANCH  25  26
ENDBRANCH  24  25
ENDBRANCH  21  24
ENDBRANCH   6  19
ENDBRANCH   2   6
TORSDOF 7
ENDMDL
MODEL      138
REMARK 921   NORMALIZED FREE ENERGY PREDICTED BY IDOCK:   -4.73 KCAL/MOL
REMARK 922        TOTAL FREE ENERGY PREDICTED BY IDOCK:   -8.44 KCAL/MOL
REMARK 923 INTER-LIGAND FREE ENERGY PREDICTED BY IDOCK:   -7.97 KCAL/MOL
REMARK 924 INTRA-LIGAND FREE ENERGY PREDICTED BY IDOCK:   -0.47 KCAL/MOL
REMARK 927      BINDING AFFINITY PREDICTED BY RF-SCORE:    0.00 PKD
ROOT
HETATM    1  N   UNL     1      -6.793   5.543  70.942  1.00  0.00    -0.047 N  
HETATM    2  C   UNL     1      -8.146   5.373  70.804  1.00  0.00    -0.111 C  
HETATM    3  H1  UNL     1      -6.386   6.330  70.436  1.00  0.00     0.000 HD 
HETATM    4  H2  UNL     1      -6.225   4.920  71.518  1.00  0.00     0.000 HD 
HETATM    5  O   UNL     1      -8.634   4.428  71.412  1.00  0.00    -0.103 OA 
ENDROOT
BRANCH   2   6
HETATM    6  C   UNL     1      -8.953   6.446  69.952  1.00  0.00    -0.142 C  
BRANCH   6   7
HETATM    7  C   UNL     1      -9.488   5.723  68.638  1.00  0.00    -0.144 A  
HETATM    8  C   UNL     1     -10.317   4.542  66.181  1.00  0.00    -0.258 A  
HETATM    9  C   UNL     1     -10.880   5.735  66.608  1.00  0.00    -0.290 A  
HETATM   10  C   UNL     1      -9.389   3.900  66.990  1.00  0.00    -0.212 A  
HETATM   11  C   UNL     1     -10.488   6.306  67.825  1.00  0.00    -0.289 A  
HETATM   12  C   UNL     1      -8.990   4.478  68.202  1.00  0.00    -0.140 A  
ENDBRANCH   6   7
BRANCH   6  13
HETATM   13  C   UNL     1     -10.148   6.993  70.818  1.00  0.00    -0.205 A  
HETATM   14  C   UNL     1      -9.950   7.354  72.173  1.00  0.00    -0.203 A  
HETATM   15  C   UNL     1     -11.009   7.764  72.990  1.00  0.00    -0.442 A  
HETATM   16  C   UNL     1     -12.294   7.856  72.475  1.00  0.00    -0.188 A  
HETATM   17  C   UNL     1     -11.450   7.144  70.315  1.00  0.00    -0.287 A  
HETATM   18  C   UNL     1     -12.514   7.557  71.130  1.00  0.00    -0.306 A  
ENDBRANCH   6  13
BRANCH   6  19
HETATM   19  C   UNL     1      -8.006   7.670  69.526  1.00  0.00    -0.125 C  
HETATM   20  C   UNL     1      -8.618   9.960  70.148  1.00  0.00    -0.105 C  
HETATM   21  N   UNL     1      -8.735   9.867  68.695  1.00  0.00    -0.120 NA 
HETATM   22  C   UNL     1      -8.350   8.508  68.283  1.00  0.00    -0.124 C  
HETATM   23  C   UNL     1      -7.780   8.768  70.581  1.00  0.00    -0.096 C  
BRANCH  21  24
HETATM   24  C   UNL     1     -10.056  10.255  68.169  1.00  0.00    -0.150 C  
BRANCH  24  25
HETATM   25  C   UNL     1     -11.203  10.182  69.194  1.00  0.00    -0.234 C  
BRANCH  25  26
HETATM   26  C   UNL     1     -11.637  11.560  69.661  1.00  0.00    -0.403 A  
HETATM   27  C   UNL     1     -12.309  11.708  70.882  1.00  0.00    -0.436 A  
HETATM   28  C   UNL     1     -12.668  12.982  71.298  1.00  0.00    -0.385 A  
HETATM   29  C   UNL     1     -12.362  14.090  70.531  1.00  0.00    -0.367 A  
HETATM   30  O   UNL     1     -12.753  15.278  71.089  1.00  0.00    -0.342 OA 
HETATM   31  C   UNL     1     -11.705  13.982  69.325  1.00  0.00    -0.372 A  
HETATM   32  C   UNL     1     -11.347  12.702  68.884  1.00  0.00    -0.345 A  
HETATM   33  C   UNL     1     -13.494  14.903  72.272  1.00  0.00    -0.409 C  
HETATM   34  C   UNL     1     -13.368  13.400  72.527  1.00  0.00    -0.588 C  
ENDBRANCH  25  26
ENDBRANCH  24  25
ENDBRANCH  21  24
ENDBRANCH   6  19
ENDBRANCH   2   6
TORSDOF 7
ENDMDL
MODEL      139
REMARK 921   NORMALIZED FREE ENERGY PREDICTED BY IDOCK:   -4.72 KCAL/MOL
REMARK 922        TOTAL FREE ENERGY PREDICTED BY IDOCK:   -8.43 KCAL/MOL
REMARK 923 INTER-LIGAND FREE ENERGY PREDICTED BY IDOCK:   -6.78 KCAL/MOL
REMARK 924 INTRA-LIGAND FREE ENERGY PREDICTED BY IDOCK:   -1.65 KCAL/MOL
REMARK 927      BINDING AFFINITY PREDICTED BY RF-SCORE:    0.00 PKD
ROOT
HETATM    1  N   UNL     1      -6.401  10.743  64.582  1.00  0.00    -0.370 N  
HETATM    2  C   UNL     1      -7.028   9.694  65.205  1.00  0.00    -0.106 C  
HETATM    3  H1  UNL     1      -6.777  11.670  64.780  1.00  0.00     0.000 HD 
HETATM    4  H2  UNL     1      -5.606  10.605  63.958  1.00  0.00     0.000 HD 
HETATM    5  O   UNL     1      -6.576   8.580  64.967  1.00  0.00    -0.063 OA 
ENDROOT
BRANCH   2   6
HETATM    6  C   UNL     1      -8.204  10.021  66.222  1.00  0.00    -0.124 C  
BRANCH   6   7
HETATM    7  C   UNL     1      -9.238  10.980  65.480  1.00  0.00    -0.235 A  
HETATM    8  C   UNL     1     -11.233  12.605  64.257  1.00  0.00    -0.410 A  
HETATM    9  C   UNL     1     -10.940  11.351  63.742  1.00  0.00    -0.448 A  
HETATM   10  C   UNL     1     -10.505  13.083  65.337  1.00  0.00    -0.308 A  
HETATM   11  C   UNL     1      -9.945  10.560  64.330  1.00  0.00    -0.410 A  
HETATM   12  C   UNL     1      -9.517  12.286  65.931  1.00  0.00    -0.160 A  
ENDBRANCH   6   7
BRANCH   6  13
HETATM   13  C   UNL     1      -8.898   8.675  66.653  1.00  0.00    -0.155 A  
HETATM   14  C   UNL     1     -10.307   8.594  66.762  1.00  0.00    -0.336 A  
HETATM   15  C   UNL     1     -10.947   7.438  67.222  1.00  0.00    -0.234 A  
HETATM   16  C   UNL     1     -10.204   6.316  67.560  1.00  0.00    -0.213 A  
HETATM   17  C   UNL     1      -8.179   7.508  66.957  1.00  0.00    -0.124 A  
HETATM   18  C   UNL     1      -8.816   6.346  67.416  1.00  0.00    -0.104 A  
ENDBRANCH   6  13
BRANCH   6  19
HETATM   19  C   UNL     1      -7.643  10.768  67.527  1.00  0.00    -0.094 C  
HETATM   20  C   UNL     1      -6.085   9.608  69.022  1.00  0.00    -0.041 C  
HETATM   21  N   UNL     1      -7.334   9.783  69.760  1.00  0.00    -0.099 NA 
HETATM   22  C   UNL     1      -8.287  10.501  68.898  1.00  0.00    -0.147 C  
HETATM   23  C   UNL     1      -6.151  10.571  67.847  1.00  0.00    -0.047 C  
BRANCH  21  24
HETATM   24  C   UNL     1      -7.900   8.532  70.296  1.00  0.00    -0.090 C  
BRANCH  24  25
HETATM   25  C   UNL     1      -9.411   8.584  70.591  1.00  0.00    -0.202 C  
BRANCH  25  26
HETATM   26  C   UNL     1      -9.829   7.537  71.607  1.00  0.00    -0.185 A  
HETATM   27  C   UNL     1      -9.795   6.177  71.269  1.00  0.00    -0.204 A  
HETATM   28  C   UNL     1     -10.155   5.240  72.227  1.00  0.00    -0.237 A  
HETATM   29  C   UNL     1     -10.532   5.634  73.496  1.00  0.00    -0.254 A  
HETATM   30  O   UNL     1     -10.828   4.595  74.337  1.00  0.00    -0.328 OA 
HETATM   31  C   UNL     1     -10.580   6.961  73.863  1.00  0.00    -0.260 A  
HETATM   32  C   UNL     1     -10.231   7.922  72.904  1.00  0.00    -0.397 A  
HETATM   33  C   UNL     1     -10.758   3.415  73.503  1.00  0.00    -0.214 C  
HETATM   34  C   UNL     1     -10.198   3.770  72.123  1.00  0.00    -0.179 C  
ENDBRANCH  25  26
ENDBRANCH  24  25
ENDBRANCH  21  24
ENDBRANCH   6  19
ENDBRANCH   2   6
TORSDOF 7
ENDMDL
MODEL      140
REMARK 921   NORMALIZED FREE ENERGY PREDICTED BY IDOCK:   -4.70 KCAL/MOL
REMARK 922        TOTAL FREE ENERGY PREDICTED BY IDOCK:   -8.41 KCAL/MOL
REMARK 923 INTER-LIGAND FREE ENERGY PREDICTED BY IDOCK:   -8.13 KCAL/MOL
REMARK 924 INTRA-LIGAND FREE ENERGY PREDICTED BY IDOCK:   -0.27 KCAL/MOL
REMARK 927      BINDING AFFINITY PREDICTED BY RF-SCORE:    0.00 PKD
ROOT
HETATM    1  N   UNL     1     -10.782   7.481  68.088  1.00  0.00    -0.399 N  
HETATM    2  C   UNL     1     -10.869   6.961  69.354  1.00  0.00    -0.249 C  
HETATM    3  H1  UNL     1      -9.969   8.067  67.899  1.00  0.00     0.000 HD 
HETATM    4  H2  UNL     1     -11.489   7.293  67.376  1.00  0.00     0.000 HD 
HETATM    5  O   UNL     1     -11.846   6.257  69.580  1.00  0.00    -0.290 OA 
ENDROOT
BRANCH   2   6
HETATM    6  C   UNL     1      -9.674   7.245  70.363  1.00  0.00    -0.172 C  
BRANCH   6   7
HETATM    7  C   UNL     1      -9.955   6.418  71.696  1.00  0.00    -0.195 A  
HETATM    8  C   UNL     1     -10.258   4.917  74.098  1.00  0.00    -0.278 A  
HETATM    9  C   UNL     1     -10.137   4.267  72.878  1.00  0.00    -0.212 A  
HETATM   10  C   UNL     1     -10.288   6.304  74.130  1.00  0.00    -0.319 A  
HETATM   11  C   UNL     1     -10.008   5.006  71.695  1.00  0.00    -0.249 A  
HETATM   12  C   UNL     1     -10.148   7.040  72.946  1.00  0.00    -0.225 A  
ENDBRANCH   6   7
BRANCH   6  13
HETATM   13  C   UNL     1      -8.322   6.793  69.697  1.00  0.00    -0.132 A  
HETATM   14  C   UNL     1      -7.157   6.611  70.481  1.00  0.00    -0.068 A  
HETATM   15  C   UNL     1      -5.922   6.291  69.907  1.00  0.00    -0.018 A  
HETATM   16  C   UNL     1      -5.815   6.111  68.535  1.00  0.00    -0.013 A  
HETATM   17  C   UNL     1      -8.190   6.557  68.319  1.00  0.00    -0.114 A  
HETATM   18  C   UNL     1      -6.955   6.232  67.739  1.00  0.00    -0.075 A  
ENDBRANCH   6  13
BRANCH   6  19
HETATM   19  C   UNL     1      -9.588   8.806  70.725  1.00  0.00    -0.256 C  
HETATM   20  C   UNL     1     -11.260  10.360  69.834  1.00  0.00    -0.306 C  
HETATM   21  N   UNL     1      -9.989  10.690  69.195  1.00  0.00    -0.216 NA 
HETATM   22  C   UNL     1      -8.953   9.790  69.727  1.00  0.00    -0.221 C  
HETATM   23  C   UNL     1     -10.915   9.514  71.049  1.00  0.00    -0.424 C  
BRANCH  21  24
HETATM   24  C   UNL     1     -10.031  10.680  67.722  1.00  0.00    -0.167 C  
BRANCH  24  25
HETATM   25  C   UNL     1     -11.282  11.339  67.110  1.00  0.00    -0.344 C  
BRANCH  25  26
HETATM   26  C   UNL     1     -11.008  12.756  66.641  1.00  0.00    -0.300 A  
HETATM   27  C   UNL     1     -10.959  13.806  67.567  1.00  0.00    -0.285 A  
HETATM   28  C   UNL     1     -10.678  15.087  67.114  1.00  0.00    -0.303 A  
HETATM   29  C   UNL     1     -10.438  15.327  65.775  1.00  0.00    -0.349 A  
HETATM   30  O   UNL     1     -10.144  16.633  65.488  1.00  0.00    -0.553 OA 
HETATM   31  C   UNL     1     -10.479  14.321  64.835  1.00  0.00    -0.454 A  
HETATM   32  C   UNL     1     -10.775  13.023  65.274  1.00  0.00    -0.317 A  
HETATM   33  C   UNL     1     -10.331  17.336  66.738  1.00  0.00    -0.308 C  
HETATM   34  C   UNL     1     -10.567  16.344  67.878  1.00  0.00    -0.320 C  
ENDBRANCH  25  26
ENDBRANCH  24  25
ENDBRANCH  21  24
ENDBRANCH   6  19
ENDBRANCH   2   6
TORSDOF 7
ENDMDL
MODEL      141
REMARK 921   NORMALIZED FREE ENERGY PREDICTED BY IDOCK:   -4.68 KCAL/MOL
REMARK 922        TOTAL FREE ENERGY PREDICTED BY IDOCK:   -8.37 KCAL/MOL
REMARK 923 INTER-LIGAND FREE ENERGY PREDICTED BY IDOCK:   -8.17 KCAL/MOL
REMARK 924 INTRA-LIGAND FREE ENERGY PREDICTED BY IDOCK:   -0.19 KCAL/MOL
REMARK 927      BINDING AFFINITY PREDICTED BY RF-SCORE:    0.00 PKD
ROOT
HETATM    1  N   UNL     1      -9.585   3.107  70.367  1.00  0.00    -0.159 N  
HETATM    2  C   UNL     1      -9.155   4.291  70.910  1.00  0.00    -0.126 C  
HETATM    3  H1  UNL     1     -10.073   3.175  69.474  1.00  0.00     0.000 HD 
HETATM    4  H2  UNL     1      -9.426   2.211  70.829  1.00  0.00     0.000 HD 
HETATM    5  O   UNL     1      -8.569   4.208  71.983  1.00  0.00    -0.102 OA 
ENDROOT
BRANCH   2   6
HETATM    6  C   UNL     1      -9.378   5.623  70.073  1.00  0.00    -0.183 C  
BRANCH   6   7
HETATM    7  C   UNL     1     -10.432   6.523  70.860  1.00  0.00    -0.263 A  
HETATM    8  C   UNL     1     -12.272   8.281  72.139  1.00  0.00    -0.418 A  
HETATM    9  C   UNL     1     -10.929   8.304  72.485  1.00  0.00    -0.424 A  
HETATM   10  C   UNL     1     -12.719   7.355  71.208  1.00  0.00    -0.371 A  
HETATM   11  C   UNL     1     -10.027   7.425  71.871  1.00  0.00    -0.196 A  
HETATM   12  C   UNL     1     -11.814   6.485  70.587  1.00  0.00    -0.398 A  
ENDBRANCH   6   7
BRANCH   6  13
HETATM   13  C   UNL     1      -8.001   6.371  69.925  1.00  0.00    -0.116 A  
HETATM   14  C   UNL     1      -6.780   5.668  70.066  1.00  0.00    -0.048 A  
HETATM   15  C   UNL     1      -5.543   6.320  70.022  1.00  0.00    -0.014 A  
HETATM   16  C   UNL     1      -5.482   7.689  69.808  1.00  0.00    -0.023 A  
HETATM   17  C   UNL     1      -7.902   7.747  69.661  1.00  0.00    -0.107 A  
HETATM   18  C   UNL     1      -6.665   8.404  69.614  1.00  0.00    -0.037 A  
ENDBRANCH   6  13
BRANCH   6  19
HETATM   19  C   UNL     1      -9.960   5.294  68.614  1.00  0.00    -0.234 C  
HETATM   20  C   UNL     1      -9.016   6.407  66.645  1.00  0.00    -0.140 C  
HETATM   21  N   UNL     1     -10.379   6.907  66.805  1.00  0.00    -0.235 NA 
HETATM   22  C   UNL     1     -10.986   6.239  67.967  1.00  0.00    -0.327 C  
HETATM   23  C   UNL     1      -8.932   5.139  67.480  1.00  0.00    -0.110 C  
BRANCH  21  24
HETATM   24  C   UNL     1     -10.478   8.375  66.892  1.00  0.00    -0.289 C  
BRANCH  24  25
HETATM   25  C   UNL     1      -9.540   9.141  65.940  1.00  0.00    -0.343 C  
BRANCH  25  26
HETATM   26  C   UNL     1     -10.195  10.387  65.374  1.00  0.00    -0.329 A  
HETATM   27  C   UNL     1     -10.910  11.250  66.216  1.00  0.00    -0.296 A  
HETATM   28  C   UNL     1     -11.475  12.397  65.678  1.00  0.00    -0.412 A  
HETATM   29  C   UNL     1     -11.328  12.694  64.336  1.00  0.00    -0.344 A  
HETATM   30  O   UNL     1     -11.914  13.874  63.961  1.00  0.00    -0.439 OA 
HETATM   31  C   UNL     1     -10.635  11.870  63.478  1.00  0.00    -0.507 A  
HETATM   32  C   UNL     1     -10.069  10.700  64.003  1.00  0.00    -0.378 A  
HETATM   33  C   UNL     1     -12.614  14.329  65.141  1.00  0.00    -0.372 C  
HETATM   34  C   UNL     1     -12.260  13.452  66.344  1.00  0.00    -0.435 C  
ENDBRANCH  25  26
ENDBRANCH  24  25
ENDBRANCH  21  24
ENDBRANCH   6  19
ENDBRANCH   2   6
TORSDOF 7
ENDMDL
MODEL      142
REMARK 921   NORMALIZED FREE ENERGY PREDICTED BY IDOCK:   -4.66 KCAL/MOL
REMARK 922        TOTAL FREE ENERGY PREDICTED BY IDOCK:   -8.34 KCAL/MOL
REMARK 923 INTER-LIGAND FREE ENERGY PREDICTED BY IDOCK:   -7.47 KCAL/MOL
REMARK 924 INTRA-LIGAND FREE ENERGY PREDICTED BY IDOCK:   -0.87 KCAL/MOL
REMARK 927      BINDING AFFINITY PREDICTED BY RF-SCORE:    0.00 PKD
ROOT
HETATM    1  N   UNL     1      -9.002   7.209  66.269  1.00  0.00    -0.157 N  
HETATM    2  C   UNL     1     -10.073   7.525  67.064  1.00  0.00    -0.261 C  
HETATM    3  H1  UNL     1      -8.100   7.579  66.566  1.00  0.00     0.000 HD 
HETATM    4  H2  UNL     1      -9.100   6.636  65.430  1.00  0.00     0.000 HD 
HETATM    5  O   UNL     1     -11.158   7.079  66.706  1.00  0.00    -0.289 OA 
ENDROOT
BRANCH   2   6
HETATM    6  C   UNL     1      -9.802   8.352  68.393  1.00  0.00    -0.192 C  
BRANCH   6   7
HETATM    7  C   UNL     1     -10.607   9.722  68.288  1.00  0.00    -0.271 A  
HETATM    8  C   UNL     1     -11.878  12.268  68.150  1.00  0.00    -0.372 A  
HETATM    9  C   UNL     1     -11.773  11.604  69.364  1.00  0.00    -0.405 A  
HETATM   10  C   UNL     1     -11.410  11.655  66.997  1.00  0.00    -0.373 A  
HETATM   11  C   UNL     1     -11.167  10.343  69.428  1.00  0.00    -0.314 A  
HETATM   12  C   UNL     1     -10.794  10.399  67.065  1.00  0.00    -0.269 A  
ENDBRANCH   6   7
BRANCH   6  13
HETATM   13  C   UNL     1     -10.289   7.508  69.630  1.00  0.00    -0.225 A  
HETATM   14  C   UNL     1      -9.997   6.125  69.719  1.00  0.00    -0.213 A  
HETATM   15  C   UNL     1     -10.487   5.333  70.762  1.00  0.00    -0.298 A  
HETATM   16  C   UNL     1     -11.259   5.899  71.767  1.00  0.00    -0.311 A  
HETATM   17  C   UNL     1     -11.032   8.059  70.686  1.00  0.00    -0.250 A  
HETATM   18  C   UNL     1     -11.523   7.270  71.736  1.00  0.00    -0.300 A  
ENDBRANCH   6  13
BRANCH   6  19
HETATM   19  C   UNL     1      -8.239   8.676  68.558  1.00  0.00    -0.122 C  
HETATM   20  C   UNL     1      -7.523  10.560  69.953  1.00  0.00    -0.080 C  
HETATM   21  N   UNL     1      -7.197  10.904  68.571  1.00  0.00    -0.085 NA 
HETATM   22  C   UNL     1      -7.591   9.780  67.706  1.00  0.00    -0.090 C  
HETATM   23  C   UNL     1      -7.758   9.058  69.969  1.00  0.00    -0.082 C  
BRANCH  21  24
HETATM   24  C   UNL     1      -7.768  12.184  68.116  1.00  0.00    -0.129 C  
BRANCH  24  25
HETATM   25  C   UNL     1      -7.054  13.436  68.659  1.00  0.00    -0.106 C  
BRANCH  25  26
HETATM   26  C   UNL     1      -7.954  14.659  68.639  1.00  0.00    -0.141 A  
HETATM   27  C   UNL     1      -7.400  15.941  68.743  1.00  0.00    -0.159 A  
HETATM   28  C   UNL     1      -8.243  17.042  68.694  1.00  0.00    -0.261 A  
HETATM   29  C   UNL     1      -9.606  16.882  68.533  1.00  0.00    -0.262 A  
HETATM   30  O   UNL     1     -10.301  18.060  68.471  1.00  0.00    -0.373 OA 
HETATM   31  C   UNL     1     -10.187  15.637  68.429  1.00  0.00    -0.222 A  
HETATM   32  C   UNL     1      -9.351  14.514  68.491  1.00  0.00    -0.203 A  
HETATM   33  C   UNL     1      -9.315  19.084  68.740  1.00  0.00    -0.357 C  
HETATM   34  C   UNL     1      -7.911  18.476  68.776  1.00  0.00    -0.294 C  
ENDBRANCH  25  26
ENDBRANCH  24  25
ENDBRANCH  21  24
ENDBRANCH   6  19
ENDBRANCH   2   6
TORSDOF 7
ENDMDL
MODEL      143
REMARK 921   NORMALIZED FREE ENERGY PREDICTED BY IDOCK:   -4.64 KCAL/MOL
REMARK 922        TOTAL FREE ENERGY PREDICTED BY IDOCK:   -8.32 KCAL/MOL
REMARK 923 INTER-LIGAND FREE ENERGY PREDICTED BY IDOCK:   -8.11 KCAL/MOL
REMARK 924 INTRA-LIGAND FREE ENERGY PREDICTED BY IDOCK:   -0.21 KCAL/MOL
REMARK 927      BINDING AFFINITY PREDICTED BY RF-SCORE:    0.00 PKD
ROOT
HETATM    1  N   UNL     1      -9.416  14.029  68.595  1.00  0.00    -0.323 N  
HETATM    2  C   UNL     1      -9.170  13.641  67.302  1.00  0.00    -0.232 C  
HETATM    3  H1  UNL     1      -9.810  13.316  69.208  1.00  0.00     0.000 HD 
HETATM    4  H2  UNL     1      -9.216  14.974  68.923  1.00  0.00     0.000 HD 
HETATM    5  O   UNL     1      -8.697  14.497  66.565  1.00  0.00    -0.187 OA 
ENDROOT
BRANCH   2   6
HETATM    6  C   UNL     1      -9.438  12.124  66.912  1.00  0.00    -0.210 C  
BRANCH   6   7
HETATM    7  C   UNL     1     -10.435  12.108  65.670  1.00  0.00    -0.290 A  
HETATM    8  C   UNL     1     -12.178  12.277  63.423  1.00  0.00    -0.630 A  
HETATM    9  C   UNL     1     -12.636  12.612  64.688  1.00  0.00    -0.517 A  
HETATM   10  C   UNL     1     -10.882  11.804  63.271  1.00  0.00    -0.400 A  
HETATM   11  C   UNL     1     -11.785  12.510  65.797  1.00  0.00    -0.478 A  
HETATM   12  C   UNL     1     -10.030  11.713  64.379  1.00  0.00    -0.298 A  
ENDBRANCH   6   7
BRANCH   6  13
HETATM   13  C   UNL     1      -8.069  11.441  66.542  1.00  0.00    -0.141 A  
HETATM   14  C   UNL     1      -6.841  12.073  66.854  1.00  0.00    -0.036 A  
HETATM   15  C   UNL     1      -5.612  11.531  66.464  1.00  0.00    -0.119 A  
HETATM   16  C   UNL     1      -5.565  10.327  65.776  1.00  0.00    -0.079 A  
HETATM   17  C   UNL     1      -7.985  10.201  65.887  1.00  0.00    -0.134 A  
HETATM   18  C   UNL     1      -6.755   9.653  65.497  1.00  0.00    -0.085 A  
ENDBRANCH   6  13
BRANCH   6  19
HETATM   19  C   UNL     1     -10.112  11.328  68.132  1.00  0.00    -0.195 C  
HETATM   20  C   UNL     1      -9.162   9.192  68.869  1.00  0.00    -0.139 C  
HETATM   21  N   UNL     1     -10.466   8.898  68.280  1.00  0.00    -0.213 NA 
HETATM   22  C   UNL     1     -11.078  10.165  67.848  1.00  0.00    -0.238 C  
HETATM   23  C   UNL     1      -9.154  10.686  69.151  1.00  0.00    -0.152 C  
BRANCH  21  24
HETATM   24  C   UNL     1     -10.429   7.899  67.196  1.00  0.00    -0.344 C  
BRANCH  24  25
HETATM   25  C   UNL     1     -11.103   6.557  67.535  1.00  0.00    -0.396 C  
BRANCH  25  26
HETATM   26  C   UNL     1     -10.931   6.185  68.996  1.00  0.00    -0.436 A  
HETATM   27  C   UNL     1      -9.877   5.350  69.389  1.00  0.00    -0.252 A  
HETATM   28  C   UNL     1      -9.726   5.050  70.736  1.00  0.00    -0.263 A  
HETATM   29  C   UNL     1     -10.590   5.572  71.678  1.00  0.00    -0.231 A  
HETATM   30  O   UNL     1     -10.294   5.212  72.965  1.00  0.00    -0.174 OA 
HETATM   31  C   UNL     1     -11.638   6.395  71.329  1.00  0.00    -0.370 A  
HETATM   32  C   UNL     1     -11.813   6.698  69.972  1.00  0.00    -0.301 A  
HETATM   33  C   UNL     1      -9.208   4.264  72.842  1.00  0.00    -0.112 C  
HETATM   34  C   UNL     1      -8.710   4.210  71.396  1.00  0.00    -0.137 C  
ENDBRANCH  25  26
ENDBRANCH  24  25
ENDBRANCH  21  24
ENDBRANCH   6  19
ENDBRANCH   2   6
TORSDOF 7
ENDMDL
MODEL      144
REMARK 921   NORMALIZED FREE ENERGY PREDICTED BY IDOCK:   -4.64 KCAL/MOL
REMARK 922        TOTAL FREE ENERGY PREDICTED BY IDOCK:   -8.32 KCAL/MOL
REMARK 923 INTER-LIGAND FREE ENERGY PREDICTED BY IDOCK:   -7.66 KCAL/MOL
REMARK 924 INTRA-LIGAND FREE ENERGY PREDICTED BY IDOCK:   -0.65 KCAL/MOL
REMARK 927      BINDING AFFINITY PREDICTED BY RF-SCORE:    0.00 PKD
ROOT
HETATM    1  N   UNL     1      -8.097   8.416  71.213  1.00  0.00    -0.115 N  
HETATM    2  C   UNL     1      -8.274   7.655  70.087  1.00  0.00    -0.124 C  
HETATM    3  H1  UNL     1      -8.177   9.425  71.089  1.00  0.00     0.000 HD 
HETATM    4  H2  UNL     1      -7.897   7.998  72.123  1.00  0.00     0.000 HD 
HETATM    5  O   UNL     1      -8.177   6.442  70.237  1.00  0.00    -0.121 OA 
ENDROOT
BRANCH   2   6
HETATM    6  C   UNL     1      -8.663   8.396  68.736  1.00  0.00    -0.136 C  
BRANCH   6   7
HETATM    7  C   UNL     1      -9.010   7.282  67.651  1.00  0.00    -0.126 A  
HETATM    8  C   UNL     1      -9.542   5.155  65.832  1.00  0.00    -0.163 A  
HETATM    9  C   UNL     1      -8.316   5.804  65.809  1.00  0.00    -0.134 A  
HETATM   10  C   UNL     1     -10.525   5.589  66.709  1.00  0.00    -0.355 A  
HETATM   11  C   UNL     1      -8.061   6.863  66.689  1.00  0.00    -0.110 A  
HETATM   12  C   UNL     1     -10.265   6.642  67.596  1.00  0.00    -0.220 A  
ENDBRANCH   6   7
BRANCH   6  13
HETATM   13  C   UNL     1      -9.906   9.325  69.002  1.00  0.00    -0.168 A  
HETATM   14  C   UNL     1     -10.601   9.925  67.923  1.00  0.00    -0.303 A  
HETATM   15  C   UNL     1     -11.655  10.820  68.131  1.00  0.00    -0.276 A  
HETATM   16  C   UNL     1     -12.071  11.124  69.420  1.00  0.00    -0.396 A  
HETATM   17  C   UNL     1     -10.382   9.616  70.290  1.00  0.00    -0.336 A  
HETATM   18  C   UNL     1     -11.440  10.510  70.503  1.00  0.00    -0.433 A  
ENDBRANCH   6  13
BRANCH   6  19
HETATM   19  C   UNL     1      -7.442   9.288  68.198  1.00  0.00    -0.083 C  
HETATM   20  C   UNL     1      -6.738  11.274  69.449  1.00  0.00    -0.123 C  
HETATM   21  N   UNL     1      -7.313  11.744  68.191  1.00  0.00    -0.087 NA 
HETATM   22  C   UNL     1      -7.725  10.573  67.401  1.00  0.00    -0.102 C  
HETATM   23  C   UNL     1      -6.442   9.796  69.251  1.00  0.00    -0.048 C  
BRANCH  21  24
HETATM   24  C   UNL     1      -8.406  12.719  68.353  1.00  0.00    -0.119 C  
BRANCH  24  25
HETATM   25  C   UNL     1      -8.247  14.008  67.526  1.00  0.00    -0.195 C  
BRANCH  25  26
HETATM   26  C   UNL     1      -9.334  14.149  66.475  1.00  0.00    -0.285 A  
HETATM   27  C   UNL     1      -9.848  13.011  65.839  1.00  0.00    -0.243 A  
HETATM   28  C   UNL     1     -10.861  13.166  64.904  1.00  0.00    -0.348 A  
HETATM   29  C   UNL     1     -11.366  14.418  64.609  1.00  0.00    -0.371 A  
HETATM   30  O   UNL     1     -12.382  14.406  63.691  1.00  0.00    -0.722 OA 
HETATM   31  C   UNL     1     -10.884  15.559  65.212  1.00  0.00    -0.425 A  
HETATM   32  C   UNL     1      -9.852  15.421  66.150  1.00  0.00    -0.337 A  
HETATM   33  C   UNL     1     -12.466  13.031  63.252  1.00  0.00    -0.190 C  
HETATM   34  C   UNL     1     -11.564  12.141  64.110  1.00  0.00    -0.467 C  
ENDBRANCH  25  26
ENDBRANCH  24  25
ENDBRANCH  21  24
ENDBRANCH   6  19
ENDBRANCH   2   6
TORSDOF 7
ENDMDL
MODEL      145
REMARK 921   NORMALIZED FREE ENERGY PREDICTED BY IDOCK:   -4.63 KCAL/MOL
REMARK 922        TOTAL FREE ENERGY PREDICTED BY IDOCK:   -8.31 KCAL/MOL
REMARK 923 INTER-LIGAND FREE ENERGY PREDICTED BY IDOCK:   -6.92 KCAL/MOL
REMARK 924 INTRA-LIGAND FREE ENERGY PREDICTED BY IDOCK:   -1.39 KCAL/MOL
REMARK 927      BINDING AFFINITY PREDICTED BY RF-SCORE:    0.00 PKD
ROOT
HETATM    1  N   UNL     1      -8.696   3.148  69.768  1.00  0.00    -0.066 N  
HETATM    2  C   UNL     1      -8.101   4.364  69.547  1.00  0.00    -0.060 C  
HETATM    3  H1  UNL     1      -9.633   3.175  70.170  1.00  0.00     0.000 HD 
HETATM    4  H2  UNL     1      -8.230   2.269  69.543  1.00  0.00     0.000 HD 
HETATM    5  O   UNL     1      -6.975   4.331  69.064  1.00  0.00    -0.049 OA 
ENDROOT
BRANCH   2   6
HETATM    6  C   UNL     1      -8.943   5.676  69.853  1.00  0.00    -0.142 C  
BRANCH   6   7
HETATM    7  C   UNL     1      -9.650   5.483  71.268  1.00  0.00    -0.198 A  
HETATM    8  C   UNL     1     -10.861   5.328  73.841  1.00  0.00    -0.269 A  
HETATM    9  C   UNL     1      -9.507   5.071  73.690  1.00  0.00    -0.131 A  
HETATM   10  C   UNL     1     -11.631   5.603  72.720  1.00  0.00    -0.289 A  
HETATM   11  C   UNL     1      -8.914   5.128  72.421  1.00  0.00    -0.138 A  
HETATM   12  C   UNL     1     -11.034   5.670  71.453  1.00  0.00    -0.260 A  
ENDBRANCH   6   7
BRANCH   6  13
HETATM   13  C   UNL     1      -7.970   6.914  69.876  1.00  0.00    -0.120 A  
HETATM   14  C   UNL     1      -8.148   7.953  70.822  1.00  0.00    -0.101 A  
HETATM   15  C   UNL     1      -7.353   9.103  70.814  1.00  0.00    -0.120 A  
HETATM   16  C   UNL     1      -6.335   9.243  69.881  1.00  0.00    -0.043 A  
HETATM   17  C   UNL     1      -6.902   7.065  68.977  1.00  0.00    -0.065 A  
HETATM   18  C   UNL     1      -6.100   8.215  68.967  1.00  0.00    -0.039 A  
ENDBRANCH   6  13
BRANCH   6  19
HETATM   19  C   UNL     1     -10.069   5.910  68.733  1.00  0.00    -0.220 C  
HETATM   20  C   UNL     1      -9.411   6.339  66.412  1.00  0.00    -0.133 C  
HETATM   21  N   UNL     1     -10.010   7.570  66.920  1.00  0.00    -0.227 NA 
HETATM   22  C   UNL     1     -10.440   7.341  68.308  1.00  0.00    -0.199 C  
HETATM   23  C   UNL     1      -9.836   5.237  67.369  1.00  0.00    -0.183 C  
BRANCH  21  24
HETATM   24  C   UNL     1      -9.147   8.759  66.794  1.00  0.00    -0.146 C  
BRANCH  24  25
HETATM   25  C   UNL     1      -9.511   9.921  67.737  1.00  0.00    -0.158 C  
BRANCH  25  26
HETATM   26  C   UNL     1     -10.376  10.963  67.050  1.00  0.00    -0.276 A  
HETATM   27  C   UNL     1     -10.504  10.961  65.654  1.00  0.00    -0.274 A  
HETATM   28  C   UNL     1     -11.324  11.906  65.055  1.00  0.00    -0.333 A  
HETATM   29  C   UNL     1     -12.013  12.829  65.817  1.00  0.00    -0.449 A  
HETATM   30  O   UNL     1     -12.804  13.675  65.086  1.00  0.00    -0.687 OA 
HETATM   31  C   UNL     1     -11.910  12.864  67.191  1.00  0.00    -0.424 A  
HETATM   32  C   UNL     1     -11.076  11.924  67.811  1.00  0.00    -0.295 A  
HETATM   33  C   UNL     1     -12.509  13.355  63.707  1.00  0.00    -0.246 C  
HETATM   34  C   UNL     1     -11.625  12.109  63.626  1.00  0.00    -0.575 C  
ENDBRANCH  25  26
ENDBRANCH  24  25
ENDBRANCH  21  24
ENDBRANCH   6  19
ENDBRANCH   2   6
TORSDOF 7
ENDMDL
MODEL      146
REMARK 921   NORMALIZED FREE ENERGY PREDICTED BY IDOCK:   -4.62 KCAL/MOL
REMARK 922        TOTAL FREE ENERGY PREDICTED BY IDOCK:   -8.29 KCAL/MOL
REMARK 923 INTER-LIGAND FREE ENERGY PREDICTED BY IDOCK:   -8.67 KCAL/MOL
REMARK 924 INTRA-LIGAND FREE ENERGY PREDICTED BY IDOCK:    0.37 KCAL/MOL
REMARK 927      BINDING AFFINITY PREDICTED BY RF-SCORE:    0.00 PKD
ROOT
HETATM    1  N   UNL     1      -9.835  17.185  69.474  1.00  0.00     0.026 N  
HETATM    2  C   UNL     1      -9.351  17.963  68.453  1.00  0.00    -0.288 C  
HETATM    3  H1  UNL     1      -9.365  16.291  69.617  1.00  0.00     0.000 HD 
HETATM    4  H2  UNL     1     -10.619  17.482  70.056  1.00  0.00     0.000 HD 
HETATM    5  O   UNL     1      -9.916  19.036  68.281  1.00  0.00    -0.350 OA 
ENDROOT
BRANCH   2   6
HETATM    6  C   UNL     1      -8.075  17.447  67.659  1.00  0.00    -0.203 C  
BRANCH   6   7
HETATM    7  C   UNL     1      -7.453  18.687  66.876  1.00  0.00    -0.230 A  
HETATM    8  C   UNL     1      -6.171  20.874  65.577  1.00  0.00    -0.263 A  
HETATM    9  C   UNL     1      -6.776  21.053  66.812  1.00  0.00    -0.360 A  
HETATM   10  C   UNL     1      -6.247  19.636  64.955  1.00  0.00    -0.318 A  
HETATM   11  C   UNL     1      -7.425  19.983  67.442  1.00  0.00    -0.314 A  
HETATM   12  C   UNL     1      -6.887  18.564  65.591  1.00  0.00    -0.279 A  
ENDBRANCH   6   7
BRANCH   6  13
HETATM   13  C   UNL     1      -7.038  16.855  68.685  1.00  0.00    -0.203 A  
HETATM   14  C   UNL     1      -6.983  15.462  68.932  1.00  0.00    -0.127 A  
HETATM   15  C   UNL     1      -6.131  14.916  69.898  1.00  0.00    -0.140 A  
HETATM   16  C   UNL     1      -5.285  15.738  70.628  1.00  0.00    -0.168 A  
HETATM   17  C   UNL     1      -6.135  17.653  69.406  1.00  0.00    -0.242 A  
HETATM   18  C   UNL     1      -5.277  17.110  70.373  1.00  0.00    -0.243 A  
ENDBRANCH   6  13
BRANCH   6  19
HETATM   19  C   UNL     1      -8.478  16.309  66.601  1.00  0.00    -0.306 C  
HETATM   20  C   UNL     1     -10.763  15.424  66.573  1.00  0.00    -0.308 C  
HETATM   21  N   UNL     1      -9.892  14.343  67.030  1.00  0.00    -0.246 NA 
HETATM   22  C   UNL     1      -8.505  14.834  67.035  1.00  0.00    -0.222 C  
HETATM   23  C   UNL     1      -9.852  16.453  65.924  1.00  0.00    -0.344 C  
BRANCH  21  24
HETATM   24  C   UNL     1     -10.282  13.761  68.327  1.00  0.00    -0.245 C  
BRANCH  24  25
HETATM   25  C   UNL     1     -11.768  13.372  68.437  1.00  0.00    -0.390 C  
BRANCH  25  26
HETATM   26  C   UNL     1     -12.005  12.325  69.511  1.00  0.00    -0.333 A  
HETATM   27  C   UNL     1     -11.498  11.029  69.352  1.00  0.00    -0.364 A  
HETATM   28  C   UNL     1     -11.705  10.100  70.362  1.00  0.00    -0.390 A  
HETATM   29  C   UNL     1     -12.389  10.446  71.511  1.00  0.00    -0.368 A  
HETATM   30  O   UNL     1     -12.484   9.433  72.428  1.00  0.00    -0.301 OA 
HETATM   31  C   UNL     1     -12.903  11.709  71.702  1.00  0.00    -0.454 A  
HETATM   32  C   UNL     1     -12.714  12.656  70.686  1.00  0.00    -0.141 A  
HETATM   33  C   UNL     1     -11.918   8.280  71.763  1.00  0.00    -0.316 C  
HETATM   34  C   UNL     1     -11.276   8.691  70.436  1.00  0.00    -0.236 C  
ENDBRANCH  25  26
ENDBRANCH  24  25
ENDBRANCH  21  24
ENDBRANCH   6  19
ENDBRANCH   2   6
TORSDOF 7
ENDMDL
MODEL      147
REMARK 921   NORMALIZED FREE ENERGY PREDICTED BY IDOCK:   -4.62 KCAL/MOL
REMARK 922        TOTAL FREE ENERGY PREDICTED BY IDOCK:   -8.29 KCAL/MOL
REMARK 923 INTER-LIGAND FREE ENERGY PREDICTED BY IDOCK:   -7.95 KCAL/MOL
REMARK 924 INTRA-LIGAND FREE ENERGY PREDICTED BY IDOCK:   -0.34 KCAL/MOL
REMARK 927      BINDING AFFINITY PREDICTED BY RF-SCORE:    0.00 PKD
ROOT
HETATM    1  N   UNL     1      -8.482  12.247  66.233  1.00  0.00    -0.393 N  
HETATM    2  C   UNL     1      -9.068  12.107  67.465  1.00  0.00    -0.180 C  
HETATM    3  H1  UNL     1      -9.105  12.500  65.467  1.00  0.00     0.000 HD 
HETATM    4  H2  UNL     1      -7.481  12.107  66.091  1.00  0.00     0.000 HD 
HETATM    5  O   UNL     1      -8.318  11.803  68.386  1.00  0.00    -0.149 OA 
ENDROOT
BRANCH   2   6
HETATM    6  C   UNL     1     -10.619  12.429  67.597  1.00  0.00    -0.236 C  
BRANCH   6   7
HETATM    7  C   UNL     1     -10.777  13.670  68.583  1.00  0.00    -0.272 A  
HETATM    8  C   UNL     1     -11.123  15.999  70.187  1.00  0.00    -0.372 A  
HETATM    9  C   UNL     1      -9.945  15.806  69.481  1.00  0.00    -0.283 A  
HETATM   10  C   UNL     1     -12.107  15.020  70.150  1.00  0.00    -0.378 A  
HETATM   11  C   UNL     1      -9.766  14.651  68.709  1.00  0.00    -0.217 A  
HETATM   12  C   UNL     1     -11.930  13.871  69.368  1.00  0.00    -0.402 A  
ENDBRANCH   6   7
BRANCH   6  13
HETATM   13  C   UNL     1     -11.195  12.767  66.172  1.00  0.00    -0.336 A  
HETATM   14  C   UNL     1     -11.343  11.752  65.195  1.00  0.00    -0.281 A  
HETATM   15  C   UNL     1     -11.773  12.036  63.895  1.00  0.00    -0.537 A  
HETATM   16  C   UNL     1     -12.099  13.335  63.534  1.00  0.00    -0.550 A  
HETATM   17  C   UNL     1     -11.578  14.062  65.789  1.00  0.00    -0.339 A  
HETATM   18  C   UNL     1     -12.012  14.351  64.488  1.00  0.00    -0.487 A  
ENDBRANCH   6  13
BRANCH   6  19
HETATM   19  C   UNL     1     -11.415  11.174  68.205  1.00  0.00    -0.373 C  
HETATM   20  C   UNL     1     -10.575  10.054  70.216  1.00  0.00    -0.295 C  
HETATM   21  N   UNL     1     -10.429   9.111  69.110  1.00  0.00    -0.216 NA 
HETATM   22  C   UNL     1     -10.948   9.744  67.887  1.00  0.00    -0.188 C  
HETATM   23  C   UNL     1     -11.548  11.118  69.737  1.00  0.00    -0.409 C  
BRANCH  21  24
HETATM   24  C   UNL     1      -9.058   8.596  68.932  1.00  0.00    -0.145 C  
BRANCH  24  25
HETATM   25  C   UNL     1      -8.463   7.909  70.175  1.00  0.00    -0.129 C  
BRANCH  25  26
HETATM   26  C   UNL     1      -8.244   6.423  69.955  1.00  0.00    -0.126 A  
HETATM   27  C   UNL     1      -9.166   5.680  69.205  1.00  0.00    -0.139 A  
HETATM   28  C   UNL     1      -8.926   4.330  68.995  1.00  0.00    -0.157 A  
HETATM   29  C   UNL     1      -7.793   3.725  69.505  1.00  0.00    -0.051 A  
HETATM   30  O   UNL     1      -7.680   2.398  69.188  1.00  0.00    -0.043 OA 
HETATM   31  C   UNL     1      -6.866   4.423  70.248  1.00  0.00    -0.034 A  
HETATM   32  C   UNL     1      -7.099   5.785  70.480  1.00  0.00    -0.067 A  
HETATM   33  C   UNL     1      -8.917   2.074  68.512  1.00  0.00    -0.125 C  
HETATM   34  C   UNL     1      -9.729   3.344  68.249  1.00  0.00    -0.039 C  
ENDBRANCH  25  26
ENDBRANCH  24  25
ENDBRANCH  21  24
ENDBRANCH   6  19
ENDBRANCH   2   6
TORSDOF 7
ENDMDL
MODEL      148
REMARK 921   NORMALIZED FREE ENERGY PREDICTED BY IDOCK:   -4.62 KCAL/MOL
REMARK 922        TOTAL FREE ENERGY PREDICTED BY IDOCK:   -8.29 KCAL/MOL
REMARK 923 INTER-LIGAND FREE ENERGY PREDICTED BY IDOCK:   -7.24 KCAL/MOL
REMARK 924 INTRA-LIGAND FREE ENERGY PREDICTED BY IDOCK:   -1.05 KCAL/MOL
REMARK 927      BINDING AFFINITY PREDICTED BY RF-SCORE:    0.00 PKD
ROOT
HETATM    1  N   UNL     1     -10.604  10.051  64.639  1.00  0.00     0.033 N  
HETATM    2  C   UNL     1     -10.071  10.790  65.664  1.00  0.00    -0.267 C  
HETATM    3  H1  UNL     1     -10.556   9.038  64.745  1.00  0.00     0.000 HD 
HETATM    4  H2  UNL     1     -11.024  10.489  63.818  1.00  0.00     0.000 HD 
HETATM    5  O   UNL     1     -10.129  12.007  65.536  1.00  0.00    -0.241 OA 
ENDROOT
BRANCH   2   6
HETATM    6  C   UNL     1      -9.517  10.015  66.936  1.00  0.00    -0.203 C  
BRANCH   6   7
HETATM    7  C   UNL     1     -10.463  10.362  68.169  1.00  0.00    -0.221 A  
HETATM    8  C   UNL     1     -11.995  11.062  70.467  1.00  0.00    -0.474 A  
HETATM    9  C   UNL     1     -11.285   9.871  70.437  1.00  0.00    -0.379 A  
HETATM   10  C   UNL     1     -11.998  11.880  69.346  1.00  0.00    -0.350 A  
HETATM   11  C   UNL     1     -10.548   9.516  69.300  1.00  0.00    -0.236 A  
HETATM   12  C   UNL     1     -11.252  11.529  68.214  1.00  0.00    -0.322 A  
ENDBRANCH   6   7
BRANCH   6  13
HETATM   13  C   UNL     1      -9.527   8.469  66.638  1.00  0.00    -0.268 A  
HETATM   14  C   UNL     1     -10.613   7.662  67.058  1.00  0.00    -0.406 A  
HETATM   15  C   UNL     1     -10.612   6.274  66.881  1.00  0.00    -0.374 A  
HETATM   16  C   UNL     1      -9.544   5.649  66.254  1.00  0.00    -0.166 A  
HETATM   17  C   UNL     1      -8.485   7.812  65.965  1.00  0.00    -0.146 A  
HETATM   18  C   UNL     1      -8.481   6.422  65.783  1.00  0.00    -0.148 A  
ENDBRANCH   6  13
BRANCH   6  19
HETATM   19  C   UNL     1      -8.018  10.476  67.280  1.00  0.00    -0.114 C  
HETATM   20  C   UNL     1      -7.638  12.294  68.879  1.00  0.00     0.021 C  
HETATM   21  N   UNL     1      -7.225  12.786  67.567  1.00  0.00    -0.147 NA 
HETATM   22  C   UNL     1      -7.417  11.708  66.584  1.00  0.00    -0.037 C  
HETATM   23  C   UNL     1      -7.713  10.781  68.757  1.00  0.00    -0.121 C  
BRANCH  21  24
HETATM   24  C   UNL     1      -7.885  14.039  67.156  1.00  0.00    -0.024 C  
BRANCH  24  25
HETATM   25  C   UNL     1      -8.036  15.084  68.276  1.00  0.00    -0.128 C  
BRANCH  25  26
HETATM   26  C   UNL     1      -9.465  15.178  68.779  1.00  0.00    -0.209 A  
HETATM   27  C   UNL     1      -9.722  15.266  70.154  1.00  0.00     0.117 A  
HETATM   28  C   UNL     1     -11.036  15.379  70.584  1.00  0.00    -0.364 A  
HETATM   29  C   UNL     1     -12.077  15.418  69.676  1.00  0.00    -0.327 A  
HETATM   30  O   UNL     1     -13.311  15.564  70.251  1.00  0.00    -0.204 OA 
HETATM   31  C   UNL     1     -11.863  15.333  68.318  1.00  0.00    -0.251 A  
HETATM   32  C   UNL     1     -10.542  15.204  67.867  1.00  0.00    -0.257 A  
HETATM   33  C   UNL     1     -13.066  15.490  71.674  1.00  0.00    -0.481 C  
HETATM   34  C   UNL     1     -11.562  15.490  71.957  1.00  0.00    -0.542 C  
ENDBRANCH  25  26
ENDBRANCH  24  25
ENDBRANCH  21  24
ENDBRANCH   6  19
ENDBRANCH   2   6
TORSDOF 7
ENDMDL
MODEL      149
REMARK 921   NORMALIZED FREE ENERGY PREDICTED BY IDOCK:   -4.62 KCAL/MOL
REMARK 922        TOTAL FREE ENERGY PREDICTED BY IDOCK:   -8.28 KCAL/MOL
REMARK 923 INTER-LIGAND FREE ENERGY PREDICTED BY IDOCK:   -7.56 KCAL/MOL
REMARK 924 INTRA-LIGAND FREE ENERGY PREDICTED BY IDOCK:   -0.72 KCAL/MOL
REMARK 927      BINDING AFFINITY PREDICTED BY RF-SCORE:    0.00 PKD
ROOT
HETATM    1  N   UNL     1      -9.791   4.439  69.754  1.00  0.00    -0.221 N  
HETATM    2  C   UNL     1     -10.036   5.499  68.920  1.00  0.00    -0.174 C  
HETATM    3  H1  UNL     1      -9.280   4.652  70.611  1.00  0.00     0.000 HD 
HETATM    4  H2  UNL     1     -10.100   3.492  69.532  1.00  0.00     0.000 HD 
HETATM    5  O   UNL     1     -10.649   5.242  67.890  1.00  0.00    -0.135 OA 
ENDROOT
BRANCH   2   6
HETATM    6  C   UNL     1      -9.585   6.947  69.396  1.00  0.00    -0.147 C  
BRANCH   6   7
HETATM    7  C   UNL     1     -10.751   7.548  70.300  1.00  0.00    -0.247 A  
HETATM    8  C   UNL     1     -12.779   8.496  72.062  1.00  0.00    -0.421 A  
HETATM    9  C   UNL     1     -12.999   7.368  71.287  1.00  0.00    -0.358 A  
HETATM   10  C   UNL     1     -11.585   9.191  71.929  1.00  0.00    -0.430 A  
HETATM   11  C   UNL     1     -12.010   6.913  70.405  1.00  0.00    -0.312 A  
HETATM   12  C   UNL     1     -10.593   8.728  71.055  1.00  0.00    -0.293 A  
ENDBRANCH   6   7
BRANCH   6  13
HETATM   13  C   UNL     1      -8.247   6.823  70.216  1.00  0.00    -0.125 A  
HETATM   14  C   UNL     1      -7.031   6.498  69.567  1.00  0.00    -0.067 A  
HETATM   15  C   UNL     1      -5.844   6.299  70.279  1.00  0.00    -0.018 A  
HETATM   16  C   UNL     1      -5.823   6.447  71.659  1.00  0.00    -0.036 A  
HETATM   17  C   UNL     1      -8.181   7.012  71.606  1.00  0.00    -0.104 A  
HETATM   18  C   UNL     1      -6.993   6.817  72.324  1.00  0.00    -0.067 A  
ENDBRANCH   6  13
BRANCH   6  19
HETATM   19  C   UNL     1      -9.346   7.916  68.139  1.00  0.00    -0.146 C  
HETATM   20  C   UNL     1      -9.094  10.329  68.489  1.00  0.00    -0.138 C  
HETATM   21  N   UNL     1     -10.357  10.130  67.782  1.00  0.00    -0.195 NA 
HETATM   22  C   UNL     1     -10.529   8.690  67.533  1.00  0.00    -0.266 C  
HETATM   23  C   UNL     1      -8.309   9.038  68.321  1.00  0.00    -0.121 C  
BRANCH  21  24
HETATM   24  C   UNL     1     -11.527  10.722  68.456  1.00  0.00    -0.292 C  
BRANCH  24  25
HETATM   25  C   UNL     1     -11.262  12.081  69.130  1.00  0.00    -0.305 C  
BRANCH  25  26
HETATM   26  C   UNL     1     -11.047  13.188  68.113  1.00  0.00    -0.284 A  
HETATM   27  C   UNL     1     -11.787  13.203  66.924  1.00  0.00    -0.444 A  
HETATM   28  C   UNL     1     -11.592  14.243  66.025  1.00  0.00    -0.362 A  
HETATM   29  C   UNL     1     -10.692  15.254  66.300  1.00  0.00    -0.315 A  
HETATM   30  O   UNL     1     -10.633  16.223  65.334  1.00  0.00    -0.433 OA 
HETATM   31  C   UNL     1      -9.945  15.272  67.457  1.00  0.00    -0.226 A  
HETATM   32  C   UNL     1     -10.121  14.223  68.369  1.00  0.00    -0.243 A  
HETATM   33  C   UNL     1     -11.483  15.736  64.271  1.00  0.00    -0.198 C  
HETATM   34  C   UNL     1     -12.240  14.486  64.724  1.00  0.00    -0.441 C  
ENDBRANCH  25  26
ENDBRANCH  24  25
ENDBRANCH  21  24
ENDBRANCH   6  19
ENDBRANCH   2   6
TORSDOF 7
ENDMDL
MODEL      150
REMARK 921   NORMALIZED FREE ENERGY PREDICTED BY IDOCK:   -4.60 KCAL/MOL
REMARK 922        TOTAL FREE ENERGY PREDICTED BY IDOCK:   -8.27 KCAL/MOL
REMARK 923 INTER-LIGAND FREE ENERGY PREDICTED BY IDOCK:   -7.81 KCAL/MOL
REMARK 924 INTRA-LIGAND FREE ENERGY PREDICTED BY IDOCK:   -0.46 KCAL/MOL
REMARK 927      BINDING AFFINITY PREDICTED BY RF-SCORE:    0.00 PKD
ROOT
HETATM    1  N   UNL     1      -9.713  15.127  70.283  1.00  0.00    -0.398 N  
HETATM    2  C   UNL     1     -10.076  15.638  69.063  1.00  0.00    -0.227 C  
HETATM    3  H1  UNL     1      -8.713  14.996  70.434  1.00  0.00     0.000 HD 
HETATM    4  H2  UNL     1     -10.402  14.891  70.998  1.00  0.00     0.000 HD 
HETATM    5  O   UNL     1     -11.278  15.795  68.882  1.00  0.00    -0.287 OA 
ENDROOT
BRANCH   2   6
HETATM    6  C   UNL     1      -8.922  16.051  68.051  1.00  0.00    -0.187 C  
BRANCH   6   7
HETATM    7  C   UNL     1      -9.284  17.485  67.458  1.00  0.00    -0.242 A  
HETATM    8  C   UNL     1      -9.858  20.129  66.568  1.00  0.00    -0.574 A  
HETATM    9  C   UNL     1     -10.765  19.448  67.367  1.00  0.00    -0.594 A  
HETATM   10  C   UNL     1      -8.696  19.489  66.160  1.00  0.00    -0.332 A  
HETATM   11  C   UNL     1     -10.492  18.140  67.788  1.00  0.00    -0.421 A  
HETATM   12  C   UNL     1      -8.420  18.184  66.591  1.00  0.00    -0.282 A  
ENDBRANCH   6   7
BRANCH   6  13
HETATM   13  C   UNL     1      -7.553  16.093  68.826  1.00  0.00    -0.193 A  
HETATM   14  C   UNL     1      -6.830  14.901  69.077  1.00  0.00    -0.115 A  
HETATM   15  C   UNL     1      -5.654  14.896  69.834  1.00  0.00    -0.110 A  
HETATM   16  C   UNL     1      -5.143  16.084  70.339  1.00  0.00    -0.167 A  
HETATM   17  C   UNL     1      -6.984  17.282  69.309  1.00  0.00    -0.178 A  
HETATM   18  C   UNL     1      -5.803  17.283  70.065  1.00  0.00    -0.230 A  
ENDBRANCH   6  13
BRANCH   6  19
HETATM   19  C   UNL     1      -8.815  14.998  66.844  1.00  0.00    -0.285 C  
HETATM   20  C   UNL     1     -10.851  14.041  65.874  1.00  0.00    -0.288 C  
HETATM   21  N   UNL     1     -10.153  12.955  66.557  1.00  0.00    -0.255 NA 
HETATM   22  C   UNL     1      -8.909  13.490  67.132  1.00  0.00    -0.226 C  
HETATM   23  C   UNL     1      -9.831  15.154  65.700  1.00  0.00    -0.378 C  
BRANCH  21  24
HETATM   24  C   UNL     1     -10.970  12.247  67.560  1.00  0.00    -0.254 C  
BRANCH  24  25
HETATM   25  C   UNL     1     -11.399  10.825  67.153  1.00  0.00    -0.110 C  
BRANCH  25  26
HETATM   26  C   UNL     1     -10.277   9.818  67.335  1.00  0.00    -0.284 A  
HETATM   27  C   UNL     1      -9.603   9.730  68.560  1.00  0.00    -0.155 A  
HETATM   28  C   UNL     1      -8.602   8.781  68.708  1.00  0.00    -0.137 A  
HETATM   29  C   UNL     1      -8.279   7.927  67.672  1.00  0.00    -0.124 A  
HETATM   30  O   UNL     1      -7.294   7.027  67.979  1.00  0.00    -0.092 OA 
HETATM   31  C   UNL     1      -8.918   7.985  66.453  1.00  0.00    -0.204 A  
HETATM   32  C   UNL     1      -9.923   8.946  66.282  1.00  0.00    -0.337 A  
HETATM   33  C   UNL     1      -6.845   7.409  69.300  1.00  0.00    -0.053 C  
HETATM   34  C   UNL     1      -7.759   8.490  69.882  1.00  0.00    -0.091 C  
ENDBRANCH  25  26
ENDBRANCH  24  25
ENDBRANCH  21  24
ENDBRANCH   6  19
ENDBRANCH   2   6
TORSDOF 7
ENDMDL
MODEL      151
REMARK 921   NORMALIZED FREE ENERGY PREDICTED BY IDOCK:   -4.59 KCAL/MOL
REMARK 922        TOTAL FREE ENERGY PREDICTED BY IDOCK:   -8.24 KCAL/MOL
REMARK 923 INTER-LIGAND FREE ENERGY PREDICTED BY IDOCK:   -6.91 KCAL/MOL
REMARK 924 INTRA-LIGAND FREE ENERGY PREDICTED BY IDOCK:   -1.34 KCAL/MOL
REMARK 927      BINDING AFFINITY PREDICTED BY RF-SCORE:    0.00 PKD
ROOT
HETATM    1  N   UNL     1     -10.059  13.662  68.920  1.00  0.00    -0.416 N  
HETATM    2  C   UNL     1     -10.321  12.317  68.861  1.00  0.00    -0.059 C  
HETATM    3  H1  UNL     1      -9.445  14.030  68.195  1.00  0.00     0.000 HD 
HETATM    4  H2  UNL     1     -10.456  14.259  69.646  1.00  0.00     0.000 HD 
HETATM    5  O   UNL     1     -11.060  11.874  69.733  1.00  0.00    -0.118 OA 
ENDROOT
BRANCH   2   6
HETATM    6  C   UNL     1      -9.722  11.490  67.643  1.00  0.00    -0.182 C  
BRANCH   6   7
HETATM    7  C   UNL     1     -10.063   9.952  67.883  1.00  0.00    -0.210 A  
HETATM    8  C   UNL     1     -10.867   7.254  68.315  1.00  0.00    -0.114 A  
HETATM    9  C   UNL     1     -10.705   8.115  69.390  1.00  0.00    -0.164 A  
HETATM   10  C   UNL     1     -10.577   7.702  67.035  1.00  0.00    -0.406 A  
HETATM   11  C   UNL     1     -10.290   9.437  69.180  1.00  0.00    -0.221 A  
HETATM   12  C   UNL     1     -10.173   9.028  66.825  1.00  0.00    -0.341 A  
ENDBRANCH   6   7
BRANCH   6  13
HETATM   13  C   UNL     1     -10.371  12.006  66.305  1.00  0.00    -0.253 A  
HETATM   14  C   UNL     1     -11.726  12.418  66.274  1.00  0.00    -0.457 A  
HETATM   15  C   UNL     1     -12.353  12.802  65.084  1.00  0.00    -0.555 A  
HETATM   16  C   UNL     1     -11.642  12.817  63.892  1.00  0.00    -0.518 A  
HETATM   17  C   UNL     1      -9.668  12.079  65.092  1.00  0.00    -0.163 A  
HETATM   18  C   UNL     1     -10.291  12.466  63.898  1.00  0.00    -0.450 A  
ENDBRANCH   6  13
BRANCH   6  19
HETATM   19  C   UNL     1      -8.129  11.665  67.559  1.00  0.00    -0.144 C  
HETATM   20  C   UNL     1      -6.671   9.713  67.819  1.00  0.00    -0.066 C  
HETATM   21  N   UNL     1      -6.455  10.564  68.986  1.00  0.00    -0.051 NA 
HETATM   22  C   UNL     1      -7.299  11.761  68.851  1.00  0.00    -0.093 C  
HETATM   23  C   UNL     1      -7.356  10.587  66.781  1.00  0.00    -0.114 C  
BRANCH  21  24
HETATM   24  C   UNL     1      -6.659   9.881  70.277  1.00  0.00    -0.116 C  
BRANCH  24  25
HETATM   25  C   UNL     1      -6.870   8.359  70.175  1.00  0.00    -0.042 C  
BRANCH  25  26
HETATM   26  C   UNL     1      -7.852   7.849  71.213  1.00  0.00    -0.088 A  
HETATM   27  C   UNL     1      -8.267   6.510  71.190  1.00  0.00    -0.121 A  
HETATM   28  C   UNL     1      -9.143   6.063  72.169  1.00  0.00    -0.142 A  
HETATM   29  C   UNL     1      -9.593   6.916  73.158  1.00  0.00    -0.158 A  
HETATM   30  O   UNL     1     -10.426   6.322  74.068  1.00  0.00    -0.293 OA 
HETATM   31  C   UNL     1      -9.209   8.238  73.212  1.00  0.00    -0.263 A  
HETATM   32  C   UNL     1      -8.335   8.709  72.223  1.00  0.00    -0.128 A  
HETATM   33  C   UNL     1     -10.639   4.987  73.556  1.00  0.00    -0.256 C  
HETATM   34  C   UNL     1      -9.718   4.720  72.364  1.00  0.00    -0.202 C  
ENDBRANCH  25  26
ENDBRANCH  24  25
ENDBRANCH  21  24
ENDBRANCH   6  19
ENDBRANCH   2   6
TORSDOF 7
ENDMDL
MODEL      152
REMARK 921   NORMALIZED FREE ENERGY PREDICTED BY IDOCK:   -4.57 KCAL/MOL
REMARK 922        TOTAL FREE ENERGY PREDICTED BY IDOCK:   -8.22 KCAL/MOL
REMARK 923 INTER-LIGAND FREE ENERGY PREDICTED BY IDOCK:   -8.27 KCAL/MOL
REMARK 924 INTRA-LIGAND FREE ENERGY PREDICTED BY IDOCK:    0.04 KCAL/MOL
REMARK 927      BINDING AFFINITY PREDICTED BY RF-SCORE:    0.00 PKD
ROOT
HETATM    1  N   UNL     1     -10.943  15.325  66.000  1.00  0.00    -0.332 N  
HETATM    2  C   UNL     1     -11.308  14.772  67.201  1.00  0.00    -0.356 C  
HETATM    3  H1  UNL     1     -10.114  15.918  66.015  1.00  0.00     0.000 HD 
HETATM    4  H2  UNL     1     -11.469  15.153  65.143  1.00  0.00     0.000 HD 
HETATM    5  O   UNL     1     -12.305  14.059  67.183  1.00  0.00    -0.373 OA 
ENDROOT
BRANCH   2   6
HETATM    6  C   UNL     1     -10.375  15.034  68.461  1.00  0.00    -0.230 C  
BRANCH   6   7
HETATM    7  C   UNL     1      -9.788  16.510  68.335  1.00  0.00    -0.237 A  
HETATM    8  C   UNL     1      -8.676  19.100  67.925  1.00  0.00    -0.342 A  
HETATM    9  C   UNL     1      -7.880  18.063  68.388  1.00  0.00    -0.300 A  
HETATM   10  C   UNL     1     -10.030  18.878  67.719  1.00  0.00    -0.411 A  
HETATM   11  C   UNL     1      -8.431  16.794  68.609  1.00  0.00    -0.259 A  
HETATM   12  C   UNL     1     -10.577  17.606  67.930  1.00  0.00    -0.390 A  
ENDBRANCH   6   7
BRANCH   6  13
HETATM   13  C   UNL     1     -11.231  14.881  69.773  1.00  0.00    -0.308 A  
HETATM   14  C   UNL     1     -12.053  13.744  69.968  1.00  0.00    -0.416 A  
HETATM   15  C   UNL     1     -12.888  13.619  71.084  1.00  0.00    -0.399 A  
HETATM   16  C   UNL     1     -12.908  14.610  72.056  1.00  0.00    -0.403 A  
HETATM   17  C   UNL     1     -11.240  15.841  70.797  1.00  0.00    -0.404 A  
HETATM   18  C   UNL     1     -12.072  15.719  71.918  1.00  0.00    -0.548 A  
ENDBRANCH   6  13
BRANCH   6  19
HETATM   19  C   UNL     1      -9.158  13.989  68.500  1.00  0.00    -0.163 C  
HETATM   20  C   UNL     1      -8.672  12.607  66.535  1.00  0.00    -0.003 C  
HETATM   21  N   UNL     1      -9.153  11.708  67.580  1.00  0.00    -0.169 NA 
HETATM   22  C   UNL     1      -9.432  12.503  68.786  1.00  0.00     0.110 C  
HETATM   23  C   UNL     1      -8.284  13.899  67.236  1.00  0.00    -0.176 C  
BRANCH  21  24
HETATM   24  C   UNL     1     -10.306  10.879  67.181  1.00  0.00    -0.220 C  
BRANCH  24  25
HETATM   25  C   UNL     1     -10.157  10.187  65.813  1.00  0.00    -0.324 C  
BRANCH  25  26
HETATM   26  C   UNL     1      -9.508   8.821  65.933  1.00  0.00    -0.278 A  
HETATM   27  C   UNL     1     -10.053   7.856  66.792  1.00  0.00    -0.352 A  
HETATM   28  C   UNL     1      -9.455   6.606  66.860  1.00  0.00    -0.184 A  
HETATM   29  C   UNL     1      -8.349   6.308  66.089  1.00  0.00    -0.130 A  
HETATM   30  O   UNL     1      -7.893   5.026  66.243  1.00  0.00    -0.097 OA 
HETATM   31  C   UNL     1      -7.784   7.230  65.236  1.00  0.00    -0.114 A  
HETATM   32  C   UNL     1      -8.367   8.502  65.164  1.00  0.00    -0.178 A  
HETATM   33  C   UNL     1      -8.702   4.472  67.306  1.00  0.00    -0.104 C  
HETATM   34  C   UNL     1      -9.834   5.434  67.671  1.00  0.00    -0.176 C  
ENDBRANCH  25  26
ENDBRANCH  24  25
ENDBRANCH  21  24
ENDBRANCH   6  19
ENDBRANCH   2   6
TORSDOF 7
ENDMDL
MODEL      153
REMARK 921   NORMALIZED FREE ENERGY PREDICTED BY IDOCK:   -4.49 KCAL/MOL
REMARK 922        TOTAL FREE ENERGY PREDICTED BY IDOCK:   -8.11 KCAL/MOL
REMARK 923 INTER-LIGAND FREE ENERGY PREDICTED BY IDOCK:   -7.67 KCAL/MOL
REMARK 924 INTRA-LIGAND FREE ENERGY PREDICTED BY IDOCK:   -0.43 KCAL/MOL
REMARK 927      BINDING AFFINITY PREDICTED BY RF-SCORE:    0.00 PKD
ROOT
HETATM    1  N   UNL     1     -10.949   8.589  68.809  1.00  0.00    -0.433 N  
HETATM    2  C   UNL     1     -10.397   8.734  67.563  1.00  0.00    -0.268 C  
HETATM    3  H1  UNL     1     -10.650   9.264  69.512  1.00  0.00     0.000 HD 
HETATM    4  H2  UNL     1     -11.620   7.850  69.021  1.00  0.00     0.000 HD 
HETATM    5  O   UNL     1     -10.756   7.922  66.718  1.00  0.00    -0.304 OA 
ENDROOT
BRANCH   2   6
HETATM    6  C   UNL     1      -9.426   9.967  67.312  1.00  0.00    -0.179 C  
BRANCH   6   7
HETATM    7  C   UNL     1      -7.979   9.565  67.845  1.00  0.00    -0.098 A  
HETATM    8  C   UNL     1      -5.474   8.820  68.979  1.00  0.00    -0.036 A  
HETATM    9  C   UNL     1      -5.912  10.133  69.055  1.00  0.00    -0.037 A  
HETATM   10  C   UNL     1      -6.240   7.886  68.295  1.00  0.00    -0.045 A  
HETATM   11  C   UNL     1      -7.135  10.505  68.479  1.00  0.00    -0.075 A  
HETATM   12  C   UNL     1      -7.467   8.257  67.730  1.00  0.00    -0.094 A  
ENDBRANCH   6   7
BRANCH   6  13
HETATM   13  C   UNL     1      -9.388  10.285  65.771  1.00  0.00    -0.233 A  
HETATM   14  C   UNL     1      -8.169  10.224  65.052  1.00  0.00    -0.154 A  
HETATM   15  C   UNL     1      -8.089  10.580  63.702  1.00  0.00    -0.051 A  
HETATM   16  C   UNL     1      -9.227  10.981  63.017  1.00  0.00    -0.337 A  
HETATM   17  C   UNL     1     -10.528  10.647  65.037  1.00  0.00    -0.278 A  
HETATM   18  C   UNL     1     -10.454  11.003  63.683  1.00  0.00    -0.388 A  
ENDBRANCH   6  13
BRANCH   6  19
HETATM   19  C   UNL     1      -9.932  11.267  68.107  1.00  0.00    -0.191 C  
HETATM   20  C   UNL     1     -11.623  12.729  67.102  1.00  0.00    -0.364 C  
HETATM   21  N   UNL     1     -10.376  13.489  67.151  1.00  0.00    -0.249 NA 
HETATM   22  C   UNL     1      -9.342  12.647  67.773  1.00  0.00    -0.198 C  
HETATM   23  C   UNL     1     -11.442  11.561  68.058  1.00  0.00    -0.381 C  
BRANCH  21  24
HETATM   24  C   UNL     1      -9.945  14.028  65.848  1.00  0.00    -0.307 C  
BRANCH  24  25
HETATM   25  C   UNL     1     -10.430  15.459  65.552  1.00  0.00    -0.402 C  
BRANCH  25  26
HETATM   26  C   UNL     1      -9.805  16.477  66.488  1.00  0.00    -0.292 A  
HETATM   27  C   UNL     1      -8.413  16.526  66.647  1.00  0.00    -0.299 A  
HETATM   28  C   UNL     1      -7.868  17.485  67.487  1.00  0.00    -0.210 A  
HETATM   29  C   UNL     1      -8.677  18.388  68.150  1.00  0.00    -0.302 A  
HETATM   30  O   UNL     1      -7.991  19.291  68.917  1.00  0.00    -0.349 OA 
HETATM   31  C   UNL     1     -10.048  18.369  68.021  1.00  0.00    -0.392 A  
HETATM   32  C   UNL     1     -10.617  17.398  67.186  1.00  0.00    -0.264 A  
HETATM   33  C   UNL     1      -6.611  18.863  68.846  1.00  0.00    -0.276 C  
HETATM   34  C   UNL     1      -6.453  17.743  67.815  1.00  0.00    -0.188 C  
ENDBRANCH  25  26
ENDBRANCH  24  25
ENDBRANCH  21  24
ENDBRANCH   6  19
ENDBRANCH   2   6
TORSDOF 7
ENDMDL
MODEL      154
REMARK 921   NORMALIZED FREE ENERGY PREDICTED BY IDOCK:   -4.46 KCAL/MOL
REMARK 922        TOTAL FREE ENERGY PREDICTED BY IDOCK:   -8.06 KCAL/MOL
REMARK 923 INTER-LIGAND FREE ENERGY PREDICTED BY IDOCK:   -7.47 KCAL/MOL
REMARK 924 INTRA-LIGAND FREE ENERGY PREDICTED BY IDOCK:   -0.59 KCAL/MOL
REMARK 927      BINDING AFFINITY PREDICTED BY RF-SCORE:    0.00 PKD
ROOT
HETATM    1  N   UNL     1     -11.786  13.137  68.806  1.00  0.00    -0.320 N  
HETATM    2  C   UNL     1     -11.415  12.395  67.714  1.00  0.00    -0.324 C  
HETATM    3  H1  UNL     1     -11.144  13.880  69.081  1.00  0.00     0.000 HD 
HETATM    4  H2  UNL     1     -12.653  12.957  69.313  1.00  0.00     0.000 HD 
HETATM    5  O   UNL     1     -12.187  11.502  67.383  1.00  0.00    -0.401 OA 
ENDROOT
BRANCH   2   6
HETATM    6  C   UNL     1     -10.088  12.809  66.944  1.00  0.00    -0.234 C  
BRANCH   6   7
HETATM    7  C   UNL     1     -10.006  11.939  65.611  1.00  0.00    -0.269 A  
HETATM    8  C   UNL     1      -9.661  10.412  63.232  1.00  0.00    -0.353 A  
HETATM    9  C   UNL     1      -9.777  11.792  63.165  1.00  0.00    -0.321 A  
HETATM   10  C   UNL     1      -9.772   9.778  64.461  1.00  0.00    -0.110 A  
HETATM   11  C   UNL     1      -9.968  12.542  64.333  1.00  0.00    -0.206 A  
HETATM   12  C   UNL     1      -9.951  10.530  65.629  1.00  0.00    -0.332 A  
ENDBRANCH   6   7
BRANCH   6  13
HETATM   13  C   UNL     1     -10.149  14.345  66.608  1.00  0.00    -0.276 A  
HETATM   14  C   UNL     1     -11.130  14.850  65.720  1.00  0.00    -0.342 A  
HETATM   15  C   UNL     1     -11.157  16.196  65.337  1.00  0.00    -0.126 A  
HETATM   16  C   UNL     1     -10.226  17.087  65.851  1.00  0.00    -0.311 A  
HETATM   17  C   UNL     1      -9.252  15.282  67.146  1.00  0.00    -0.223 A  
HETATM   18  C   UNL     1      -9.277  16.632  66.768  1.00  0.00    -0.259 A  
ENDBRANCH   6  13
BRANCH   6  19
HETATM   19  C   UNL     1      -8.789  12.515  67.840  1.00  0.00    -0.185 C  
HETATM   20  C   UNL     1      -7.320  10.635  67.281  1.00  0.00    -0.092 C  
HETATM   21  N   UNL     1      -7.966  10.309  68.550  1.00  0.00    -0.102 NA 
HETATM   22  C   UNL     1      -8.839  11.431  68.930  1.00  0.00    -0.001 C  
HETATM   23  C   UNL     1      -7.503  12.131  67.087  1.00  0.00    -0.129 C  
BRANCH  21  24
HETATM   24  C   UNL     1      -8.683   9.020  68.550  1.00  0.00    -0.133 C  
BRANCH  24  25
HETATM   25  C   UNL     1     -10.142   9.096  69.036  1.00  0.00    -0.199 C  
BRANCH  25  26
HETATM   26  C   UNL     1     -10.326   8.440  70.393  1.00  0.00    -0.219 A  
HETATM   27  C   UNL     1      -9.395   7.497  70.849  1.00  0.00    -0.154 A  
HETATM   28  C   UNL     1      -9.572   6.935  72.105  1.00  0.00    -0.154 A  
HETATM   29  C   UNL     1     -10.639   7.304  72.902  1.00  0.00    -0.301 A  
HETATM   30  O   UNL     1     -10.660   6.686  74.124  1.00  0.00    -0.310 OA 
HETATM   31  C   UNL     1     -11.574   8.225  72.486  1.00  0.00    -0.454 A  
HETATM   32  C   UNL     1     -11.418   8.793  71.215  1.00  0.00    -0.355 A  
HETATM   33  C   UNL     1      -9.574   5.733  74.074  1.00  0.00    -0.153 C  
HETATM   34  C   UNL     1      -8.742   5.937  72.806  1.00  0.00    -0.125 C  
ENDBRANCH  25  26
ENDBRANCH  24  25
ENDBRANCH  21  24
ENDBRANCH   6  19
ENDBRANCH   2   6
TORSDOF 7
ENDMDL
MODEL      155
REMARK 921   NORMALIZED FREE ENERGY PREDICTED BY IDOCK:   -4.44 KCAL/MOL
REMARK 922        TOTAL FREE ENERGY PREDICTED BY IDOCK:   -8.04 KCAL/MOL
REMARK 923 INTER-LIGAND FREE ENERGY PREDICTED BY IDOCK:   -7.22 KCAL/MOL
REMARK 924 INTRA-LIGAND FREE ENERGY PREDICTED BY IDOCK:   -0.81 KCAL/MOL
REMARK 927      BINDING AFFINITY PREDICTED BY RF-SCORE:    0.00 PKD
ROOT
HETATM    1  N   UNL     1      -9.542   7.329  66.173  1.00  0.00    -0.408 N  
HETATM    2  C   UNL     1     -10.046   8.250  67.056  1.00  0.00    -0.283 C  
HETATM    3  H1  UNL     1      -8.658   6.895  66.435  1.00  0.00     0.000 HD 
HETATM    4  H2  UNL     1     -10.024   7.092  65.305  1.00  0.00     0.000 HD 
HETATM    5  O   UNL     1     -11.109   8.772  66.740  1.00  0.00     0.183 OA 
ENDROOT
BRANCH   2   6
HETATM    6  C   UNL     1      -9.263   8.487  68.418  1.00  0.00    -0.135 C  
BRANCH   6   7
HETATM    7  C   UNL     1     -10.266   9.181  69.443  1.00  0.00    -0.212 A  
HETATM    8  C   UNL     1     -12.199  10.287  71.219  1.00  0.00    -0.496 A  
HETATM    9  C   UNL     1     -12.158  10.689  69.892  1.00  0.00    -0.372 A  
HETATM   10  C   UNL     1     -11.254   9.385  71.686  1.00  0.00    -0.431 A  
HETATM   11  C   UNL     1     -11.195  10.161  69.023  1.00  0.00    -0.223 A  
HETATM   12  C   UNL     1     -10.297   8.850  70.812  1.00  0.00    -0.283 A  
ENDBRANCH   6   7
BRANCH   6  13
HETATM   13  C   UNL     1      -8.766   7.100  68.971  1.00  0.00    -0.132 A  
HETATM   14  C   UNL     1      -7.382   6.837  69.119  1.00  0.00    -0.093 A  
HETATM   15  C   UNL     1      -6.907   5.586  69.528  1.00  0.00    -0.061 A  
HETATM   16  C   UNL     1      -7.798   4.567  69.833  1.00  0.00    -0.060 A  
HETATM   17  C   UNL     1      -9.640   6.063  69.334  1.00  0.00    -0.161 A  
HETATM   18  C   UNL     1      -9.170   4.809  69.748  1.00  0.00    -0.180 A  
ENDBRANCH   6  13
BRANCH   6  19
HETATM   19  C   UNL     1      -7.998   9.450  68.192  1.00  0.00    -0.091 C  
HETATM   20  C   UNL     1      -8.139  11.816  68.815  1.00  0.00    -0.047 C  
HETATM   21  N   UNL     1      -8.047  11.763  67.358  1.00  0.00    -0.152 NA 
HETATM   22  C   UNL     1      -7.935  10.353  66.950  1.00  0.00    -0.114 C  
HETATM   23  C   UNL     1      -7.686  10.454  69.315  1.00  0.00    -0.140 C  
BRANCH  21  24
HETATM   24  C   UNL     1      -9.140  12.461  66.657  1.00  0.00    -0.204 C  
BRANCH  24  25
HETATM   25  C   UNL     1     -10.140  13.180  67.581  1.00  0.00    -0.221 C  
BRANCH  25  26
HETATM   26  C   UNL     1     -10.238  14.663  67.271  1.00  0.00    -0.241 A  
HETATM   27  C   UNL     1     -10.151  15.604  68.305  1.00  0.00    -0.218 A  
HETATM   28  C   UNL     1     -10.214  16.954  67.989  1.00  0.00    -0.310 A  
HETATM   29  C   UNL     1     -10.349  17.368  66.678  1.00  0.00    -0.306 A  
HETATM   30  O   UNL     1     -10.365  18.729  66.524  1.00  0.00    -0.377 OA 
HETATM   31  C   UNL     1     -10.441  16.472  65.636  1.00  0.00    -0.341 A  
HETATM   32  C   UNL     1     -10.391  15.105  65.939  1.00  0.00    -0.344 A  
HETATM   33  C   UNL     1     -10.365  19.253  67.872  1.00  0.00    -0.417 C  
HETATM   34  C   UNL     1     -10.143  18.125  68.882  1.00  0.00    -0.354 C  
ENDBRANCH  25  26
ENDBRANCH  24  25
ENDBRANCH  21  24
ENDBRANCH   6  19
ENDBRANCH   2   6
TORSDOF 7
ENDMDL
MODEL      156
REMARK 921   NORMALIZED FREE ENERGY PREDICTED BY IDOCK:   -4.42 KCAL/MOL
REMARK 922        TOTAL FREE ENERGY PREDICTED BY IDOCK:   -8.00 KCAL/MOL
REMARK 923 INTER-LIGAND FREE ENERGY PREDICTED BY IDOCK:   -6.69 KCAL/MOL
REMARK 924 INTRA-LIGAND FREE ENERGY PREDICTED BY IDOCK:   -1.31 KCAL/MOL
REMARK 927      BINDING AFFINITY PREDICTED BY RF-SCORE:    0.00 PKD
ROOT
HETATM    1  N   UNL     1     -11.317   9.475  69.038  1.00  0.00    -0.455 N  
HETATM    2  C   UNL     1     -11.254  10.438  68.064  1.00  0.00    -0.272 C  
HETATM    3  H1  UNL     1     -10.532   8.826  69.078  1.00  0.00     0.000 HD 
HETATM    4  H2  UNL     1     -12.104   9.411  69.685  1.00  0.00     0.000 HD 
HETATM    5  O   UNL     1     -12.198  11.217  68.016  1.00  0.00    -0.584 OA 
ENDROOT
BRANCH   2   6
HETATM    6  C   UNL     1      -9.948  10.504  67.160  1.00  0.00    -0.234 C  
BRANCH   6   7
HETATM    7  C   UNL     1      -9.549   9.011  66.769  1.00  0.00    -0.259 A  
HETATM    8  C   UNL     1      -8.944   6.367  65.900  1.00  0.00    -0.111 A  
HETATM    9  C   UNL     1     -10.122   6.625  66.586  1.00  0.00    -0.202 A  
HETATM   10  C   UNL     1      -8.038   7.397  65.693  1.00  0.00    -0.129 A  
HETATM   11  C   UNL     1     -10.411   7.921  67.031  1.00  0.00    -0.411 A  
HETATM   12  C   UNL     1      -8.334   8.696  66.129  1.00  0.00    -0.127 A  
ENDBRANCH   6   7
BRANCH   6  13
HETATM   13  C   UNL     1     -10.257  11.357  65.875  1.00  0.00    -0.292 A  
HETATM   14  C   UNL     1     -10.195  12.772  65.916  1.00  0.00    -0.300 A  
HETATM   15  C   UNL     1     -10.545  13.559  64.814  1.00  0.00    -0.429 A  
HETATM   16  C   UNL     1     -10.940  12.962  63.626  1.00  0.00    -0.321 A  
HETATM   17  C   UNL     1     -10.613  10.784  64.643  1.00  0.00    -0.269 A  
HETATM   18  C   UNL     1     -10.962  11.569  63.535  1.00  0.00    -0.453 A  
ENDBRANCH   6  13
BRANCH   6  19
HETATM   19  C   UNL     1      -8.730  11.177  67.961  1.00  0.00    -0.141 C  
HETATM   20  C   UNL     1      -6.434  10.430  67.542  1.00  0.00    -0.058 C  
HETATM   21  N   UNL     1      -6.775  10.018  68.901  1.00  0.00    -0.052 NA 
HETATM   22  C   UNL     1      -8.143  10.473  69.196  1.00  0.00    -0.152 C  
HETATM   23  C   UNL     1      -7.458  11.483  67.151  1.00  0.00    -0.142 C  
BRANCH  21  24
HETATM   24  C   UNL     1      -6.601   8.576  69.157  1.00  0.00    -0.047 C  
BRANCH  24  25
HETATM   25  C   UNL     1      -7.548   7.992  70.222  1.00  0.00    -0.081 C  
BRANCH  25  26
HETATM   26  C   UNL     1      -8.088   6.632  69.820  1.00  0.00    -0.126 A  
HETATM   27  C   UNL     1      -7.301   5.762  69.053  1.00  0.00    -0.083 A  
HETATM   28  C   UNL     1      -7.809   4.513  68.725  1.00  0.00    -0.071 A  
HETATM   29  C   UNL     1      -9.063   4.125  69.154  1.00  0.00    -0.131 A  
HETATM   30  O   UNL     1      -9.411   2.855  68.777  1.00  0.00    -0.177 OA 
HETATM   31  C   UNL     1      -9.866   4.953  69.907  1.00  0.00    -0.295 A  
HETATM   32  C   UNL     1      -9.374   6.223  70.236  1.00  0.00    -0.170 A  
HETATM   33  C   UNL     1      -8.334   2.418  67.917  1.00  0.00    -0.066 C  
HETATM   34  C   UNL     1      -7.187   3.429  67.943  1.00  0.00    -0.051 C  
ENDBRANCH  25  26
ENDBRANCH  24  25
ENDBRANCH  21  24
ENDBRANCH   6  19
ENDBRANCH   2   6
TORSDOF 7
ENDMDL
MODEL      157
REMARK 921   NORMALIZED FREE ENERGY PREDICTED BY IDOCK:   -4.41 KCAL/MOL
REMARK 922        TOTAL FREE ENERGY PREDICTED BY IDOCK:   -8.00 KCAL/MOL
REMARK 923 INTER-LIGAND FREE ENERGY PREDICTED BY IDOCK:   -7.49 KCAL/MOL
REMARK 924 INTRA-LIGAND FREE ENERGY PREDICTED BY IDOCK:   -0.51 KCAL/MOL
REMARK 927      BINDING AFFINITY PREDICTED BY RF-SCORE:    0.00 PKD
ROOT
HETATM    1  N   UNL     1     -11.679   6.483  72.853  1.00  0.00    -0.482 N  
HETATM    2  C   UNL     1     -11.138   6.599  71.598  1.00  0.00    -0.250 C  
HETATM    3  H1  UNL     1     -11.231   5.809  73.473  1.00  0.00     0.000 HD 
HETATM    4  H2  UNL     1     -12.482   7.039  73.149  1.00  0.00     0.000 HD 
HETATM    5  O   UNL     1     -11.677   7.409  70.853  1.00  0.00    -0.291 OA 
ENDROOT
BRANCH   2   6
HETATM    6  C   UNL     1      -9.837   5.750  71.262  1.00  0.00    -0.223 C  
BRANCH   6   7
HETATM    7  C   UNL     1      -9.741   4.564  72.322  1.00  0.00    -0.217 A  
HETATM    8  C   UNL     1      -9.658   2.566  74.350  1.00  0.00    -0.119 A  
HETATM    9  C   UNL     1      -8.648   3.513  74.260  1.00  0.00    -0.088 A  
HETATM   10  C   UNL     1     -10.676   2.566  73.408  1.00  0.00    -0.274 A  
HETATM   11  C   UNL     1      -8.678   4.483  73.250  1.00  0.00    -0.100 A  
HETATM   12  C   UNL     1     -10.710   3.544  72.405  1.00  0.00     0.072 A  
ENDBRANCH   6   7
BRANCH   6  13
HETATM   13  C   UNL     1      -9.957   5.186  69.798  1.00  0.00    -0.313 A  
HETATM   14  C   UNL     1      -9.253   4.018  69.415  1.00  0.00    -0.216 A  
HETATM   15  C   UNL     1      -9.274   3.540  68.100  1.00  0.00    -0.228 A  
HETATM   16  C   UNL     1     -10.023   4.193  67.132  1.00  0.00    -0.102 A  
HETATM   17  C   UNL     1     -10.743   5.794  68.806  1.00  0.00    -0.318 A  
HETATM   18  C   UNL     1     -10.770   5.318  67.488  1.00  0.00    -0.063 A  
ENDBRANCH   6  13
BRANCH   6  19
HETATM   19  C   UNL     1      -8.516   6.656  71.372  1.00  0.00    -0.124 C  
HETATM   20  C   UNL     1      -8.662   9.075  71.006  1.00  0.00    -0.222 C  
HETATM   21  N   UNL     1      -7.892   8.522  69.895  1.00  0.00    -0.093 NA 
HETATM   22  C   UNL     1      -7.763   7.070  70.096  1.00  0.00    -0.100 C  
HETATM   23  C   UNL     1      -8.665   8.009  72.090  1.00  0.00    -0.212 C  
BRANCH  21  24
HETATM   24  C   UNL     1      -8.429   8.854  68.563  1.00  0.00    -0.129 C  
BRANCH  24  25
HETATM   25  C   UNL     1      -9.965   8.830  68.464  1.00  0.00    -0.200 C  
BRANCH  25  26
HETATM   26  C   UNL     1     -10.548  10.223  68.312  1.00  0.00    -0.255 A  
HETATM   27  C   UNL     1     -10.744  10.768  67.036  1.00  0.00    -0.320 A  
HETATM   28  C   UNL     1     -11.305  12.032  66.925  1.00  0.00    -0.400 A  
HETATM   29  C   UNL     1     -11.678  12.741  68.051  1.00  0.00    -0.356 A  
HETATM   30  O   UNL     1     -12.245  13.957  67.780  1.00  0.00    -0.338 OA 
HETATM   31  C   UNL     1     -11.499  12.239  69.321  1.00  0.00    -0.352 A  
HETATM   32  C   UNL     1     -10.922  10.969  69.451  1.00  0.00    -0.301 A  
HETATM   33  C   UNL     1     -12.119  14.112  66.348  1.00  0.00    -0.451 C  
HETATM   34  C   UNL     1     -11.613  12.814  65.714  1.00  0.00    -0.419 C  
ENDBRANCH  25  26
ENDBRANCH  24  25
ENDBRANCH  21  24
ENDBRANCH   6  19
ENDBRANCH   2   6
TORSDOF 7
ENDMDL
MODEL      158
REMARK 921   NORMALIZED FREE ENERGY PREDICTED BY IDOCK:   -4.39 KCAL/MOL
REMARK 922        TOTAL FREE ENERGY PREDICTED BY IDOCK:   -7.96 KCAL/MOL
REMARK 923 INTER-LIGAND FREE ENERGY PREDICTED BY IDOCK:   -7.14 KCAL/MOL
REMARK 924 INTRA-LIGAND FREE ENERGY PREDICTED BY IDOCK:   -0.82 KCAL/MOL
REMARK 927      BINDING AFFINITY PREDICTED BY RF-SCORE:    0.00 PKD
ROOT
HETATM    1  N   UNL     1      -9.889   9.722  63.864  1.00  0.00    -0.425 N  
HETATM    2  C   UNL     1      -9.140  10.265  64.877  1.00  0.00    -0.213 C  
HETATM    3  H1  UNL     1     -10.675   9.140  64.152  1.00  0.00     0.000 HD 
HETATM    4  H2  UNL     1      -9.674   9.892  62.882  1.00  0.00     0.000 HD 
HETATM    5  O   UNL     1      -8.196  10.966  64.531  1.00  0.00     0.013 OA 
ENDROOT
BRANCH   2   6
HETATM    6  C   UNL     1      -9.607  10.009  66.374  1.00  0.00    -0.248 C  
BRANCH   6   7
HETATM    7  C   UNL     1      -9.738   8.435  66.582  1.00  0.00    -0.320 A  
HETATM    8  C   UNL     1     -10.075   5.613  66.779  1.00  0.00    -0.235 A  
HETATM    9  C   UNL     1     -11.067   6.469  67.235  1.00  0.00    -0.429 A  
HETATM   10  C   UNL     1      -8.895   6.145  66.280  1.00  0.00    -0.150 A  
HETATM   11  C   UNL     1     -10.893   7.857  67.157  1.00  0.00    -0.187 A  
HETATM   12  C   UNL     1      -8.727   7.533  66.192  1.00  0.00    -0.174 A  
ENDBRANCH   6   7
BRANCH   6  13
HETATM   13  C   UNL     1      -8.537  10.617  67.355  1.00  0.00    -0.122 A  
HETATM   14  C   UNL     1      -8.345  10.063  68.645  1.00  0.00    -0.116 A  
HETATM   15  C   UNL     1      -7.462  10.632  69.569  1.00  0.00    -0.132 A  
HETATM   16  C   UNL     1      -6.718  11.753  69.226  1.00  0.00    -0.110 A  
HETATM   17  C   UNL     1      -7.735  11.721  67.024  1.00  0.00    -0.158 A  
HETATM   18  C   UNL     1      -6.846  12.292  67.945  1.00  0.00    -0.093 A  
ENDBRANCH   6  13
BRANCH   6  19
HETATM   19  C   UNL     1     -11.031  10.694  66.656  1.00  0.00    -0.144 C  
HETATM   20  C   UNL     1     -11.462  12.978  65.879  1.00  0.00    -0.337 C  
HETATM   21  N   UNL     1     -11.428  13.024  67.338  1.00  0.00    -0.312 NA 
HETATM   22  C   UNL     1     -11.194  11.661  67.841  1.00  0.00    -0.269 C  
HETATM   23  C   UNL     1     -11.642  11.515  65.507  1.00  0.00     0.026 C  
BRANCH  21  24
HETATM   24  C   UNL     1     -10.463  13.993  67.890  1.00  0.00    -0.241 C  
BRANCH  24  25
HETATM   25  C   UNL     1      -9.816  14.922  66.845  1.00  0.00    -0.246 C  
BRANCH  25  26
HETATM   26  C   UNL     1      -9.408  16.256  67.444  1.00  0.00    -0.224 A  
HETATM   27  C   UNL     1      -8.055  16.536  67.680  1.00  0.00    -0.177 A  
HETATM   28  C   UNL     1      -7.708  17.774  68.201  1.00  0.00    -0.254 A  
HETATM   29  C   UNL     1      -8.674  18.722  68.475  1.00  0.00    -0.346 A  
HETATM   30  O   UNL     1      -8.175  19.903  68.954  1.00  0.00    -0.198 OA 
HETATM   31  C   UNL     1     -10.013  18.482  68.258  1.00  0.00    -0.409 A  
HETATM   32  C   UNL     1     -10.383  17.232  67.744  1.00  0.00    -0.356 A  
HETATM   33  C   UNL     1      -6.759  19.661  69.128  1.00  0.00    -0.348 C  
HETATM   34  C   UNL     1      -6.373  18.306  68.530  1.00  0.00    -0.213 C  
ENDBRANCH  25  26
ENDBRANCH  24  25
ENDBRANCH  21  24
ENDBRANCH   6  19
ENDBRANCH   2   6
TORSDOF 7
ENDMDL
MODEL      159
REMARK 921   NORMALIZED FREE ENERGY PREDICTED BY IDOCK:   -4.38 KCAL/MOL
REMARK 922        TOTAL FREE ENERGY PREDICTED BY IDOCK:   -7.95 KCAL/MOL
REMARK 923 INTER-LIGAND FREE ENERGY PREDICTED BY IDOCK:   -6.38 KCAL/MOL
REMARK 924 INTRA-LIGAND FREE ENERGY PREDICTED BY IDOCK:   -1.57 KCAL/MOL
REMARK 927      BINDING AFFINITY PREDICTED BY RF-SCORE:    0.00 PKD
ROOT
HETATM    1  N   UNL     1      -7.935  16.920  66.072  1.00  0.00    -0.239 N  
HETATM    2  C   UNL     1      -8.133  15.844  66.900  1.00  0.00    -0.250 C  
HETATM    3  H1  UNL     1      -7.871  17.829  66.529  1.00  0.00     0.000 HD 
HETATM    4  H2  UNL     1      -7.857  16.816  65.060  1.00  0.00     0.000 HD 
HETATM    5  O   UNL     1      -8.211  14.751  66.351  1.00  0.00     0.127 OA 
ENDROOT
BRANCH   2   6
HETATM    6  C   UNL     1      -8.159  16.101  68.468  1.00  0.00    -0.181 C  
BRANCH   6   7
HETATM    7  C   UNL     1      -7.723  17.612  68.722  1.00  0.00    -0.246 A  
HETATM    8  C   UNL     1      -6.854  20.311  68.996  1.00  0.00    -0.183 A  
HETATM    9  C   UNL     1      -6.010  19.266  69.343  1.00  0.00    -0.284 A  
HETATM   10  C   UNL     1      -8.144  20.030  68.570  1.00  0.00    -0.116 A  
HETATM   11  C   UNL     1      -6.444  17.939  69.228  1.00  0.00    -0.248 A  
HETATM   12  C   UNL     1      -8.573  18.702  68.445  1.00  0.00    -0.366 A  
ENDBRANCH   6   7
BRANCH   6  13
HETATM   13  C   UNL     1      -9.615  15.839  69.006  1.00  0.00    -0.243 A  
HETATM   14  C   UNL     1     -10.738  16.018  68.162  1.00  0.00    -0.311 A  
HETATM   15  C   UNL     1     -12.047  15.874  68.634  1.00  0.00     0.058 A  
HETATM   16  C   UNL     1     -12.278  15.518  69.955  1.00  0.00    -0.380 A  
HETATM   17  C   UNL     1      -9.882  15.433  70.323  1.00  0.00     0.146 A  
HETATM   18  C   UNL     1     -11.192  15.285  70.800  1.00  0.00    -0.353 A  
ENDBRANCH   6  13
BRANCH   6  19
HETATM   19  C   UNL     1      -7.133  15.126  69.226  1.00  0.00    -0.172 C  
HETATM   20  C   UNL     1      -5.825  13.498  67.945  1.00  0.00    -0.133 C  
HETATM   21  N   UNL     1      -6.766  12.738  68.764  1.00  0.00    -0.088 NA 
HETATM   22  C   UNL     1      -7.554  13.687  69.567  1.00  0.00     0.486 C  
HETATM   23  C   UNL     1      -5.773  14.893  68.546  1.00  0.00    -0.098 C  
BRANCH  21  24
HETATM   24  C   UNL     1      -7.621  11.812  67.999  1.00  0.00    -0.116 C  
BRANCH  24  25
HETATM   25  C   UNL     1      -9.044  11.636  68.563  1.00  0.00    -0.157 C  
BRANCH  25  26
HETATM   26  C   UNL     1     -10.108  12.041  67.559  1.00  0.00    -0.205 A  
HETATM   27  C   UNL     1      -9.813  12.056  66.190  1.00  0.00    -0.255 A  
HETATM   28  C   UNL     1     -10.814  12.403  65.293  1.00  0.00    -0.324 A  
HETATM   29  C   UNL     1     -12.084  12.717  65.736  1.00  0.00    -0.448 A  
HETATM   30  O   UNL     1     -12.968  13.007  64.732  1.00  0.00    -0.735 OA 
HETATM   31  C   UNL     1     -12.410  12.715  67.075  1.00  0.00     0.256 A  
HETATM   32  C   UNL     1     -11.408  12.380  67.995  1.00  0.00    -0.340 A  
HETATM   33  C   UNL     1     -12.170  13.002  63.526  1.00  0.00    -0.501 C  
HETATM   34  C   UNL     1     -10.759  12.489  63.822  1.00  0.00    -0.483 C  
ENDBRANCH  25  26
ENDBRANCH  24  25
ENDBRANCH  21  24
ENDBRANCH   6  19
ENDBRANCH   2   6
TORSDOF 7
ENDMDL
MODEL      160
REMARK 921   NORMALIZED FREE ENERGY PREDICTED BY IDOCK:   -4.37 KCAL/MOL
REMARK 922        TOTAL FREE ENERGY PREDICTED BY IDOCK:   -7.94 KCAL/MOL
REMARK 923 INTER-LIGAND FREE ENERGY PREDICTED BY IDOCK:   -6.76 KCAL/MOL
REMARK 924 INTRA-LIGAND FREE ENERGY PREDICTED BY IDOCK:   -1.18 KCAL/MOL
REMARK 927      BINDING AFFINITY PREDICTED BY RF-SCORE:    0.00 PKD
ROOT
HETATM    1  N   UNL     1     -11.563   6.655  66.895  1.00  0.00    -0.624 N  
HETATM    2  C   UNL     1     -10.470   7.396  67.264  1.00  0.00    -0.315 C  
HETATM    3  H1  UNL     1     -11.837   5.911  67.536  1.00  0.00     0.000 HD 
HETATM    4  H2  UNL     1     -12.074   6.837  66.030  1.00  0.00     0.000 HD 
HETATM    5  O   UNL     1     -10.142   8.290  66.493  1.00  0.00    -0.273 OA 
ENDROOT
BRANCH   2   6
HETATM    6  C   UNL     1      -9.796   7.087  68.670  1.00  0.00    -0.148 C  
BRANCH   6   7
HETATM    7  C   UNL     1     -10.797   7.577  69.809  1.00  0.00    -0.234 A  
HETATM    8  C   UNL     1     -12.456   8.380  71.981  1.00  0.00    -0.407 A  
HETATM    9  C   UNL     1     -12.536   7.089  71.480  1.00  0.00    -0.426 A  
HETATM   10  C   UNL     1     -11.603   9.292  71.376  1.00  0.00    -0.437 A  
HETATM   11  C   UNL     1     -11.735   6.699  70.399  1.00  0.00    -0.446 A  
HETATM   12  C   UNL     1     -10.795   8.897  70.302  1.00  0.00    -0.265 A  
ENDBRANCH   6   7
BRANCH   6  13
HETATM   13  C   UNL     1      -9.533   5.539  68.782  1.00  0.00    -0.163 A  
HETATM   14  C   UNL     1      -9.235   4.773  67.629  1.00  0.00    -0.144 A  
HETATM   15  C   UNL     1      -9.078   3.384  67.685  1.00  0.00    -0.204 A  
HETATM   16  C   UNL     1      -9.184   2.718  68.897  1.00  0.00    -0.224 A  
HETATM   17  C   UNL     1      -9.585   4.841  69.999  1.00  0.00    -0.260 A  
HETATM   18  C   UNL     1      -9.426   3.449  70.061  1.00  0.00    -0.243 A  
ENDBRANCH   6  13
BRANCH   6  19
HETATM   19  C   UNL     1      -8.405   7.872  68.824  1.00  0.00    -0.128 C  
HETATM   20  C   UNL     1      -6.718   7.066  70.409  1.00  0.00    -0.053 C  
HETATM   21  N   UNL     1      -7.211   8.342  70.922  1.00  0.00    -0.054 NA 
HETATM   22  C   UNL     1      -8.211   8.868  69.980  1.00  0.00    -0.122 C  
HETATM   23  C   UNL     1      -7.136   7.010  68.948  1.00  0.00    -0.085 C  
BRANCH  21  24
HETATM   24  C   UNL     1      -7.726   8.279  72.303  1.00  0.00    -0.126 C  
BRANCH  24  25
HETATM   25  C   UNL     1      -6.951   7.330  73.236  1.00  0.00    -0.074 C  
BRANCH  25  26
HETATM   26  C   UNL     1      -7.679   6.015  73.443  1.00  0.00    -0.100 A  
HETATM   27  C   UNL     1      -9.076   5.961  73.342  1.00  0.00    -0.132 A  
HETATM   28  C   UNL     1      -9.713   4.740  73.508  1.00  0.00    -0.153 A  
HETATM   29  C   UNL     1      -8.987   3.591  73.758  1.00  0.00    -0.087 A  
HETATM   30  O   UNL     1      -9.753   2.461  73.866  1.00  0.00    -0.086 OA 
HETATM   31  C   UNL     1      -7.614   3.606  73.867  1.00  0.00    -0.070 A  
HETATM   32  C   UNL     1      -6.956   4.833  73.715  1.00  0.00    -0.072 A  
HETATM   33  C   UNL     1     -11.119   2.934  73.804  1.00  0.00    -0.209 C  
HETATM   34  C   UNL     1     -11.152   4.422  73.445  1.00  0.00    -0.394 C  
ENDBRANCH  25  26
ENDBRANCH  24  25
ENDBRANCH  21  24
ENDBRANCH   6  19
ENDBRANCH   2   6
TORSDOF 7
ENDMDL
MODEL      161
REMARK 921   NORMALIZED FREE ENERGY PREDICTED BY IDOCK:   -4.35 KCAL/MOL
REMARK 922        TOTAL FREE ENERGY PREDICTED BY IDOCK:   -7.91 KCAL/MOL
REMARK 923 INTER-LIGAND FREE ENERGY PREDICTED BY IDOCK:   -6.45 KCAL/MOL
REMARK 924 INTRA-LIGAND FREE ENERGY PREDICTED BY IDOCK:   -1.46 KCAL/MOL
REMARK 927      BINDING AFFINITY PREDICTED BY RF-SCORE:    0.00 PKD
ROOT
HETATM    1  N   UNL     1      -9.029   7.266  65.884  1.00  0.00    -0.322 N  
HETATM    2  C   UNL     1      -8.417   7.872  66.951  1.00  0.00    -0.128 C  
HETATM    3  H1  UNL     1      -9.895   7.696  65.563  1.00  0.00     0.000 HD 
HETATM    4  H2  UNL     1      -8.640   6.435  65.438  1.00  0.00     0.000 HD 
HETATM    5  O   UNL     1      -7.375   7.356  67.338  1.00  0.00    -0.096 OA 
ENDROOT
BRANCH   2   6
HETATM    6  C   UNL     1      -9.058   9.210  67.522  1.00  0.00    -0.137 C  
BRANCH   6   7
HETATM    7  C   UNL     1      -9.570   8.913  69.001  1.00  0.00    -0.158 A  
HETATM    8  C   UNL     1     -10.514   8.580  71.668  1.00  0.00    -0.345 A  
HETATM    9  C   UNL     1      -9.180   8.874  71.431  1.00  0.00    -0.328 A  
HETATM   10  C   UNL     1     -11.371   8.393  70.593  1.00  0.00    -0.262 A  
HETATM   11  C   UNL     1      -8.710   9.017  70.118  1.00  0.00    -0.184 A  
HETATM   12  C   UNL     1     -10.903   8.548  69.281  1.00  0.00    -0.072 A  
ENDBRANCH   6   7
BRANCH   6  13
HETATM   13  C   UNL     1      -7.964  10.342  67.524  1.00  0.00    -0.106 A  
HETATM   14  C   UNL     1      -7.990  11.367  68.501  1.00  0.00    -0.143 A  
HETATM   15  C   UNL     1      -7.082  12.431  68.478  1.00  0.00    -0.100 A  
HETATM   16  C   UNL     1      -6.100  12.492  67.500  1.00  0.00    -0.154 A  
HETATM   17  C   UNL     1      -6.929  10.407  66.577  1.00  0.00    -0.112 A  
HETATM   18  C   UNL     1      -6.015  11.470  66.552  1.00  0.00    -0.101 A  
ENDBRANCH   6  13
BRANCH   6  19
HETATM   19  C   UNL     1     -10.301   9.679  66.622  1.00  0.00    -0.279 C  
HETATM   20  C   UNL     1     -10.095  11.659  65.193  1.00  0.00    -0.262 C  
HETATM   21  N   UNL     1     -11.049  11.992  66.247  1.00  0.00    -0.303 NA 
HETATM   22  C   UNL     1     -11.217  10.814  67.113  1.00  0.00    -0.147 C  
HETATM   23  C   UNL     1      -9.982  10.143  65.191  1.00  0.00    -0.379 C  
BRANCH  21  24
HETATM   24  C   UNL     1     -10.703  13.203  67.015  1.00  0.00    -0.262 C  
BRANCH  24  25
HETATM   25  C   UNL     1      -9.820  14.213  66.260  1.00  0.00    -0.321 C  
BRANCH  25  26
HETATM   26  C   UNL     1      -8.934  15.010  67.200  1.00  0.00    -0.235 A  
HETATM   27  C   UNL     1      -7.751  15.593  66.725  1.00  0.00    -0.169 A  
HETATM   28  C   UNL     1      -6.975  16.340  67.600  1.00  0.00    -0.168 A  
HETATM   29  C   UNL     1      -7.362  16.518  68.914  1.00  0.00    -0.219 A  
HETATM   30  O   UNL     1      -6.510  17.304  69.643  1.00  0.00    -0.243 OA 
HETATM   31  C   UNL     1      -8.516  15.959  69.416  1.00  0.00    -0.191 A  
HETATM   32  C   UNL     1      -9.306  15.190  68.550  1.00  0.00    -0.192 A  
HETATM   33  C   UNL     1      -5.397  17.562  68.757  1.00  0.00    -0.154 C  
HETATM   34  C   UNL     1      -5.706  17.049  67.349  1.00  0.00    -0.172 C  
ENDBRANCH  25  26
ENDBRANCH  24  25
ENDBRANCH  21  24
ENDBRANCH   6  19
ENDBRANCH   2   6
TORSDOF 7
ENDMDL
MODEL      162
REMARK 921   NORMALIZED FREE ENERGY PREDICTED BY IDOCK:   -4.33 KCAL/MOL
REMARK 922        TOTAL FREE ENERGY PREDICTED BY IDOCK:   -7.89 KCAL/MOL
REMARK 923 INTER-LIGAND FREE ENERGY PREDICTED BY IDOCK:   -7.99 KCAL/MOL
REMARK 924 INTRA-LIGAND FREE ENERGY PREDICTED BY IDOCK:    0.11 KCAL/MOL
REMARK 927      BINDING AFFINITY PREDICTED BY RF-SCORE:    0.00 PKD
ROOT
HETATM    1  N   UNL     1     -10.925  17.353  67.001  1.00  0.00    -0.025 N  
HETATM    2  C   UNL     1      -9.731  16.790  67.372  1.00  0.00    -0.245 C  
HETATM    3  H1  UNL     1     -11.711  16.710  66.903  1.00  0.00     0.000 HD 
HETATM    4  H2  UNL     1     -11.022  18.354  66.833  1.00  0.00     0.000 HD 
HETATM    5  O   UNL     1      -8.787  17.562  67.490  1.00  0.00    -0.226 OA 
ENDROOT
BRANCH   2   6
HETATM    6  C   UNL     1      -9.704  15.233  67.691  1.00  0.00    -0.208 C  
BRANCH   6   7
HETATM    7  C   UNL     1      -8.242  14.867  68.208  1.00  0.00    -0.145 A  
HETATM    8  C   UNL     1      -5.705  14.040  69.204  1.00  0.00    -0.085 A  
HETATM    9  C   UNL     1      -6.603  14.692  70.036  1.00  0.00    -0.161 A  
HETATM   10  C   UNL     1      -6.031  13.846  67.870  1.00  0.00    -0.143 A  
HETATM   11  C   UNL     1      -7.843  15.117  69.541  1.00  0.00    -0.186 A  
HETATM   12  C   UNL     1      -7.276  14.262  67.379  1.00  0.00    -0.137 A  
ENDBRANCH   6   7
BRANCH   6  13
HETATM   13  C   UNL     1     -10.784  14.917  68.792  1.00  0.00    -0.252 A  
HETATM   14  C   UNL     1     -11.670  15.926  69.242  1.00  0.00    -0.360 A  
HETATM   15  C   UNL     1     -12.584  15.697  70.277  1.00  0.00    -0.319 A  
HETATM   16  C   UNL     1     -12.664  14.448  70.876  1.00  0.00    -0.425 A  
HETATM   17  C   UNL     1     -10.924  13.652  69.385  1.00  0.00    -0.117 A  
HETATM   18  C   UNL     1     -11.840  13.418  70.421  1.00  0.00    -0.283 A  
ENDBRANCH   6  13
BRANCH   6  19
HETATM   19  C   UNL     1     -10.024  14.372  66.375  1.00  0.00    -0.305 C  
HETATM   20  C   UNL     1     -12.237  13.361  66.087  1.00  0.00    -0.415 C  
HETATM   21  N   UNL     1     -11.289  12.265  66.273  1.00  0.00    -0.327 NA 
HETATM   22  C   UNL     1      -9.942  12.837  66.425  1.00  0.00    -0.265 C  
HETATM   23  C   UNL     1     -11.405  14.582  65.732  1.00  0.00    -0.336 C  
BRANCH  21  24
HETATM   24  C   UNL     1     -11.633  11.349  67.377  1.00  0.00    -0.184 C  
BRANCH  24  25
HETATM   25  C   UNL     1     -10.633  10.198  67.592  1.00  0.00    -0.316 C  
BRANCH  25  26
HETATM   26  C   UNL     1     -10.888   9.459  68.893  1.00  0.00    -0.151 A  
HETATM   27  C   UNL     1     -10.767   8.064  68.944  1.00  0.00    -0.091 A  
HETATM   28  C   UNL     1     -10.978   7.417  70.154  1.00  0.00    -0.272 A  
HETATM   29  C   UNL     1     -11.289   8.132  71.294  1.00  0.00    -0.265 A  
HETATM   30  O   UNL     1     -11.436   7.358  72.413  1.00  0.00    -0.279 OA 
HETATM   31  C   UNL     1     -11.418   9.503  71.282  1.00  0.00    -0.447 A  
HETATM   32  C   UNL     1     -11.222  10.172  70.066  1.00  0.00    -0.361 A  
HETATM   33  C   UNL     1     -11.332   5.996  71.936  1.00  0.00    -0.279 C  
HETATM   34  C   UNL     1     -10.908   5.977  70.466  1.00  0.00    -0.382 C  
ENDBRANCH  25  26
ENDBRANCH  24  25
ENDBRANCH  21  24
ENDBRANCH   6  19
ENDBRANCH   2   6
TORSDOF 7
ENDMDL
MODEL      163
REMARK 921   NORMALIZED FREE ENERGY PREDICTED BY IDOCK:   -4.32 KCAL/MOL
REMARK 922        TOTAL FREE ENERGY PREDICTED BY IDOCK:   -7.87 KCAL/MOL
REMARK 923 INTER-LIGAND FREE ENERGY PREDICTED BY IDOCK:   -7.82 KCAL/MOL
REMARK 924 INTRA-LIGAND FREE ENERGY PREDICTED BY IDOCK:   -0.05 KCAL/MOL
REMARK 927      BINDING AFFINITY PREDICTED BY RF-SCORE:    0.00 PKD
ROOT
HETATM    1  N   UNL     1     -10.936  15.473  65.993  1.00  0.00    -0.292 N  
HETATM    2  C   UNL     1     -11.396  14.952  67.175  1.00  0.00    -0.343 C  
HETATM    3  H1  UNL     1     -10.062  15.996  66.044  1.00  0.00     0.000 HD 
HETATM    4  H2  UNL     1     -11.437  15.344  65.113  1.00  0.00     0.000 HD 
HETATM    5  O   UNL     1     -12.446  14.323  67.112  1.00  0.00    -0.266 OA 
ENDROOT
BRANCH   2   6
HETATM    6  C   UNL     1     -10.500  15.138  68.474  1.00  0.00    -0.233 C  
BRANCH   6   7
HETATM    7  C   UNL     1      -9.825  16.579  68.400  1.00  0.00    -0.237 A  
HETATM    8  C   UNL     1      -8.540  19.102  68.089  1.00  0.00    -0.359 A  
HETATM    9  C   UNL     1      -7.851  18.030  68.636  1.00  0.00    -0.298 A  
HETATM   10  C   UNL     1      -9.876  18.950  67.749  1.00  0.00    -0.389 A  
HETATM   11  C   UNL     1      -8.489  16.794  68.808  1.00  0.00    -0.253 A  
HETATM   12  C   UNL     1     -10.509  17.711  67.911  1.00  0.00    -0.392 A  
ENDBRANCH   6   7
BRANCH   6  13
HETATM   13  C   UNL     1     -11.414  15.012  69.749  1.00  0.00    -0.324 A  
HETATM   14  C   UNL     1     -11.501  16.075  70.681  1.00  0.00    -0.427 A  
HETATM   15  C   UNL     1     -12.239  15.960  71.864  1.00  0.00    -0.558 A  
HETATM   16  C   UNL     1     -12.939  14.795  72.142  1.00  0.00    -0.415 A  
HETATM   17  C   UNL     1     -12.172  13.865  70.037  1.00  0.00    -0.408 A  
HETATM   18  C   UNL     1     -12.915  13.747  71.220  1.00  0.00    -0.409 A  
ENDBRANCH   6  13
BRANCH   6  19
HETATM   19  C   UNL     1      -9.346  14.024  68.540  1.00  0.00    -0.182 C  
HETATM   20  C   UNL     1      -8.422  13.101  66.466  1.00  0.00     0.265 C  
HETATM   21  N   UNL     1      -9.159  12.023  67.121  1.00  0.00    -0.180 NA 
HETATM   22  C   UNL     1      -9.708  12.537  68.386  1.00  0.00    -0.189 C  
HETATM   23  C   UNL     1      -8.194  14.163  67.529  1.00  0.00    -0.196 C  
BRANCH  21  24
HETATM   24  C   UNL     1     -10.194  11.398  66.278  1.00  0.00    -0.233 C  
BRANCH  24  25
HETATM   25  C   UNL     1      -9.960  11.539  64.762  1.00  0.00    -0.304 C  
BRANCH  25  26
HETATM   26  C   UNL     1      -9.103  10.415  64.211  1.00  0.00    -0.270 A  
HETATM   27  C   UNL     1      -9.033   9.189  64.885  1.00  0.00    -0.201 A  
HETATM   28  C   UNL     1      -8.264   8.168  64.343  1.00  0.00    -0.105 A  
HETATM   29  C   UNL     1      -7.587   8.349  63.152  1.00  0.00    -0.121 A  
HETATM   30  O   UNL     1      -6.899   7.243  62.730  1.00  0.00    -0.052 OA 
HETATM   31  C   UNL     1      -7.631   9.541  62.462  1.00  0.00    -0.112 A  
HETATM   32  C   UNL     1      -8.392  10.586  63.003  1.00  0.00    -0.159 A  
HETATM   33  C   UNL     1      -7.038   6.289  63.808  1.00  0.00    -0.050 C  
HETATM   34  C   UNL     1      -8.034   6.803  64.850  1.00  0.00    -0.124 C  
ENDBRANCH  25  26
ENDBRANCH  24  25
ENDBRANCH  21  24
ENDBRANCH   6  19
ENDBRANCH   2   6
TORSDOF 7
ENDMDL
MODEL      164
REMARK 921   NORMALIZED FREE ENERGY PREDICTED BY IDOCK:   -4.31 KCAL/MOL
REMARK 922        TOTAL FREE ENERGY PREDICTED BY IDOCK:   -7.85 KCAL/MOL
REMARK 923 INTER-LIGAND FREE ENERGY PREDICTED BY IDOCK:   -7.35 KCAL/MOL
REMARK 924 INTRA-LIGAND FREE ENERGY PREDICTED BY IDOCK:   -0.50 KCAL/MOL
REMARK 927      BINDING AFFINITY PREDICTED BY RF-SCORE:    0.00 PKD
ROOT
HETATM    1  N   UNL     1      -9.013   5.850  66.762  1.00  0.00    -0.117 N  
HETATM    2  C   UNL     1      -9.817   5.981  67.865  1.00  0.00    -0.120 C  
HETATM    3  H1  UNL     1      -8.012   5.779  66.944  1.00  0.00     0.000 HD 
HETATM    4  H2  UNL     1      -9.394   5.825  65.816  1.00  0.00     0.000 HD 
HETATM    5  O   UNL     1     -11.020   6.067  67.647  1.00  0.00    -0.305 OA 
ENDROOT
BRANCH   2   6
HETATM    6  C   UNL     1      -9.135   5.926  69.300  1.00  0.00    -0.128 C  
BRANCH   6   7
HETATM    7  C   UNL     1     -10.268   6.184  70.389  1.00  0.00    -0.256 A  
HETATM    8  C   UNL     1     -12.411   6.515  72.237  1.00  0.00    -0.158 A  
HETATM    9  C   UNL     1     -12.379   7.255  71.065  1.00  0.00    -0.335 A  
HETATM   10  C   UNL     1     -11.361   5.656  72.528  1.00  0.00    -0.349 A  
HETATM   11  C   UNL     1     -11.315   7.108  70.165  1.00  0.00    -0.277 A  
HETATM   12  C   UNL     1     -10.303   5.502  71.622  1.00  0.00    -0.277 A  
ENDBRANCH   6   7
BRANCH   6  13
HETATM   13  C   UNL     1      -8.477   4.509  69.500  1.00  0.00    -0.093 A  
HETATM   14  C   UNL     1      -9.196   3.330  69.184  1.00  0.00    -0.225 A  
HETATM   15  C   UNL     1      -8.670   2.057  69.429  1.00  0.00    -0.120 A  
HETATM   16  C   UNL     1      -7.399   1.918  69.968  1.00  0.00    -0.036 A  
HETATM   17  C   UNL     1      -7.177   4.333  69.999  1.00  0.00    -0.046 A  
HETATM   18  C   UNL     1      -6.644   3.060  70.243  1.00  0.00    -0.033 A  
ENDBRANCH   6  13
BRANCH   6  19
HETATM   19  C   UNL     1      -8.005   7.057  69.442  1.00  0.00    -0.118 C  
HETATM   20  C   UNL     1      -8.590   9.258  70.348  1.00  0.00    -0.219 C  
HETATM   21  N   UNL     1      -8.257   9.451  68.939  1.00  0.00    -0.109 NA 
HETATM   22  C   UNL     1      -7.876   8.150  68.368  1.00  0.00    -0.118 C  
HETATM   23  C   UNL     1      -8.029   7.898  70.730  1.00  0.00    -0.100 C  
BRANCH  21  24
HETATM   24  C   UNL     1      -9.314  10.116  68.154  1.00  0.00    -0.135 C  
BRANCH  24  25
HETATM   25  C   UNL     1      -9.528  11.603  68.493  1.00  0.00    -0.175 C  
BRANCH  25  26
HETATM   26  C   UNL     1     -10.366  12.311  67.445  1.00  0.00    -0.219 A  
HETATM   27  C   UNL     1     -10.316  11.897  66.107  1.00  0.00    -0.261 A  
HETATM   28  C   UNL     1     -11.114  12.544  65.175  1.00  0.00    -0.335 A  
HETATM   29  C   UNL     1     -11.955  13.572  65.555  1.00  0.00    -0.390 A  
HETATM   30  O   UNL     1     -12.702  14.089  64.530  1.00  0.00    -0.653 OA 
HETATM   31  C   UNL     1     -12.030  14.007  66.860  1.00  0.00    -0.479 A  
HETATM   32  C   UNL     1     -11.221  13.374  67.812  1.00  0.00    -0.306 A  
HETATM   33  C   UNL     1     -12.213  13.420  63.345  1.00  0.00    -0.349 C  
HETATM   34  C   UNL     1     -11.245  12.298  63.727  1.00  0.00    -0.510 C  
ENDBRANCH  25  26
ENDBRANCH  24  25
ENDBRANCH  21  24
ENDBRANCH   6  19
ENDBRANCH   2   6
TORSDOF 7
ENDMDL
MODEL      165
REMARK 921   NORMALIZED FREE ENERGY PREDICTED BY IDOCK:   -4.28 KCAL/MOL
REMARK 922        TOTAL FREE ENERGY PREDICTED BY IDOCK:   -7.81 KCAL/MOL
REMARK 923 INTER-LIGAND FREE ENERGY PREDICTED BY IDOCK:   -7.07 KCAL/MOL
REMARK 924 INTRA-LIGAND FREE ENERGY PREDICTED BY IDOCK:   -0.73 KCAL/MOL
REMARK 927      BINDING AFFINITY PREDICTED BY RF-SCORE:    0.00 PKD
ROOT
HETATM    1  N   UNL     1     -11.425  15.857  65.782  1.00  0.00     0.182 N  
HETATM    2  C   UNL     1     -11.558  15.024  66.863  1.00  0.00    -0.223 C  
HETATM    3  H1  UNL     1     -10.687  16.559  65.846  1.00  0.00     0.000 HD 
HETATM    4  H2  UNL     1     -12.027  15.780  64.962  1.00  0.00     0.000 HD 
HETATM    5  O   UNL     1     -12.444  14.181  66.786  1.00  0.00    -0.396 OA 
ENDROOT
BRANCH   2   6
HETATM    6  C   UNL     1     -10.517  15.171  68.055  1.00  0.00    -0.247 C  
BRANCH   6   7
HETATM    7  C   UNL     1      -9.974  16.669  68.046  1.00  0.00    -0.258 A  
HETATM    8  C   UNL     1      -9.037  19.351  67.832  1.00  0.00    -0.377 A  
HETATM    9  C   UNL     1      -8.176  18.289  67.599  1.00  0.00    -0.254 A  
HETATM   10  C   UNL     1     -10.342  19.094  68.227  1.00  0.00    -0.448 A  
HETATM   11  C   UNL     1      -8.631  16.970  67.724  1.00  0.00    -0.213 A  
HETATM   12  C   UNL     1     -10.799  17.774  68.340  1.00  0.00    -0.088 A  
ENDBRANCH   6   7
BRANCH   6  13
HETATM   13  C   UNL     1     -11.243  14.846  69.413  1.00  0.00    -0.302 A  
HETATM   14  C   UNL     1     -12.354  13.967  69.443  1.00  0.00    -0.247 A  
HETATM   15  C   UNL     1     -13.071  13.724  70.619  1.00  0.00    -0.093 A  
HETATM   16  C   UNL     1     -12.686  14.325  71.809  1.00  0.00    -0.428 A  
HETATM   17  C   UNL     1     -10.851  15.399  70.642  1.00  0.00    -0.318 A  
HETATM   18  C   UNL     1     -11.565  15.156  71.824  1.00  0.00    -0.478 A  
ENDBRANCH   6  13
BRANCH   6  19
HETATM   19  C   UNL     1      -9.280  14.167  67.864  1.00  0.00    -0.196 C  
HETATM   20  C   UNL     1      -9.442  12.321  66.260  1.00  0.00    -0.231 C  
HETATM   21  N   UNL     1      -9.402  11.725  67.592  1.00  0.00    -0.176 NA 
HETATM   22  C   UNL     1      -9.279  12.807  68.582  1.00  0.00     0.041 C  
HETATM   23  C   UNL     1      -8.946  13.749  66.421  1.00  0.00    -0.005 C  
BRANCH  21  24
HETATM   24  C   UNL     1     -10.534  10.827  67.887  1.00  0.00    -0.199 C  
BRANCH  24  25
HETATM   25  C   UNL     1     -10.851  10.662  69.385  1.00  0.00    -0.289 C  
BRANCH  25  26
HETATM   26  C   UNL     1     -10.226   9.406  69.965  1.00  0.00    -0.262 A  
HETATM   27  C   UNL     1     -11.030   8.304  70.284  1.00  0.00    -0.233 A  
HETATM   28  C   UNL     1     -10.428   7.158  70.786  1.00  0.00    -0.227 A  
HETATM   29  C   UNL     1      -9.059   7.096  70.959  1.00  0.00    -0.151 A  
HETATM   30  O   UNL     1      -8.612   5.891  71.431  1.00  0.00    -0.127 OA 
HETATM   31  C   UNL     1      -8.237   8.160  70.658  1.00  0.00    -0.114 A  
HETATM   32  C   UNL     1      -8.830   9.329  70.162  1.00  0.00    -0.235 A  
HETATM   33  C   UNL     1      -9.813   5.137  71.711  1.00  0.00    -0.174 C  
HETATM   34  C   UNL     1     -11.044   5.881  71.189  1.00  0.00    -0.305 C  
ENDBRANCH  25  26
ENDBRANCH  24  25
ENDBRANCH  21  24
ENDBRANCH   6  19
ENDBRANCH   2   6
TORSDOF 7
ENDMDL
MODEL      166
REMARK 921   NORMALIZED FREE ENERGY PREDICTED BY IDOCK:   -4.28 KCAL/MOL
REMARK 922        TOTAL FREE ENERGY PREDICTED BY IDOCK:   -7.80 KCAL/MOL
REMARK 923 INTER-LIGAND FREE ENERGY PREDICTED BY IDOCK:   -6.90 KCAL/MOL
REMARK 924 INTRA-LIGAND FREE ENERGY PREDICTED BY IDOCK:   -0.91 KCAL/MOL
REMARK 927      BINDING AFFINITY PREDICTED BY RF-SCORE:    0.00 PKD
ROOT
HETATM    1  N   UNL     1      -8.874  11.550  69.380  1.00  0.00    -0.120 N  
HETATM    2  C   UNL     1      -9.397  11.934  68.171  1.00  0.00    -0.191 C  
HETATM    3  H1  UNL     1      -9.229  12.044  70.198  1.00  0.00     0.000 HD 
HETATM    4  H2  UNL     1      -8.172  10.813  69.456  1.00  0.00     0.000 HD 
HETATM    5  O   UNL     1      -8.970  11.339  67.188  1.00  0.00    -0.151 OA 
ENDROOT
BRANCH   2   6
HETATM    6  C   UNL     1     -10.545  13.032  68.167  1.00  0.00    -0.257 C  
BRANCH   6   7
HETATM    7  C   UNL     1     -11.342  12.899  66.794  1.00  0.00    -0.367 A  
HETATM    8  C   UNL     1     -12.646  12.805  64.263  1.00  0.00    -0.405 A  
HETATM    9  C   UNL     1     -13.029  13.742  65.212  1.00  0.00    -0.328 A  
HETATM   10  C   UNL     1     -11.664  11.878  64.580  1.00  0.00    -0.306 A  
HETATM   11  C   UNL     1     -12.402  13.775  66.464  1.00  0.00    -0.432 A  
HETATM   12  C   UNL     1     -11.030  11.921  65.829  1.00  0.00    -0.359 A  
ENDBRANCH   6   7
BRANCH   6  13
HETATM   13  C   UNL     1     -11.498  12.781  69.395  1.00  0.00    -0.321 A  
HETATM   14  C   UNL     1     -12.052  13.870  70.112  1.00  0.00    -0.418 A  
HETATM   15  C   UNL     1     -12.834  13.679  71.256  1.00  0.00    -0.424 A  
HETATM   16  C   UNL     1     -13.114  12.397  71.706  1.00  0.00    -0.446 A  
HETATM   17  C   UNL     1     -11.840  11.497  69.848  1.00  0.00    -0.430 A  
HETATM   18  C   UNL     1     -12.626  11.301  70.993  1.00  0.00    -0.495 A  
ENDBRANCH   6  13
BRANCH   6  19
HETATM   19  C   UNL     1      -9.927  14.509  68.272  1.00  0.00    -0.229 C  
HETATM   20  C   UNL     1      -7.833  15.041  67.115  1.00  0.00    -0.190 C  
HETATM   21  N   UNL     1      -7.552  15.088  68.548  1.00  0.00    -0.112 NA 
HETATM   22  C   UNL     1      -8.798  14.798  69.276  1.00  0.00    -0.029 C  
HETATM   23  C   UNL     1      -9.345  15.107  66.979  1.00  0.00    -0.244 C  
BRANCH  21  24
HETATM   24  C   UNL     1      -6.441  14.218  68.976  1.00  0.00    -0.100 C  
BRANCH  24  25
HETATM   25  C   UNL     1      -5.533  13.727  67.834  1.00  0.00    -0.097 C  
BRANCH  25  26
HETATM   26  C   UNL     1      -5.514  12.213  67.732  1.00  0.00    -0.076 A  
HETATM   27  C   UNL     1      -5.482  11.431  68.895  1.00  0.00    -0.039 A  
HETATM   28  C   UNL     1      -5.495  10.048  68.773  1.00  0.00    -0.035 A  
HETATM   29  C   UNL     1      -5.549   9.448  67.530  1.00  0.00    -0.037 A  
HETATM   30  O   UNL     1      -5.587   8.080  67.574  1.00  0.00    -0.035 OA 
HETATM   31  C   UNL     1      -5.579  10.184  66.366  1.00  0.00    -0.052 A  
HETATM   32  C   UNL     1      -5.554  11.581  66.470  1.00  0.00    -0.119 A  
HETATM   33  C   UNL     1      -5.416   7.752  68.972  1.00  0.00    -0.022 C  
HETATM   34  C   UNL     1      -5.472   9.019  69.828  1.00  0.00    -0.033 C  
ENDBRANCH  25  26
ENDBRANCH  24  25
ENDBRANCH  21  24
ENDBRANCH   6  19
ENDBRANCH   2   6
TORSDOF 7
ENDMDL
MODEL      167
REMARK 921   NORMALIZED FREE ENERGY PREDICTED BY IDOCK:   -4.25 KCAL/MOL
REMARK 922        TOTAL FREE ENERGY PREDICTED BY IDOCK:   -7.76 KCAL/MOL
REMARK 923 INTER-LIGAND FREE ENERGY PREDICTED BY IDOCK:   -6.32 KCAL/MOL
REMARK 924 INTRA-LIGAND FREE ENERGY PREDICTED BY IDOCK:   -1.44 KCAL/MOL
REMARK 927      BINDING AFFINITY PREDICTED BY RF-SCORE:    0.00 PKD
ROOT
HETATM    1  N   UNL     1     -10.411  14.796  68.195  1.00  0.00    -0.237 N  
HETATM    2  C   UNL     1     -10.917  13.604  67.745  1.00  0.00    -0.259 C  
HETATM    3  H1  UNL     1      -9.537  14.743  68.718  1.00  0.00     0.000 HD 
HETATM    4  H2  UNL     1     -10.881  15.685  68.017  1.00  0.00     0.000 HD 
HETATM    5  O   UNL     1     -11.967  13.668  67.116  1.00  0.00    -0.382 OA 
ENDROOT
BRANCH   2   6
HETATM    6  C   UNL     1     -10.068  12.285  68.002  1.00  0.00    -0.206 C  
BRANCH   6   7
HETATM    7  C   UNL     1     -10.816  11.434  69.122  1.00  0.00    -0.260 A  
HETATM    8  C   UNL     1     -12.304   9.885  70.993  1.00  0.00    -0.451 A  
HETATM    9  C   UNL     1     -12.543  11.246  70.865  1.00  0.00    -0.467 A  
HETATM   10  C   UNL     1     -11.294   9.299  70.244  1.00  0.00    -0.238 A  
HETATM   11  C   UNL     1     -11.797  12.012  69.960  1.00  0.00    -0.392 A  
HETATM   12  C   UNL     1     -10.557  10.064  69.330  1.00  0.00    -0.256 A  
ENDBRANCH   6   7
BRANCH   6  13
HETATM   13  C   UNL     1      -9.962  11.474  66.657  1.00  0.00    -0.236 A  
HETATM   14  C   UNL     1      -9.896  10.059  66.673  1.00  0.00    -0.259 A  
HETATM   15  C   UNL     1      -9.719   9.315  65.502  1.00  0.00    -0.247 A  
HETATM   16  C   UNL     1      -9.632   9.955  64.274  1.00  0.00    -0.220 A  
HETATM   17  C   UNL     1      -9.919  12.087  65.395  1.00  0.00    -0.279 A  
HETATM   18  C   UNL     1      -9.744  11.345  64.218  1.00  0.00    -0.263 A  
ENDBRANCH   6  13
BRANCH   6  19
HETATM   19  C   UNL     1      -8.591  12.645  68.518  1.00  0.00    -0.051 C  
HETATM   20  C   UNL     1      -6.673  12.369  67.019  1.00  0.00     0.001 C  
HETATM   21  N   UNL     1      -6.533  11.372  68.078  1.00  0.00    -0.056 NA 
HETATM   22  C   UNL     1      -7.659  11.527  69.013  1.00  0.00    -0.058 C  
HETATM   23  C   UNL     1      -7.677  13.389  67.530  1.00  0.00    -0.182 C  
BRANCH  21  24
HETATM   24  C   UNL     1      -6.400   9.987  67.591  1.00  0.00    -0.059 C  
BRANCH  24  25
HETATM   25  C   UNL     1      -6.447   8.911  68.691  1.00  0.00    -0.054 C  
BRANCH  25  26
HETATM   26  C   UNL     1      -7.423   7.797  68.358  1.00  0.00    -0.104 A  
HETATM   27  C   UNL     1      -7.441   7.240  67.073  1.00  0.00    -0.105 A  
HETATM   28  C   UNL     1      -8.324   6.204  66.804  1.00  0.00    -0.110 A  
HETATM   29  C   UNL     1      -9.165   5.719  67.786  1.00  0.00    -0.105 A  
HETATM   30  O   UNL     1      -9.954   4.676  67.378  1.00  0.00    -0.180 OA 
HETATM   31  C   UNL     1      -9.178   6.243  69.060  1.00  0.00    -0.127 A  
HETATM   32  C   UNL     1      -8.301   7.299  69.345  1.00  0.00    -0.133 A  
HETATM   33  C   UNL     1      -9.693   4.549  65.962  1.00  0.00    -0.210 C  
HETATM   34  C   UNL     1      -8.531   5.455  65.550  1.00  0.00    -0.141 C  
ENDBRANCH  25  26
ENDBRANCH  24  25
ENDBRANCH  21  24
ENDBRANCH   6  19
ENDBRANCH   2   6
TORSDOF 7
ENDMDL
MODEL      168
REMARK 921   NORMALIZED FREE ENERGY PREDICTED BY IDOCK:   -4.22 KCAL/MOL
REMARK 922        TOTAL FREE ENERGY PREDICTED BY IDOCK:   -7.73 KCAL/MOL
REMARK 923 INTER-LIGAND FREE ENERGY PREDICTED BY IDOCK:   -6.63 KCAL/MOL
REMARK 924 INTRA-LIGAND FREE ENERGY PREDICTED BY IDOCK:   -1.10 KCAL/MOL
REMARK 927      BINDING AFFINITY PREDICTED BY RF-SCORE:    0.00 PKD
ROOT
HETATM    1  N   UNL     1      -8.494  10.722  64.285  1.00  0.00    -0.362 N  
HETATM    2  C   UNL     1      -7.745  10.190  65.303  1.00  0.00    -0.144 C  
HETATM    3  H1  UNL     1      -9.491  10.828  64.471  1.00  0.00     0.000 HD 
HETATM    4  H2  UNL     1      -8.079  10.997  63.394  1.00  0.00     0.000 HD 
HETATM    5  O   UNL     1      -6.547  10.063  65.079  1.00  0.00    -0.111 OA 
ENDROOT
BRANCH   2   6
HETATM    6  C   UNL     1      -8.471   9.873  66.680  1.00  0.00    -0.126 C  
BRANCH   6   7
HETATM    7  C   UNL     1      -9.558  11.010  66.932  1.00  0.00    -0.205 A  
HETATM    8  C   UNL     1     -11.390  13.166  67.267  1.00  0.00    -0.344 A  
HETATM    9  C   UNL     1     -10.278  13.060  68.089  1.00  0.00    -0.239 A  
HETATM   10  C   UNL     1     -11.632  12.181  66.320  1.00  0.00    -0.424 A  
HETATM   11  C   UNL     1      -9.387  11.989  67.938  1.00  0.00    -0.190 A  
HETATM   12  C   UNL     1     -10.735  11.116  66.164  1.00  0.00    -0.285 A  
ENDBRANCH   6   7
BRANCH   6  13
HETATM   13  C   UNL     1      -9.153   8.457  66.585  1.00  0.00    -0.202 A  
HETATM   14  C   UNL     1     -10.405   8.217  67.203  1.00  0.00    -0.391 A  
HETATM   15  C   UNL     1     -10.995   6.949  67.206  1.00  0.00    -0.406 A  
HETATM   16  C   UNL     1     -10.371   5.885  66.569  1.00  0.00    -0.237 A  
HETATM   17  C   UNL     1      -8.572   7.372  65.909  1.00  0.00    -0.165 A  
HETATM   18  C   UNL     1      -9.161   6.100  65.907  1.00  0.00    -0.068 A  
ENDBRANCH   6  13
BRANCH   6  19
HETATM   19  C   UNL     1      -7.423   9.873  67.896  1.00  0.00    -0.089 C  
HETATM   20  C   UNL     1      -5.794   8.054  68.103  1.00  0.00    -0.041 C  
HETATM   21  N   UNL     1      -6.719   7.928  69.226  1.00  0.00    -0.043 NA 
HETATM   22  C   UNL     1      -7.699   9.023  69.147  1.00  0.00    -0.092 C  
HETATM   23  C   UNL     1      -5.978   9.462  67.561  1.00  0.00    -0.049 C  
BRANCH  21  24
HETATM   24  C   UNL     1      -7.367   6.607  69.330  1.00  0.00    -0.092 C  
BRANCH  24  25
HETATM   25  C   UNL     1      -7.620   6.127  70.772  1.00  0.00    -0.096 C  
BRANCH  25  26
HETATM   26  C   UNL     1      -8.874   6.742  71.365  1.00  0.00    -0.131 A  
HETATM   27  C   UNL     1     -10.110   6.573  70.726  1.00  0.00    -0.211 A  
HETATM   28  C   UNL     1     -11.245   7.122  71.306  1.00  0.00    -0.287 A  
HETATM   29  C   UNL     1     -11.165   7.815  72.499  1.00  0.00    -0.363 A  
HETATM   30  O   UNL     1     -12.371   8.268  72.961  1.00  0.00    -0.205 OA 
HETATM   31  C   UNL     1      -9.968   8.003  73.154  1.00  0.00    -0.316 A  
HETATM   32  C   UNL     1      -8.810   7.466  72.575  1.00  0.00    -0.159 A  
HETATM   33  C   UNL     1     -13.312   7.949  71.909  1.00  0.00    -0.282 C  
HETATM   34  C   UNL     1     -12.643   7.081  70.841  1.00  0.00    -0.273 C  
ENDBRANCH  25  26
ENDBRANCH  24  25
ENDBRANCH  21  24
ENDBRANCH   6  19
ENDBRANCH   2   6
TORSDOF 7
ENDMDL
MODEL      169
REMARK 921   NORMALIZED FREE ENERGY PREDICTED BY IDOCK:   -4.22 KCAL/MOL
REMARK 922        TOTAL FREE ENERGY PREDICTED BY IDOCK:   -7.72 KCAL/MOL
REMARK 923 INTER-LIGAND FREE ENERGY PREDICTED BY IDOCK:   -5.76 KCAL/MOL
REMARK 924 INTRA-LIGAND FREE ENERGY PREDICTED BY IDOCK:   -1.96 KCAL/MOL
REMARK 927      BINDING AFFINITY PREDICTED BY RF-SCORE:    0.00 PKD
ROOT
HETATM    1  N   UNL     1      -7.664   3.671  69.613  1.00  0.00    -0.051 N  
HETATM    2  C   UNL     1      -8.735   4.411  69.183  1.00  0.00    -0.085 C  
HETATM    3  H1  UNL     1      -6.952   4.177  70.138  1.00  0.00     0.000 HD 
HETATM    4  H2  UNL     1      -7.584   2.672  69.419  1.00  0.00     0.000 HD 
HETATM    5  O   UNL     1      -9.591   3.802  68.552  1.00  0.00    -0.162 OA 
ENDROOT
BRANCH   2   6
HETATM    6  C   UNL     1      -8.807   5.941  69.608  1.00  0.00    -0.131 C  
BRANCH   6   7
HETATM    7  C   UNL     1      -8.884   6.813  68.277  1.00  0.00    -0.125 A  
HETATM    8  C   UNL     1      -9.038   8.201  65.794  1.00  0.00    -0.139 A  
HETATM    9  C   UNL     1      -7.819   7.725  66.254  1.00  0.00    -0.091 A  
HETATM   10  C   UNL     1     -10.170   8.046  66.582  1.00  0.00    -0.315 A  
HETATM   11  C   UNL     1      -7.740   7.060  67.485  1.00  0.00    -0.111 A  
HETATM   12  C   UNL     1     -10.090   7.372  67.807  1.00  0.00    -0.232 A  
ENDBRANCH   6   7
BRANCH   6  13
HETATM   13  C   UNL     1     -10.084   6.165  70.501  1.00  0.00    -0.237 A  
HETATM   14  C   UNL     1     -10.850   7.350  70.378  1.00  0.00    -0.258 A  
HETATM   15  C   UNL     1     -11.940   7.614  71.214  1.00  0.00    -0.330 A  
HETATM   16  C   UNL     1     -12.320   6.693  72.180  1.00  0.00    -0.242 A  
HETATM   17  C   UNL     1     -10.524   5.233  71.454  1.00  0.00    -0.273 A  
HETATM   18  C   UNL     1     -11.617   5.492  72.292  1.00  0.00    -0.176 A  
ENDBRANCH   6  13
BRANCH   6  19
HETATM   19  C   UNL     1      -7.501   6.368  70.438  1.00  0.00    -0.094 C  
HETATM   20  C   UNL     1      -7.614   8.244  72.010  1.00  0.00    -0.116 C  
HETATM   21  N   UNL     1      -6.750   8.662  70.910  1.00  0.00    -0.046 NA 
HETATM   22  C   UNL     1      -6.639   7.547  69.956  1.00  0.00    -0.042 C  
HETATM   23  C   UNL     1      -7.712   6.730  71.918  1.00  0.00    -0.096 C  
BRANCH  21  24
HETATM   24  C   UNL     1      -7.167   9.915  70.255  1.00  0.00    -0.154 C  
BRANCH  24  25
HETATM   25  C   UNL     1      -8.687  10.062  70.057  1.00  0.00    -0.118 C  
BRANCH  25  26
HETATM   26  C   UNL     1      -9.026  10.795  68.772  1.00  0.00    -0.171 A  
HETATM   27  C   UNL     1     -10.314  11.314  68.577  1.00  0.00    -0.217 A  
HETATM   28  C   UNL     1     -10.588  12.004  67.405  1.00  0.00    -0.253 A  
HETATM   29  C   UNL     1      -9.608  12.191  66.449  1.00  0.00    -0.234 A  
HETATM   30  O   UNL     1     -10.021  12.918  65.365  1.00  0.00    -0.266 OA 
HETATM   31  C   UNL     1      -8.333  11.694  66.605  1.00  0.00    -0.154 A  
HETATM   32  C   UNL     1      -8.043  10.983  67.777  1.00  0.00    -0.116 A  
HETATM   33  C   UNL     1     -11.438  13.120  65.574  1.00  0.00    -0.315 C  
HETATM   34  C   UNL     1     -11.844  12.641  66.969  1.00  0.00    -0.415 C  
ENDBRANCH  25  26
ENDBRANCH  24  25
ENDBRANCH  21  24
ENDBRANCH   6  19
ENDBRANCH   2   6
TORSDOF 7
ENDMDL
MODEL      170
REMARK 921   NORMALIZED FREE ENERGY PREDICTED BY IDOCK:   -4.18 KCAL/MOL
REMARK 922        TOTAL FREE ENERGY PREDICTED BY IDOCK:   -7.67 KCAL/MOL
REMARK 923 INTER-LIGAND FREE ENERGY PREDICTED BY IDOCK:   -7.26 KCAL/MOL
REMARK 924 INTRA-LIGAND FREE ENERGY PREDICTED BY IDOCK:   -0.41 KCAL/MOL
REMARK 927      BINDING AFFINITY PREDICTED BY RF-SCORE:    0.00 PKD
ROOT
HETATM    1  N   UNL     1      -9.522  15.155  70.067  1.00  0.00    -0.439 N  
HETATM    2  C   UNL     1      -9.535  16.025  69.007  1.00  0.00    -0.243 C  
HETATM    3  H1  UNL     1      -8.656  14.637  70.211  1.00  0.00     0.000 HD 
HETATM    4  H2  UNL     1     -10.332  15.034  70.677  1.00  0.00     0.000 HD 
HETATM    5  O   UNL     1     -10.577  16.647  68.835  1.00  0.00    -0.293 OA 
ENDROOT
BRANCH   2   6
HETATM    6  C   UNL     1      -8.197  16.203  68.168  1.00  0.00    -0.157 C  
BRANCH   6   7
HETATM    7  C   UNL     1      -7.722  17.716  68.323  1.00  0.00    -0.253 A  
HETATM    8  C   UNL     1      -6.937  20.453  68.412  1.00  0.00    -0.221 A  
HETATM    9  C   UNL     1      -6.084  19.498  67.876  1.00  0.00    -0.230 A  
HETATM   10  C   UNL     1      -8.149  20.053  68.955  1.00  0.00     0.091 A  
HETATM   11  C   UNL     1      -6.462  18.149  67.851  1.00  0.00    -0.187 A  
HETATM   12  C   UNL     1      -8.529  18.705  68.919  1.00  0.00    -0.209 A  
ENDBRANCH   6   7
BRANCH   6  13
HETATM   13  C   UNL     1      -7.107  15.213  68.727  1.00  0.00    -0.117 A  
HETATM   14  C   UNL     1      -6.890  13.958  68.108  1.00  0.00    -0.122 A  
HETATM   15  C   UNL     1      -5.988  13.024  68.630  1.00  0.00    -0.071 A  
HETATM   16  C   UNL     1      -5.253  13.323  69.768  1.00  0.00    -0.085 A  
HETATM   17  C   UNL     1      -6.313  15.503  69.848  1.00  0.00    -0.151 A  
HETATM   18  C   UNL     1      -5.407  14.571  70.373  1.00  0.00    -0.113 A  
ENDBRANCH   6  13
BRANCH   6  19
HETATM   19  C   UNL     1      -8.448  15.890  66.614  1.00  0.00    -0.322 C  
HETATM   20  C   UNL     1     -10.593  16.472  65.583  1.00  0.00    -0.304 C  
HETATM   21  N   UNL     1     -10.515  15.013  65.610  1.00  0.00    -0.324 NA 
HETATM   22  C   UNL     1      -9.224  14.628  66.203  1.00  0.00    -0.175 C  
HETATM   23  C   UNL     1      -9.175  16.974  65.801  1.00  0.00     0.074 C  
BRANCH  21  24
HETATM   24  C   UNL     1     -11.653  14.359  66.281  1.00  0.00    -0.372 C  
BRANCH  24  25
HETATM   25  C   UNL     1     -11.366  12.935  66.793  1.00  0.00    -0.367 C  
BRANCH  25  26
HETATM   26  C   UNL     1     -11.876  12.725  68.208  1.00  0.00    -0.357 A  
HETATM   27  C   UNL     1     -12.123  11.429  68.680  1.00  0.00    -0.214 A  
HETATM   28  C   UNL     1     -12.561  11.264  69.986  1.00  0.00    -0.169 A  
HETATM   29  C   UNL     1     -12.741  12.355  70.815  1.00  0.00    -0.123 A  
HETATM   30  O   UNL     1     -13.146  12.030  72.082  1.00  0.00    -0.437 OA 
HETATM   31  C   UNL     1     -12.510  13.643  70.385  1.00  0.00    -0.364 A  
HETATM   32  C   UNL     1     -12.080  13.828  69.064  1.00  0.00    -0.359 A  
HETATM   33  C   UNL     1     -13.371  10.602  72.042  1.00  0.00    -0.304 C  
HETATM   34  C   UNL     1     -12.884  10.022  70.713  1.00  0.00    -0.341 C  
ENDBRANCH  25  26
ENDBRANCH  24  25
ENDBRANCH  21  24
ENDBRANCH   6  19
ENDBRANCH   2   6
TORSDOF 7
ENDMDL
MODEL      171
REMARK 921   NORMALIZED FREE ENERGY PREDICTED BY IDOCK:   -4.08 KCAL/MOL
REMARK 922        TOTAL FREE ENERGY PREDICTED BY IDOCK:   -7.53 KCAL/MOL
REMARK 923 INTER-LIGAND FREE ENERGY PREDICTED BY IDOCK:   -7.57 KCAL/MOL
REMARK 924 INTRA-LIGAND FREE ENERGY PREDICTED BY IDOCK:    0.04 KCAL/MOL
REMARK 927      BINDING AFFINITY PREDICTED BY RF-SCORE:    0.00 PKD
ROOT
HETATM    1  N   UNL     1     -10.372  11.225  69.398  1.00  0.00    -0.435 N  
HETATM    2  C   UNL     1     -10.217  10.755  68.119  1.00  0.00    -0.172 C  
HETATM    3  H1  UNL     1      -9.864  12.079  69.625  1.00  0.00     0.000 HD 
HETATM    4  H2  UNL     1     -10.960  10.748  70.082  1.00  0.00     0.000 HD 
HETATM    5  O   UNL     1     -10.826   9.727  67.846  1.00  0.00    -0.266 OA 
ENDROOT
BRANCH   2   6
HETATM    6  C   UNL     1      -9.346  11.615  67.105  1.00  0.00    -0.178 C  
BRANCH   6   7
HETATM    7  C   UNL     1     -10.211  11.838  65.786  1.00  0.00    -0.276 A  
HETATM    8  C   UNL     1     -11.721  12.433  63.445  1.00  0.00    -0.554 A  
HETATM    9  C   UNL     1     -12.313  12.511  64.697  1.00  0.00    -0.547 A  
HETATM   10  C   UNL     1     -10.404  12.008  63.341  1.00  0.00    -0.468 A  
HETATM   11  C   UNL     1     -11.576  12.199  65.847  1.00  0.00    -0.425 A  
HETATM   12  C   UNL     1      -9.666  11.706  64.493  1.00  0.00    -0.203 A  
ENDBRANCH   6   7
BRANCH   6  13
HETATM   13  C   UNL     1      -8.987  12.992  67.780  1.00  0.00    -0.191 A  
HETATM   14  C   UNL     1      -7.637  13.341  68.032  1.00  0.00    -0.145 A  
HETATM   15  C   UNL     1      -7.292  14.518  68.704  1.00  0.00    -0.128 A  
HETATM   16  C   UNL     1      -8.279  15.400  69.120  1.00  0.00    -0.243 A  
HETATM   17  C   UNL     1      -9.957  13.928  68.171  1.00  0.00    -0.240 A  
HETATM   18  C   UNL     1      -9.616  15.111  68.842  1.00  0.00    -0.223 A  
ENDBRANCH   6  13
BRANCH   6  19
HETATM   19  C   UNL     1      -7.990  10.848  66.718  1.00  0.00    -0.143 C  
HETATM   20  C   UNL     1      -8.038   8.439  66.269  1.00  0.00    -0.105 C  
HETATM   21  N   UNL     1      -7.287   8.627  67.508  1.00  0.00    -0.088 NA 
HETATM   22  C   UNL     1      -7.217  10.068  67.795  1.00  0.00    -0.087 C  
HETATM   23  C   UNL     1      -8.087   9.801  65.595  1.00  0.00    -0.120 C  
BRANCH  21  24
HETATM   24  C   UNL     1      -7.805   7.855  68.652  1.00  0.00    -0.119 C  
BRANCH  24  25
HETATM   25  C   UNL     1      -8.372   8.710  69.800  1.00  0.00    -0.123 C  
BRANCH  25  26
HETATM   26  C   UNL     1      -9.000   7.858  70.889  1.00  0.00    -0.147 A  
HETATM   27  C   UNL     1      -9.113   6.471  70.718  1.00  0.00    -0.154 A  
HETATM   28  C   UNL     1      -9.664   5.713  71.742  1.00  0.00    -0.192 A  
HETATM   29  C   UNL     1     -10.086   6.309  72.915  1.00  0.00    -0.183 A  
HETATM   30  O   UNL     1     -10.577   5.427  73.840  1.00  0.00    -0.262 OA 
HETATM   31  C   UNL     1      -9.993   7.668  73.117  1.00  0.00    -0.363 A  
HETATM   32  C   UNL     1      -9.450   8.450  72.089  1.00  0.00    -0.360 A  
HETATM   33  C   UNL     1     -10.593   4.151  73.161  1.00  0.00    -0.184 C  
HETATM   34  C   UNL     1      -9.886   4.257  71.809  1.00  0.00    -0.250 C  
ENDBRANCH  25  26
ENDBRANCH  24  25
ENDBRANCH  21  24
ENDBRANCH   6  19
ENDBRANCH   2   6
TORSDOF 7
ENDMDL
MODEL      172
REMARK 921   NORMALIZED FREE ENERGY PREDICTED BY IDOCK:   -4.08 KCAL/MOL
REMARK 922        TOTAL FREE ENERGY PREDICTED BY IDOCK:   -7.52 KCAL/MOL
REMARK 923 INTER-LIGAND FREE ENERGY PREDICTED BY IDOCK:   -5.72 KCAL/MOL
REMARK 924 INTRA-LIGAND FREE ENERGY PREDICTED BY IDOCK:   -1.80 KCAL/MOL
REMARK 927      BINDING AFFINITY PREDICTED BY RF-SCORE:    0.00 PKD
ROOT
HETATM    1  N   UNL     1      -9.306  10.794  64.806  1.00  0.00    -0.213 N  
HETATM    2  C   UNL     1      -8.775   9.962  65.758  1.00  0.00    -0.141 C  
HETATM    3  H1  UNL     1      -9.801  11.614  65.154  1.00  0.00     0.000 HD 
HETATM    4  H2  UNL     1      -9.212  10.603  63.808  1.00  0.00     0.000 HD 
HETATM    5  O   UNL     1      -8.180   8.976  65.339  1.00  0.00    -0.116 OA 
ENDROOT
BRANCH   2   6
HETATM    6  C   UNL     1      -8.904  10.391  67.283  1.00  0.00    -0.135 C  
BRANCH   6   7
HETATM    7  C   UNL     1      -9.817  11.695  67.347  1.00  0.00    -0.197 A  
HETATM    8  C   UNL     1     -11.402  14.061  67.269  1.00  0.00    -0.350 A  
HETATM    9  C   UNL     1     -10.044  14.138  67.542  1.00  0.00    -0.236 A  
HETATM   10  C   UNL     1     -11.990  12.818  67.092  1.00  0.00    -0.351 A  
HETATM   11  C   UNL     1      -9.268  12.973  67.600  1.00  0.00    -0.200 A  
HETATM   12  C   UNL     1     -11.211  11.654  67.140  1.00  0.00    -0.371 A  
ENDBRANCH   6   7
BRANCH   6  13
HETATM   13  C   UNL     1      -9.556   9.210  68.094  1.00  0.00    -0.160 A  
HETATM   14  C   UNL     1      -9.522   7.886  67.591  1.00  0.00    -0.170 A  
HETATM   15  C   UNL     1     -10.164   6.831  68.247  1.00  0.00    -0.194 A  
HETATM   16  C   UNL     1     -10.835   7.054  69.441  1.00  0.00    -0.253 A  
HETATM   17  C   UNL     1     -10.201   9.393  69.327  1.00  0.00    -0.209 A  
HETATM   18  C   UNL     1     -10.843   8.338  69.990  1.00  0.00    -0.232 A  
ENDBRANCH   6  13
BRANCH   6  19
HETATM   19  C   UNL     1      -7.465  10.730  67.908  1.00  0.00    -0.090 C  
HETATM   20  C   UNL     1      -5.632   9.118  67.694  1.00  0.00    -0.038 C  
HETATM   21  N   UNL     1      -5.986   9.175  69.110  1.00  0.00    -0.042 NA 
HETATM   22  C   UNL     1      -7.071  10.155  69.279  1.00  0.00    -0.076 C  
HETATM   23  C   UNL     1      -6.238  10.358  67.057  1.00  0.00    -0.067 C  
BRANCH  21  24
HETATM   24  C   UNL     1      -6.320   7.867  69.702  1.00  0.00    -0.034 C  
BRANCH  24  25
HETATM   25  C   UNL     1      -6.222   7.812  71.238  1.00  0.00    -0.035 C  
BRANCH  25  26
HETATM   26  C   UNL     1      -7.525   7.367  71.877  1.00  0.00    -0.080 A  
HETATM   27  C   UNL     1      -8.032   6.086  71.621  1.00  0.00    -0.110 A  
HETATM   28  C   UNL     1      -9.210   5.696  72.241  1.00  0.00    -0.154 A  
HETATM   29  C   UNL     1      -9.870   6.547  73.107  1.00  0.00    -0.170 A  
HETATM   30  O   UNL     1     -10.999   6.009  73.664  1.00  0.00    -0.210 OA 
HETATM   31  C   UNL     1      -9.403   7.814  73.381  1.00  0.00    -0.346 A  
HETATM   32  C   UNL     1      -8.221   8.229  72.752  1.00  0.00    -0.221 A  
HETATM   33  C   UNL     1     -11.160   4.731  73.007  1.00  0.00    -0.274 C  
HETATM   34  C   UNL     1      -9.937   4.417  72.142  1.00  0.00    -0.249 C  
ENDBRANCH  25  26
ENDBRANCH  24  25
ENDBRANCH  21  24
ENDBRANCH   6  19
ENDBRANCH   2   6
TORSDOF 7
ENDMDL
MODEL      173
REMARK 921   NORMALIZED FREE ENERGY PREDICTED BY IDOCK:   -4.05 KCAL/MOL
REMARK 922        TOTAL FREE ENERGY PREDICTED BY IDOCK:   -7.49 KCAL/MOL
REMARK 923 INTER-LIGAND FREE ENERGY PREDICTED BY IDOCK:   -7.53 KCAL/MOL
REMARK 924 INTRA-LIGAND FREE ENERGY PREDICTED BY IDOCK:    0.04 KCAL/MOL
REMARK 927      BINDING AFFINITY PREDICTED BY RF-SCORE:    0.00 PKD
ROOT
HETATM    1  N   UNL     1     -11.904  12.657  68.846  1.00  0.00    -0.311 N  
HETATM    2  C   UNL     1     -11.438  13.827  68.302  1.00  0.00    -0.312 C  
HETATM    3  H1  UNL     1     -11.513  11.798  68.461  1.00  0.00     0.000 HD 
HETATM    4  H2  UNL     1     -12.600  12.647  69.592  1.00  0.00     0.000 HD 
HETATM    5  O   UNL     1     -11.908  14.859  68.766  1.00  0.00    -0.314 OA 
ENDROOT
BRANCH   2   6
HETATM    6  C   UNL     1     -10.293  13.738  67.204  1.00  0.00    -0.261 C  
BRANCH   6   7
HETATM    7  C   UNL     1     -10.957  13.227  65.848  1.00  0.00    -0.288 A  
HETATM    8  C   UNL     1     -12.270  12.471  63.436  1.00  0.00    -0.613 A  
HETATM    9  C   UNL     1     -12.781  12.076  64.663  1.00  0.00    -0.006 A  
HETATM   10  C   UNL     1     -11.083  13.188  63.393  1.00  0.00     0.112 A  
HETATM   11  C   UNL     1     -12.125  12.430  65.849  1.00  0.00    -0.352 A  
HETATM   12  C   UNL     1     -10.434  13.551  64.580  1.00  0.00    -0.439 A  
ENDBRANCH   6   7
BRANCH   6  13
HETATM   13  C   UNL     1      -9.655  15.164  67.013  1.00  0.00    -0.235 A  
HETATM   14  C   UNL     1      -8.328  15.422  67.436  1.00  0.00    -0.204 A  
HETATM   15  C   UNL     1      -7.763  16.699  67.356  1.00  0.00    -0.188 A  
HETATM   16  C   UNL     1      -8.491  17.754  66.824  1.00  0.00    -0.269 A  
HETATM   17  C   UNL     1     -10.347  16.241  66.436  1.00  0.00    -0.319 A  
HETATM   18  C   UNL     1      -9.783  17.522  66.351  1.00  0.00    -0.299 A  
ENDBRANCH   6  13
BRANCH   6  19
HETATM   19  C   UNL     1      -9.150  12.703  67.648  1.00  0.00    -0.192 C  
HETATM   20  C   UNL     1      -9.004  10.508  66.566  1.00  0.00    -0.157 C  
HETATM   21  N   UNL     1      -9.408  10.275  67.951  1.00  0.00    -0.138 NA 
HETATM   22  C   UNL     1      -9.482  11.574  68.639  1.00  0.00    -0.141 C  
HETATM   23  C   UNL     1      -8.450  11.923  66.522  1.00  0.00    -0.097 C  
BRANCH  21  24
HETATM   24  C   UNL     1     -10.652   9.497  68.094  1.00  0.00    -0.217 C  
BRANCH  24  25
HETATM   25  C   UNL     1     -10.775   8.298  67.136  1.00  0.00    -0.240 C  
BRANCH  25  26
HETATM   26  C   UNL     1     -10.515   6.978  67.839  1.00  0.00    -0.267 A  
HETATM   27  C   UNL     1     -10.042   5.877  67.113  1.00  0.00    -0.213 A  
HETATM   28  C   UNL     1      -9.785   4.691  67.786  1.00  0.00    -0.205 A  
HETATM   29  C   UNL     1      -9.981   4.596  69.151  1.00  0.00    -0.138 A  
HETATM   30  O   UNL     1      -9.655   3.374  69.675  1.00  0.00    -0.167 OA 
HETATM   31  C   UNL     1     -10.447   5.656  69.896  1.00  0.00    -0.378 A  
HETATM   32  C   UNL     1     -10.724   6.857  69.230  1.00  0.00    -0.265 A  
HETATM   33  C   UNL     1      -9.333   2.554  68.528  1.00  0.00    -0.193 C  
HETATM   34  C   UNL     1      -9.285   3.408  67.259  1.00  0.00    -0.222 C  
ENDBRANCH  25  26
ENDBRANCH  24  25
ENDBRANCH  21  24
ENDBRANCH   6  19
ENDBRANCH   2   6
TORSDOF 7
ENDMDL
MODEL      174
REMARK 921   NORMALIZED FREE ENERGY PREDICTED BY IDOCK:   -4.05 KCAL/MOL
REMARK 922        TOTAL FREE ENERGY PREDICTED BY IDOCK:   -7.48 KCAL/MOL
REMARK 923 INTER-LIGAND FREE ENERGY PREDICTED BY IDOCK:   -6.87 KCAL/MOL
REMARK 924 INTRA-LIGAND FREE ENERGY PREDICTED BY IDOCK:   -0.61 KCAL/MOL
REMARK 927      BINDING AFFINITY PREDICTED BY RF-SCORE:    0.00 PKD
ROOT
HETATM    1  N   UNL     1      -9.274   1.866  67.647  1.00  0.00    -0.244 N  
HETATM    2  C   UNL     1      -8.325   2.784  68.020  1.00  0.00    -0.079 C  
HETATM    3  H1  UNL     1     -10.047   2.224  67.087  1.00  0.00     0.000 HD 
HETATM    4  H2  UNL     1      -9.209   0.883  67.913  1.00  0.00     0.000 HD 
HETATM    5  O   UNL     1      -7.396   2.354  68.693  1.00  0.00    -0.047 OA 
ENDROOT
BRANCH   2   6
HETATM    6  C   UNL     1      -8.473   4.273  67.484  1.00  0.00    -0.100 C  
BRANCH   6   7
HETATM    7  C   UNL     1      -9.027   4.202  65.992  1.00  0.00    -0.126 A  
HETATM    8  C   UNL     1     -10.039   3.877  63.349  1.00  0.00    -0.174 A  
HETATM    9  C   UNL     1      -8.691   3.682  63.610  1.00  0.00    -0.096 A  
HETATM   10  C   UNL     1     -10.878   4.288  64.375  1.00  0.00    -0.044 A  
HETATM   11  C   UNL     1      -8.189   3.862  64.906  1.00  0.00    -0.093 A  
HETATM   12  C   UNL     1     -10.376   4.456  65.673  1.00  0.00    -0.252 A  
ENDBRANCH   6   7
BRANCH   6  13
HETATM   13  C   UNL     1      -9.472   5.056  68.417  1.00  0.00    -0.178 A  
HETATM   14  C   UNL     1      -9.553   4.755  69.798  1.00  0.00    -0.249 A  
HETATM   15  C   UNL     1     -10.488   5.375  70.635  1.00  0.00    -0.329 A  
HETATM   16  C   UNL     1     -11.351   6.335  70.128  1.00  0.00    -0.476 A  
HETATM   17  C   UNL     1     -10.326   6.065  67.946  1.00  0.00    -0.255 A  
HETATM   18  C   UNL     1     -11.263   6.690  68.781  1.00  0.00    -0.256 A  
ENDBRANCH   6  13
BRANCH   6  19
HETATM   19  C   UNL     1      -7.055   5.025  67.480  1.00  0.00    -0.066 C  
HETATM   20  C   UNL     1      -6.921   7.380  68.146  1.00  0.00    -0.075 C  
HETATM   21  N   UNL     1      -6.617   7.322  66.718  1.00  0.00    -0.054 NA 
HETATM   22  C   UNL     1      -6.664   5.916  66.289  1.00  0.00    -0.060 C  
HETATM   23  C   UNL     1      -6.767   5.960  68.667  1.00  0.00    -0.064 C  
BRANCH  21  24
HETATM   24  C   UNL     1      -7.468   8.189  65.883  1.00  0.00    -0.080 C  
BRANCH  24  25
HETATM   25  C   UNL     1      -8.982   8.013  66.109  1.00  0.00    -0.215 C  
BRANCH  25  26
HETATM   26  C   UNL     1      -9.727   9.332  66.024  1.00  0.00    -0.359 A  
HETATM   27  C   UNL     1      -9.801  10.021  64.806  1.00  0.00    -0.325 A  
HETATM   28  C   UNL     1     -10.514  11.210  64.751  1.00  0.00    -0.388 A  
HETATM   29  C   UNL     1     -11.151  11.705  65.872  1.00  0.00    -0.264 A  
HETATM   30  O   UNL     1     -11.838  12.869  65.653  1.00  0.00    -0.370 OA 
HETATM   31  C   UNL     1     -11.099  11.057  67.087  1.00  0.00    -0.333 A  
HETATM   32  C   UNL     1     -10.372   9.861  67.163  1.00  0.00    -0.304 A  
HETATM   33  C   UNL     1     -11.518  13.235  64.291  1.00  0.00    -0.396 C  
HETATM   34  C   UNL     1     -10.741  12.110  63.605  1.00  0.00    -0.518 C  
ENDBRANCH  25  26
ENDBRANCH  24  25
ENDBRANCH  21  24
ENDBRANCH   6  19
ENDBRANCH   2   6
TORSDOF 7
ENDMDL
MODEL      175
REMARK 921   NORMALIZED FREE ENERGY PREDICTED BY IDOCK:   -4.02 KCAL/MOL
REMARK 922        TOTAL FREE ENERGY PREDICTED BY IDOCK:   -7.45 KCAL/MOL
REMARK 923 INTER-LIGAND FREE ENERGY PREDICTED BY IDOCK:   -7.14 KCAL/MOL
REMARK 924 INTRA-LIGAND FREE ENERGY PREDICTED BY IDOCK:   -0.30 KCAL/MOL
REMARK 927      BINDING AFFINITY PREDICTED BY RF-SCORE:    0.00 PKD
ROOT
HETATM    1  N   UNL     1     -10.035   3.895  66.626  1.00  0.00    -0.374 N  
HETATM    2  C   UNL     1      -8.978   4.062  67.484  1.00  0.00    -0.129 C  
HETATM    3  H1  UNL     1     -10.800   4.562  66.724  1.00  0.00     0.000 HD 
HETATM    4  H2  UNL     1     -10.055   3.148  65.932  1.00  0.00     0.000 HD 
HETATM    5  O   UNL     1      -8.059   3.260  67.367  1.00  0.00    -0.080 OA 
ENDROOT
BRANCH   2   6
HETATM    6  C   UNL     1      -9.005   5.306  68.472  1.00  0.00    -0.118 C  
BRANCH   6   7
HETATM    7  C   UNL     1      -8.780   4.759  69.952  1.00  0.00    -0.113 A  
HETATM    8  C   UNL     1      -8.392   3.970  72.661  1.00  0.00    -0.099 A  
HETATM    9  C   UNL     1      -7.315   4.392  71.895  1.00  0.00    -0.069 A  
HETATM   10  C   UNL     1      -9.648   3.881  72.079  1.00  0.00    -0.210 A  
HETATM   11  C   UNL     1      -7.502   4.761  70.556  1.00  0.00    -0.057 A  
HETATM   12  C   UNL     1      -9.835   4.261  70.743  1.00  0.00    -0.265 A  
ENDBRANCH   6   7
BRANCH   6  13
HETATM   13  C   UNL     1      -7.862   6.309  68.065  1.00  0.00    -0.104 A  
HETATM   14  C   UNL     1      -7.348   6.318  66.746  1.00  0.00    -0.079 A  
HETATM   15  C   UNL     1      -6.276   7.139  66.377  1.00  0.00    -0.040 A  
HETATM   16  C   UNL     1      -5.702   7.997  67.303  1.00  0.00    -0.038 A  
HETATM   17  C   UNL     1      -7.290   7.223  68.965  1.00  0.00    -0.091 A  
HETATM   18  C   UNL     1      -6.218   8.049  68.598  1.00  0.00    -0.044 A  
ENDBRANCH   6  13
BRANCH   6  19
HETATM   19  C   UNL     1     -10.419   6.063  68.404  1.00  0.00    -0.290 C  
HETATM   20  C   UNL     1     -10.649   8.102  67.065  1.00  0.00    -0.275 C  
HETATM   21  N   UNL     1     -10.786   8.494  68.466  1.00  0.00    -0.099 NA 
HETATM   22  C   UNL     1     -10.677   7.286  69.299  1.00  0.00    -0.198 C  
HETATM   23  C   UNL     1     -10.851   6.596  67.027  1.00  0.00    -0.467 C  
BRANCH  21  24
HETATM   24  C   UNL     1      -9.850   9.551  68.892  1.00  0.00    -0.174 C  
BRANCH  24  25
HETATM   25  C   UNL     1      -9.149  10.292  67.738  1.00  0.00    -0.138 C  
BRANCH  25  26
HETATM   26  C   UNL     1     -10.099  11.210  66.990  1.00  0.00    -0.235 A  
HETATM   27  C   UNL     1     -10.175  11.154  65.592  1.00  0.00    -0.310 A  
HETATM   28  C   UNL     1     -11.073  11.984  64.936  1.00  0.00    -0.368 A  
HETATM   29  C   UNL     1     -11.888  12.844  65.645  1.00  0.00    -0.417 A  
HETATM   30  O   UNL     1     -12.741  13.575  64.862  1.00  0.00    -0.632 OA 
HETATM   31  C   UNL     1     -11.840  12.928  67.019  1.00  0.00    -0.437 A  
HETATM   32  C   UNL     1     -10.930  12.107  67.697  1.00  0.00    -0.289 A  
HETATM   33  C   UNL     1     -12.362  13.252  63.504  1.00  0.00    -0.366 C  
HETATM   34  C   UNL     1     -11.342  12.111  63.492  1.00  0.00    -0.535 C  
ENDBRANCH  25  26
ENDBRANCH  24  25
ENDBRANCH  21  24
ENDBRANCH   6  19
ENDBRANCH   2   6
TORSDOF 7
ENDMDL
MODEL      176
REMARK 921   NORMALIZED FREE ENERGY PREDICTED BY IDOCK:   -3.99 KCAL/MOL
REMARK 922        TOTAL FREE ENERGY PREDICTED BY IDOCK:   -7.41 KCAL/MOL
REMARK 923 INTER-LIGAND FREE ENERGY PREDICTED BY IDOCK:   -6.45 KCAL/MOL
REMARK 924 INTRA-LIGAND FREE ENERGY PREDICTED BY IDOCK:   -0.95 KCAL/MOL
REMARK 927      BINDING AFFINITY PREDICTED BY RF-SCORE:    0.00 PKD
ROOT
HETATM    1  N   UNL     1      -8.297  11.497  65.777  1.00  0.00    -0.376 N  
HETATM    2  C   UNL     1      -7.279  11.266  66.666  1.00  0.00    -0.126 C  
HETATM    3  H1  UNL     1      -9.194  11.069  66.004  1.00  0.00     0.000 HD 
HETATM    4  H2  UNL     1      -8.165  12.063  64.939  1.00  0.00     0.000 HD 
HETATM    5  O   UNL     1      -6.200  11.780  66.393  1.00  0.00    -0.077 OA 
ENDROOT
BRANCH   2   6
HETATM    6  C   UNL     1      -7.608  10.440  67.984  1.00  0.00    -0.091 C  
BRANCH   6   7
HETATM    7  C   UNL     1      -6.669  10.987  69.149  1.00  0.00    -0.084 A  
HETATM    8  C   UNL     1      -5.153  11.970  71.352  1.00  0.00    -0.087 A  
HETATM    9  C   UNL     1      -5.834  12.850  70.524  1.00  0.00    -0.138 A  
HETATM   10  C   UNL     1      -5.171  10.613  71.063  1.00  0.00    -0.093 A  
HETATM   11  C   UNL     1      -6.563  12.369  69.428  1.00  0.00    -0.072 A  
HETATM   12  C   UNL     1      -5.909  10.133  69.973  1.00  0.00    -0.053 A  
ENDBRANCH   6   7
BRANCH   6  13
HETATM   13  C   UNL     1      -9.126  10.639  68.347  1.00  0.00    -0.156 A  
HETATM   14  C   UNL     1      -9.569  10.516  69.687  1.00  0.00    -0.062 A  
HETATM   15  C   UNL     1     -10.923  10.605  70.028  1.00  0.00    -0.325 A  
HETATM   16  C   UNL     1     -11.876  10.849  69.049  1.00  0.00    -0.370 A  
HETATM   17  C   UNL     1     -10.110  10.933  67.389  1.00  0.00    -0.223 A  
HETATM   18  C   UNL     1     -11.467  11.026  67.727  1.00  0.00    -0.339 A  
ENDBRANCH   6  13
BRANCH   6  19
HETATM   19  C   UNL     1      -7.316   8.877  67.769  1.00  0.00    -0.085 C  
HETATM   20  C   UNL     1      -8.328   7.696  65.874  1.00  0.00    -0.139 C  
HETATM   21  N   UNL     1      -8.943   7.163  67.087  1.00  0.00    -0.123 NA 
HETATM   22  C   UNL     1      -8.340   7.834  68.249  1.00  0.00    -0.125 C  
HETATM   23  C   UNL     1      -7.065   8.414  66.323  1.00  0.00    -0.077 C  
BRANCH  21  24
HETATM   24  C   UNL     1     -10.416   7.240  67.102  1.00  0.00    -0.324 C  
BRANCH  24  25
HETATM   25  C   UNL     1     -11.117   6.028  67.743  1.00  0.00    -0.216 C  
BRANCH  25  26
HETATM   26  C   UNL     1     -10.771   5.882  69.214  1.00  0.00    -0.401 A  
HETATM   27  C   UNL     1     -11.188   6.853  70.134  1.00  0.00    -0.361 A  
HETATM   28  C   UNL     1     -10.882   6.679  71.476  1.00  0.00    -0.277 A  
HETATM   29  C   UNL     1     -10.188   5.564  71.905  1.00  0.00    -0.199 A  
HETATM   30  O   UNL     1      -9.990   5.519  73.259  1.00  0.00    -0.164 OA 
HETATM   31  C   UNL     1      -9.760   4.591  71.030  1.00  0.00    -0.259 A  
HETATM   32  C   UNL     1     -10.049   4.757  69.669  1.00  0.00    -0.275 A  
HETATM   33  C   UNL     1     -10.494   6.784  73.748  1.00  0.00    -0.354 C  
HETATM   34  C   UNL     1     -11.207   7.542  72.627  1.00  0.00    -0.399 C  
ENDBRANCH  25  26
ENDBRANCH  24  25
ENDBRANCH  21  24
ENDBRANCH   6  19
ENDBRANCH   2   6
TORSDOF 7
ENDMDL
MODEL      177
REMARK 921   NORMALIZED FREE ENERGY PREDICTED BY IDOCK:   -3.99 KCAL/MOL
REMARK 922        TOTAL FREE ENERGY PREDICTED BY IDOCK:   -7.40 KCAL/MOL
REMARK 923 INTER-LIGAND FREE ENERGY PREDICTED BY IDOCK:   -6.95 KCAL/MOL
REMARK 924 INTRA-LIGAND FREE ENERGY PREDICTED BY IDOCK:   -0.44 KCAL/MOL
REMARK 927      BINDING AFFINITY PREDICTED BY RF-SCORE:    0.00 PKD
ROOT
HETATM    1  N   UNL     1     -11.455   6.896  69.942  1.00  0.00    -0.524 N  
HETATM    2  C   UNL     1     -10.609   7.080  68.878  1.00  0.00    -0.215 C  
HETATM    3  H1  UNL     1     -11.230   7.419  70.787  1.00  0.00     0.000 HD 
HETATM    4  H2  UNL     1     -12.261   6.273  69.890  1.00  0.00     0.000 HD 
HETATM    5  O   UNL     1     -10.880   6.451  67.861  1.00  0.00    -0.265 OA 
ENDROOT
BRANCH   2   6
HETATM    6  C   UNL     1      -9.430   8.134  69.031  1.00  0.00    -0.155 C  
BRANCH   6   7
HETATM    7  C   UNL     1      -8.363   7.528  70.047  1.00  0.00    -0.136 A  
HETATM    8  C   UNL     1      -6.313   6.491  71.731  1.00  0.00    -0.042 A  
HETATM    9  C   UNL     1      -6.871   5.697  70.739  1.00  0.00    -0.053 A  
HETATM   10  C   UNL     1      -6.803   7.773  71.932  1.00  0.00    -0.060 A  
HETATM   11  C   UNL     1      -7.894   6.200  69.925  1.00  0.00    -0.109 A  
HETATM   12  C   UNL     1      -7.818   8.278  71.109  1.00  0.00    -0.102 A  
ENDBRANCH   6   7
BRANCH   6  13
HETATM   13  C   UNL     1      -8.781   8.385  67.620  1.00  0.00    -0.137 A  
HETATM   14  C   UNL     1      -7.383   8.573  67.493  1.00  0.00    -0.089 A  
HETATM   15  C   UNL     1      -6.787   8.880  66.265  1.00  0.00    -0.074 A  
HETATM   16  C   UNL     1      -7.562   8.981  65.118  1.00  0.00    -0.098 A  
HETATM   17  C   UNL     1      -9.529   8.446  66.433  1.00  0.00    -0.293 A  
HETATM   18  C   UNL     1      -8.937   8.751  65.200  1.00  0.00    -0.152 A  
ENDBRANCH   6  13
BRANCH   6  19
HETATM   19  C   UNL     1      -9.977   9.525  69.616  1.00  0.00    -0.220 C  
HETATM   20  C   UNL     1     -11.920  10.604  68.582  1.00  0.00     0.058 C  
HETATM   21  N   UNL     1     -10.764  11.456  68.311  1.00  0.00    -0.192 NA 
HETATM   22  C   UNL     1      -9.581  10.849  68.940  1.00  0.00    -0.181 C  
HETATM   23  C   UNL     1     -11.505   9.680  69.715  1.00  0.00    -0.095 C  
BRANCH  21  24
HETATM   24  C   UNL     1     -10.548  11.744  66.881  1.00  0.00    -0.235 C  
BRANCH  24  25
HETATM   25  C   UNL     1     -11.670  12.561  66.213  1.00  0.00    -0.462 C  
BRANCH  25  26
HETATM   26  C   UNL     1     -11.321  14.035  66.117  1.00  0.00    -0.322 A  
HETATM   27  C   UNL     1     -10.814  14.711  67.234  1.00  0.00    -0.305 A  
HETATM   28  C   UNL     1     -10.477  16.052  67.110  1.00  0.00    -0.308 A  
HETATM   29  C   UNL     1     -10.626  16.710  65.904  1.00  0.00    -0.249 A  
HETATM   30  O   UNL     1     -10.222  18.018  65.931  1.00  0.00    -0.540 OA 
HETATM   31  C   UNL     1     -11.123  16.079  64.786  1.00  0.00    -0.378 A  
HETATM   32  C   UNL     1     -11.481  14.728  64.897  1.00  0.00    -0.412 A  
HETATM   33  C   UNL     1      -9.893  18.274  67.316  1.00  0.00    -0.321 C  
HETATM   34  C   UNL     1      -9.927  16.973  68.121  1.00  0.00    -0.287 C  
ENDBRANCH  25  26
ENDBRANCH  24  25
ENDBRANCH  21  24
ENDBRANCH   6  19
ENDBRANCH   2   6
TORSDOF 7
ENDMDL
MODEL      178
REMARK 921   NORMALIZED FREE ENERGY PREDICTED BY IDOCK:   -3.98 KCAL/MOL
REMARK 922        TOTAL FREE ENERGY PREDICTED BY IDOCK:   -7.39 KCAL/MOL
REMARK 923 INTER-LIGAND FREE ENERGY PREDICTED BY IDOCK:   -5.98 KCAL/MOL
REMARK 924 INTRA-LIGAND FREE ENERGY PREDICTED BY IDOCK:   -1.41 KCAL/MOL
REMARK 927      BINDING AFFINITY PREDICTED BY RF-SCORE:    0.00 PKD
ROOT
HETATM    1  N   UNL     1      -6.625  10.875  65.560  1.00  0.00    -0.363 N  
HETATM    2  C   UNL     1      -7.266   9.690  65.817  1.00  0.00    -0.100 C  
HETATM    3  H1  UNL     1      -7.010  11.701  66.017  1.00  0.00     0.000 HD 
HETATM    4  H2  UNL     1      -5.810  10.927  64.948  1.00  0.00     0.000 HD 
HETATM    5  O   UNL     1      -6.803   8.698  65.267  1.00  0.00    -0.070 OA 
ENDROOT
BRANCH   2   6
HETATM    6  C   UNL     1      -8.475   9.702  66.850  1.00  0.00    -0.121 C  
BRANCH   6   7
HETATM    7  C   UNL     1      -9.515  10.809  66.370  1.00  0.00    -0.200 A  
HETATM    8  C   UNL     1     -11.523  12.665  65.572  1.00  0.00    -0.375 A  
HETATM    9  C   UNL     1     -11.129  11.651  64.713  1.00  0.00    -0.328 A  
HETATM   10  C   UNL     1     -10.890  12.802  66.799  1.00  0.00    -0.289 A  
HETATM   11  C   UNL     1     -10.127  10.750  65.097  1.00  0.00    -0.363 A  
HETATM   12  C   UNL     1      -9.896  11.894  67.186  1.00  0.00    -0.206 A  
ENDBRANCH   6   7
BRANCH   6  13
HETATM   13  C   UNL     1      -9.143   8.277  66.872  1.00  0.00    -0.181 A  
HETATM   14  C   UNL     1      -8.367   7.114  66.645  1.00  0.00    -0.114 A  
HETATM   15  C   UNL     1      -8.945   5.842  66.576  1.00  0.00    -0.128 A  
HETATM   16  C   UNL     1     -10.312   5.685  66.761  1.00  0.00    -0.316 A  
HETATM   17  C   UNL     1     -10.513   8.078  67.102  1.00  0.00    -0.408 A  
HETATM   18  C   UNL     1     -11.097   6.805  67.037  1.00  0.00    -0.369 A  
ENDBRANCH   6  13
BRANCH   6  19
HETATM   19  C   UNL     1      -7.964  10.069  68.326  1.00  0.00    -0.097 C  
HETATM   20  C   UNL     1      -6.104   8.821  69.320  1.00  0.00    -0.042 C  
HETATM   21  N   UNL     1      -7.301   8.482  70.085  1.00  0.00    -0.050 NA 
HETATM   22  C   UNL     1      -8.437   9.235  69.529  1.00  0.00    -0.144 C  
HETATM   23  C   UNL     1      -6.442  10.085  68.546  1.00  0.00    -0.049 C  
BRANCH  21  24
HETATM   24  C   UNL     1      -7.578   7.036  70.165  1.00  0.00    -0.095 C  
BRANCH  24  25
HETATM   25  C   UNL     1      -9.072   6.670  70.234  1.00  0.00    -0.156 C  
BRANCH  25  26
HETATM   26  C   UNL     1      -9.303   5.350  70.946  1.00  0.00    -0.196 A  
HETATM   27  C   UNL     1      -9.357   5.306  72.345  1.00  0.00    -0.157 A  
HETATM   28  C   UNL     1      -9.598   4.090  72.969  1.00  0.00    -0.160 A  
HETATM   29  C   UNL     1      -9.794   2.941  72.228  1.00  0.00    -0.164 A  
HETATM   30  O   UNL     1     -10.052   1.829  72.983  1.00  0.00    -0.092 OA 
HETATM   31  C   UNL     1      -9.746   2.945  70.851  1.00  0.00    -0.142 A  
HETATM   32  C   UNL     1      -9.490   4.162  70.205  1.00  0.00    -0.251 A  
HETATM   33  C   UNL     1      -9.887   2.266  74.352  1.00  0.00    -0.102 C  
HETATM   34  C   UNL     1      -9.705   3.785  74.408  1.00  0.00    -0.154 C  
ENDBRANCH  25  26
ENDBRANCH  24  25
ENDBRANCH  21  24
ENDBRANCH   6  19
ENDBRANCH   2   6
TORSDOF 7
ENDMDL
MODEL      179
REMARK 921   NORMALIZED FREE ENERGY PREDICTED BY IDOCK:   -3.97 KCAL/MOL
REMARK 922        TOTAL FREE ENERGY PREDICTED BY IDOCK:   -7.37 KCAL/MOL
REMARK 923 INTER-LIGAND FREE ENERGY PREDICTED BY IDOCK:   -7.44 KCAL/MOL
REMARK 924 INTRA-LIGAND FREE ENERGY PREDICTED BY IDOCK:    0.07 KCAL/MOL
REMARK 927      BINDING AFFINITY PREDICTED BY RF-SCORE:    0.00 PKD
ROOT
HETATM    1  N   UNL     1      -9.223  11.500  64.543  1.00  0.00    -0.413 N  
HETATM    2  C   UNL     1      -9.130  10.161  64.828  1.00  0.00    -0.222 C  
HETATM    3  H1  UNL     1      -9.291  12.124  65.346  1.00  0.00     0.000 HD 
HETATM    4  H2  UNL     1      -9.223  11.849  63.584  1.00  0.00     0.000 HD 
HETATM    5  O   UNL     1      -9.047   9.410  63.863  1.00  0.00    -0.196 OA 
ENDROOT
BRANCH   2   6
HETATM    6  C   UNL     1      -9.053   9.725  66.355  1.00  0.00    -0.187 C  
BRANCH   6   7
HETATM    7  C   UNL     1     -10.060  10.647  67.176  1.00  0.00    -0.248 A  
HETATM    8  C   UNL     1     -12.009  12.179  68.580  1.00  0.00    -0.290 A  
HETATM    9  C   UNL     1     -11.738  12.446  67.246  1.00  0.00    -0.419 A  
HETATM   10  C   UNL     1     -11.281  11.198  69.239  1.00  0.00    -0.331 A  
HETATM   11  C   UNL     1     -10.765  11.707  66.561  1.00  0.00    -0.313 A  
HETATM   12  C   UNL     1     -10.316  10.452  68.549  1.00  0.00    -0.197 A  
ENDBRANCH   6   7
BRANCH   6  13
HETATM   13  C   UNL     1      -9.457   8.208  66.474  1.00  0.00    -0.286 A  
HETATM   14  C   UNL     1      -8.568   7.190  66.052  1.00  0.00    -0.158 A  
HETATM   15  C   UNL     1      -8.931   5.839  66.068  1.00  0.00    -0.157 A  
HETATM   16  C   UNL     1     -10.181   5.457  66.534  1.00  0.00    -0.287 A  
HETATM   17  C   UNL     1     -10.695   7.784  66.984  1.00  0.00    -0.316 A  
HETATM   18  C   UNL     1     -11.062   6.431  67.005  1.00  0.00    -0.405 A  
ENDBRANCH   6  13
BRANCH   6  19
HETATM   19  C   UNL     1      -7.570   9.923  66.935  1.00  0.00    -0.095 C  
HETATM   20  C   UNL     1      -7.253  10.846  69.183  1.00  0.00    -0.118 C  
HETATM   21  N   UNL     1      -6.751  11.841  68.239  1.00  0.00    -0.062 NA 
HETATM   22  C   UNL     1      -6.903  11.308  66.876  1.00  0.00    -0.134 C  
HETATM   23  C   UNL     1      -7.349   9.542  68.409  1.00  0.00    -0.076 C  
BRANCH  21  24
HETATM   24  C   UNL     1      -7.360  13.176  68.386  1.00  0.00    -0.116 C  
BRANCH  24  25
HETATM   25  C   UNL     1      -7.934  13.768  67.086  1.00  0.00    -0.065 C  
BRANCH  25  26
HETATM   26  C   UNL     1      -8.145  15.268  67.187  1.00  0.00    -0.248 A  
HETATM   27  C   UNL     1      -7.412  16.020  68.115  1.00  0.00    -0.132 A  
HETATM   28  C   UNL     1      -7.604  17.393  68.166  1.00  0.00    -0.214 A  
HETATM   29  C   UNL     1      -8.493  18.015  67.311  1.00  0.00    -0.234 A  
HETATM   30  O   UNL     1      -8.549  19.375  67.460  1.00  0.00    -0.289 OA 
HETATM   31  C   UNL     1      -9.232  17.309  66.388  1.00  0.00    -0.278 A  
HETATM   32  C   UNL     1      -9.060  15.919  66.332  1.00  0.00    -0.355 A  
HETATM   33  C   UNL     1      -7.709  19.655  68.604  1.00  0.00    -0.328 C  
HETATM   34  C   UNL     1      -6.961  18.393  69.038  1.00  0.00    -0.272 C  
ENDBRANCH  25  26
ENDBRANCH  24  25
ENDBRANCH  21  24
ENDBRANCH   6  19
ENDBRANCH   2   6
TORSDOF 7
ENDMDL
MODEL      180
REMARK 921   NORMALIZED FREE ENERGY PREDICTED BY IDOCK:   -3.90 KCAL/MOL
REMARK 922        TOTAL FREE ENERGY PREDICTED BY IDOCK:   -7.27 KCAL/MOL
REMARK 923 INTER-LIGAND FREE ENERGY PREDICTED BY IDOCK:   -5.87 KCAL/MOL
REMARK 924 INTRA-LIGAND FREE ENERGY PREDICTED BY IDOCK:   -1.41 KCAL/MOL
REMARK 927      BINDING AFFINITY PREDICTED BY RF-SCORE:    0.00 PKD
ROOT
HETATM    1  N   UNL     1     -12.101  13.233  68.652  1.00  0.00    -0.297 N  
HETATM    2  C   UNL     1     -11.562  12.264  67.845  1.00  0.00    -0.354 C  
HETATM    3  H1  UNL     1     -11.637  14.140  68.633  1.00  0.00     0.000 HD 
HETATM    4  H2  UNL     1     -12.918  13.057  69.237  1.00  0.00     0.000 HD 
HETATM    5  O   UNL     1     -12.121  11.173  67.868  1.00  0.00    -0.627 OA 
ENDROOT
BRANCH   2   6
HETATM    6  C   UNL     1     -10.340  12.663  66.910  1.00  0.00    -0.244 C  
BRANCH   6   7
HETATM    7  C   UNL     1      -9.992  11.403  65.999  1.00  0.00    -0.269 A  
HETATM    8  C   UNL     1      -9.174   9.184  64.410  1.00  0.00     0.087 A  
HETATM    9  C   UNL     1      -9.211  10.459  63.864  1.00  0.00    -0.301 A  
HETATM   10  C   UNL     1      -9.595   8.992  65.718  1.00  0.00    -0.287 A  
HETATM   11  C   UNL     1      -9.632  11.547  64.640  1.00  0.00    -0.186 A  
HETATM   12  C   UNL     1     -10.005  10.083  66.495  1.00  0.00    -0.286 A  
ENDBRANCH   6   7
BRANCH   6  13
HETATM   13  C   UNL     1     -10.754  13.897  66.025  1.00  0.00    -0.287 A  
HETATM   14  C   UNL     1     -10.070  15.131  66.146  1.00  0.00    -0.314 A  
HETATM   15  C   UNL     1     -10.467  16.268  65.434  1.00  0.00    -0.365 A  
HETATM   16  C   UNL     1     -11.540  16.204  64.557  1.00  0.00    -0.164 A  
HETATM   17  C   UNL     1     -11.804  13.853  65.094  1.00  0.00    -0.370 A  
HETATM   18  C   UNL     1     -12.204  14.989  64.377  1.00  0.00    -0.353 A  
ENDBRANCH   6  13
BRANCH   6  19
HETATM   19  C   UNL     1      -9.051  13.048  67.785  1.00  0.00    -0.200 C  
HETATM   20  C   UNL     1      -6.987  11.746  67.556  1.00  0.00    -0.113 C  
HETATM   21  N   UNL     1      -7.511  11.483  68.894  1.00  0.00    -0.118 NA 
HETATM   22  C   UNL     1      -8.740  12.271  69.075  1.00  0.00     0.437 C  
HETATM   23  C   UNL     1      -7.691  13.001  67.067  1.00  0.00     0.052 C  
BRANCH  21  24
HETATM   24  C   UNL     1      -7.716  10.054  69.194  1.00  0.00    -0.104 C  
BRANCH  24  25
HETATM   25  C   UNL     1      -6.826   9.093  68.384  1.00  0.00    -0.064 C  
BRANCH  25  26
HETATM   26  C   UNL     1      -7.399   7.689  68.337  1.00  0.00    -0.095 A  
HETATM   27  C   UNL     1      -8.104   7.180  69.437  1.00  0.00    -0.130 A  
HETATM   28  C   UNL     1      -8.642   5.904  69.355  1.00  0.00    -0.113 A  
HETATM   29  C   UNL     1      -8.499   5.147  68.208  1.00  0.00    -0.095 A  
HETATM   30  O   UNL     1      -9.110   3.924  68.269  1.00  0.00    -0.116 OA 
HETATM   31  C   UNL     1      -7.811   5.613  67.109  1.00  0.00    -0.101 A  
HETATM   32  C   UNL     1      -7.250   6.895  67.179  1.00  0.00    -0.085 A  
HETATM   33  C   UNL     1      -9.594   3.820  69.628  1.00  0.00    -0.172 C  
HETATM   34  C   UNL     1      -9.418   5.153  70.359  1.00  0.00    -0.229 C  
ENDBRANCH  25  26
ENDBRANCH  24  25
ENDBRANCH  21  24
ENDBRANCH   6  19
ENDBRANCH   2   6
TORSDOF 7
ENDMDL
MODEL      181
REMARK 921   NORMALIZED FREE ENERGY PREDICTED BY IDOCK:   -3.89 KCAL/MOL
REMARK 922        TOTAL FREE ENERGY PREDICTED BY IDOCK:   -7.26 KCAL/MOL
REMARK 923 INTER-LIGAND FREE ENERGY PREDICTED BY IDOCK:   -6.93 KCAL/MOL
REMARK 924 INTRA-LIGAND FREE ENERGY PREDICTED BY IDOCK:   -0.34 KCAL/MOL
REMARK 927      BINDING AFFINITY PREDICTED BY RF-SCORE:    0.00 PKD
ROOT
HETATM    1  N   UNL     1      -8.768   8.372  73.885  1.00  0.00    -0.197 N  
HETATM    2  C   UNL     1      -8.712   8.351  72.515  1.00  0.00    -0.206 C  
HETATM    3  H1  UNL     1      -9.614   7.987  74.304  1.00  0.00     0.000 HD 
HETATM    4  H2  UNL     1      -8.009   8.751  74.452  1.00  0.00     0.000 HD 
HETATM    5  O   UNL     1      -7.695   8.814  72.012  1.00  0.00    -0.290 OA 
ENDROOT
BRANCH   2   6
HETATM    6  C   UNL     1      -9.909   7.664  71.727  1.00  0.00    -0.200 C  
BRANCH   6   7
HETATM    7  C   UNL     1     -10.213   6.264  72.424  1.00  0.00    -0.208 A  
HETATM    8  C   UNL     1     -10.784   3.861  73.842  1.00  0.00    -0.308 A  
HETATM    9  C   UNL     1      -9.500   4.385  73.845  1.00  0.00    -0.128 A  
HETATM   10  C   UNL     1     -11.772   4.486  73.095  1.00  0.00    -0.145 A  
HETATM   11  C   UNL     1      -9.214   5.556  73.131  1.00  0.00    -0.132 A  
HETATM   12  C   UNL     1     -11.487   5.663  72.391  1.00  0.00    -0.309 A  
ENDBRANCH   6   7
BRANCH   6  13
HETATM   13  C   UNL     1     -11.169   8.606  71.789  1.00  0.00    -0.396 A  
HETATM   14  C   UNL     1     -12.299   8.248  72.564  1.00  0.00    -0.335 A  
HETATM   15  C   UNL     1     -13.464   9.023  72.572  1.00  0.00    -0.485 A  
HETATM   16  C   UNL     1     -13.530  10.195  71.832  1.00  0.00    -0.426 A  
HETATM   17  C   UNL     1     -11.251   9.821  71.090  1.00  0.00    -0.444 A  
HETATM   18  C   UNL     1     -12.415  10.602  71.097  1.00  0.00    -0.523 A  
ENDBRANCH   6  13
BRANCH   6  19
HETATM   19  C   UNL     1      -9.515   7.410  70.192  1.00  0.00    -0.165 C  
HETATM   20  C   UNL     1     -10.785   5.794  68.858  1.00  0.00    -0.263 C  
HETATM   21  N   UNL     1      -9.445   5.239  69.037  1.00  0.00    -0.126 NA 
HETATM   22  C   UNL     1      -8.645   6.198  69.816  1.00  0.00    -0.132 C  
HETATM   23  C   UNL     1     -10.678   7.272  69.194  1.00  0.00    -0.201 C  
BRANCH  21  24
HETATM   24  C   UNL     1      -9.424   3.888  69.627  1.00  0.00    -0.193 C  
BRANCH  24  25
HETATM   25  C   UNL     1      -8.688   2.830  68.785  1.00  0.00    -0.132 C  
BRANCH  25  26
HETATM   26  C   UNL     1      -8.531   3.262  67.338  1.00  0.00    -0.104 A  
HETATM   27  C   UNL     1      -9.616   3.170  66.456  1.00  0.00     0.015 A  
HETATM   28  C   UNL     1      -9.452   3.599  65.146  1.00  0.00    -0.162 A  
HETATM   29  C   UNL     1      -8.246   4.118  64.717  1.00  0.00    -0.102 A  
HETATM   30  O   UNL     1      -8.249   4.526  63.410  1.00  0.00    -0.088 OA 
HETATM   31  C   UNL     1      -7.157   4.221  65.555  1.00  0.00    -0.063 A  
HETATM   32  C   UNL     1      -7.301   3.781  66.878  1.00  0.00    -0.071 A  
HETATM   33  C   UNL     1      -9.542   4.122  62.902  1.00  0.00    -0.137 C  
HETATM   34  C   UNL     1     -10.427   3.611  64.040  1.00  0.00    -0.271 C  
ENDBRANCH  25  26
ENDBRANCH  24  25
ENDBRANCH  21  24
ENDBRANCH   6  19
ENDBRANCH   2   6
TORSDOF 7
ENDMDL
MODEL      182
REMARK 921   NORMALIZED FREE ENERGY PREDICTED BY IDOCK:   -3.86 KCAL/MOL
REMARK 922        TOTAL FREE ENERGY PREDICTED BY IDOCK:   -7.21 KCAL/MOL
REMARK 923 INTER-LIGAND FREE ENERGY PREDICTED BY IDOCK:   -7.23 KCAL/MOL
REMARK 924 INTRA-LIGAND FREE ENERGY PREDICTED BY IDOCK:    0.02 KCAL/MOL
REMARK 927      BINDING AFFINITY PREDICTED BY RF-SCORE:    0.00 PKD
ROOT
HETATM    1  N   UNL     1      -9.492   4.033  66.732  1.00  0.00    -0.187 N  
HETATM    2  C   UNL     1      -8.575   4.270  67.723  1.00  0.00    -0.099 C  
HETATM    3  H1  UNL     1     -10.333   4.609  66.754  1.00  0.00     0.000 HD 
HETATM    4  H2  UNL     1      -9.343   3.322  66.016  1.00  0.00     0.000 HD 
HETATM    5  O   UNL     1      -7.564   3.578  67.698  1.00  0.00    -0.068 OA 
ENDROOT
BRANCH   2   6
HETATM    6  C   UNL     1      -8.863   5.455  68.743  1.00  0.00    -0.107 C  
BRANCH   6   7
HETATM    7  C   UNL     1      -8.855   4.845  70.215  1.00  0.00    -0.134 A  
HETATM    8  C   UNL     1      -8.947   3.600  72.775  1.00  0.00    -0.112 A  
HETATM    9  C   UNL     1      -9.991   4.411  72.355  1.00  0.00    -0.232 A  
HETATM   10  C   UNL     1      -7.834   3.448  71.961  1.00  0.00    -0.058 A  
HETATM   11  C   UNL     1      -9.937   5.040  71.104  1.00  0.00    -0.276 A  
HETATM   12  C   UNL     1      -7.786   4.069  70.706  1.00  0.00    -0.051 A  
ENDBRANCH   6   7
BRANCH   6  13
HETATM   13  C   UNL     1      -7.745   6.551  68.583  1.00  0.00    -0.102 A  
HETATM   14  C   UNL     1      -7.084   6.732  67.344  1.00  0.00    -0.084 A  
HETATM   15  C   UNL     1      -6.030   7.639  67.194  1.00  0.00    -0.047 A  
HETATM   16  C   UNL     1      -5.620   8.418  68.267  1.00  0.00    -0.034 A  
HETATM   17  C   UNL     1      -7.338   7.387  69.635  1.00  0.00    -0.091 A  
HETATM   18  C   UNL     1      -6.284   8.300  69.489  1.00  0.00    -0.033 A  
ENDBRANCH   6  13
BRANCH   6  19
HETATM   19  C   UNL     1     -10.297   6.119  68.460  1.00  0.00    -0.248 C  
HETATM   20  C   UNL     1     -10.441   8.238  67.237  1.00  0.00    -0.303 C  
HETATM   21  N   UNL     1     -10.861   8.508  68.610  1.00  0.00    -0.024 NA 
HETATM   22  C   UNL     1     -10.811   7.249  69.369  1.00  0.00    -0.190 C  
HETATM   23  C   UNL     1     -10.512   6.729  67.064  1.00  0.00    -0.369 C  
BRANCH  21  24
HETATM   24  C   UNL     1     -10.106   9.588  69.272  1.00  0.00    -0.198 C  
BRANCH  24  25
HETATM   25  C   UNL     1     -10.569  11.011  68.910  1.00  0.00    -0.239 C  
BRANCH  25  26
HETATM   26  C   UNL     1     -11.472  11.605  69.976  1.00  0.00    -0.266 A  
HETATM   27  C   UNL     1     -11.735  12.981  69.988  1.00  0.00    -0.285 A  
HETATM   28  C   UNL     1     -12.587  13.492  70.957  1.00  0.00    -0.438 A  
HETATM   29  C   UNL     1     -13.178  12.661  71.889  1.00  0.00    -0.403 A  
HETATM   30  O   UNL     1     -14.016  13.306  72.758  1.00  0.00    -0.701 OA 
HETATM   31  C   UNL     1     -12.941  11.304  71.910  1.00  0.00    -0.471 A  
HETATM   32  C   UNL     1     -12.073  10.773  70.946  1.00  0.00    -0.475 A  
HETATM   33  C   UNL     1     -13.864  14.710  72.443  1.00  0.00    -0.475 C  
HETATM   34  C   UNL     1     -13.021  14.884  71.178  1.00  0.00    -0.432 C  
ENDBRANCH  25  26
ENDBRANCH  24  25
ENDBRANCH  21  24
ENDBRANCH   6  19
ENDBRANCH   2   6
TORSDOF 7
ENDMDL
MODEL      183
REMARK 921   NORMALIZED FREE ENERGY PREDICTED BY IDOCK:   -3.84 KCAL/MOL
REMARK 922        TOTAL FREE ENERGY PREDICTED BY IDOCK:   -7.19 KCAL/MOL
REMARK 923 INTER-LIGAND FREE ENERGY PREDICTED BY IDOCK:   -6.55 KCAL/MOL
REMARK 924 INTRA-LIGAND FREE ENERGY PREDICTED BY IDOCK:   -0.63 KCAL/MOL
REMARK 927      BINDING AFFINITY PREDICTED BY RF-SCORE:    0.00 PKD
ROOT
HETATM    1  N   UNL     1      -9.680   3.495  69.607  1.00  0.00    -0.112 N  
HETATM    2  C   UNL     1      -8.593   4.271  69.919  1.00  0.00    -0.068 C  
HETATM    3  H1  UNL     1     -10.528   3.998  69.349  1.00  0.00     0.000 HD 
HETATM    4  H2  UNL     1      -9.641   2.476  69.630  1.00  0.00     0.000 HD 
HETATM    5  O   UNL     1      -7.572   3.666  70.229  1.00  0.00    -0.044 OA 
ENDROOT
BRANCH   2   6
HETATM    6  C   UNL     1      -8.731   5.847  69.772  1.00  0.00    -0.129 C  
BRANCH   6   7
HETATM    7  C   UNL     1      -8.398   6.500  71.187  1.00  0.00    -0.122 A  
HETATM    8  C   UNL     1      -7.923   7.821  73.666  1.00  0.00    -0.215 A  
HETATM    9  C   UNL     1      -7.166   8.139  72.548  1.00  0.00    -0.123 A  
HETATM   10  C   UNL     1      -8.874   6.814  73.579  1.00  0.00    -0.149 A  
HETATM   11  C   UNL     1      -7.385   7.475  71.334  1.00  0.00    -0.078 A  
HETATM   12  C   UNL     1      -9.099   6.159  72.361  1.00  0.00    -0.136 A  
ENDBRANCH   6   7
BRANCH   6  13
HETATM   13  C   UNL     1      -7.722   6.349  68.672  1.00  0.00    -0.101 A  
HETATM   14  C   UNL     1      -7.215   5.455  67.698  1.00  0.00    -0.072 A  
HETATM   15  C   UNL     1      -6.255   5.851  66.761  1.00  0.00    -0.030 A  
HETATM   16  C   UNL     1      -5.792   7.159  66.745  1.00  0.00    -0.027 A  
HETATM   17  C   UNL     1      -7.269   7.676  68.598  1.00  0.00    -0.082 A  
HETATM   18  C   UNL     1      -6.310   8.078  67.658  1.00  0.00    -0.052 A  
ENDBRANCH   6  13
BRANCH   6  19
HETATM   19  C   UNL     1     -10.223   6.255  69.346  1.00  0.00    -0.238 C  
HETATM   20  C   UNL     1     -10.625   7.311  67.171  1.00  0.00    -0.346 C  
HETATM   21  N   UNL     1     -10.905   8.318  68.192  1.00  0.00    -0.009 NA 
HETATM   22  C   UNL     1     -10.697   7.709  69.515  1.00  0.00    -0.209 C  
HETATM   23  C   UNL     1     -10.627   5.971  67.888  1.00  0.00    -0.337 C  
BRANCH  21  24
HETATM   24  C   UNL     1     -10.146   9.571  68.030  1.00  0.00    -0.188 C  
BRANCH  24  25
HETATM   25  C   UNL     1      -9.557   9.790  66.624  1.00  0.00    -0.239 C  
BRANCH  25  26
HETATM   26  C   UNL     1     -10.321  10.845  65.844  1.00  0.00    -0.310 A  
HETATM   27  C   UNL     1     -10.873  11.948  66.509  1.00  0.00    -0.317 A  
HETATM   28  C   UNL     1     -11.541  12.912  65.768  1.00  0.00    -0.411 A  
HETATM   29  C   UNL     1     -11.653  12.796  64.395  1.00  0.00    -0.361 A  
HETATM   30  O   UNL     1     -12.311  13.840  63.802  1.00  0.00    -0.673 OA 
HETATM   31  C   UNL     1     -11.125  11.726  63.708  1.00  0.00    -0.513 A  
HETATM   32  C   UNL     1     -10.459  10.736  64.443  1.00  0.00    -0.344 A  
HETATM   33  C   UNL     1     -12.782  14.652  64.902  1.00  0.00    -0.044 C  
HETATM   34  C   UNL     1     -12.197  14.151  66.224  1.00  0.00    -0.474 C  
ENDBRANCH  25  26
ENDBRANCH  24  25
ENDBRANCH  21  24
ENDBRANCH   6  19
ENDBRANCH   2   6
TORSDOF 7
ENDMDL
MODEL      184
REMARK 921   NORMALIZED FREE ENERGY PREDICTED BY IDOCK:   -3.81 KCAL/MOL
REMARK 922        TOTAL FREE ENERGY PREDICTED BY IDOCK:   -7.15 KCAL/MOL
REMARK 923 INTER-LIGAND FREE ENERGY PREDICTED BY IDOCK:   -7.49 KCAL/MOL
REMARK 924 INTRA-LIGAND FREE ENERGY PREDICTED BY IDOCK:    0.34 KCAL/MOL
REMARK 927      BINDING AFFINITY PREDICTED BY RF-SCORE:    0.00 PKD
ROOT
HETATM    1  N   UNL     1      -6.938   6.959  65.490  1.00  0.00    -0.058 N  
HETATM    2  C   UNL     1      -7.047   7.009  66.857  1.00  0.00    -0.075 C  
HETATM    3  H1  UNL     1      -7.533   7.604  64.971  1.00  0.00     0.000 HD 
HETATM    4  H2  UNL     1      -6.300   6.316  65.022  1.00  0.00     0.000 HD 
HETATM    5  O   UNL     1      -6.331   6.235  67.481  1.00  0.00    -0.034 OA 
ENDROOT
BRANCH   2   6
HETATM    6  C   UNL     1      -8.009   8.103  67.492  1.00  0.00    -0.122 C  
BRANCH   6   7
HETATM    7  C   UNL     1      -8.899   7.385  68.601  1.00  0.00    -0.126 A  
HETATM    8  C   UNL     1     -10.475   5.931  70.476  1.00  0.00    -0.319 A  
HETATM    9  C   UNL     1     -11.066   6.491  69.353  1.00  0.00    -0.407 A  
HETATM   10  C   UNL     1      -9.122   6.134  70.706  1.00  0.00    -0.156 A  
HETATM   11  C   UNL     1     -10.295   7.224  68.441  1.00  0.00    -0.213 A  
HETATM   12  C   UNL     1      -8.350   6.858  69.787  1.00  0.00    -0.132 A  
ENDBRANCH   6   7
BRANCH   6  13
HETATM   13  C   UNL     1      -7.134   9.246  68.129  1.00  0.00    -0.077 A  
HETATM   14  C   UNL     1      -6.035   9.792  67.422  1.00  0.00    -0.055 A  
HETATM   15  C   UNL     1      -5.190  10.749  67.994  1.00  0.00    -0.036 A  
HETATM   16  C   UNL     1      -5.430  11.214  69.279  1.00  0.00    -0.040 A  
HETATM   17  C   UNL     1      -7.377   9.773  69.408  1.00  0.00    -0.087 A  
HETATM   18  C   UNL     1      -6.535  10.734  69.984  1.00  0.00    -0.151 A  
ENDBRANCH   6  13
BRANCH   6  19
HETATM   19  C   UNL     1      -8.974   8.736  66.377  1.00  0.00    -0.194 C  
HETATM   20  C   UNL     1      -9.661  11.082  66.547  1.00  0.00    -0.195 C  
HETATM   21  N   UNL     1     -10.855  10.271  66.767  1.00  0.00    -0.144 NA 
HETATM   22  C   UNL     1     -10.483   8.853  66.647  1.00  0.00    -0.161 C  
HETATM   23  C   UNL     1      -8.638  10.161  65.902  1.00  0.00    -0.156 C  
BRANCH  21  24
HETATM   24  C   UNL     1     -11.557  10.558  68.032  1.00  0.00    -0.023 C  
BRANCH  24  25
HETATM   25  C   UNL     1     -10.801  11.501  68.986  1.00  0.00    -0.258 C  
BRANCH  25  26
HETATM   26  C   UNL     1     -11.713  12.084  70.051  1.00  0.00    -0.346 A  
HETATM   27  C   UNL     1     -11.943  13.465  70.100  1.00  0.00    -0.396 A  
HETATM   28  C   UNL     1     -12.804  13.967  71.066  1.00  0.00    -0.410 A  
HETATM   29  C   UNL     1     -13.435  13.123  71.959  1.00  0.00    -0.507 A  
HETATM   30  O   UNL     1     -14.276  13.762  72.830  1.00  0.00    -0.650 OA 
HETATM   31  C   UNL     1     -13.231  11.760  71.942  1.00  0.00    -0.468 A  
HETATM   32  C   UNL     1     -12.355  11.238  70.982  1.00  0.00    -0.472 A  
HETATM   33  C   UNL     1     -14.083  15.170  72.562  1.00  0.00    -0.439 C  
HETATM   34  C   UNL     1     -13.210  15.362  71.320  1.00  0.00    -0.585 C  
ENDBRANCH  25  26
ENDBRANCH  24  25
ENDBRANCH  21  24
ENDBRANCH   6  19
ENDBRANCH   2   6
TORSDOF 7
ENDMDL
MODEL      185
REMARK 921   NORMALIZED FREE ENERGY PREDICTED BY IDOCK:   -3.80 KCAL/MOL
REMARK 922        TOTAL FREE ENERGY PREDICTED BY IDOCK:   -7.13 KCAL/MOL
REMARK 923 INTER-LIGAND FREE ENERGY PREDICTED BY IDOCK:   -5.95 KCAL/MOL
REMARK 924 INTRA-LIGAND FREE ENERGY PREDICTED BY IDOCK:   -1.18 KCAL/MOL
REMARK 927      BINDING AFFINITY PREDICTED BY RF-SCORE:    0.00 PKD
ROOT
HETATM    1  N   UNL     1     -10.504   6.805  67.574  1.00  0.00    -0.206 N  
HETATM    2  C   UNL     1      -9.236   7.249  67.848  1.00  0.00    -0.131 C  
HETATM    3  H1  UNL     1     -11.265   7.337  67.995  1.00  0.00     0.000 HD 
HETATM    4  H2  UNL     1     -10.677   5.990  66.985  1.00  0.00     0.000 HD 
HETATM    5  O   UNL     1      -8.322   6.609  67.342  1.00  0.00    -0.120 OA 
ENDROOT
BRANCH   2   6
HETATM    6  C   UNL     1      -9.077   8.576  68.708  1.00  0.00    -0.143 C  
BRANCH   6   7
HETATM    7  C   UNL     1      -9.527   9.804  67.798  1.00  0.00    -0.152 A  
HETATM    8  C   UNL     1     -10.141  12.066  66.179  1.00  0.00    -0.252 A  
HETATM    9  C   UNL     1     -10.145  12.175  67.561  1.00  0.00    -0.204 A  
HETATM   10  C   UNL     1      -9.893  10.832  65.594  1.00  0.00    -0.299 A  
HETATM   11  C   UNL     1      -9.863  11.058  68.359  1.00  0.00    -0.186 A  
HETATM   12  C   UNL     1      -9.600   9.718  66.393  1.00  0.00    -0.256 A  
ENDBRANCH   6   7
BRANCH   6  13
HETATM   13  C   UNL     1      -9.983   8.466  69.991  1.00  0.00    -0.188 A  
HETATM   14  C   UNL     1      -9.806   7.403  70.909  1.00  0.00    -0.177 A  
HETATM   15  C   UNL     1     -10.649   7.232  72.012  1.00  0.00    -0.236 A  
HETATM   16  C   UNL     1     -11.676   8.133  72.253  1.00  0.00    -0.439 A  
HETATM   17  C   UNL     1     -11.000   9.386  70.289  1.00  0.00    -0.305 A  
HETATM   18  C   UNL     1     -11.846   9.221  71.395  1.00  0.00    -0.428 A  
ENDBRANCH   6  13
BRANCH   6  19
HETATM   19  C   UNL     1      -7.550   8.789  69.156  1.00  0.00    -0.088 C  
HETATM   20  C   UNL     1      -6.866  10.905  70.187  1.00  0.00    -0.007 C  
HETATM   21  N   UNL     1      -6.214  10.836  68.881  1.00  0.00    -0.040 NA 
HETATM   22  C   UNL     1      -6.585   9.563  68.243  1.00  0.00    -0.057 C  
HETATM   23  C   UNL     1      -7.319   9.489  70.506  1.00  0.00    -0.147 C  
BRANCH  21  24
HETATM   24  C   UNL     1      -6.483  11.995  68.010  1.00  0.00    -0.061 C  
BRANCH  24  25
HETATM   25  C   UNL     1      -5.556  13.203  68.242  1.00  0.00    -0.085 C  
BRANCH  25  26
HETATM   26  C   UNL     1      -6.302  14.521  68.145  1.00  0.00    -0.145 A  
HETATM   27  C   UNL     1      -7.316  14.686  67.192  1.00  0.00     0.018 A  
HETATM   28  C   UNL     1      -8.001  15.892  67.145  1.00  0.00    -0.243 A  
HETATM   29  C   UNL     1      -7.701  16.911  68.028  1.00  0.00    -0.177 A  
HETATM   30  O   UNL     1      -8.483  18.025  67.878  1.00  0.00    -0.243 OA 
HETATM   31  C   UNL     1      -6.710  16.786  68.976  1.00  0.00    -0.209 A  
HETATM   32  C   UNL     1      -5.999  15.579  69.029  1.00  0.00    -0.104 A  
HETATM   33  C   UNL     1      -9.288  17.756  66.707  1.00  0.00    -0.280 C  
HETATM   34  C   UNL     1      -9.098  16.308  66.250  1.00  0.00    -0.366 C  
ENDBRANCH  25  26
ENDBRANCH  24  25
ENDBRANCH  21  24
ENDBRANCH   6  19
ENDBRANCH   2   6
TORSDOF 7
ENDMDL
MODEL      186
REMARK 921   NORMALIZED FREE ENERGY PREDICTED BY IDOCK:   -3.76 KCAL/MOL
REMARK 922        TOTAL FREE ENERGY PREDICTED BY IDOCK:   -7.07 KCAL/MOL
REMARK 923 INTER-LIGAND FREE ENERGY PREDICTED BY IDOCK:   -6.83 KCAL/MOL
REMARK 924 INTRA-LIGAND FREE ENERGY PREDICTED BY IDOCK:   -0.24 KCAL/MOL
REMARK 927      BINDING AFFINITY PREDICTED BY RF-SCORE:    0.00 PKD
ROOT
HETATM    1  N   UNL     1      -8.816  15.430  67.616  1.00  0.00    -0.171 N  
HETATM    2  C   UNL     1      -9.299  14.704  68.675  1.00  0.00    -0.206 C  
HETATM    3  H1  UNL     1      -9.439  15.519  66.814  1.00  0.00     0.000 HD 
HETATM    4  H2  UNL     1      -7.889  15.856  67.630  1.00  0.00     0.000 HD 
HETATM    5  O   UNL     1      -8.551  14.598  69.640  1.00  0.00     0.104 OA 
ENDROOT
BRANCH   2   6
HETATM    6  C   UNL     1     -10.787  14.152  68.588  1.00  0.00    -0.268 C  
BRANCH   6   7
HETATM    7  C   UNL     1     -10.718  12.561  68.595  1.00  0.00    -0.263 A  
HETATM    8  C   UNL     1     -10.710   9.716  68.442  1.00  0.00    -0.251 A  
HETATM    9  C   UNL     1     -11.746  10.378  69.083  1.00  0.00    -0.191 A  
HETATM   10  C   UNL     1      -9.650  10.449  67.927  1.00  0.00    -0.157 A  
HETATM   11  C   UNL     1     -11.740  11.776  69.176  1.00  0.00    -0.388 A  
HETATM   12  C   UNL     1      -9.651  11.847  68.012  1.00  0.00    -0.193 A  
ENDBRANCH   6   7
BRANCH   6  13
HETATM   13  C   UNL     1     -11.603  14.683  69.825  1.00  0.00    -0.341 A  
HETATM   14  C   UNL     1     -12.785  14.025  70.246  1.00  0.00    -0.270 A  
HETATM   15  C   UNL     1     -13.575  14.520  71.288  1.00  0.00    -0.423 A  
HETATM   16  C   UNL     1     -13.198  15.671  71.965  1.00  0.00    -0.541 A  
HETATM   17  C   UNL     1     -11.225  15.817  70.562  1.00  0.00    -0.392 A  
HETATM   18  C   UNL     1     -12.012  16.316  71.609  1.00  0.00    -0.436 A  
ENDBRANCH   6  13
BRANCH   6  19
HETATM   19  C   UNL     1     -11.502  14.639  67.236  1.00  0.00    -0.386 C  
HETATM   20  C   UNL     1     -12.040  13.010  65.486  1.00  0.00    -0.452 C  
HETATM   21  N   UNL     1     -10.993  13.878  64.953  1.00  0.00    -0.364 NA 
HETATM   22  C   UNL     1     -10.662  14.887  65.972  1.00  0.00    -0.323 C  
HETATM   23  C   UNL     1     -12.622  13.740  66.686  1.00  0.00    -0.171 C  
BRANCH  21  24
HETATM   24  C   UNL     1      -9.799  13.159  64.472  1.00  0.00     0.036 C  
BRANCH  24  25
HETATM   25  C   UNL     1     -10.077  11.752  63.912  1.00  0.00    -0.399 C  
BRANCH  25  26
HETATM   26  C   UNL     1      -9.060  10.735  64.396  1.00  0.00    -0.217 A  
HETATM   27  C   UNL     1      -7.918  11.158  65.090  1.00  0.00     0.380 A  
HETATM   28  C   UNL     1      -7.020  10.204  65.546  1.00  0.00    -0.131 A  
HETATM   29  C   UNL     1      -7.247   8.858  65.333  1.00  0.00    -0.084 A  
HETATM   30  O   UNL     1      -6.289   8.040  65.868  1.00  0.00    -0.044 OA 
HETATM   31  C   UNL     1      -8.357   8.405  64.653  1.00  0.00    -0.137 A  
HETATM   32  C   UNL     1      -9.268   9.356  64.174  1.00  0.00    -0.042 A  
HETATM   33  C   UNL     1      -5.276   8.940  66.373  1.00  0.00    -0.034 C  
HETATM   34  C   UNL     1      -5.763  10.388  66.295  1.00  0.00    -0.075 C  
ENDBRANCH  25  26
ENDBRANCH  24  25
ENDBRANCH  21  24
ENDBRANCH   6  19
ENDBRANCH   2   6
TORSDOF 7
ENDMDL
MODEL      187
REMARK 921   NORMALIZED FREE ENERGY PREDICTED BY IDOCK:   -3.74 KCAL/MOL
REMARK 922        TOTAL FREE ENERGY PREDICTED BY IDOCK:   -7.05 KCAL/MOL
REMARK 923 INTER-LIGAND FREE ENERGY PREDICTED BY IDOCK:   -6.97 KCAL/MOL
REMARK 924 INTRA-LIGAND FREE ENERGY PREDICTED BY IDOCK:   -0.08 KCAL/MOL
REMARK 927      BINDING AFFINITY PREDICTED BY RF-SCORE:    0.00 PKD
ROOT
HETATM    1  N   UNL     1      -9.082  10.647  67.167  1.00  0.00    -0.143 N  
HETATM    2  C   UNL     1      -9.285  11.831  67.829  1.00  0.00    -0.181 C  
HETATM    3  H1  UNL     1      -9.742  10.434  66.419  1.00  0.00     0.000 HD 
HETATM    4  H2  UNL     1      -8.317  10.017  67.407  1.00  0.00     0.000 HD 
HETATM    5  O   UNL     1      -8.491  12.087  68.727  1.00  0.00    -0.068 OA 
ENDROOT
BRANCH   2   6
HETATM    6  C   UNL     1     -10.455  12.781  67.324  1.00  0.00    -0.238 C  
BRANCH   6   7
HETATM    7  C   UNL     1     -10.009  14.287  67.590  1.00  0.00    -0.225 A  
HETATM    8  C   UNL     1      -9.143  16.986  67.879  1.00  0.00    -0.232 A  
HETATM    9  C   UNL     1      -8.257  15.941  68.095  1.00  0.00    -0.149 A  
HETATM   10  C   UNL     1     -10.468  16.703  67.578  1.00  0.00    -0.317 A  
HETATM   11  C   UNL     1      -8.688  14.613  67.973  1.00  0.00    -0.167 A  
HETATM   12  C   UNL     1     -10.894  15.375  67.446  1.00  0.00    -0.309 A  
ENDBRANCH   6   7
BRANCH   6  13
HETATM   13  C   UNL     1     -10.691  12.530  65.788  1.00  0.00    -0.299 A  
HETATM   14  C   UNL     1     -11.976  12.707  65.218  1.00  0.00    -0.487 A  
HETATM   15  C   UNL     1     -12.235  12.412  63.875  1.00  0.00    -0.603 A  
HETATM   16  C   UNL     1     -11.216  11.959  63.050  1.00  0.00    -0.060 A  
HETATM   17  C   UNL     1      -9.673  12.116  64.915  1.00  0.00    -0.094 A  
HETATM   18  C   UNL     1      -9.927  11.822  63.568  1.00  0.00    -0.430 A  
ENDBRANCH   6  13
BRANCH   6  19
HETATM   19  C   UNL     1     -11.816  12.489  68.122  1.00  0.00    -0.371 C  
HETATM   20  C   UNL     1     -11.740  11.980  70.518  1.00  0.00     0.040 C  
HETATM   21  N   UNL     1     -12.168  10.761  69.836  1.00  0.00    -0.328 NA 
HETATM   22  C   UNL     1     -12.249  11.039  68.394  1.00  0.00     0.282 C  
HETATM   23  C   UNL     1     -11.941  13.112  69.524  1.00  0.00    -0.354 C  
BRANCH  21  24
HETATM   24  C   UNL     1     -11.336   9.580  70.130  1.00  0.00    -0.199 C  
BRANCH  24  25
HETATM   25  C   UNL     1     -11.134   9.293  71.630  1.00  0.00    -0.438 C  
BRANCH  25  26
HETATM   26  C   UNL     1     -10.216   8.107  71.864  1.00  0.00    -0.289 A  
HETATM   27  C   UNL     1     -10.201   7.039  70.956  1.00  0.00    -0.209 A  
HETATM   28  C   UNL     1      -9.331   5.982  71.179  1.00  0.00    -0.174 A  
HETATM   29  C   UNL     1      -8.484   5.981  72.271  1.00  0.00    -0.117 A  
HETATM   30  O   UNL     1      -7.665   4.886  72.338  1.00  0.00    -0.088 OA 
HETATM   31  C   UNL     1      -8.473   7.011  73.185  1.00  0.00    -0.136 A  
HETATM   32  C   UNL     1      -9.354   8.081  72.982  1.00  0.00    -0.344 A  
HETATM   33  C   UNL     1      -8.103   4.031  71.258  1.00  0.00    -0.072 C  
HETATM   34  C   UNL     1      -9.124   4.759  70.381  1.00  0.00    -0.170 C  
ENDBRANCH  25  26
ENDBRANCH  24  25
ENDBRANCH  21  24
ENDBRANCH   6  19
ENDBRANCH   2   6
TORSDOF 7
ENDMDL
MODEL      188
REMARK 921   NORMALIZED FREE ENERGY PREDICTED BY IDOCK:   -3.71 KCAL/MOL
REMARK 922        TOTAL FREE ENERGY PREDICTED BY IDOCK:   -7.00 KCAL/MOL
REMARK 923 INTER-LIGAND FREE ENERGY PREDICTED BY IDOCK:   -7.89 KCAL/MOL
REMARK 924 INTRA-LIGAND FREE ENERGY PREDICTED BY IDOCK:    0.89 KCAL/MOL
REMARK 927      BINDING AFFINITY PREDICTED BY RF-SCORE:    0.00 PKD
ROOT
HETATM    1  N   UNL     1     -11.184  15.680  68.542  1.00  0.00    -0.323 N  
HETATM    2  C   UNL     1     -10.481  16.665  67.898  1.00  0.00    -0.322 C  
HETATM    3  H1  UNL     1     -10.864  14.725  68.383  1.00  0.00     0.000 HD 
HETATM    4  H2  UNL     1     -11.980  15.889  69.146  1.00  0.00     0.000 HD 
HETATM    5  O   UNL     1     -10.866  17.813  68.090  1.00  0.00    -0.329 OA 
ENDROOT
BRANCH   2   6
HETATM    6  C   UNL     1      -9.207  16.243  67.047  1.00  0.00    -0.230 C  
BRANCH   6   7
HETATM    7  C   UNL     1      -8.528  17.573  66.492  1.00  0.00    -0.300 A  
HETATM    8  C   UNL     1      -7.282  20.006  65.691  1.00  0.00    -0.330 A  
HETATM    9  C   UNL     1      -8.633  19.983  66.004  1.00  0.00    -0.243 A  
HETATM   10  C   UNL     1      -6.558  18.823  65.715  1.00  0.00    -0.296 A  
HETATM   11  C   UNL     1      -9.251  18.782  66.378  1.00  0.00    -0.312 A  
HETATM   12  C   UNL     1      -7.175  17.625  66.101  1.00  0.00    -0.352 A  
ENDBRANCH   6   7
BRANCH   6  13
HETATM   13  C   UNL     1      -8.212  15.450  67.974  1.00  0.00    -0.146 A  
HETATM   14  C   UNL     1      -7.833  15.970  69.236  1.00  0.00    -0.222 A  
HETATM   15  C   UNL     1      -6.888  15.330  70.045  1.00  0.00    -0.080 A  
HETATM   16  C   UNL     1      -6.313  14.135  69.636  1.00  0.00    -0.131 A  
HETATM   17  C   UNL     1      -7.648  14.216  67.613  1.00  0.00    -0.193 A  
HETATM   18  C   UNL     1      -6.703  13.569  68.421  1.00  0.00    -0.097 A  
ENDBRANCH   6  13
BRANCH   6  19
HETATM   19  C   UNL     1      -9.627  15.314  65.807  1.00  0.00    -0.359 C  
HETATM   20  C   UNL     1     -11.979  14.705  65.481  1.00  0.00    -0.256 C  
HETATM   21  N   UNL     1     -11.267  13.481  65.839  1.00  0.00    -0.299 NA 
HETATM   22  C   UNL     1      -9.843  13.806  66.019  1.00  0.00    -0.282 C  
HETATM   23  C   UNL     1     -10.913  15.703  65.058  1.00  0.00    -0.445 C  
BRANCH  21  24
HETATM   24  C   UNL     1     -11.828  12.774  67.005  1.00  0.00    -0.361 C  
BRANCH  24  25
HETATM   25  C   UNL     1     -11.468  11.279  67.086  1.00  0.00    -0.217 C  
BRANCH  25  26
HETATM   26  C   UNL     1     -10.298  10.926  66.186  1.00  0.00    -0.305 A  
HETATM   27  C   UNL     1      -9.022  10.733  66.733  1.00  0.00    -0.157 A  
HETATM   28  C   UNL     1      -7.977  10.383  65.891  1.00  0.00    -0.151 A  
HETATM   29  C   UNL     1      -8.187  10.214  64.536  1.00  0.00    -0.162 A  
HETATM   30  O   UNL     1      -7.068   9.838  63.843  1.00  0.00    -0.112 OA 
HETATM   31  C   UNL     1      -9.425  10.396  63.962  1.00  0.00    -0.351 A  
HETATM   32  C   UNL     1     -10.490  10.763  64.796  1.00  0.00    -0.335 A  
HETATM   33  C   UNL     1      -5.998   9.886  64.815  1.00  0.00    -0.099 C  
HETATM   34  C   UNL     1      -6.563  10.123  66.217  1.00  0.00    -0.094 C  
ENDBRANCH  25  26
ENDBRANCH  24  25
ENDBRANCH  21  24
ENDBRANCH   6  19
ENDBRANCH   2   6
TORSDOF 7
ENDMDL
MODEL      189
REMARK 921   NORMALIZED FREE ENERGY PREDICTED BY IDOCK:   -3.70 KCAL/MOL
REMARK 922        TOTAL FREE ENERGY PREDICTED BY IDOCK:   -7.00 KCAL/MOL
REMARK 923 INTER-LIGAND FREE ENERGY PREDICTED BY IDOCK:   -7.38 KCAL/MOL
REMARK 924 INTRA-LIGAND FREE ENERGY PREDICTED BY IDOCK:    0.38 KCAL/MOL
REMARK 927      BINDING AFFINITY PREDICTED BY RF-SCORE:    0.00 PKD
ROOT
HETATM    1  N   UNL     1      -7.424   9.003  70.993  1.00  0.00    -0.114 N  
HETATM    2  C   UNL     1      -7.840   8.139  70.013  1.00  0.00    -0.103 C  
HETATM    3  H1  UNL     1      -7.651   9.986  70.849  1.00  0.00     0.000 HD 
HETATM    4  H2  UNL     1      -6.916   8.682  71.818  1.00  0.00     0.000 HD 
HETATM    5  O   UNL     1      -7.566   6.957  70.187  1.00  0.00    -0.094 OA 
ENDROOT
BRANCH   2   6
HETATM    6  C   UNL     1      -8.695   8.728  68.810  1.00  0.00    -0.137 C  
BRANCH   6   7
HETATM    7  C   UNL     1      -9.072   7.519  67.842  1.00  0.00    -0.130 A  
HETATM    8  C   UNL     1      -9.840   5.491  65.995  1.00  0.00    -0.091 A  
HETATM    9  C   UNL     1     -10.709   5.884  67.003  1.00  0.00    -0.396 A  
HETATM   10  C   UNL     1      -8.574   6.054  65.931  1.00  0.00    -0.150 A  
HETATM   11  C   UNL     1     -10.324   6.867  67.924  1.00  0.00    -0.239 A  
HETATM   12  C   UNL     1      -8.194   7.044  66.847  1.00  0.00    -0.117 A  
ENDBRANCH   6   7
BRANCH   6  13
HETATM   13  C   UNL     1      -9.992   9.408  69.388  1.00  0.00    -0.189 A  
HETATM   14  C   UNL     1     -10.912  10.054  68.526  1.00  0.00    -0.255 A  
HETATM   15  C   UNL     1     -12.028  10.739  69.017  1.00  0.00    -0.258 A  
HETATM   16  C   UNL     1     -12.280  10.777  70.381  1.00  0.00    -0.437 A  
HETATM   17  C   UNL     1     -10.301   9.425  70.757  1.00  0.00    -0.366 A  
HETATM   18  C   UNL     1     -11.420  10.108  71.254  1.00  0.00    -0.327 A  
ENDBRANCH   6  13
BRANCH   6  19
HETATM   19  C   UNL     1      -7.851   9.815  67.984  1.00  0.00    -0.086 C  
HETATM   20  C   UNL     1      -8.563  12.160  67.971  1.00  0.00    -0.175 C  
HETATM   21  N   UNL     1      -8.760  11.647  66.618  1.00  0.00    -0.185 NA 
HETATM   22  C   UNL     1      -8.319  10.244  66.583  1.00  0.00    -0.125 C  
HETATM   23  C   UNL     1      -7.630  11.178  68.662  1.00  0.00    -0.127 C  
BRANCH  21  24
HETATM   24  C   UNL     1     -10.132  11.812  66.103  1.00  0.00    -0.224 C  
BRANCH  24  25
HETATM   25  C   UNL     1     -10.391  13.145  65.377  1.00  0.00    -0.313 C  
BRANCH  25  26
HETATM   26  C   UNL     1     -10.460  14.315  66.342  1.00  0.00    -0.282 A  
HETATM   27  C   UNL     1      -9.526  15.355  66.255  1.00  0.00    -0.342 A  
HETATM   28  C   UNL     1      -9.630  16.426  67.131  1.00  0.00    -0.239 A  
HETATM   29  C   UNL     1     -10.644  16.476  68.068  1.00  0.00    -0.328 A  
HETATM   30  O   UNL     1     -10.634  17.609  68.838  1.00  0.00    -0.301 OA 
HETATM   31  C   UNL     1     -11.579  15.472  68.185  1.00  0.00    -0.313 A  
HETATM   32  C   UNL     1     -11.480  14.377  67.317  1.00  0.00    -0.377 A  
HETATM   33  C   UNL     1      -9.427  18.306  68.451  1.00  0.00    -0.323 C  
HETATM   34  C   UNL     1      -8.786  17.630  67.238  1.00  0.00    -0.241 C  
ENDBRANCH  25  26
ENDBRANCH  24  25
ENDBRANCH  21  24
ENDBRANCH   6  19
ENDBRANCH   2   6
TORSDOF 7
ENDMDL
MODEL      190
REMARK 921   NORMALIZED FREE ENERGY PREDICTED BY IDOCK:   -3.68 KCAL/MOL
REMARK 922        TOTAL FREE ENERGY PREDICTED BY IDOCK:   -6.96 KCAL/MOL
REMARK 923 INTER-LIGAND FREE ENERGY PREDICTED BY IDOCK:   -6.42 KCAL/MOL
REMARK 924 INTRA-LIGAND FREE ENERGY PREDICTED BY IDOCK:   -0.55 KCAL/MOL
REMARK 927      BINDING AFFINITY PREDICTED BY RF-SCORE:    0.00 PKD
ROOT
HETATM    1  N   UNL     1      -9.617   2.273  71.452  1.00  0.00    -0.145 N  
HETATM    2  C   UNL     1      -8.666   3.200  71.793  1.00  0.00    -0.077 C  
HETATM    3  H1  UNL     1     -10.335   2.588  70.800  1.00  0.00     0.000 HD 
HETATM    4  H2  UNL     1      -9.608   1.324  71.829  1.00  0.00     0.000 HD 
HETATM    5  O   UNL     1      -7.804   2.821  72.578  1.00  0.00    -0.052 OA 
ENDROOT
BRANCH   2   6
HETATM    6  C   UNL     1      -8.720   4.623  71.088  1.00  0.00    -0.140 C  
BRANCH   6   7
HETATM    7  C   UNL     1      -8.633   5.734  72.227  1.00  0.00    -0.125 A  
HETATM    8  C   UNL     1      -8.643   7.805  74.183  1.00  0.00    -0.307 A  
HETATM    9  C   UNL     1      -8.049   8.014  72.948  1.00  0.00    -0.214 A  
HETATM   10  C   UNL     1      -9.180   6.560  74.477  1.00  0.00    -0.228 A  
HETATM   11  C   UNL     1      -8.025   6.989  71.993  1.00  0.00    -0.094 A  
HETATM   12  C   UNL     1      -9.166   5.540  73.517  1.00  0.00    -0.130 A  
ENDBRANCH   6   7
BRANCH   6  13
HETATM   13  C   UNL     1      -7.509   4.746  70.090  1.00  0.00    -0.054 A  
HETATM   14  C   UNL     1      -6.931   6.009  69.812  1.00  0.00    -0.067 A  
HETATM   15  C   UNL     1      -5.910   6.161  68.868  1.00  0.00    -0.020 A  
HETATM   16  C   UNL     1      -5.412   5.056  68.192  1.00  0.00    -0.012 A  
HETATM   17  C   UNL     1      -6.951   3.643  69.425  1.00  0.00    -0.042 A  
HETATM   18  C   UNL     1      -5.926   3.791  68.480  1.00  0.00    -0.027 A  
ENDBRANCH   6  13
BRANCH   6  19
HETATM   19  C   UNL     1     -10.093   4.810  70.279  1.00  0.00    -0.304 C  
HETATM   20  C   UNL     1     -10.204   6.396  68.414  1.00  0.00    -0.175 C  
HETATM   21  N   UNL     1     -11.046   6.933  69.480  1.00  0.00    -0.246 NA 
HETATM   22  C   UNL     1     -11.023   5.990  70.610  1.00  0.00    -0.307 C  
HETATM   23  C   UNL     1      -9.982   4.930  68.749  1.00  0.00    -0.206 C  
BRANCH  21  24
HETATM   24  C   UNL     1     -10.699   8.305  69.892  1.00  0.00    -0.234 C  
BRANCH  24  25
HETATM   25  C   UNL     1      -9.813   9.072  68.893  1.00  0.00    -0.181 C  
BRANCH  25  26
HETATM   26  C   UNL     1     -10.473  10.352  68.413  1.00  0.00    -0.216 A  
HETATM   27  C   UNL     1     -10.440  10.693  67.054  1.00  0.00    -0.295 A  
HETATM   28  C   UNL     1     -11.076  11.854  66.639  1.00  0.00    -0.360 A  
HETATM   29  C   UNL     1     -11.743  12.658  67.543  1.00  0.00    -0.368 A  
HETATM   30  O   UNL     1     -12.346  13.749  66.978  1.00  0.00    -0.378 OA 
HETATM   31  C   UNL     1     -11.795  12.356  68.886  1.00  0.00    -0.350 A  
HETATM   32  C   UNL     1     -11.147  11.194  69.325  1.00  0.00    -0.318 A  
HETATM   33  C   UNL     1     -11.931  13.724  65.593  1.00  0.00    -0.388 C  
HETATM   34  C   UNL     1     -11.187  12.424  65.283  1.00  0.00    -0.359 C  
ENDBRANCH  25  26
ENDBRANCH  24  25
ENDBRANCH  21  24
ENDBRANCH   6  19
ENDBRANCH   2   6
TORSDOF 7
ENDMDL
MODEL      191
REMARK 921   NORMALIZED FREE ENERGY PREDICTED BY IDOCK:   -3.63 KCAL/MOL
REMARK 922        TOTAL FREE ENERGY PREDICTED BY IDOCK:   -6.89 KCAL/MOL
REMARK 923 INTER-LIGAND FREE ENERGY PREDICTED BY IDOCK:   -6.45 KCAL/MOL
REMARK 924 INTRA-LIGAND FREE ENERGY PREDICTED BY IDOCK:   -0.44 KCAL/MOL
REMARK 927      BINDING AFFINITY PREDICTED BY RF-SCORE:    0.00 PKD
ROOT
HETATM    1  N   UNL     1     -10.588  18.246  67.339  1.00  0.00    -0.413 N  
HETATM    2  C   UNL     1      -9.607  17.552  68.001  1.00  0.00    -0.282 C  
HETATM    3  H1  UNL     1     -11.210  17.691  66.753  1.00  0.00     0.000 HD 
HETATM    4  H2  UNL     1     -10.689  19.258  67.429  1.00  0.00     0.000 HD 
HETATM    5  O   UNL     1      -8.859  18.219  68.706  1.00  0.00    -0.297 OA 
ENDROOT
BRANCH   2   6
HETATM    6  C   UNL     1      -9.586  15.969  67.861  1.00  0.00    -0.219 C  
BRANCH   6   7
HETATM    7  C   UNL     1      -8.111  15.470  68.198  1.00  0.00    -0.132 A  
HETATM    8  C   UNL     1      -5.516  14.408  68.700  1.00  0.00    -0.094 A  
HETATM    9  C   UNL     1      -6.577  14.082  69.532  1.00  0.00    -0.115 A  
HETATM   10  C   UNL     1      -5.718  15.300  67.657  1.00  0.00    -0.078 A  
HETATM   11  C   UNL     1      -7.849  14.620  69.298  1.00  0.00    -0.071 A  
HETATM   12  C   UNL     1      -6.993  15.829  67.418  1.00  0.00    -0.235 A  
ENDBRANCH   6   7
BRANCH   6  13
HETATM   13  C   UNL     1     -10.630  15.352  68.865  1.00  0.00    -0.244 A  
HETATM   14  C   UNL     1     -10.741  13.949  69.017  1.00  0.00    -0.219 A  
HETATM   15  C   UNL     1     -11.715  13.370  69.838  1.00  0.00    -0.337 A  
HETATM   16  C   UNL     1     -12.589  14.172  70.557  1.00  0.00    -0.410 A  
HETATM   17  C   UNL     1     -11.497  16.135  69.643  1.00  0.00    -0.290 A  
HETATM   18  C   UNL     1     -12.473  15.560  70.470  1.00  0.00    -0.472 A  
ENDBRANCH   6  13
BRANCH   6  19
HETATM   19  C   UNL     1      -9.961  15.520  66.367  1.00  0.00    -0.300 C  
HETATM   20  C   UNL     1     -11.878  14.043  65.982  1.00  0.00    -0.388 C  
HETATM   21  N   UNL     1     -10.679  13.281  65.646  1.00  0.00    -0.278 NA 
HETATM   22  C   UNL     1      -9.506  14.147  65.843  1.00  0.00    -0.098 C  
HETATM   23  C   UNL     1     -11.457  15.503  66.006  1.00  0.00     0.090 C  
BRANCH  21  24
HETATM   24  C   UNL     1     -10.553  12.002  66.369  1.00  0.00    -0.243 C  
BRANCH  24  25
HETATM   25  C   UNL     1      -9.321  11.900  67.288  1.00  0.00    -0.177 C  
BRANCH  25  26
HETATM   26  C   UNL     1      -9.073  10.477  67.753  1.00  0.00    -0.140 A  
HETATM   27  C   UNL     1      -8.285   9.612  66.981  1.00  0.00    -0.117 A  
HETATM   28  C   UNL     1      -8.051   8.326  67.445  1.00  0.00    -0.121 A  
HETATM   29  C   UNL     1      -8.575   7.902  68.651  1.00  0.00    -0.128 A  
HETATM   30  O   UNL     1      -8.231   6.620  68.988  1.00  0.00    -0.115 OA 
HETATM   31  C   UNL     1      -9.356   8.723  69.435  1.00  0.00    -0.157 A  
HETATM   32  C   UNL     1      -9.613  10.021  68.976  1.00  0.00    -0.200 A  
HETATM   33  C   UNL     1      -7.518   6.115  67.835  1.00  0.00    -0.085 C  
HETATM   34  C   UNL     1      -7.263   7.241  66.831  1.00  0.00    -0.088 C  
ENDBRANCH  25  26
ENDBRANCH  24  25
ENDBRANCH  21  24
ENDBRANCH   6  19
ENDBRANCH   2   6
TORSDOF 7
ENDMDL
MODEL      192
REMARK 921   NORMALIZED FREE ENERGY PREDICTED BY IDOCK:   -3.62 KCAL/MOL
REMARK 922        TOTAL FREE ENERGY PREDICTED BY IDOCK:   -6.88 KCAL/MOL
REMARK 923 INTER-LIGAND FREE ENERGY PREDICTED BY IDOCK:   -6.08 KCAL/MOL
REMARK 924 INTRA-LIGAND FREE ENERGY PREDICTED BY IDOCK:   -0.80 KCAL/MOL
REMARK 927      BINDING AFFINITY PREDICTED BY RF-SCORE:    0.00 PKD
ROOT
HETATM    1  N   UNL     1      -7.083   7.712  65.367  1.00  0.00    -0.062 N  
HETATM    2  C   UNL     1      -7.132   7.992  66.709  1.00  0.00    -0.081 C  
HETATM    3  H1  UNL     1      -7.697   8.268  64.772  1.00  0.00     0.000 HD 
HETATM    4  H2  UNL     1      -6.470   6.991  64.987  1.00  0.00     0.000 HD 
HETATM    5  O   UNL     1      -6.395   7.324  67.424  1.00  0.00    -0.050 OA 
ENDROOT
BRANCH   2   6
HETATM    6  C   UNL     1      -8.059   9.189  67.191  1.00  0.00    -0.109 C  
BRANCH   6   7
HETATM    7  C   UNL     1      -8.822   8.716  68.507  1.00  0.00    -0.142 A  
HETATM    8  C   UNL     1     -10.034   7.742  70.894  1.00  0.00    -0.190 A  
HETATM    9  C   UNL     1     -10.224   7.076  69.692  1.00  0.00    -0.212 A  
HETATM   10  C   UNL     1      -9.298   8.918  70.911  1.00  0.00    -0.295 A  
HETATM   11  C   UNL     1      -9.644   7.566  68.514  1.00  0.00    -0.150 A  
HETATM   12  C   UNL     1      -8.710   9.400  69.734  1.00  0.00    -0.189 A  
ENDBRANCH   6   7
BRANCH   6  13
HETATM   13  C   UNL     1      -7.159  10.447  67.486  1.00  0.00    -0.086 A  
HETATM   14  C   UNL     1      -6.025  10.725  66.685  1.00  0.00    -0.089 A  
HETATM   15  C   UNL     1      -5.160  11.786  66.973  1.00  0.00    -0.109 A  
HETATM   16  C   UNL     1      -5.413  12.622  68.051  1.00  0.00    -0.087 A  
HETATM   17  C   UNL     1      -7.413  11.339  68.539  1.00  0.00    -0.115 A  
HETATM   18  C   UNL     1      -6.551  12.406  68.830  1.00  0.00    -0.095 A  
ENDBRANCH   6  13
BRANCH   6  19
HETATM   19  C   UNL     1      -9.141   9.567  66.067  1.00  0.00    -0.220 C  
HETATM   20  C   UNL     1      -9.750  11.911  65.698  1.00  0.00    -0.227 C  
HETATM   21  N   UNL     1     -10.926  11.248  66.256  1.00  0.00    -0.246 NA 
HETATM   22  C   UNL     1     -10.602   9.828  66.467  1.00  0.00    -0.080 C  
HETATM   23  C   UNL     1      -8.836  10.803  65.203  1.00  0.00    -0.199 C  
BRANCH  21  24
HETATM   24  C   UNL     1     -11.459  11.885  67.474  1.00  0.00    -0.326 C  
BRANCH  24  25
HETATM   25  C   UNL     1     -10.386  12.379  68.463  1.00  0.00    -0.232 C  
BRANCH  25  26
HETATM   26  C   UNL     1     -10.415  13.888  68.627  1.00  0.00    -0.249 A  
HETATM   27  C   UNL     1      -9.515  14.690  67.912  1.00  0.00    -0.210 A  
HETATM   28  C   UNL     1      -9.582  16.068  68.059  1.00  0.00    -0.215 A  
HETATM   29  C   UNL     1     -10.526  16.646  68.886  1.00  0.00    -0.322 A  
HETATM   30  O   UNL     1     -10.488  18.014  68.903  1.00  0.00    -0.302 OA 
HETATM   31  C   UNL     1     -11.425  15.890  69.606  1.00  0.00    -0.346 A  
HETATM   32  C   UNL     1     -11.363  14.496  69.479  1.00  0.00    -0.313 A  
HETATM   33  C   UNL     1      -9.331  18.360  68.108  1.00  0.00    -0.317 C  
HETATM   34  C   UNL     1      -8.762  17.116  67.424  1.00  0.00    -0.211 C  
ENDBRANCH  25  26
ENDBRANCH  24  25
ENDBRANCH  21  24
ENDBRANCH   6  19
ENDBRANCH   2   6
TORSDOF 7
ENDMDL
MODEL      193
REMARK 921   NORMALIZED FREE ENERGY PREDICTED BY IDOCK:   -3.61 KCAL/MOL
REMARK 922        TOTAL FREE ENERGY PREDICTED BY IDOCK:   -6.86 KCAL/MOL
REMARK 923 INTER-LIGAND FREE ENERGY PREDICTED BY IDOCK:   -6.24 KCAL/MOL
REMARK 924 INTRA-LIGAND FREE ENERGY PREDICTED BY IDOCK:   -0.62 KCAL/MOL
REMARK 927      BINDING AFFINITY PREDICTED BY RF-SCORE:    0.00 PKD
ROOT
HETATM    1  N   UNL     1     -11.028  18.277  67.684  1.00  0.00    -0.237 N  
HETATM    2  C   UNL     1      -9.859  17.782  68.204  1.00  0.00    -0.326 C  
HETATM    3  H1  UNL     1     -11.785  17.606  67.567  1.00  0.00     0.000 HD 
HETATM    4  H2  UNL     1     -11.133  19.260  67.430  1.00  0.00     0.000 HD 
HETATM    5  O   UNL     1      -8.948  18.590  68.345  1.00  0.00    -0.307 OA 
ENDROOT
BRANCH   2   6
HETATM    6  C   UNL     1      -9.824  16.256  68.645  1.00  0.00    -0.230 C  
BRANCH   6   7
HETATM    7  C   UNL     1     -10.954  16.040  69.747  1.00  0.00    -0.334 A  
HETATM    8  C   UNL     1     -13.042  15.839  71.674  1.00  0.00    -0.493 A  
HETATM    9  C   UNL     1     -11.838  16.440  72.009  1.00  0.00    -0.464 A  
HETATM   10  C   UNL     1     -13.198  15.285  70.411  1.00  0.00    -0.171 A  
HETATM   11  C   UNL     1     -10.804  16.521  71.068  1.00  0.00     0.456 A  
HETATM   12  C   UNL     1     -12.166  15.377  69.468  1.00  0.00    -0.277 A  
ENDBRANCH   6   7
BRANCH   6  13
HETATM   13  C   UNL     1     -10.090  15.352  67.384  1.00  0.00    -0.233 A  
HETATM   14  C   UNL     1      -9.908  15.867  66.077  1.00  0.00    -0.366 A  
HETATM   15  C   UNL     1     -10.216  15.116  64.938  1.00  0.00    -0.231 A  
HETATM   16  C   UNL     1     -10.687  13.817  65.064  1.00  0.00    -0.391 A  
HETATM   17  C   UNL     1     -10.522  14.019  67.475  1.00  0.00    -0.252 A  
HETATM   18  C   UNL     1     -10.829  13.261  66.336  1.00  0.00    -0.296 A  
ENDBRANCH   6  13
BRANCH   6  19
HETATM   19  C   UNL     1      -8.399  15.874  69.277  1.00  0.00    -0.238 C  
HETATM   20  C   UNL     1      -6.508  15.365  67.803  1.00  0.00    -0.162 C  
HETATM   21  N   UNL     1      -6.865  14.122  68.482  1.00  0.00    -0.094 NA 
HETATM   22  C   UNL     1      -7.985  14.397  69.397  1.00  0.00     0.147 C  
HETATM   23  C   UNL     1      -7.158  16.483  68.601  1.00  0.00    -0.175 C  
BRANCH  21  24
HETATM   24  C   UNL     1      -7.152  12.997  67.573  1.00  0.00    -0.154 C  
BRANCH  24  25
HETATM   25  C   UNL     1      -6.555  11.647  68.013  1.00  0.00    -0.062 C  
BRANCH  25  26
HETATM   26  C   UNL     1      -7.621  10.690  68.516  1.00  0.00    -0.097 A  
HETATM   27  C   UNL     1      -7.273   9.386  68.893  1.00  0.00    -0.072 A  
HETATM   28  C   UNL     1      -8.263   8.542  69.376  1.00  0.00    -0.114 A  
HETATM   29  C   UNL     1      -9.568   8.978  69.497  1.00  0.00    -0.165 A  
HETATM   30  O   UNL     1     -10.422   8.043  70.017  1.00  0.00    -0.218 OA 
HETATM   31  C   UNL     1      -9.948  10.252  69.134  1.00  0.00    -0.235 A  
HETATM   32  C   UNL     1      -8.963  11.113  68.631  1.00  0.00    -0.162 A  
HETATM   33  C   UNL     1      -9.625   6.841  70.133  1.00  0.00    -0.161 C  
HETATM   34  C   UNL     1      -8.155   7.145  69.837  1.00  0.00    -0.125 C  
ENDBRANCH  25  26
ENDBRANCH  24  25
ENDBRANCH  21  24
ENDBRANCH   6  19
ENDBRANCH   2   6
TORSDOF 7
ENDMDL
MODEL      194
REMARK 921   NORMALIZED FREE ENERGY PREDICTED BY IDOCK:   -3.59 KCAL/MOL
REMARK 922        TOTAL FREE ENERGY PREDICTED BY IDOCK:   -6.84 KCAL/MOL
REMARK 923 INTER-LIGAND FREE ENERGY PREDICTED BY IDOCK:   -5.73 KCAL/MOL
REMARK 924 INTRA-LIGAND FREE ENERGY PREDICTED BY IDOCK:   -1.11 KCAL/MOL
REMARK 927      BINDING AFFINITY PREDICTED BY RF-SCORE:    0.00 PKD
ROOT
HETATM    1  N   UNL     1     -11.191  16.077  67.732  1.00  0.00    -0.281 N  
HETATM    2  C   UNL     1     -11.423  14.909  68.412  1.00  0.00    -0.318 C  
HETATM    3  H1  UNL     1     -10.446  16.050  67.037  1.00  0.00     0.000 HD 
HETATM    4  H2  UNL     1     -11.732  16.924  67.910  1.00  0.00     0.000 HD 
HETATM    5  O   UNL     1     -12.319  14.942  69.247  1.00  0.00    -0.214 OA 
ENDROOT
BRANCH   2   6
HETATM    6  C   UNL     1     -10.582  13.624  68.001  1.00  0.00    -0.256 C  
BRANCH   6   7
HETATM    7  C   UNL     1     -10.903  13.298  66.475  1.00  0.00    -0.288 A  
HETATM    8  C   UNL     1     -11.434  12.908  63.704  1.00  0.00    -0.506 A  
HETATM    9  C   UNL     1     -12.425  13.395  64.543  1.00  0.00    -0.359 A  
HETATM   10  C   UNL     1     -10.202  12.558  64.237  1.00  0.00    -0.359 A  
HETATM   11  C   UNL     1     -12.171  13.568  65.910  1.00  0.00    -0.507 A  
HETATM   12  C   UNL     1      -9.946  12.742  65.603  1.00  0.00    -0.249 A  
ENDBRANCH   6   7
BRANCH   6  13
HETATM   13  C   UNL     1      -9.051  13.930  68.200  1.00  0.00    -0.193 A  
HETATM   14  C   UNL     1      -8.622  14.853  69.184  1.00  0.00    -0.148 A  
HETATM   15  C   UNL     1      -7.276  15.207  69.328  1.00  0.00    -0.182 A  
HETATM   16  C   UNL     1      -6.311  14.630  68.515  1.00  0.00    -0.087 A  
HETATM   17  C   UNL     1      -8.045  13.329  67.427  1.00  0.00    -0.179 A  
HETATM   18  C   UNL     1      -6.694  13.678  67.569  1.00  0.00    -0.139 A  
ENDBRANCH   6  13
BRANCH   6  19
HETATM   19  C   UNL     1     -10.989  12.360  68.903  1.00  0.00    -0.268 C  
HETATM   20  C   UNL     1      -9.680  10.293  68.769  1.00  0.00    -0.177 C  
HETATM   21  N   UNL     1     -10.994  10.002  68.203  1.00  0.00    -0.254 NA 
HETATM   22  C   UNL     1     -11.818  11.218  68.290  1.00  0.00    -0.229 C  
HETATM   23  C   UNL     1      -9.837  11.581  69.560  1.00  0.00     0.556 C  
BRANCH  21  24
HETATM   24  C   UNL     1     -10.956   9.453  66.835  1.00  0.00     0.172 C  
BRANCH  24  25
HETATM   25  C   UNL     1     -10.240   8.095  66.707  1.00  0.00    -0.372 C  
BRANCH  25  26
HETATM   26  C   UNL     1      -9.091   8.149  65.717  1.00  0.00    -0.139 A  
HETATM   27  C   UNL     1      -8.794   9.344  65.049  1.00  0.00    -0.234 A  
HETATM   28  C   UNL     1      -7.720   9.372  64.170  1.00  0.00    -0.117 A  
HETATM   29  C   UNL     1      -6.946   8.246  63.964  1.00  0.00    -0.075 A  
HETATM   30  O   UNL     1      -5.906   8.439  63.094  1.00  0.00    -0.075 OA 
HETATM   31  C   UNL     1      -7.209   7.054  64.601  1.00  0.00    -0.073 A  
HETATM   32  C   UNL     1      -8.298   7.005  65.481  1.00  0.00    -0.135 A  
HETATM   33  C   UNL     1      -6.090   9.782  62.591  1.00  0.00    -0.103 C  
HETATM   34  C   UNL     1      -7.206  10.491  63.359  1.00  0.00     0.055 C  
ENDBRANCH  25  26
ENDBRANCH  24  25
ENDBRANCH  21  24
ENDBRANCH   6  19
ENDBRANCH   2   6
TORSDOF 7
ENDMDL
MODEL      195
REMARK 921   NORMALIZED FREE ENERGY PREDICTED BY IDOCK:   -3.58 KCAL/MOL
REMARK 922        TOTAL FREE ENERGY PREDICTED BY IDOCK:   -6.82 KCAL/MOL
REMARK 923 INTER-LIGAND FREE ENERGY PREDICTED BY IDOCK:   -6.44 KCAL/MOL
REMARK 924 INTRA-LIGAND FREE ENERGY PREDICTED BY IDOCK:   -0.38 KCAL/MOL
REMARK 927      BINDING AFFINITY PREDICTED BY RF-SCORE:    0.00 PKD
ROOT
HETATM    1  N   UNL     1     -11.233  18.587  68.128  1.00  0.00     0.048 N  
HETATM    2  C   UNL     1     -10.000  18.957  68.601  1.00  0.00    -0.412 C  
HETATM    3  H1  UNL     1     -11.234  17.956  67.327  1.00  0.00     0.000 HD 
HETATM    4  H2  UNL     1     -12.098  18.922  68.553  1.00  0.00     0.000 HD 
HETATM    5  O   UNL     1      -9.999  19.715  69.564  1.00  0.00    -0.342 OA 
ENDROOT
BRANCH   2   6
HETATM    6  C   UNL     1      -8.714  18.315  67.922  1.00  0.00    -0.274 C  
BRANCH   6   7
HETATM    7  C   UNL     1      -7.515  19.353  68.070  1.00  0.00    -0.316 A  
HETATM    8  C   UNL     1      -5.507  21.349  68.386  1.00  0.00    -0.170 A  
HETATM    9  C   UNL     1      -6.195  21.234  67.188  1.00  0.00    -0.414 A  
HETATM   10  C   UNL     1      -5.764  20.446  69.407  1.00  0.00    -0.370 A  
HETATM   11  C   UNL     1      -7.169  20.240  67.025  1.00  0.00    -0.315 A  
HETATM   12  C   UNL     1      -6.746  19.459  69.246  1.00  0.00    -0.370 A  
ENDBRANCH   6   7
BRANCH   6  13
HETATM   13  C   UNL     1      -8.375  16.959  68.647  1.00  0.00    -0.261 A  
HETATM   14  C   UNL     1      -7.056  16.444  68.631  1.00  0.00    -0.163 A  
HETATM   15  C   UNL     1      -6.742  15.203  69.195  1.00  0.00    -0.130 A  
HETATM   16  C   UNL     1      -7.726  14.449  69.818  1.00  0.00     0.312 A  
HETATM   17  C   UNL     1      -9.336  16.195  69.327  1.00  0.00    -0.227 A  
HETATM   18  C   UNL     1      -9.025  14.952  69.896  1.00  0.00     0.346 A  
ENDBRANCH   6  13
BRANCH   6  19
HETATM   19  C   UNL     1      -8.970  18.030  66.363  1.00  0.00    -0.249 C  
HETATM   20  C   UNL     1     -11.183  17.302  65.603  1.00  0.00     0.559 C  
HETATM   21  N   UNL     1     -10.272  16.177  65.406  1.00  0.00    -0.538 NA 
HETATM   22  C   UNL     1      -8.925  16.588  65.830  1.00  0.00    -0.130 C  
HETATM   23  C   UNL     1     -10.303  18.529  65.780  1.00  0.00    -0.224 C  
BRANCH  21  24
HETATM   24  C   UNL     1     -10.705  14.928  66.060  1.00  0.00    -0.323 C  
BRANCH  24  25
HETATM   25  C   UNL     1      -9.688  13.774  65.978  1.00  0.00    -0.255 C  
BRANCH  25  26
HETATM   26  C   UNL     1      -9.935  12.721  67.044  1.00  0.00    -0.231 A  
HETATM   27  C   UNL     1     -10.962  12.897  67.981  1.00  0.00    -0.271 A  
HETATM   28  C   UNL     1     -11.184  11.905  68.926  1.00  0.00    -0.310 A  
HETATM   29  C   UNL     1     -10.416  10.757  68.940  1.00  0.00    -0.205 A  
HETATM   30  O   UNL     1     -10.774   9.859  69.909  1.00  0.00    -0.239 OA 
HETATM   31  C   UNL     1      -9.396  10.550  68.036  1.00  0.00    -0.150 A  
HETATM   32  C   UNL     1      -9.150  11.548  67.083  1.00  0.00    -0.167 A  
HETATM   33  C   UNL     1     -11.792  10.537  70.681  1.00  0.00    -0.360 C  
HETATM   34  C   UNL     1     -12.190  11.849  70.002  1.00  0.00    -0.291 C  
ENDBRANCH  25  26
ENDBRANCH  24  25
ENDBRANCH  21  24
ENDBRANCH   6  19
ENDBRANCH   2   6
TORSDOF 7
ENDMDL
MODEL      196
REMARK 921   NORMALIZED FREE ENERGY PREDICTED BY IDOCK:   -3.57 KCAL/MOL
REMARK 922        TOTAL FREE ENERGY PREDICTED BY IDOCK:   -6.81 KCAL/MOL
REMARK 923 INTER-LIGAND FREE ENERGY PREDICTED BY IDOCK:   -7.22 KCAL/MOL
REMARK 924 INTRA-LIGAND FREE ENERGY PREDICTED BY IDOCK:    0.42 KCAL/MOL
REMARK 927      BINDING AFFINITY PREDICTED BY RF-SCORE:    0.00 PKD
ROOT
HETATM    1  N   UNL     1      -6.367   9.119  68.868  1.00  0.00    -0.044 N  
HETATM    2  C   UNL     1      -7.404   9.293  69.748  1.00  0.00    -0.072 C  
HETATM    3  H1  UNL     1      -6.625   8.865  67.915  1.00  0.00     0.000 HD 
HETATM    4  H2  UNL     1      -5.393   9.237  69.150  1.00  0.00     0.000 HD 
HETATM    5  O   UNL     1      -7.093   9.598  70.893  1.00  0.00    -0.255 OA 
ENDROOT
BRANCH   2   6
HETATM    6  C   UNL     1      -8.887   9.168  69.190  1.00  0.00    -0.146 C  
BRANCH   6   7
HETATM    7  C   UNL     1      -8.868   9.589  67.653  1.00  0.00    -0.121 A  
HETATM    8  C   UNL     1      -8.949  10.497  64.955  1.00  0.00    -0.222 A  
HETATM    9  C   UNL     1      -9.963   9.693  65.452  1.00  0.00    -0.230 A  
HETATM   10  C   UNL     1      -7.867  10.807  65.766  1.00  0.00    -0.106 A  
HETATM   11  C   UNL     1      -9.914   9.229  66.773  1.00  0.00    -0.312 A  
HETATM   12  C   UNL     1      -7.824  10.351  67.091  1.00  0.00    -0.110 A  
ENDBRANCH   6   7
BRANCH   6  13
HETATM   13  C   UNL     1      -9.374   7.680  69.358  1.00  0.00    -0.152 A  
HETATM   14  C   UNL     1      -9.161   6.986  70.574  1.00  0.00    -0.156 A  
HETATM   15  C   UNL     1      -9.507   5.639  70.725  1.00  0.00    -0.203 A  
HETATM   16  C   UNL     1     -10.103   4.949  69.679  1.00  0.00    -0.300 A  
HETATM   17  C   UNL     1     -10.022   6.968  68.337  1.00  0.00    -0.160 A  
HETATM   18  C   UNL     1     -10.373   5.619  68.485  1.00  0.00    -0.265 A  
ENDBRANCH   6  13
BRANCH   6  19
HETATM   19  C   UNL     1      -9.884  10.143  69.986  1.00  0.00    -0.179 C  
HETATM   20  C   UNL     1     -12.115  10.606  69.085  1.00  0.00    -0.080 C  
HETATM   21  N   UNL     1     -11.356  11.852  69.005  1.00  0.00    -0.257 NA 
HETATM   22  C   UNL     1     -10.015  11.616  69.563  1.00  0.00     0.612 C  
HETATM   23  C   UNL     1     -11.360   9.713  70.056  1.00  0.00    -0.239 C  
BRANCH  21  24
HETATM   24  C   UNL     1     -11.302  12.442  67.655  1.00  0.00    -0.312 C  
BRANCH  24  25
HETATM   25  C   UNL     1     -11.925  13.846  67.541  1.00  0.00    -0.421 C  
BRANCH  25  26
HETATM   26  C   UNL     1     -11.926  14.578  68.871  1.00  0.00    -0.326 A  
HETATM   27  C   UNL     1     -12.779  14.164  69.902  1.00  0.00    -0.077 A  
HETATM   28  C   UNL     1     -12.738  14.833  71.116  1.00  0.00    -0.402 A  
HETATM   29  C   UNL     1     -11.864  15.885  71.315  1.00  0.00    -0.449 A  
HETATM   30  O   UNL     1     -11.918  16.423  72.573  1.00  0.00    -0.534 OA 
HETATM   31  C   UNL     1     -11.012  16.321  70.325  1.00  0.00    -0.314 A  
HETATM   32  C   UNL     1     -11.050  15.664  69.087  1.00  0.00    -0.284 A  
HETATM   33  C   UNL     1     -13.018  15.741  73.218  1.00  0.00    -0.565 C  
HETATM   34  C   UNL     1     -13.521  14.592  72.342  1.00  0.00    -0.543 C  
ENDBRANCH  25  26
ENDBRANCH  24  25
ENDBRANCH  21  24
ENDBRANCH   6  19
ENDBRANCH   2   6
TORSDOF 7
ENDMDL
MODEL      197
REMARK 921   NORMALIZED FREE ENERGY PREDICTED BY IDOCK:   -3.54 KCAL/MOL
REMARK 922        TOTAL FREE ENERGY PREDICTED BY IDOCK:   -6.76 KCAL/MOL
REMARK 923 INTER-LIGAND FREE ENERGY PREDICTED BY IDOCK:   -6.56 KCAL/MOL
REMARK 924 INTRA-LIGAND FREE ENERGY PREDICTED BY IDOCK:   -0.20 KCAL/MOL
REMARK 927      BINDING AFFINITY PREDICTED BY RF-SCORE:    0.00 PKD
ROOT
HETATM    1  N   UNL     1     -10.830   6.535  69.142  1.00  0.00    -0.272 N  
HETATM    2  C   UNL     1     -10.004   5.935  70.057  1.00  0.00    -0.183 C  
HETATM    3  H1  UNL     1     -10.609   7.503  68.908  1.00  0.00     0.000 HD 
HETATM    4  H2  UNL     1     -11.618   6.044  68.720  1.00  0.00     0.000 HD 
HETATM    5  O   UNL     1     -10.270   4.772  70.339  1.00  0.00    -0.243 OA 
ENDROOT
BRANCH   2   6
HETATM    6  C   UNL     1      -8.756   6.758  70.594  1.00  0.00    -0.143 C  
BRANCH   6   7
HETATM    7  C   UNL     1      -7.647   5.714  71.062  1.00  0.00    -0.095 A  
HETATM    8  C   UNL     1      -5.531   3.951  71.790  1.00  0.00    -0.007 A  
HETATM    9  C   UNL     1      -6.224   3.759  70.603  1.00  0.00    -0.019 A  
HETATM   10  C   UNL     1      -5.917   4.974  72.645  1.00  0.00    -0.025 A  
HETATM   11  C   UNL     1      -7.278   4.614  70.255  1.00  0.00    -0.050 A  
HETATM   12  C   UNL     1      -6.964   5.834  72.289  1.00  0.00    -0.082 A  
ENDBRANCH   6   7
BRANCH   6  13
HETATM   13  C   UNL     1      -8.211   7.674  69.435  1.00  0.00    -0.129 A  
HETATM   14  C   UNL     1      -7.995   7.145  68.139  1.00  0.00    -0.119 A  
HETATM   15  C   UNL     1      -7.434   7.912  67.113  1.00  0.00    -0.092 A  
HETATM   16  C   UNL     1      -7.097   9.239  67.336  1.00  0.00    -0.079 A  
HETATM   17  C   UNL     1      -7.903   9.032  69.614  1.00  0.00    -0.088 A  
HETATM   18  C   UNL     1      -7.343   9.806  68.588  1.00  0.00    -0.074 A  
ENDBRANCH   6  13
BRANCH   6  19
HETATM   19  C   UNL     1      -9.169   7.677  71.843  1.00  0.00    -0.167 C  
HETATM   20  C   UNL     1     -11.201   7.168  73.114  1.00  0.00    -0.188 C  
HETATM   21  N   UNL     1     -11.437   8.433  72.422  1.00  0.00    -0.384 NA 
HETATM   22  C   UNL     1     -10.223   8.782  71.666  1.00  0.00    -0.324 C  
HETATM   23  C   UNL     1      -9.697   6.949  73.091  1.00  0.00    -0.200 C  
BRANCH  21  24
HETATM   24  C   UNL     1     -12.643   8.442  71.573  1.00  0.00    -0.308 C  
BRANCH  24  25
HETATM   25  C   UNL     1     -12.561   9.374  70.350  1.00  0.00     0.257 C  
BRANCH  25  26
HETATM   26  C   UNL     1     -12.576  10.839  70.746  1.00  0.00    -0.476 A  
HETATM   27  C   UNL     1     -11.909  11.787  69.959  1.00  0.00    -0.422 A  
HETATM   28  C   UNL     1     -11.963  13.123  70.329  1.00  0.00    -0.366 A  
HETATM   29  C   UNL     1     -12.670  13.518  71.448  1.00  0.00    -0.336 A  
HETATM   30  O   UNL     1     -12.656  14.870  71.666  1.00  0.00    -0.297 OA 
HETATM   31  C   UNL     1     -13.335  12.615  72.247  1.00  0.00    -0.527 A  
HETATM   32  C   UNL     1     -13.280  11.260  71.895  1.00  0.00    -0.491 A  
HETATM   33  C   UNL     1     -11.753  15.395  70.666  1.00  0.00    -0.339 C  
HETATM   34  C   UNL     1     -11.357  14.298  69.676  1.00  0.00    -0.292 C  
ENDBRANCH  25  26
ENDBRANCH  24  25
ENDBRANCH  21  24
ENDBRANCH   6  19
ENDBRANCH   2   6
TORSDOF 7
ENDMDL
MODEL      198
REMARK 921   NORMALIZED FREE ENERGY PREDICTED BY IDOCK:   -3.46 KCAL/MOL
REMARK 922        TOTAL FREE ENERGY PREDICTED BY IDOCK:   -6.66 KCAL/MOL
REMARK 923 INTER-LIGAND FREE ENERGY PREDICTED BY IDOCK:   -7.16 KCAL/MOL
REMARK 924 INTRA-LIGAND FREE ENERGY PREDICTED BY IDOCK:    0.50 KCAL/MOL
REMARK 927      BINDING AFFINITY PREDICTED BY RF-SCORE:    0.00 PKD
ROOT
HETATM    1  N   UNL     1      -8.779  11.580  63.367  1.00  0.00    -0.364 N  
HETATM    2  C   UNL     1      -9.133  10.791  64.432  1.00  0.00    -0.196 C  
HETATM    3  H1  UNL     1      -8.878  12.586  63.504  1.00  0.00     0.000 HD 
HETATM    4  H2  UNL     1      -8.438  11.185  62.490  1.00  0.00     0.000 HD 
HETATM    5  O   UNL     1      -9.015   9.582  64.267  1.00  0.00    -0.228 OA 
ENDROOT
BRANCH   2   6
HETATM    6  C   UNL     1      -9.573  11.506  65.781  1.00  0.00    -0.259 C  
BRANCH   6   7
HETATM    7  C   UNL     1     -10.854  12.399  65.464  1.00  0.00    -0.316 A  
HETATM    8  C   UNL     1     -13.249  13.824  64.876  1.00  0.00     0.282 A  
HETATM    9  C   UNL     1     -12.439  13.365  63.848  1.00  0.00    -0.313 A  
HETATM   10  C   UNL     1     -12.852  13.634  66.192  1.00  0.00    -0.143 A  
HETATM   11  C   UNL     1     -11.251  12.681  64.137  1.00  0.00    -0.437 A  
HETATM   12  C   UNL     1     -11.668  12.941  66.479  1.00  0.00    -0.453 A  
ENDBRANCH   6   7
BRANCH   6  13
HETATM   13  C   UNL     1      -9.907  10.408  66.858  1.00  0.00    -0.236 A  
HETATM   14  C   UNL     1      -9.475   9.071  66.680  1.00  0.00    -0.251 A  
HETATM   15  C   UNL     1      -9.827   8.056  67.577  1.00  0.00    -0.224 A  
HETATM   16  C   UNL     1     -10.596   8.348  68.695  1.00  0.00    -0.149 A  
HETATM   17  C   UNL     1     -10.642  10.678  68.023  1.00  0.00    -0.248 A  
HETATM   18  C   UNL     1     -10.994   9.665  68.926  1.00  0.00    -0.153 A  
ENDBRANCH   6  13
BRANCH   6  19
HETATM   19  C   UNL     1      -8.401  12.452  66.337  1.00  0.00     0.208 C  
HETATM   20  C   UNL     1      -8.514  13.315  68.628  1.00  0.00     0.017 C  
HETATM   21  N   UNL     1      -8.676  14.458  67.734  1.00  0.00    -0.170 NA 
HETATM   22  C   UNL     1      -8.589  13.979  66.346  1.00  0.00     0.345 C  
HETATM   23  C   UNL     1      -7.933  12.195  67.780  1.00  0.00    -0.151 C  
BRANCH  21  24
HETATM   24  C   UNL     1      -9.899  15.246  67.975  1.00  0.00    -0.216 C  
BRANCH  24  25
HETATM   25  C   UNL     1      -9.939  15.973  69.332  1.00  0.00    -0.262 C  
BRANCH  25  26
HETATM   26  C   UNL     1     -10.989  15.391  70.260  1.00  0.00    -0.336 A  
HETATM   27  C   UNL     1     -11.361  14.045  70.144  1.00  0.00    -0.109 A  
HETATM   28  C   UNL     1     -12.302  13.531  71.025  1.00  0.00    -0.422 A  
HETATM   29  C   UNL     1     -12.858  14.327  72.008  1.00  0.00    -0.347 A  
HETATM   30  O   UNL     1     -13.747  13.671  72.818  1.00  0.00    -0.707 OA 
HETATM   31  C   UNL     1     -12.519  15.654  72.151  1.00  0.00    -0.509 A  
HETATM   32  C   UNL     1     -11.580  16.192  71.262  1.00  0.00    -0.470 A  
HETATM   33  C   UNL     1     -13.877  12.355  72.232  1.00  0.00    -0.031 C  
HETATM   34  C   UNL     1     -12.851  12.166  71.112  1.00  0.00    -0.313 C  
ENDBRANCH  25  26
ENDBRANCH  24  25
ENDBRANCH  21  24
ENDBRANCH   6  19
ENDBRANCH   2   6
TORSDOF 7
ENDMDL
MODEL      199
REMARK 921   NORMALIZED FREE ENERGY PREDICTED BY IDOCK:   -3.42 KCAL/MOL
REMARK 922        TOTAL FREE ENERGY PREDICTED BY IDOCK:   -6.60 KCAL/MOL
REMARK 923 INTER-LIGAND FREE ENERGY PREDICTED BY IDOCK:   -6.26 KCAL/MOL
REMARK 924 INTRA-LIGAND FREE ENERGY PREDICTED BY IDOCK:   -0.34 KCAL/MOL
REMARK 927      BINDING AFFINITY PREDICTED BY RF-SCORE:    0.00 PKD
ROOT
HETATM    1  N   UNL     1     -11.223  19.435  67.588  1.00  0.00    -0.155 N  
HETATM    2  C   UNL     1     -10.145  19.071  68.354  1.00  0.00    -0.403 C  
HETATM    3  H1  UNL     1     -11.414  18.849  66.776  1.00  0.00     0.000 HD 
HETATM    4  H2  UNL     1     -11.801  20.244  67.818  1.00  0.00     0.000 HD 
HETATM    5  O   UNL     1      -9.917  19.775  69.330  1.00  0.00    -0.384 OA 
ENDROOT
BRANCH   2   6
HETATM    6  C   UNL     1      -9.360  17.747  67.959  1.00  0.00    -0.276 C  
BRANCH   6   7
HETATM    7  C   UNL     1      -7.867  17.886  68.497  1.00  0.00    -0.301 A  
HETATM    8  C   UNL     1      -5.156  18.245  69.296  1.00  0.00    -0.190 A  
HETATM    9  C   UNL     1      -5.499  17.217  68.430  1.00  0.00    -0.137 A  
HETATM   10  C   UNL     1      -6.153  19.059  69.815  1.00  0.00    -0.278 A  
HETATM   11  C   UNL     1      -6.835  17.028  68.053  1.00  0.00    -0.166 A  
HETATM   12  C   UNL     1      -7.487  18.874  69.428  1.00  0.00    -0.043 A  
ENDBRANCH   6   7
BRANCH   6  13
HETATM   13  C   UNL     1     -10.080  16.510  68.615  1.00  0.00    -0.255 A  
HETATM   14  C   UNL     1      -9.325  15.439  69.154  1.00  0.00    -0.246 A  
HETATM   15  C   UNL     1      -9.935  14.290  69.667  1.00  0.00     0.399 A  
HETATM   16  C   UNL     1     -11.319  14.184  69.688  1.00  0.00    -0.289 A  
HETATM   17  C   UNL     1     -11.476  16.391  68.695  1.00  0.00    -0.224 A  
HETATM   18  C   UNL     1     -12.093  15.243  69.211  1.00  0.00    -0.280 A  
ENDBRANCH   6  13
BRANCH   6  19
HETATM   19  C   UNL     1      -9.325  17.553  66.366  1.00  0.00    -0.265 C  
HETATM   20  C   UNL     1     -11.345  16.836  65.179  1.00  0.00     0.253 C  
HETATM   21  N   UNL     1     -10.384  15.740  65.086  1.00  0.00    -0.485 NA 
HETATM   22  C   UNL     1      -9.146  16.147  65.769  1.00  0.00    -0.108 C  
HETATM   23  C   UNL     1     -10.546  18.065  65.582  1.00  0.00    -0.104 C  
BRANCH  21  24
HETATM   24  C   UNL     1     -10.892  14.447  65.578  1.00  0.00    -0.331 C  
BRANCH  24  25
HETATM   25  C   UNL     1     -10.068  13.222  65.140  1.00  0.00    -0.249 C  
BRANCH  25  26
HETATM   26  C   UNL     1      -9.799  12.273  66.294  1.00  0.00    -0.254 A  
HETATM   27  C   UNL     1     -10.866  11.743  67.031  1.00  0.00    -0.306 A  
HETATM   28  C   UNL     1     -10.593  10.856  68.062  1.00  0.00    -0.239 A  
HETATM   29  C   UNL     1      -9.294  10.489  68.354  1.00  0.00    -0.158 A  
HETATM   30  O   UNL     1      -9.187   9.583  69.375  1.00  0.00    -0.156 OA 
HETATM   31  C   UNL     1      -8.220  10.991  67.653  1.00  0.00    -0.117 A  
HETATM   32  C   UNL     1      -8.477  11.898  66.616  1.00  0.00    -0.143 A  
HETATM   33  C   UNL     1     -10.535   9.438  69.880  1.00  0.00    -0.233 C  
HETATM   34  C   UNL     1     -11.527  10.165  68.971  1.00  0.00    -0.138 C  
ENDBRANCH  25  26
ENDBRANCH  24  25
ENDBRANCH  21  24
ENDBRANCH   6  19
ENDBRANCH   2   6
TORSDOF 7
ENDMDL
MODEL      200
REMARK 921   NORMALIZED FREE ENERGY PREDICTED BY IDOCK:   -3.37 KCAL/MOL
REMARK 922        TOTAL FREE ENERGY PREDICTED BY IDOCK:   -6.53 KCAL/MOL
REMARK 923 INTER-LIGAND FREE ENERGY PREDICTED BY IDOCK:   -6.56 KCAL/MOL
REMARK 924 INTRA-LIGAND FREE ENERGY PREDICTED BY IDOCK:    0.03 KCAL/MOL
REMARK 927      BINDING AFFINITY PREDICTED BY RF-SCORE:    0.00 PKD
ROOT
HETATM    1  N   UNL     1      -8.777  11.277  69.290  1.00  0.00    -0.370 N  
HETATM    2  C   UNL     1      -9.524  11.138  68.148  1.00  0.00    -0.180 C  
HETATM    3  H1  UNL     1      -7.898  11.783  69.191  1.00  0.00     0.000 HD 
HETATM    4  H2  UNL     1      -9.084  10.898  70.187  1.00  0.00     0.000 HD 
HETATM    5  O   UNL     1     -10.581  10.530  68.268  1.00  0.00    -0.181 OA 
ENDROOT
BRANCH   2   6
HETATM    6  C   UNL     1      -8.999  11.837  66.821  1.00  0.00    -0.196 C  
BRANCH   6   7
HETATM    7  C   UNL     1     -10.207  12.670  66.198  1.00  0.00    -0.272 A  
HETATM    8  C   UNL     1     -12.454  13.983  65.042  1.00  0.00    -0.446 A  
HETATM    9  C   UNL     1     -11.404  13.560  64.241  1.00  0.00    -0.402 A  
HETATM   10  C   UNL     1     -12.373  13.813  66.417  1.00  0.00    -0.460 A  
HETATM   11  C   UNL     1     -10.290  12.932  64.812  1.00  0.00    -0.345 A  
HETATM   12  C   UNL     1     -11.262  13.175  66.984  1.00  0.00    -0.325 A  
ENDBRANCH   6   7
BRANCH   6  13
HETATM   13  C   UNL     1      -7.793  12.782  67.182  1.00  0.00    -0.097 A  
HETATM   14  C   UNL     1      -6.490  12.254  67.351  1.00  0.00    -0.157 A  
HETATM   15  C   UNL     1      -5.416  13.055  67.753  1.00  0.00    -0.118 A  
HETATM   16  C   UNL     1      -5.599  14.414  67.970  1.00  0.00    -0.128 A  
HETATM   17  C   UNL     1      -7.935  14.167  67.362  1.00  0.00    -0.201 A  
HETATM   18  C   UNL     1      -6.860  14.974  67.762  1.00  0.00    -0.190 A  
ENDBRANCH   6  13
BRANCH   6  19
HETATM   19  C   UNL     1      -8.512  10.744  65.751  1.00  0.00    -0.174 C  
HETATM   20  C   UNL     1      -9.136   8.392  66.039  1.00  0.00    -0.183 C  
HETATM   21  N   UNL     1      -7.692   8.478  66.241  1.00  0.00    -0.093 NA 
HETATM   22  C   UNL     1      -7.278   9.877  66.050  1.00  0.00    -0.106 C  
HETATM   23  C   UNL     1      -9.541   9.678  65.336  1.00  0.00    -0.361 C  
BRANCH  21  24
HETATM   24  C   UNL     1      -7.228   7.930  67.529  1.00  0.00    -0.088 C  
BRANCH  24  25
HETATM   25  C   UNL     1      -8.165   8.205  68.719  1.00  0.00    -0.125 C  
BRANCH  25  26
HETATM   26  C   UNL     1      -8.643   6.922  69.376  1.00  0.00    -0.133 A  
HETATM   27  C   UNL     1      -7.875   6.319  70.381  1.00  0.00    -0.107 A  
HETATM   28  C   UNL     1      -8.350   5.163  70.984  1.00  0.00    -0.119 A  
HETATM   29  C   UNL     1      -9.564   4.618  70.612  1.00  0.00    -0.191 A  
HETATM   30  O   UNL     1      -9.911   3.498  71.318  1.00  0.00    -0.182 OA 
HETATM   31  C   UNL     1     -10.345   5.182  69.627  1.00  0.00    -0.316 A  
HETATM   32  C   UNL     1      -9.874   6.343  68.999  1.00  0.00    -0.155 A  
HETATM   33  C   UNL     1      -8.759   3.211  72.144  1.00  0.00    -0.082 C  
HETATM   34  C   UNL     1      -7.741   4.351  72.054  1.00  0.00    -0.081 C  
ENDBRANCH  25  26
ENDBRANCH  24  25
ENDBRANCH  21  24
ENDBRANCH   6  19
ENDBRANCH   2   6
TORSDOF 7
ENDMDL
MODEL      201
REMARK 921   NORMALIZED FREE ENERGY PREDICTED BY IDOCK:   -3.36 KCAL/MOL
REMARK 922        TOTAL FREE ENERGY PREDICTED BY IDOCK:   -6.51 KCAL/MOL
REMARK 923 INTER-LIGAND FREE ENERGY PREDICTED BY IDOCK:   -5.70 KCAL/MOL
REMARK 924 INTRA-LIGAND FREE ENERGY PREDICTED BY IDOCK:   -0.81 KCAL/MOL
REMARK 927      BINDING AFFINITY PREDICTED BY RF-SCORE:    0.00 PKD
ROOT
HETATM    1  N   UNL     1      -8.782  11.271  69.293  1.00  0.00    -0.370 N  
HETATM    2  C   UNL     1      -9.529  11.103  68.156  1.00  0.00    -0.180 C  
HETATM    3  H1  UNL     1      -7.912  11.792  69.184  1.00  0.00     0.000 HD 
HETATM    4  H2  UNL     1      -9.078  10.898  70.196  1.00  0.00     0.000 HD 
HETATM    5  O   UNL     1     -10.575  10.477  68.288  1.00  0.00    -0.181 OA 
ENDROOT
BRANCH   2   6
HETATM    6  C   UNL     1      -9.022  11.794  66.818  1.00  0.00    -0.196 C  
BRANCH   6   7
HETATM    7  C   UNL     1     -10.250  12.589  66.184  1.00  0.00    -0.269 A  
HETATM    8  C   UNL     1     -12.528  13.832  65.011  1.00  0.00    -0.449 A  
HETATM    9  C   UNL     1     -11.469  13.421  64.215  1.00  0.00    -0.429 A  
HETATM   10  C   UNL     1     -12.442  13.684  66.388  1.00  0.00    -0.377 A  
HETATM   11  C   UNL     1     -10.339  12.828  64.794  1.00  0.00    -0.345 A  
HETATM   12  C   UNL     1     -11.316  13.081  66.964  1.00  0.00    -0.343 A  
ENDBRANCH   6   7
BRANCH   6  13
HETATM   13  C   UNL     1      -7.839  12.772  67.163  1.00  0.00    -0.097 A  
HETATM   14  C   UNL     1      -6.511  12.290  67.262  1.00  0.00    -0.152 A  
HETATM   15  C   UNL     1      -5.452  13.118  67.648  1.00  0.00    -0.073 A  
HETATM   16  C   UNL     1      -5.677  14.460  67.920  1.00  0.00    -0.118 A  
HETATM   17  C   UNL     1      -8.024  14.144  67.398  1.00  0.00    -0.201 A  
HETATM   18  C   UNL     1      -6.965  14.979  67.782  1.00  0.00    -0.193 A  
ENDBRANCH   6  13
BRANCH   6  19
HETATM   19  C   UNL     1      -8.510  10.697  65.764  1.00  0.00    -0.179 C  
HETATM   20  C   UNL     1      -9.390   8.411  65.857  1.00  0.00    -0.136 C  
HETATM   21  N   UNL     1      -7.982   8.342  66.239  1.00  0.00    -0.097 NA 
HETATM   22  C   UNL     1      -7.414   9.698  66.170  1.00  0.00    -0.098 C  
HETATM   23  C   UNL     1      -9.575   9.757  65.174  1.00  0.00    -0.356 C  
BRANCH  21  24
HETATM   24  C   UNL     1      -7.741   7.703  67.546  1.00  0.00    -0.118 C  
BRANCH  24  25
HETATM   25  C   UNL     1      -6.287   7.791  68.046  1.00  0.00    -0.050 C  
BRANCH  25  26
HETATM   26  C   UNL     1      -6.210   8.223  69.499  1.00  0.00    -0.033 A  
HETATM   27  C   UNL     1      -6.317   7.271  70.522  1.00  0.00    -0.038 A  
HETATM   28  C   UNL     1      -6.214   7.689  71.841  1.00  0.00    -0.039 A  
HETATM   29  C   UNL     1      -5.998   9.019  72.146  1.00  0.00    -0.056 A  
HETATM   30  O   UNL     1      -5.888   9.272  73.487  1.00  0.00    -0.281 OA 
HETATM   31  C   UNL     1      -5.889   9.983  71.168  1.00  0.00    -0.045 A  
HETATM   32  C   UNL     1      -6.004   9.580  69.831  1.00  0.00    -0.036 A  
HETATM   33  C   UNL     1      -6.183   8.008  74.125  1.00  0.00    -0.103 C  
HETATM   34  C   UNL     1      -6.288   6.895  73.081  1.00  0.00    -0.062 C  
ENDBRANCH  25  26
ENDBRANCH  24  25
ENDBRANCH  21  24
ENDBRANCH   6  19
ENDBRANCH   2   6
TORSDOF 7
ENDMDL
MODEL      202
REMARK 921   NORMALIZED FREE ENERGY PREDICTED BY IDOCK:   -3.34 KCAL/MOL
REMARK 922        TOTAL FREE ENERGY PREDICTED BY IDOCK:   -6.49 KCAL/MOL
REMARK 923 INTER-LIGAND FREE ENERGY PREDICTED BY IDOCK:   -6.25 KCAL/MOL
REMARK 924 INTRA-LIGAND FREE ENERGY PREDICTED BY IDOCK:   -0.24 KCAL/MOL
REMARK 927      BINDING AFFINITY PREDICTED BY RF-SCORE:    0.00 PKD
ROOT
HETATM    1  N   UNL     1      -9.712  11.390  68.365  1.00  0.00    -0.198 N  
HETATM    2  C   UNL     1      -9.411  12.357  67.440  1.00  0.00    -0.186 C  
HETATM    3  H1  UNL     1     -10.186  11.710  69.209  1.00  0.00     0.000 HD 
HETATM    4  H2  UNL     1      -9.477  10.408  68.216  1.00  0.00     0.000 HD 
HETATM    5  O   UNL     1      -8.842  11.973  66.426  1.00  0.00    -0.192 OA 
ENDROOT
BRANCH   2   6
HETATM    6  C   UNL     1      -9.894  13.844  67.728  1.00  0.00    -0.237 C  
BRANCH   6   7
HETATM    7  C   UNL     1     -10.598  14.392  66.408  1.00  0.00    -0.297 A  
HETATM    8  C   UNL     1     -12.002  15.447  64.165  1.00  0.00    -0.111 A  
HETATM    9  C   UNL     1     -12.343  14.206  64.681  1.00  0.00    -0.432 A  
HETATM   10  C   UNL     1     -10.934  16.142  64.714  1.00  0.00    -0.330 A  
HETATM   11  C   UNL     1     -11.640  13.677  65.772  1.00  0.00    -0.349 A  
HETATM   12  C   UNL     1     -10.239  15.617  65.811  1.00  0.00    -0.391 A  
ENDBRANCH   6   7
BRANCH   6  13
HETATM   13  C   UNL     1     -10.903  13.830  68.937  1.00  0.00    -0.268 A  
HETATM   14  C   UNL     1     -11.496  12.617  69.366  1.00  0.00    -0.330 A  
HETATM   15  C   UNL     1     -12.457  12.585  70.382  1.00  0.00    -0.215 A  
HETATM   16  C   UNL     1     -12.837  13.756  71.023  1.00  0.00    -0.376 A  
HETATM   17  C   UNL     1     -11.273  14.989  69.637  1.00  0.00    -0.296 A  
HETATM   18  C   UNL     1     -12.234  14.961  70.658  1.00  0.00    -0.379 A  
ENDBRANCH   6  13
BRANCH   6  19
HETATM   19  C   UNL     1      -8.651  14.792  68.089  1.00  0.00    -0.159 C  
HETATM   20  C   UNL     1      -6.363  14.004  67.702  1.00  0.00    -0.118 C  
HETATM   21  N   UNL     1      -6.541  14.102  69.148  1.00  0.00    -0.109 NA 
HETATM   22  C   UNL     1      -7.900  14.598  69.417  1.00  0.00    -0.028 C  
HETATM   23  C   UNL     1      -7.487  14.817  67.082  1.00  0.00    -0.069 C  
BRANCH  21  24
HETATM   24  C   UNL     1      -6.248  12.856  69.880  1.00  0.00    -0.086 C  
BRANCH  24  25
HETATM   25  C   UNL     1      -5.564  11.762  69.038  1.00  0.00    -0.051 C  
BRANCH  25  26
HETATM   26  C   UNL     1      -6.299  10.436  69.122  1.00  0.00    -0.046 A  
HETATM   27  C   UNL     1      -7.160  10.177  70.197  1.00  0.00    -0.162 A  
HETATM   28  C   UNL     1      -7.840   8.968  70.234  1.00  0.00    -0.111 A  
HETATM   29  C   UNL     1      -7.685   8.038  69.224  1.00  0.00    -0.102 A  
HETATM   30  O   UNL     1      -8.445   6.911  69.385  1.00  0.00    -0.131 OA 
HETATM   31  C   UNL     1      -6.847   8.257  68.154  1.00  0.00    -0.069 A  
HETATM   32  C   UNL     1      -6.141   9.467  68.108  1.00  0.00    -0.055 A  
HETATM   33  C   UNL     1      -9.062   7.064  70.684  1.00  0.00    -0.158 C  
HETATM   34  C   UNL     1      -8.793   8.464  71.240  1.00  0.00    -0.210 C  
ENDBRANCH  25  26
ENDBRANCH  24  25
ENDBRANCH  21  24
ENDBRANCH   6  19
ENDBRANCH   2   6
TORSDOF 7
ENDMDL
MODEL      203
REMARK 921   NORMALIZED FREE ENERGY PREDICTED BY IDOCK:   -3.30 KCAL/MOL
REMARK 922        TOTAL FREE ENERGY PREDICTED BY IDOCK:   -6.42 KCAL/MOL
REMARK 923 INTER-LIGAND FREE ENERGY PREDICTED BY IDOCK:   -6.51 KCAL/MOL
REMARK 924 INTRA-LIGAND FREE ENERGY PREDICTED BY IDOCK:    0.08 KCAL/MOL
REMARK 927      BINDING AFFINITY PREDICTED BY RF-SCORE:    0.00 PKD
ROOT
HETATM    1  N   UNL     1     -11.082  11.200  69.685  1.00  0.00    -0.360 N  
HETATM    2  C   UNL     1     -11.105  11.558  68.361  1.00  0.00    -0.235 C  
HETATM    3  H1  UNL     1     -10.593  11.838  70.312  1.00  0.00     0.000 HD 
HETATM    4  H2  UNL     1     -11.528  10.346  70.022  1.00  0.00     0.000 HD 
HETATM    5  O   UNL     1     -11.692  10.792  67.607  1.00  0.00    -0.538 OA 
ENDROOT
BRANCH   2   6
HETATM    6  C   UNL     1     -10.453  12.948  67.950  1.00  0.00    -0.231 C  
BRANCH   6   7
HETATM    7  C   UNL     1     -11.045  13.364  66.531  1.00  0.00    -0.312 A  
HETATM    8  C   UNL     1     -12.261  14.187  64.090  1.00  0.00    -0.423 A  
HETATM    9  C   UNL     1     -12.613  12.979  64.673  1.00  0.00    -0.425 A  
HETATM   10  C   UNL     1     -11.270  14.962  64.675  1.00  0.00    -0.349 A  
HETATM   11  C   UNL     1     -12.001  12.564  65.863  1.00  0.00    -0.472 A  
HETATM   12  C   UNL     1     -10.667  14.551  65.871  1.00  0.00    -0.308 A  
ENDBRANCH   6   7
BRANCH   6  13
HETATM   13  C   UNL     1     -10.810  14.024  69.043  1.00  0.00    -0.268 A  
HETATM   14  C   UNL     1     -11.954  13.867  69.862  1.00  0.00    -0.405 A  
HETATM   15  C   UNL     1     -12.343  14.845  70.784  1.00  0.00    -0.392 A  
HETATM   16  C   UNL     1     -11.586  15.997  70.940  1.00  0.00    -0.453 A  
HETATM   17  C   UNL     1     -10.040  15.178  69.260  1.00  0.00    -0.246 A  
HETATM   18  C   UNL     1     -10.424  16.160  70.185  1.00  0.00    -0.142 A  
ENDBRANCH   6  13
BRANCH   6  19
HETATM   19  C   UNL     1      -8.857  12.822  67.834  1.00  0.00    -0.186 C  
HETATM   20  C   UNL     1      -7.830  10.628  67.465  1.00  0.00    -0.106 C  
HETATM   21  N   UNL     1      -7.452  11.055  68.809  1.00  0.00    -0.107 NA 
HETATM   22  C   UNL     1      -8.033  12.384  69.057  1.00  0.00     0.270 C  
HETATM   23  C   UNL     1      -8.317  11.877  66.747  1.00  0.00    -0.153 C  
BRANCH  21  24
HETATM   24  C   UNL     1      -7.797  10.090  69.869  1.00  0.00    -0.174 C  
BRANCH  24  25
HETATM   25  C   UNL     1      -6.620   9.230  70.365  1.00  0.00    -0.068 C  
BRANCH  25  26
HETATM   26  C   UNL     1      -6.620   7.848  69.735  1.00  0.00    -0.034 A  
HETATM   27  C   UNL     1      -7.406   6.826  70.284  1.00  0.00    -0.085 A  
HETATM   28  C   UNL     1      -7.409   5.581  69.671  1.00  0.00    -0.066 A  
HETATM   29  C   UNL     1      -6.660   5.351  68.533  1.00  0.00    -0.045 A  
HETATM   30  O   UNL     1      -6.791   4.085  68.028  1.00  0.00    -0.046 OA 
HETATM   31  C   UNL     1      -5.874   6.331  67.967  1.00  0.00    -0.013 A  
HETATM   32  C   UNL     1      -5.850   7.590  68.581  1.00  0.00    -0.024 A  
HETATM   33  C   UNL     1      -7.605   3.384  68.996  1.00  0.00    -0.052 C  
HETATM   34  C   UNL     1      -8.144   4.359  70.045  1.00  0.00    -0.060 C  
ENDBRANCH  25  26
ENDBRANCH  24  25
ENDBRANCH  21  24
ENDBRANCH   6  19
ENDBRANCH   2   6
TORSDOF 7
ENDMDL
MODEL      204
REMARK 921   NORMALIZED FREE ENERGY PREDICTED BY IDOCK:   -3.29 KCAL/MOL
REMARK 922        TOTAL FREE ENERGY PREDICTED BY IDOCK:   -6.41 KCAL/MOL
REMARK 923 INTER-LIGAND FREE ENERGY PREDICTED BY IDOCK:   -5.89 KCAL/MOL
REMARK 924 INTRA-LIGAND FREE ENERGY PREDICTED BY IDOCK:   -0.52 KCAL/MOL
REMARK 927      BINDING AFFINITY PREDICTED BY RF-SCORE:    0.00 PKD
ROOT
HETATM    1  N   UNL     1      -7.796   6.750  73.806  1.00  0.00    -0.097 N  
HETATM    2  C   UNL     1      -8.398   7.795  73.153  1.00  0.00    -0.157 C  
HETATM    3  H1  UNL     1      -7.846   5.844  73.341  1.00  0.00     0.000 HD 
HETATM    4  H2  UNL     1      -7.326   6.871  74.703  1.00  0.00     0.000 HD 
HETATM    5  O   UNL     1      -8.338   8.884  73.712  1.00  0.00    -0.243 OA 
ENDROOT
BRANCH   2   6
HETATM    6  C   UNL     1      -9.031   7.519  71.721  1.00  0.00    -0.140 C  
BRANCH   6   7
HETATM    7  C   UNL     1     -10.411   8.311  71.637  1.00  0.00    -0.289 A  
HETATM    8  C   UNL     1     -12.819   9.833  71.647  1.00  0.00    -0.519 A  
HETATM    9  C   UNL     1     -12.699   8.709  72.452  1.00  0.00    -0.423 A  
HETATM   10  C   UNL     1     -11.778  10.173  70.795  1.00  0.00    -0.446 A  
HETATM   11  C   UNL     1     -11.523   7.949  72.432  1.00  0.00    -0.433 A  
HETATM   12  C   UNL     1     -10.598   9.418  70.785  1.00  0.00    -0.371 A  
ENDBRANCH   6   7
BRANCH   6  13
HETATM   13  C   UNL     1      -8.029   8.019  70.614  1.00  0.00    -0.096 A  
HETATM   14  C   UNL     1      -6.637   8.063  70.869  1.00  0.00    -0.037 A  
HETATM   15  C   UNL     1      -5.732   8.580  69.936  1.00  0.00    -0.028 A  
HETATM   16  C   UNL     1      -6.181   9.041  68.707  1.00  0.00    -0.045 A  
HETATM   17  C   UNL     1      -8.446   8.448  69.344  1.00  0.00    -0.125 A  
HETATM   18  C   UNL     1      -7.542   8.964  68.404  1.00  0.00    -0.091 A  
ENDBRANCH   6  13
BRANCH   6  19
HETATM   19  C   UNL     1      -9.313   5.953  71.510  1.00  0.00    -0.160 C  
HETATM   20  C   UNL     1      -8.648   4.865  69.418  1.00  0.00    -0.087 C  
HETATM   21  N   UNL     1     -10.109   4.872  69.450  1.00  0.00    -0.219 NA 
HETATM   22  C   UNL     1     -10.543   5.498  70.708  1.00  0.00    -0.249 C  
HETATM   23  C   UNL     1      -8.194   5.134  70.843  1.00  0.00    -0.110 C  
BRANCH  21  24
HETATM   24  C   UNL     1     -10.736   5.497  68.271  1.00  0.00    -0.081 C  
BRANCH  24  25
HETATM   25  C   UNL     1      -9.761   6.247  67.345  1.00  0.00    -0.137 C  
BRANCH  25  26
HETATM   26  C   UNL     1      -9.419   5.442  66.105  1.00  0.00    -0.171 A  
HETATM   27  C   UNL     1     -10.381   4.609  65.520  1.00  0.00    -0.225 A  
HETATM   28  C   UNL     1     -10.050   3.906  64.370  1.00  0.00    -0.221 A  
HETATM   29  C   UNL     1      -8.797   4.031  63.802  1.00  0.00    -0.118 A  
HETATM   30  O   UNL     1      -8.631   3.301  62.655  1.00  0.00    -0.077 OA 
HETATM   31  C   UNL     1      -7.825   4.838  64.350  1.00  0.00    -0.085 A  
HETATM   32  C   UNL     1      -8.138   5.545  65.518  1.00  0.00    -0.120 A  
HETATM   33  C   UNL     1      -9.849   2.530  62.530  1.00  0.00    -0.088 C  
HETATM   34  C   UNL     1     -10.875   2.980  63.572  1.00  0.00    -0.204 C  
ENDBRANCH  25  26
ENDBRANCH  24  25
ENDBRANCH  21  24
ENDBRANCH   6  19
ENDBRANCH   2   6
TORSDOF 7
ENDMDL
MODEL      205
REMARK 921   NORMALIZED FREE ENERGY PREDICTED BY IDOCK:   -3.28 KCAL/MOL
REMARK 922        TOTAL FREE ENERGY PREDICTED BY IDOCK:   -6.40 KCAL/MOL
REMARK 923 INTER-LIGAND FREE ENERGY PREDICTED BY IDOCK:   -7.23 KCAL/MOL
REMARK 924 INTRA-LIGAND FREE ENERGY PREDICTED BY IDOCK:    0.83 KCAL/MOL
REMARK 927      BINDING AFFINITY PREDICTED BY RF-SCORE:    0.00 PKD
ROOT
HETATM    1  N   UNL     1      -8.432  11.220  66.902  1.00  0.00    -0.147 N  
HETATM    2  C   UNL     1      -9.166  11.367  68.050  1.00  0.00    -0.171 C  
HETATM    3  H1  UNL     1      -8.945  11.318  66.026  1.00  0.00     0.000 HD 
HETATM    4  H2  UNL     1      -7.430  11.026  66.921  1.00  0.00     0.000 HD 
HETATM    5  O   UNL     1      -8.548  11.249  69.102  1.00  0.00    -0.039 OA 
ENDROOT
BRANCH   2   6
HETATM    6  C   UNL     1     -10.702  11.751  67.913  1.00  0.00    -0.241 C  
BRANCH   6   7
HETATM    7  C   UNL     1     -10.942  13.102  68.723  1.00  0.00    -0.298 A  
HETATM    8  C   UNL     1     -11.411  15.606  69.997  1.00  0.00    -0.352 A  
HETATM    9  C   UNL     1     -10.165  15.317  69.462  1.00  0.00    -0.265 A  
HETATM   10  C   UNL     1     -12.408  14.641  69.958  1.00  0.00    -0.365 A  
HETATM   11  C   UNL     1      -9.927  14.078  68.853  1.00  0.00    -0.103 A  
HETATM   12  C   UNL     1     -12.172  13.407  69.339  1.00  0.00    -0.246 A  
ENDBRANCH   6   7
BRANCH   6  13
HETATM   13  C   UNL     1     -11.048  11.943  66.389  1.00  0.00    -0.359 A  
HETATM   14  C   UNL     1     -10.467  11.103  65.407  1.00  0.00    -0.321 A  
HETATM   15  C   UNL     1     -10.690  11.301  64.041  1.00  0.00    -0.444 A  
HETATM   16  C   UNL     1     -11.522  12.325  63.609  1.00  0.00    -0.572 A  
HETATM   17  C   UNL     1     -11.921  12.938  65.922  1.00  0.00    -0.504 A  
HETATM   18  C   UNL     1     -12.150  13.139  64.553  1.00  0.00    -0.462 A  
ENDBRANCH   6  13
BRANCH   6  19
HETATM   19  C   UNL     1     -11.639  10.601  68.526  1.00  0.00    -0.279 C  
HETATM   20  C   UNL     1     -11.554  10.107  70.925  1.00  0.00    -0.372 C  
HETATM   21  N   UNL     1     -11.002   8.946  70.231  1.00  0.00    -0.241 NA 
HETATM   22  C   UNL     1     -11.061   9.199  68.782  1.00  0.00     0.143 C  
HETATM   23  C   UNL     1     -12.311  10.905  69.876  1.00  0.00    -0.354 C  
BRANCH  21  24
HETATM   24  C   UNL     1      -9.650   8.562  70.675  1.00  0.00    -0.173 C  
BRANCH  24  25
HETATM   25  C   UNL     1      -9.469   8.495  72.203  1.00  0.00    -0.375 C  
BRANCH  25  26
HETATM   26  C   UNL     1      -8.328   7.578  72.602  1.00  0.00    -0.146 A  
HETATM   27  C   UNL     1      -8.179   6.330  71.982  1.00  0.00    -0.110 A  
HETATM   28  C   UNL     1      -7.110   5.524  72.346  1.00  0.00    -0.084 A  
HETATM   29  C   UNL     1      -6.198   5.944  73.294  1.00  0.00    -0.058 A  
HETATM   30  O   UNL     1      -5.183   5.054  73.523  1.00  0.00    -0.012 OA 
HETATM   31  C   UNL     1      -6.313   7.162  73.926  1.00  0.00    -0.065 A  
HETATM   32  C   UNL     1      -7.394   7.984  73.580  1.00  0.00    -0.185 A  
HETATM   33  C   UNL     1      -5.532   3.888  72.741  1.00  0.00     0.000 C  
HETATM   34  C   UNL     1      -6.736   4.188  71.845  1.00  0.00    -0.026 C  
ENDBRANCH  25  26
ENDBRANCH  24  25
ENDBRANCH  21  24
ENDBRANCH   6  19
ENDBRANCH   2   6
TORSDOF 7
ENDMDL
MODEL      206
REMARK 921   NORMALIZED FREE ENERGY PREDICTED BY IDOCK:   -3.26 KCAL/MOL
REMARK 922        TOTAL FREE ENERGY PREDICTED BY IDOCK:   -6.38 KCAL/MOL
REMARK 923 INTER-LIGAND FREE ENERGY PREDICTED BY IDOCK:   -5.51 KCAL/MOL
REMARK 924 INTRA-LIGAND FREE ENERGY PREDICTED BY IDOCK:   -0.87 KCAL/MOL
REMARK 927      BINDING AFFINITY PREDICTED BY RF-SCORE:    0.00 PKD
ROOT
HETATM    1  N   UNL     1      -9.599   1.858  69.386  1.00  0.00    -0.044 N  
HETATM    2  C   UNL     1      -8.571   2.719  69.676  1.00  0.00    -0.067 C  
HETATM    3  H1  UNL     1     -10.387   2.258  68.878  1.00  0.00     0.000 HD 
HETATM    4  H2  UNL     1      -9.575   0.876  69.661  1.00  0.00     0.000 HD 
HETATM    5  O   UNL     1      -7.623   2.238  70.286  1.00  0.00    -0.042 OA 
ENDROOT
BRANCH   2   6
HETATM    6  C   UNL     1      -8.666   4.209  69.132  1.00  0.00    -0.124 C  
BRANCH   6   7
HETATM    7  C   UNL     1      -9.071   4.141  67.592  1.00  0.00    -0.164 A  
HETATM    8  C   UNL     1      -9.719   4.205  64.819  1.00  0.00    -0.187 A  
HETATM    9  C   UNL     1     -10.592   4.743  65.753  1.00  0.00    -0.262 A  
HETATM   10  C   UNL     1      -8.557   3.584  65.253  1.00  0.00    -0.112 A  
HETATM   11  C   UNL     1     -10.283   4.694  67.119  1.00  0.00    -0.147 A  
HETATM   12  C   UNL     1      -8.244   3.545  66.618  1.00  0.00    -0.099 A  
ENDBRANCH   6   7
BRANCH   6  13
HETATM   13  C   UNL     1      -9.751   4.990  69.963  1.00  0.00    -0.278 A  
HETATM   14  C   UNL     1      -9.998   4.658  71.317  1.00  0.00    -0.268 A  
HETATM   15  C   UNL     1     -11.012   5.277  72.056  1.00  0.00    -0.196 A  
HETATM   16  C   UNL     1     -11.793   6.267  71.478  1.00  0.00    -0.291 A  
HETATM   17  C   UNL     1     -10.526   6.029  69.423  1.00  0.00    -0.331 A  
HETATM   18  C   UNL     1     -11.542   6.654  70.161  1.00  0.00    -0.446 A  
ENDBRANCH   6  13
BRANCH   6  19
HETATM   19  C   UNL     1      -7.255   4.961  69.268  1.00  0.00    -0.056 C  
HETATM   20  C   UNL     1      -7.172   7.410  69.271  1.00  0.00    -0.080 C  
HETATM   21  N   UNL     1      -6.535   6.964  68.035  1.00  0.00    -0.048 NA 
HETATM   22  C   UNL     1      -6.545   5.492  68.011  1.00  0.00    -0.049 C  
HETATM   23  C   UNL     1      -7.216   6.196  70.185  1.00  0.00    -0.076 C  
BRANCH  21  24
HETATM   24  C   UNL     1      -7.118   7.544  66.811  1.00  0.00    -0.083 C  
BRANCH  24  25
HETATM   25  C   UNL     1      -8.639   7.777  66.871  1.00  0.00    -0.130 C  
BRANCH  25  26
HETATM   26  C   UNL     1      -8.997   9.242  66.698  1.00  0.00    -0.165 A  
HETATM   27  C   UNL     1      -8.186  10.236  67.262  1.00  0.00    -0.121 A  
HETATM   28  C   UNL     1      -8.522  11.567  67.064  1.00  0.00    -0.164 A  
HETATM   29  C   UNL     1      -9.630  11.914  66.314  1.00  0.00    -0.229 A  
HETATM   30  O   UNL     1      -9.813  13.264  66.182  1.00  0.00    -0.283 OA 
HETATM   31  C   UNL     1     -10.451  10.965  65.746  1.00  0.00    -0.275 A  
HETATM   32  C   UNL     1     -10.134   9.615  65.947  1.00  0.00    -0.304 A  
HETATM   33  C   UNL     1      -8.800  13.857  67.028  1.00  0.00    -0.218 C  
HETATM   34  C   UNL     1      -7.839  12.783  67.542  1.00  0.00    -0.171 C  
ENDBRANCH  25  26
ENDBRANCH  24  25
ENDBRANCH  21  24
ENDBRANCH   6  19
ENDBRANCH   2   6
TORSDOF 7
ENDMDL
MODEL      207
REMARK 921   NORMALIZED FREE ENERGY PREDICTED BY IDOCK:   -3.24 KCAL/MOL
REMARK 922        TOTAL FREE ENERGY PREDICTED BY IDOCK:   -6.35 KCAL/MOL
REMARK 923 INTER-LIGAND FREE ENERGY PREDICTED BY IDOCK:   -5.81 KCAL/MOL
REMARK 924 INTRA-LIGAND FREE ENERGY PREDICTED BY IDOCK:   -0.54 KCAL/MOL
REMARK 927      BINDING AFFINITY PREDICTED BY RF-SCORE:    0.00 PKD
ROOT
HETATM    1  N   UNL     1      -8.700   5.973  66.125  1.00  0.00    -0.141 N  
HETATM    2  C   UNL     1      -9.311   6.446  67.258  1.00  0.00    -0.119 C  
HETATM    3  H1  UNL     1      -7.710   5.747  66.212  1.00  0.00     0.000 HD 
HETATM    4  H2  UNL     1      -9.206   5.854  65.247  1.00  0.00     0.000 HD 
HETATM    5  O   UNL     1     -10.502   6.717  67.153  1.00  0.00    -0.221 OA 
ENDROOT
BRANCH   2   6
HETATM    6  C   UNL     1      -8.456   6.516  68.596  1.00  0.00    -0.121 C  
BRANCH   6   7
HETATM    7  C   UNL     1      -9.110   7.624  69.535  1.00  0.00    -0.146 A  
HETATM    8  C   UNL     1     -10.458   9.519  71.181  1.00  0.00    -0.358 A  
HETATM    9  C   UNL     1     -10.391   9.708  69.809  1.00  0.00    -0.266 A  
HETATM   10  C   UNL     1      -9.813   8.430  71.750  1.00  0.00    -0.313 A  
HETATM   11  C   UNL     1      -9.711   8.788  69.001  1.00  0.00    -0.172 A  
HETATM   12  C   UNL     1      -9.142   7.504  70.939  1.00  0.00    -0.153 A  
ENDBRANCH   6   7
BRANCH   6  13
HETATM   13  C   UNL     1      -8.480   5.105  69.293  1.00  0.00    -0.093 A  
HETATM   14  C   UNL     1      -7.292   4.346  69.425  1.00  0.00    -0.051 A  
HETATM   15  C   UNL     1      -7.296   3.055  69.964  1.00  0.00    -0.044 A  
HETATM   16  C   UNL     1      -8.480   2.491  70.418  1.00  0.00    -0.090 A  
HETATM   17  C   UNL     1      -9.652   4.525  69.805  1.00  0.00    -0.270 A  
HETATM   18  C   UNL     1      -9.661   3.233  70.350  1.00  0.00    -0.211 A  
ENDBRANCH   6  13
BRANCH   6  19
HETATM   19  C   UNL     1      -6.936   6.925  68.285  1.00  0.00    -0.080 C  
HETATM   20  C   UNL     1      -6.055   9.060  69.104  1.00  0.00    -0.042 C  
HETATM   21  N   UNL     1      -6.120   9.156  67.648  1.00  0.00    -0.053 NA 
HETATM   22  C   UNL     1      -6.623   7.878  67.119  1.00  0.00    -0.060 C  
HETATM   23  C   UNL     1      -6.149   7.579  69.433  1.00  0.00    -0.031 C  
BRANCH  21  24
HETATM   24  C   UNL     1      -6.895  10.308  67.151  1.00  0.00    -0.082 C  
BRANCH  24  25
HETATM   25  C   UNL     1      -7.798  10.977  68.204  1.00  0.00    -0.116 C  
BRANCH  25  26
HETATM   26  C   UNL     1      -8.868  11.845  67.567  1.00  0.00    -0.169 A  
HETATM   27  C   UNL     1      -9.231  11.646  66.228  1.00  0.00    -0.225 A  
HETATM   28  C   UNL     1     -10.232  12.435  65.680  1.00  0.00    -0.285 A  
HETATM   29  C   UNL     1     -10.872  13.394  66.441  1.00  0.00    -0.289 A  
HETATM   30  O   UNL     1     -11.858  14.069  65.771  1.00  0.00    -0.353 OA 
HETATM   31  C   UNL     1     -10.542  13.620  67.759  1.00  0.00    -0.247 A  
HETATM   32  C   UNL     1      -9.524  12.841  68.324  1.00  0.00    -0.203 A  
HETATM   33  C   UNL     1     -11.770  13.591  64.408  1.00  0.00    -0.407 C  
HETATM   34  C   UNL     1     -10.791  12.419  64.316  1.00  0.00    -0.395 C  
ENDBRANCH  25  26
ENDBRANCH  24  25
ENDBRANCH  21  24
ENDBRANCH   6  19
ENDBRANCH   2   6
TORSDOF 7
ENDMDL
MODEL      208
REMARK 921   NORMALIZED FREE ENERGY PREDICTED BY IDOCK:   -3.22 KCAL/MOL
REMARK 922        TOTAL FREE ENERGY PREDICTED BY IDOCK:   -6.32 KCAL/MOL
REMARK 923 INTER-LIGAND FREE ENERGY PREDICTED BY IDOCK:   -5.25 KCAL/MOL
REMARK 924 INTRA-LIGAND FREE ENERGY PREDICTED BY IDOCK:   -1.07 KCAL/MOL
REMARK 927      BINDING AFFINITY PREDICTED BY RF-SCORE:    0.00 PKD
ROOT
HETATM    1  N   UNL     1      -9.908   9.620  70.187  1.00  0.00    -0.249 N  
HETATM    2  C   UNL     1      -9.481  10.357  69.112  1.00  0.00    -0.208 C  
HETATM    3  H1  UNL     1      -9.756   8.613  70.127  1.00  0.00     0.000 HD 
HETATM    4  H2  UNL     1     -10.350  10.052  70.998  1.00  0.00     0.000 HD 
HETATM    5  O   UNL     1      -9.663  11.567  69.184  1.00  0.00    -0.033 OA 
ENDROOT
BRANCH   2   6
HETATM    6  C   UNL     1      -8.729   9.599  67.935  1.00  0.00    -0.119 C  
BRANCH   6   7
HETATM    7  C   UNL     1      -9.271   8.101  67.895  1.00  0.00    -0.138 A  
HETATM    8  C   UNL     1     -10.172   5.411  67.635  1.00  0.00    -0.236 A  
HETATM    9  C   UNL     1     -10.968   6.460  67.200  1.00  0.00    -0.476 A  
HETATM   10  C   UNL     1      -8.960   5.688  68.251  1.00  0.00    -0.114 A  
HETATM   11  C   UNL     1     -10.535   7.784  67.346  1.00  0.00    -0.362 A  
HETATM   12  C   UNL     1      -8.522   7.012  68.386  1.00  0.00    -0.123 A  
ENDBRANCH   6   7
BRANCH   6  13
HETATM   13  C   UNL     1      -9.026  10.339  66.577  1.00  0.00    -0.161 A  
HETATM   14  C   UNL     1      -8.370   9.948  65.385  1.00  0.00    -0.150 A  
HETATM   15  C   UNL     1      -8.550  10.639  64.182  1.00  0.00    -0.100 A  
HETATM   16  C   UNL     1      -9.414  11.723  64.122  1.00  0.00    -0.001 A  
HETATM   17  C   UNL     1      -9.929  11.409  66.471  1.00  0.00    -0.243 A  
HETATM   18  C   UNL     1     -10.116  12.102  65.267  1.00  0.00    -0.291 A  
ENDBRANCH   6  13
BRANCH   6  19
HETATM   19  C   UNL     1      -7.144   9.575  68.187  1.00  0.00    -0.079 C  
HETATM   20  C   UNL     1      -6.150  11.078  69.848  1.00  0.00    -0.115 C  
HETATM   21  N   UNL     1      -5.686  11.524  68.536  1.00  0.00    -0.042 NA 
HETATM   22  C   UNL     1      -6.246  10.626  67.514  1.00  0.00    -0.056 C  
HETATM   23  C   UNL     1      -6.677   9.666  69.650  1.00  0.00    -0.054 C  
BRANCH  21  24
HETATM   24  C   UNL     1      -5.967  12.942  68.246  1.00  0.00    -0.079 C  
BRANCH  24  25
HETATM   25  C   UNL     1      -7.229  13.501  68.930  1.00  0.00    -0.070 C  
BRANCH  25  26
HETATM   26  C   UNL     1      -7.661  14.827  68.332  1.00  0.00    -0.122 A  
HETATM   27  C   UNL     1      -8.671  14.864  67.360  1.00  0.00    -0.208 A  
HETATM   28  C   UNL     1      -9.066  16.093  66.851  1.00  0.00    -0.241 A  
HETATM   29  C   UNL     1      -8.486  17.264  67.300  1.00  0.00    -0.198 A  
HETATM   30  O   UNL     1      -9.003  18.396  66.727  1.00  0.00    -0.271 OA 
HETATM   31  C   UNL     1      -7.490  17.267  68.251  1.00  0.00    -0.224 A  
HETATM   32  C   UNL     1      -7.069  16.033  68.766  1.00  0.00    -0.146 A  
HETATM   33  C   UNL     1      -9.921  17.912  65.720  1.00  0.00     0.031 C  
HETATM   34  C   UNL     1     -10.094  16.397  65.839  1.00  0.00    -0.370 C  
ENDBRANCH  25  26
ENDBRANCH  24  25
ENDBRANCH  21  24
ENDBRANCH   6  19
ENDBRANCH   2   6
TORSDOF 7
ENDMDL
MODEL      209
REMARK 921   NORMALIZED FREE ENERGY PREDICTED BY IDOCK:   -3.15 KCAL/MOL
REMARK 922        TOTAL FREE ENERGY PREDICTED BY IDOCK:   -6.21 KCAL/MOL
REMARK 923 INTER-LIGAND FREE ENERGY PREDICTED BY IDOCK:   -6.32 KCAL/MOL
REMARK 924 INTRA-LIGAND FREE ENERGY PREDICTED BY IDOCK:    0.11 KCAL/MOL
REMARK 927      BINDING AFFINITY PREDICTED BY RF-SCORE:    0.00 PKD
ROOT
HETATM    1  N   UNL     1     -11.304   6.025  70.431  1.00  0.00    -0.314 N  
HETATM    2  C   UNL     1     -10.119   6.391  69.845  1.00  0.00    -0.171 C  
HETATM    3  H1  UNL     1     -11.492   5.024  70.472  1.00  0.00     0.000 HD 
HETATM    4  H2  UNL     1     -11.959   6.714  70.802  1.00  0.00     0.000 HD 
HETATM    5  O   UNL     1      -9.893   7.594  69.795  1.00  0.00    -0.178 OA 
ENDROOT
BRANCH   2   6
HETATM    6  C   UNL     1      -9.130   5.239  69.373  1.00  0.00    -0.135 C  
BRANCH   6   7
HETATM    7  C   UNL     1      -9.364   3.978  70.318  1.00  0.00    -0.234 A  
HETATM    8  C   UNL     1      -9.585   1.727  72.050  1.00  0.00    -0.180 A  
HETATM    9  C   UNL     1      -9.216   1.555  70.724  1.00  0.00    -0.151 A  
HETATM   10  C   UNL     1      -9.900   2.998  72.509  1.00  0.00    -0.219 A  
HETATM   11  C   UNL     1      -9.128   2.659  69.866  1.00  0.00    -0.181 A  
HETATM   12  C   UNL     1      -9.800   4.103  71.653  1.00  0.00    -0.254 A  
ENDBRANCH   6   7
BRANCH   6  13
HETATM   13  C   UNL     1      -9.442   4.881  67.872  1.00  0.00    -0.172 A  
HETATM   14  C   UNL     1     -10.267   5.722  67.087  1.00  0.00    -0.250 A  
HETATM   15  C   UNL     1     -10.629   5.388  65.778  1.00  0.00     0.110 A  
HETATM   16  C   UNL     1     -10.156   4.219  65.198  1.00  0.00    -0.221 A  
HETATM   17  C   UNL     1      -8.942   3.731  67.241  1.00  0.00    -0.158 A  
HETATM   18  C   UNL     1      -9.299   3.393  65.928  1.00  0.00    -0.145 A  
ENDBRANCH   6  13
BRANCH   6  19
HETATM   19  C   UNL     1      -7.601   5.709  69.497  1.00  0.00    -0.072 C  
HETATM   20  C   UNL     1      -7.068   7.877  70.508  1.00  0.00    -0.046 C  
HETATM   21  N   UNL     1      -6.725   7.972  69.092  1.00  0.00    -0.047 NA 
HETATM   22  C   UNL     1      -7.010   6.675  68.457  1.00  0.00    -0.080 C  
HETATM   23  C   UNL     1      -7.194   6.393  70.814  1.00  0.00    -0.074 C  
BRANCH  21  24
HETATM   24  C   UNL     1      -7.373   9.092  68.386  1.00  0.00    -0.078 C  
BRANCH  24  25
HETATM   25  C   UNL     1      -8.261   8.676  67.198  1.00  0.00    -0.107 C  
BRANCH  25  26
HETATM   26  C   UNL     1      -9.295   9.735  66.861  1.00  0.00    -0.184 A  
HETATM   27  C   UNL     1      -9.646   9.975  65.526  1.00  0.00    -0.328 A  
HETATM   28  C   UNL     1     -10.616  10.929  65.249  1.00  0.00    -0.259 A  
HETATM   29  C   UNL     1     -11.235  11.625  66.270  1.00  0.00    -0.271 A  
HETATM   30  O   UNL     1     -12.190  12.508  65.841  1.00  0.00    -0.593 OA 
HETATM   31  C   UNL     1     -10.914  11.418  67.593  1.00  0.00    -0.303 A  
HETATM   32  C   UNL     1      -9.928  10.467  67.890  1.00  0.00    -0.193 A  
HETATM   33  C   UNL     1     -12.100  12.476  64.398  1.00  0.00    -0.424 C  
HETATM   34  C   UNL     1     -11.158  11.358  63.947  1.00  0.00    -0.410 C  
ENDBRANCH  25  26
ENDBRANCH  24  25
ENDBRANCH  21  24
ENDBRANCH   6  19
ENDBRANCH   2   6
TORSDOF 7
ENDMDL
MODEL      210
REMARK 921   NORMALIZED FREE ENERGY PREDICTED BY IDOCK:   -3.09 KCAL/MOL
REMARK 922        TOTAL FREE ENERGY PREDICTED BY IDOCK:   -6.13 KCAL/MOL
REMARK 923 INTER-LIGAND FREE ENERGY PREDICTED BY IDOCK:   -5.98 KCAL/MOL
REMARK 924 INTRA-LIGAND FREE ENERGY PREDICTED BY IDOCK:   -0.14 KCAL/MOL
REMARK 927      BINDING AFFINITY PREDICTED BY RF-SCORE:    0.00 PKD
ROOT
HETATM    1  N   UNL     1     -11.046   7.819  70.303  1.00  0.00    -0.298 N  
HETATM    2  C   UNL     1     -10.292   7.703  69.163  1.00  0.00    -0.213 C  
HETATM    3  H1  UNL     1     -10.882   7.114  71.021  1.00  0.00     0.000 HD 
HETATM    4  H2  UNL     1     -11.730   8.566  70.426  1.00  0.00     0.000 HD 
HETATM    5  O   UNL     1     -10.489   8.551  68.300  1.00  0.00    -0.210 OA 
ENDROOT
BRANCH   2   6
HETATM    6  C   UNL     1      -9.196   6.554  69.103  1.00  0.00    -0.135 C  
BRANCH   6   7
HETATM    7  C   UNL     1      -9.521   5.509  70.261  1.00  0.00    -0.211 A  
HETATM    8  C   UNL     1     -10.292   3.639  72.266  1.00  0.00    -0.141 A  
HETATM    9  C   UNL     1     -10.469   4.999  72.474  1.00  0.00    -0.270 A  
HETATM   10  C   UNL     1      -9.683   3.203  71.098  1.00  0.00    -0.198 A  
HETATM   11  C   UNL     1     -10.071   5.920  71.497  1.00  0.00    -0.238 A  
HETATM   12  C   UNL     1      -9.296   4.126  70.117  1.00  0.00    -0.234 A  
ENDBRANCH   6   7
BRANCH   6  13
HETATM   13  C   UNL     1      -9.256   5.862  67.690  1.00  0.00    -0.104 A  
HETATM   14  C   UNL     1     -10.502   5.590  67.074  1.00  0.00    -0.336 A  
HETATM   15  C   UNL     1     -10.590   4.902  65.859  1.00  0.00    -0.280 A  
HETATM   16  C   UNL     1      -9.438   4.490  65.204  1.00  0.00    -0.166 A  
HETATM   17  C   UNL     1      -8.110   5.474  66.979  1.00  0.00    -0.101 A  
HETATM   18  C   UNL     1      -8.193   4.787  65.760  1.00  0.00    -0.112 A  
ENDBRANCH   6  13
BRANCH   6  19
HETATM   19  C   UNL     1      -7.725   7.152  69.336  1.00  0.00    -0.107 C  
HETATM   20  C   UNL     1      -7.358   8.856  71.059  1.00  0.00    -0.106 C  
HETATM   21  N   UNL     1      -7.149   9.504  69.767  1.00  0.00    -0.066 NA 
HETATM   22  C   UNL     1      -7.338   8.501  68.707  1.00  0.00    -0.090 C  
HETATM   23  C   UNL     1      -7.288   7.360  70.796  1.00  0.00    -0.069 C  
BRANCH  21  24
HETATM   24  C   UNL     1      -7.978  10.704  69.551  1.00  0.00    -0.069 C  
BRANCH  24  25
HETATM   25  C   UNL     1      -8.049  11.183  68.089  1.00  0.00    -0.128 C  
BRANCH  25  26
HETATM   26  C   UNL     1      -8.646  12.574  67.974  1.00  0.00    -0.185 A  
HETATM   27  C   UNL     1      -9.927  12.834  68.477  1.00  0.00    -0.168 A  
HETATM   28  C   UNL     1     -10.436  14.121  68.384  1.00  0.00    -0.254 A  
HETATM   29  C   UNL     1      -9.691  15.136  67.815  1.00  0.00    -0.211 A  
HETATM   30  O   UNL     1     -10.314  16.356  67.824  1.00  0.00    -0.270 OA 
HETATM   31  C   UNL     1      -8.429  14.918  67.308  1.00  0.00    -0.229 A  
HETATM   32  C   UNL     1      -7.905  13.621  67.382  1.00  0.00    -0.162 A  
HETATM   33  C   UNL     1     -11.640  16.088  68.335  1.00  0.00    -0.279 C  
HETATM   34  C   UNL     1     -11.738  14.645  68.836  1.00  0.00    -0.343 C  
ENDBRANCH  25  26
ENDBRANCH  24  25
ENDBRANCH  21  24
ENDBRANCH   6  19
ENDBRANCH   2   6
TORSDOF 7
ENDMDL
MODEL      211
REMARK 921   NORMALIZED FREE ENERGY PREDICTED BY IDOCK:   -3.06 KCAL/MOL
REMARK 922        TOTAL FREE ENERGY PREDICTED BY IDOCK:   -6.09 KCAL/MOL
REMARK 923 INTER-LIGAND FREE ENERGY PREDICTED BY IDOCK:   -5.69 KCAL/MOL
REMARK 924 INTRA-LIGAND FREE ENERGY PREDICTED BY IDOCK:   -0.40 KCAL/MOL
REMARK 927      BINDING AFFINITY PREDICTED BY RF-SCORE:    0.00 PKD
ROOT
HETATM    1  N   UNL     1      -9.311   7.764  66.150  1.00  0.00    -0.350 N  
HETATM    2  C   UNL     1      -8.294   8.389  66.827  1.00  0.00    -0.109 C  
HETATM    3  H1  UNL     1     -10.045   7.353  66.726  1.00  0.00     0.000 HD 
HETATM    4  H2  UNL     1      -9.331   7.714  65.131  1.00  0.00     0.000 HD 
HETATM    5  O   UNL     1      -7.412   8.883  66.135  1.00  0.00    -0.088 OA 
ENDROOT
BRANCH   2   6
HETATM    6  C   UNL     1      -8.397   8.485  68.410  1.00  0.00    -0.124 C  
BRANCH   6   7
HETATM    7  C   UNL     1      -9.474   9.605  68.762  1.00  0.00    -0.148 A  
HETATM    8  C   UNL     1     -11.538  11.494  69.298  1.00  0.00    -0.388 A  
HETATM    9  C   UNL     1     -10.865  11.520  68.086  1.00  0.00    -0.259 A  
HETATM   10  C   UNL     1     -11.158  10.577  70.267  1.00  0.00    -0.359 A  
HETATM   11  C   UNL     1      -9.836  10.605  67.829  1.00  0.00    -0.187 A  
HETATM   12  C   UNL     1     -10.136   9.655  70.005  1.00  0.00    -0.293 A  
ENDBRANCH   6   7
BRANCH   6  13
HETATM   13  C   UNL     1      -8.836   7.086  68.981  1.00  0.00    -0.134 A  
HETATM   14  C   UNL     1      -8.954   5.963  68.125  1.00  0.00    -0.115 A  
HETATM   15  C   UNL     1      -9.421   4.728  68.587  1.00  0.00    -0.208 A  
HETATM   16  C   UNL     1      -9.758   4.564  69.923  1.00  0.00    -0.288 A  
HETATM   17  C   UNL     1      -9.138   6.873  70.335  1.00  0.00    -0.156 A  
HETATM   18  C   UNL     1      -9.605   5.636  70.803  1.00  0.00    -0.213 A  
ENDBRANCH   6  13
BRANCH   6  19
HETATM   19  C   UNL     1      -6.985   8.898  69.052  1.00  0.00    -0.064 C  
HETATM   20  C   UNL     1      -6.663  11.160  69.939  1.00  0.00    -0.097 C  
HETATM   21  N   UNL     1      -5.811  11.040  68.758  1.00  0.00    -0.040 NA 
HETATM   22  C   UNL     1      -5.961   9.681  68.213  1.00  0.00    -0.047 C  
HETATM   23  C   UNL     1      -7.032   9.741  70.339  1.00  0.00    -0.139 C  
BRANCH  21  24
HETATM   24  C   UNL     1      -6.042  12.078  67.737  1.00  0.00    -0.081 C  
BRANCH  24  25
HETATM   25  C   UNL     1      -6.224  13.501  68.297  1.00  0.00    -0.105 C  
BRANCH  25  26
HETATM   26  C   UNL     1      -7.630  14.027  68.068  1.00  0.00    -0.143 A  
HETATM   27  C   UNL     1      -8.397  14.476  69.151  1.00  0.00    -0.001 A  
HETATM   28  C   UNL     1      -9.668  14.978  68.909  1.00  0.00    -0.224 A  
HETATM   29  C   UNL     1     -10.168  15.049  67.623  1.00  0.00    -0.236 A  
HETATM   30  O   UNL     1     -11.420  15.596  67.543  1.00  0.00    -0.256 OA 
HETATM   31  C   UNL     1      -9.443  14.616  66.535  1.00  0.00    -0.319 A  
HETATM   32  C   UNL     1      -8.163  14.093  66.762  1.00  0.00     0.146 A  
HETATM   33  C   UNL     1     -11.828  15.788  68.917  1.00  0.00    -0.341 C  
HETATM   34  C   UNL     1     -10.658  15.509  69.864  1.00  0.00    -0.322 C  
ENDBRANCH  25  26
ENDBRANCH  24  25
ENDBRANCH  21  24
ENDBRANCH   6  19
ENDBRANCH   2   6
TORSDOF 7
ENDMDL
MODEL      212
REMARK 921   NORMALIZED FREE ENERGY PREDICTED BY IDOCK:   -3.00 KCAL/MOL
REMARK 922        TOTAL FREE ENERGY PREDICTED BY IDOCK:   -6.00 KCAL/MOL
REMARK 923 INTER-LIGAND FREE ENERGY PREDICTED BY IDOCK:   -5.34 KCAL/MOL
REMARK 924 INTRA-LIGAND FREE ENERGY PREDICTED BY IDOCK:   -0.66 KCAL/MOL
REMARK 927      BINDING AFFINITY PREDICTED BY RF-SCORE:    0.00 PKD
ROOT
HETATM    1  N   UNL     1      -8.905   7.475  65.295  1.00  0.00    -0.371 N  
HETATM    2  C   UNL     1      -8.086   8.155  66.159  1.00  0.00    -0.109 C  
HETATM    3  H1  UNL     1      -9.122   6.512  65.549  1.00  0.00     0.000 HD 
HETATM    4  H2  UNL     1      -9.277   7.908  64.449  1.00  0.00     0.000 HD 
HETATM    5  O   UNL     1      -7.826   9.314  65.854  1.00  0.00    -0.097 OA 
ENDROOT
BRANCH   2   6
HETATM    6  C   UNL     1      -7.628   7.420  67.492  1.00  0.00    -0.106 C  
BRANCH   6   7
HETATM    7  C   UNL     1      -8.786   7.600  68.571  1.00  0.00    -0.128 A  
HETATM    8  C   UNL     1     -10.720   8.007  70.622  1.00  0.00    -0.235 A  
HETATM    9  C   UNL     1      -9.914   6.879  70.636  1.00  0.00    -0.198 A  
HETATM   10  C   UNL     1     -10.616   8.904  69.569  1.00  0.00    -0.233 A  
HETATM   11  C   UNL     1      -8.976   6.668  69.617  1.00  0.00    -0.142 A  
HETATM   12  C   UNL     1      -9.670   8.698  68.556  1.00  0.00    -0.174 A  
ENDBRANCH   6   7
BRANCH   6  13
HETATM   13  C   UNL     1      -7.385   5.897  67.178  1.00  0.00    -0.077 A  
HETATM   14  C   UNL     1      -6.182   5.470  66.564  1.00  0.00    -0.031 A  
HETATM   15  C   UNL     1      -5.973   4.136  66.198  1.00  0.00    -0.027 A  
HETATM   16  C   UNL     1      -6.943   3.179  66.460  1.00  0.00    -0.054 A  
HETATM   17  C   UNL     1      -8.325   4.896  67.472  1.00  0.00    -0.105 A  
HETATM   18  C   UNL     1      -8.118   3.558  67.110  1.00  0.00    -0.087 A  
ENDBRANCH   6  13
BRANCH   6  19
HETATM   19  C   UNL     1      -6.274   8.064  68.066  1.00  0.00    -0.047 C  
HETATM   20  C   UNL     1      -6.386   9.856  69.733  1.00  0.00    -0.054 C  
HETATM   21  N   UNL     1      -5.856  10.447  68.507  1.00  0.00    -0.041 NA 
HETATM   22  C   UNL     1      -5.751   9.390  67.488  1.00  0.00    -0.041 C  
HETATM   23  C   UNL     1      -6.233   8.352  69.576  1.00  0.00    -0.036 C  
BRANCH  21  24
HETATM   24  C   UNL     1      -6.614  11.615  68.021  1.00  0.00    -0.062 C  
BRANCH  24  25
HETATM   25  C   UNL     1      -8.114  11.598  68.369  1.00  0.00    -0.153 C  
BRANCH  25  26
HETATM   26  C   UNL     1      -8.926  12.472  67.431  1.00  0.00    -0.188 A  
HETATM   27  C   UNL     1     -10.145  12.009  66.917  1.00  0.00    -0.224 A  
HETATM   28  C   UNL     1     -10.880  12.840  66.085  1.00  0.00    -0.303 A  
HETATM   29  C   UNL     1     -10.429  14.108  65.773  1.00  0.00    -0.311 A  
HETATM   30  O   UNL     1     -11.278  14.818  64.968  1.00  0.00    -0.356 OA 
HETATM   31  C   UNL     1      -9.236  14.597  66.257  1.00  0.00    -0.257 A  
HETATM   32  C   UNL     1      -8.474  13.765  67.089  1.00  0.00    -0.189 A  
HETATM   33  C   UNL     1     -12.324  13.882  64.619  1.00  0.00    -0.388 C  
HETATM   34  C   UNL     1     -12.177  12.592  65.428  1.00  0.00    -0.517 C  
ENDBRANCH  25  26
ENDBRANCH  24  25
ENDBRANCH  21  24
ENDBRANCH   6  19
ENDBRANCH   2   6
TORSDOF 7
ENDMDL
MODEL      213
REMARK 921   NORMALIZED FREE ENERGY PREDICTED BY IDOCK:   -2.99 KCAL/MOL
REMARK 922        TOTAL FREE ENERGY PREDICTED BY IDOCK:   -5.99 KCAL/MOL
REMARK 923 INTER-LIGAND FREE ENERGY PREDICTED BY IDOCK:   -7.17 KCAL/MOL
REMARK 924 INTRA-LIGAND FREE ENERGY PREDICTED BY IDOCK:    1.18 KCAL/MOL
REMARK 927      BINDING AFFINITY PREDICTED BY RF-SCORE:    0.00 PKD
ROOT
HETATM    1  N   UNL     1      -7.737  11.277  67.948  1.00  0.00    -0.106 N  
HETATM    2  C   UNL     1      -7.785   9.992  68.426  1.00  0.00    -0.084 C  
HETATM    3  H1  UNL     1      -8.591  11.824  68.050  1.00  0.00     0.000 HD 
HETATM    4  H2  UNL     1      -6.896  11.663  67.518  1.00  0.00     0.000 HD 
HETATM    5  O   UNL     1      -6.758   9.334  68.304  1.00  0.00    -0.059 OA 
ENDROOT
BRANCH   2   6
HETATM    6  C   UNL     1      -9.114   9.512  69.154  1.00  0.00    -0.152 C  
BRANCH   6   7
HETATM    7  C   UNL     1      -9.761   8.353  68.274  1.00  0.00    -0.170 A  
HETATM    8  C   UNL     1     -10.743   6.184  66.709  1.00  0.00    -0.371 A  
HETATM    9  C   UNL     1     -10.050   7.223  66.106  1.00  0.00     0.272 A  
HETATM   10  C   UNL     1     -11.004   6.241  68.071  1.00  0.00    -0.418 A  
HETATM   11  C   UNL     1      -9.584   8.300  66.872  1.00  0.00    -0.269 A  
HETATM   12  C   UNL     1     -10.528   7.314  68.837  1.00  0.00    -0.216 A  
ENDBRANCH   6   7
BRANCH   6  13
HETATM   13  C   UNL     1      -8.748   8.987  70.592  1.00  0.00    -0.251 A  
HETATM   14  C   UNL     1      -9.762   8.750  71.552  1.00  0.00    -0.361 A  
HETATM   15  C   UNL     1      -9.463   8.362  72.862  1.00  0.00    -0.275 A  
HETATM   16  C   UNL     1      -8.144   8.170  73.250  1.00  0.00    -0.246 A  
HETATM   17  C   UNL     1      -7.429   8.737  71.003  1.00  0.00    -0.105 A  
HETATM   18  C   UNL     1      -7.124   8.346  72.314  1.00  0.00    -0.116 A  
ENDBRANCH   6  13
BRANCH   6  19
HETATM   19  C   UNL     1     -10.164  10.719  69.284  1.00  0.00    -0.217 C  
HETATM   20  C   UNL     1     -11.429  11.453  67.317  1.00  0.00    -0.224 C  
HETATM   21  N   UNL     1     -10.515  12.538  67.666  1.00  0.00    -0.215 NA 
HETATM   22  C   UNL     1      -9.755  12.140  68.861  1.00  0.00     0.119 C  
HETATM   23  C   UNL     1     -11.501  10.553  68.540  1.00  0.00    -0.284 C  
BRANCH  21  24
HETATM   24  C   UNL     1      -9.634  12.965  66.563  1.00  0.00    -0.259 C  
BRANCH  24  25
HETATM   25  C   UNL     1     -10.164  14.155  65.741  1.00  0.00    -0.347 C  
BRANCH  25  26
HETATM   26  C   UNL     1     -10.038  15.467  66.493  1.00  0.00    -0.290 A  
HETATM   27  C   UNL     1      -9.113  16.433  66.072  1.00  0.00    -0.317 A  
HETATM   28  C   UNL     1      -9.040  17.635  66.761  1.00  0.00    -0.273 A  
HETATM   29  C   UNL     1      -9.870  17.886  67.836  1.00  0.00    -0.309 A  
HETATM   30  O   UNL     1      -9.701  19.126  68.391  1.00  0.00    -0.338 OA 
HETATM   31  C   UNL     1     -10.789  16.961  68.279  1.00  0.00    -0.357 A  
HETATM   32  C   UNL     1     -10.867  15.736  67.604  1.00  0.00    -0.310 A  
HETATM   33  C   UNL     1      -8.569  19.692  67.692  1.00  0.00    -0.320 C  
HETATM   34  C   UNL     1      -8.166  18.798  66.518  1.00  0.00    -0.303 C  
ENDBRANCH  25  26
ENDBRANCH  24  25
ENDBRANCH  21  24
ENDBRANCH   6  19
ENDBRANCH   2   6
TORSDOF 7
ENDMDL
MODEL      214
REMARK 921   NORMALIZED FREE ENERGY PREDICTED BY IDOCK:   -2.93 KCAL/MOL
REMARK 922        TOTAL FREE ENERGY PREDICTED BY IDOCK:   -5.91 KCAL/MOL
REMARK 923 INTER-LIGAND FREE ENERGY PREDICTED BY IDOCK:   -5.05 KCAL/MOL
REMARK 924 INTRA-LIGAND FREE ENERGY PREDICTED BY IDOCK:   -0.85 KCAL/MOL
REMARK 927      BINDING AFFINITY PREDICTED BY RF-SCORE:    0.00 PKD
ROOT
HETATM    1  N   UNL     1      -8.944   7.323  65.240  1.00  0.00    -0.357 N  
HETATM    2  C   UNL     1      -8.100   7.683  66.259  1.00  0.00    -0.112 C  
HETATM    3  H1  UNL     1      -9.117   6.323  65.135  1.00  0.00     0.000 HD 
HETATM    4  H2  UNL     1      -9.375   8.013  64.625  1.00  0.00     0.000 HD 
HETATM    5  O   UNL     1      -7.893   8.884  66.386  1.00  0.00    -0.100 OA 
ENDROOT
BRANCH   2   6
HETATM    6  C   UNL     1      -7.547   6.539  67.214  1.00  0.00    -0.096 C  
BRANCH   6   7
HETATM    7  C   UNL     1      -8.737   6.087  68.173  1.00  0.00    -0.113 A  
HETATM    8  C   UNL     1     -10.751   5.339  70.043  1.00  0.00    -0.208 A  
HETATM    9  C   UNL     1      -9.721   4.461  69.737  1.00  0.00    -0.291 A  
HETATM   10  C   UNL     1     -10.822   6.559  69.388  1.00  0.00    -0.363 A  
HETATM   11  C   UNL     1      -8.742   4.821  68.802  1.00  0.00    -0.109 A  
HETATM   12  C   UNL     1      -9.836   6.921  68.461  1.00  0.00    -0.144 A  
ENDBRANCH   6   7
BRANCH   6  13
HETATM   13  C   UNL     1      -7.049   5.333  66.332  1.00  0.00    -0.072 A  
HETATM   14  C   UNL     1      -5.758   5.352  65.751  1.00  0.00    -0.014 A  
HETATM   15  C   UNL     1      -5.318   4.335  64.896  1.00  0.00    -0.013 A  
HETATM   16  C   UNL     1      -6.140   3.252  64.618  1.00  0.00    -0.023 A  
HETATM   17  C   UNL     1      -7.836   4.201  66.069  1.00  0.00    -0.094 A  
HETATM   18  C   UNL     1      -7.399   3.179  65.215  1.00  0.00    -0.071 A  
ENDBRANCH   6  13
BRANCH   6  19
HETATM   19  C   UNL     1      -6.330   7.077  68.110  1.00  0.00    -0.039 C  
HETATM   20  C   UNL     1      -6.763   7.960  70.354  1.00  0.00    -0.038 C  
HETATM   21  N   UNL     1      -6.330   9.086  69.529  1.00  0.00    -0.043 NA 
HETATM   22  C   UNL     1      -6.037   8.586  68.177  1.00  0.00    -0.051 C  
HETATM   23  C   UNL     1      -6.353   6.705  69.602  1.00  0.00    -0.042 C  
BRANCH  21  24
HETATM   24  C   UNL     1      -7.273  10.220  69.512  1.00  0.00    -0.122 C  
BRANCH  24  25
HETATM   25  C   UNL     1      -8.722   9.858  69.888  1.00  0.00    -0.225 C  
BRANCH  25  26
HETATM   26  C   UNL     1      -9.733  10.707  69.140  1.00  0.00    -0.205 A  
HETATM   27  C   UNL     1      -9.325  11.881  68.493  1.00  0.00    -0.142 A  
HETATM   28  C   UNL     1     -10.266  12.622  67.792  1.00  0.00    -0.222 A  
HETATM   29  C   UNL     1     -11.582  12.208  67.721  1.00  0.00    -0.342 A  
HETATM   30  O   UNL     1     -12.382  13.026  66.969  1.00  0.00    -0.328 OA 
HETATM   31  C   UNL     1     -12.020  11.061  68.345  1.00  0.00    -0.158 A  
HETATM   32  C   UNL     1     -11.086  10.308  69.068  1.00  0.00    -0.277 A  
HETATM   33  C   UNL     1     -11.538  14.146  66.618  1.00  0.00    -0.384 C  
HETATM   34  C   UNL     1     -10.091  13.874  67.034  1.00  0.00    -0.256 C  
ENDBRANCH  25  26
ENDBRANCH  24  25
ENDBRANCH  21  24
ENDBRANCH   6  19
ENDBRANCH   2   6
TORSDOF 7
ENDMDL
MODEL      215
REMARK 921   NORMALIZED FREE ENERGY PREDICTED BY IDOCK:   -2.90 KCAL/MOL
REMARK 922        TOTAL FREE ENERGY PREDICTED BY IDOCK:   -5.87 KCAL/MOL
REMARK 923 INTER-LIGAND FREE ENERGY PREDICTED BY IDOCK:   -4.38 KCAL/MOL
REMARK 924 INTRA-LIGAND FREE ENERGY PREDICTED BY IDOCK:   -1.50 KCAL/MOL
REMARK 927      BINDING AFFINITY PREDICTED BY RF-SCORE:    0.00 PKD
ROOT
HETATM    1  N   UNL     1      -6.345  11.403  65.718  1.00  0.00    -0.310 N  
HETATM    2  C   UNL     1      -6.898  10.678  66.742  1.00  0.00    -0.108 C  
HETATM    3  H1  UNL     1      -6.396  12.417  65.808  1.00  0.00     0.000 HD 
HETATM    4  H2  UNL     1      -5.907  10.954  64.912  1.00  0.00     0.000 HD 
HETATM    5  O   UNL     1      -6.836   9.459  66.633  1.00  0.00    -0.078 OA 
ENDROOT
BRANCH   2   6
HETATM    6  C   UNL     1      -7.480  11.471  67.991  1.00  0.00    -0.098 C  
BRANCH   6   7
HETATM    7  C   UNL     1      -7.144  13.015  67.787  1.00  0.00    -0.139 A  
HETATM    8  C   UNL     1      -6.454  15.727  67.251  1.00  0.00    -0.139 A  
HETATM    9  C   UNL     1      -5.546  14.885  67.877  1.00  0.00    -0.127 A  
HETATM   10  C   UNL     1      -7.720  15.251  66.941  1.00  0.00    -0.108 A  
HETATM   11  C   UNL     1      -5.893  13.558  68.159  1.00  0.00    -0.115 A  
HETATM   12  C   UNL     1      -8.061  13.920  67.215  1.00  0.00    -0.162 A  
ENDBRANCH   6   7
BRANCH   6  13
HETATM   13  C   UNL     1      -9.035  11.240  68.064  1.00  0.00    -0.156 A  
HETATM   14  C   UNL     1      -9.801  11.818  69.106  1.00  0.00     0.198 A  
HETATM   15  C   UNL     1     -11.169  11.563  69.245  1.00  0.00    -0.336 A  
HETATM   16  C   UNL     1     -11.825  10.748  68.333  1.00  0.00    -0.126 A  
HETATM   17  C   UNL     1      -9.737  10.460  67.132  1.00  0.00    -0.206 A  
HETATM   18  C   UNL     1     -11.109  10.204  67.266  1.00  0.00    -0.166 A  
ENDBRANCH   6  13
BRANCH   6  19
HETATM   19  C   UNL     1      -6.805  10.966  69.357  1.00  0.00    -0.114 C  
HETATM   20  C   UNL     1      -5.314   9.022  69.335  1.00  0.00    -0.035 C  
HETATM   21  N   UNL     1      -6.513   8.630  70.071  1.00  0.00    -0.037 NA 
HETATM   22  C   UNL     1      -7.423   9.785  70.125  1.00  0.00    -0.164 C  
HETATM   23  C   UNL     1      -5.329  10.541  69.282  1.00  0.00    -0.038 C  
BRANCH  21  24
HETATM   24  C   UNL     1      -7.177   7.422  69.546  1.00  0.00    -0.082 C  
BRANCH  24  25
HETATM   25  C   UNL     1      -8.665   7.607  69.197  1.00  0.00    -0.139 C  
BRANCH  25  26
HETATM   26  C   UNL     1      -9.110   6.673  68.086  1.00  0.00    -0.119 A  
HETATM   27  C   UNL     1      -8.221   5.718  67.573  1.00  0.00    -0.101 A  
HETATM   28  C   UNL     1      -8.663   4.858  66.577  1.00  0.00    -0.112 A  
HETATM   29  C   UNL     1      -9.960   4.930  66.105  1.00  0.00    -0.231 A  
HETATM   30  O   UNL     1     -10.255   3.997  65.148  1.00  0.00    -0.205 OA 
HETATM   31  C   UNL     1     -10.860   5.856  66.584  1.00  0.00    -0.292 A  
HETATM   32  C   UNL     1     -10.426   6.741  67.580  1.00  0.00    -0.302 A  
HETATM   33  C   UNL     1      -8.998   3.333  64.880  1.00  0.00    -0.135 C  
HETATM   34  C   UNL     1      -7.934   3.780  65.885  1.00  0.00    -0.093 C  
ENDBRANCH  25  26
ENDBRANCH  24  25
ENDBRANCH  21  24
ENDBRANCH   6  19
ENDBRANCH   2   6
TORSDOF 7
ENDMDL
MODEL      216
REMARK 921   NORMALIZED FREE ENERGY PREDICTED BY IDOCK:   -2.89 KCAL/MOL
REMARK 922        TOTAL FREE ENERGY PREDICTED BY IDOCK:   -5.85 KCAL/MOL
REMARK 923 INTER-LIGAND FREE ENERGY PREDICTED BY IDOCK:   -6.36 KCAL/MOL
REMARK 924 INTRA-LIGAND FREE ENERGY PREDICTED BY IDOCK:    0.51 KCAL/MOL
REMARK 927      BINDING AFFINITY PREDICTED BY RF-SCORE:    0.00 PKD
ROOT
HETATM    1  N   UNL     1      -8.893   9.755  66.259  1.00  0.00    -0.144 N  
HETATM    2  C   UNL     1      -7.936  10.358  67.035  1.00  0.00    -0.116 C  
HETATM    3  H1  UNL     1      -9.579   9.187  66.755  1.00  0.00     0.000 HD 
HETATM    4  H2  UNL     1      -8.917   9.868  65.245  1.00  0.00     0.000 HD 
HETATM    5  O   UNL     1      -7.112  11.040  66.439  1.00  0.00    -0.134 OA 
ENDROOT
BRANCH   2   6
HETATM    6  C   UNL     1      -8.035  10.187  68.612  1.00  0.00    -0.103 C  
BRANCH   6   7
HETATM    7  C   UNL     1      -7.713   8.666  68.959  1.00  0.00    -0.095 A  
HETATM    8  C   UNL     1      -7.322   5.899  69.513  1.00  0.00    -0.075 A  
HETATM    9  C   UNL     1      -7.951   6.715  70.442  1.00  0.00    -0.115 A  
HETATM   10  C   UNL     1      -6.835   6.454  68.339  1.00  0.00    -0.071 A  
HETATM   11  C   UNL     1      -8.125   8.080  70.179  1.00  0.00    -0.114 A  
HETATM   12  C   UNL     1      -7.020   7.817  68.072  1.00  0.00    -0.080 A  
ENDBRANCH   6   7
BRANCH   6  13
HETATM   13  C   UNL     1      -6.995  11.150  69.297  1.00  0.00    -0.118 A  
HETATM   14  C   UNL     1      -6.033  10.644  70.205  1.00  0.00    -0.098 A  
HETATM   15  C   UNL     1      -5.151  11.485  70.892  1.00  0.00    -0.124 A  
HETATM   16  C   UNL     1      -5.181  12.856  70.674  1.00  0.00    -0.139 A  
HETATM   17  C   UNL     1      -6.966  12.534  69.064  1.00  0.00    -0.066 A  
HETATM   18  C   UNL     1      -6.083  13.381  69.748  1.00  0.00    -0.128 A  
ENDBRANCH   6  13
BRANCH   6  19
HETATM   19  C   UNL     1      -9.510  10.542  69.137  1.00  0.00    -0.205 C  
HETATM   20  C   UNL     1     -11.378  10.639  67.554  1.00  0.00    -0.162 C  
HETATM   21  N   UNL     1     -11.148  12.002  68.027  1.00  0.00    -0.225 NA 
HETATM   22  C   UNL     1     -10.046  11.977  69.001  1.00  0.00     0.092 C  
HETATM   23  C   UNL     1     -10.669   9.726  68.541  1.00  0.00    -0.252 C  
BRANCH  21  24
HETATM   24  C   UNL     1     -10.919  12.985  66.952  1.00  0.00    -0.265 C  
BRANCH  24  25
HETATM   25  C   UNL     1     -11.790  14.252  67.043  1.00  0.00    -0.455 C  
BRANCH  25  26
HETATM   26  C   UNL     1     -11.797  14.839  68.442  1.00  0.00    -0.319 A  
HETATM   27  C   UNL     1     -12.656  14.319  69.419  1.00  0.00     0.048 A  
HETATM   28  C   UNL     1     -12.621  14.856  70.698  1.00  0.00    -0.420 A  
HETATM   29  C   UNL     1     -11.747  15.879  71.011  1.00  0.00    -0.432 A  
HETATM   30  O   UNL     1     -11.808  16.281  72.319  1.00  0.00    -0.510 OA 
HETATM   31  C   UNL     1     -10.890  16.418  70.077  1.00  0.00    -0.306 A  
HETATM   32  C   UNL     1     -10.921  15.895  68.777  1.00  0.00    -0.301 A  
HETATM   33  C   UNL     1     -12.911  15.536  72.883  1.00  0.00    -0.477 C  
HETATM   34  C   UNL     1     -13.410  14.487  71.887  1.00  0.00    -0.450 C  
ENDBRANCH  25  26
ENDBRANCH  24  25
ENDBRANCH  21  24
ENDBRANCH   6  19
ENDBRANCH   2   6
TORSDOF 7
ENDMDL
MODEL      217
REMARK 921   NORMALIZED FREE ENERGY PREDICTED BY IDOCK:   -2.85 KCAL/MOL
REMARK 922        TOTAL FREE ENERGY PREDICTED BY IDOCK:   -5.79 KCAL/MOL
REMARK 923 INTER-LIGAND FREE ENERGY PREDICTED BY IDOCK:   -6.35 KCAL/MOL
REMARK 924 INTRA-LIGAND FREE ENERGY PREDICTED BY IDOCK:    0.56 KCAL/MOL
REMARK 927      BINDING AFFINITY PREDICTED BY RF-SCORE:    0.00 PKD
ROOT
HETATM    1  N   UNL     1     -11.602  15.362  67.578  1.00  0.00    -0.241 N  
HETATM    2  C   UNL     1     -11.135  14.402  68.439  1.00  0.00    -0.255 C  
HETATM    3  H1  UNL     1     -11.185  15.369  66.647  1.00  0.00     0.000 HD 
HETATM    4  H2  UNL     1     -12.323  16.030  67.851  1.00  0.00     0.000 HD 
HETATM    5  O   UNL     1     -11.637  14.394  69.557  1.00  0.00    -0.270 OA 
ENDROOT
BRANCH   2   6
HETATM    6  C   UNL     1     -10.070  13.358  67.890  1.00  0.00    -0.238 C  
BRANCH   6   7
HETATM    7  C   UNL     1     -10.551  12.884  66.447  1.00  0.00    -0.285 A  
HETATM    8  C   UNL     1     -11.421  12.230  63.814  1.00  0.00    -0.545 A  
HETATM    9  C   UNL     1     -12.347  12.527  64.803  1.00  0.00    -0.544 A  
HETATM   10  C   UNL     1     -10.071  12.197  64.135  1.00  0.00    -0.335 A  
HETATM   11  C   UNL     1     -11.921  12.829  66.103  1.00  0.00    -0.476 A  
HETATM   12  C   UNL     1      -9.646  12.510  65.433  1.00  0.00    -0.015 A  
ENDBRANCH   6   7
BRANCH   6  13
HETATM   13  C   UNL     1      -8.662  14.056  67.811  1.00  0.00    -0.185 A  
HETATM   14  C   UNL     1      -8.506  15.409  68.201  1.00  0.00    -0.147 A  
HETATM   15  C   UNL     1      -7.286  16.081  68.063  1.00  0.00    -0.139 A  
HETATM   16  C   UNL     1      -6.175  15.417  67.561  1.00  0.00    -0.120 A  
HETATM   17  C   UNL     1      -7.508  13.401  67.352  1.00  0.00    -0.134 A  
HETATM   18  C   UNL     1      -6.283  14.069  67.216  1.00  0.00     0.418 A  
ENDBRANCH   6  13
BRANCH   6  19
HETATM   19  C   UNL     1      -9.972  12.079  68.855  1.00  0.00     0.005 C  
HETATM   20  C   UNL     1      -8.719  10.100  68.133  1.00  0.00    -0.122 C  
HETATM   21  N   UNL     1     -10.128   9.719  68.180  1.00  0.00    -0.158 NA 
HETATM   22  C   UNL     1     -10.909  10.879  68.634  1.00  0.00    -0.217 C  
HETATM   23  C   UNL     1      -8.602  11.383  68.940  1.00  0.00    -0.020 C  
BRANCH  21  24
HETATM   24  C   UNL     1     -10.645   9.159  66.917  1.00  0.00    -0.167 C  
BRANCH  24  25
HETATM   25  C   UNL     1     -10.426   7.645  66.747  1.00  0.00    -0.319 C  
BRANCH  25  26
HETATM   26  C   UNL     1     -10.506   6.905  68.070  1.00  0.00    -0.255 A  
HETATM   27  C   UNL     1     -11.403   7.329  69.059  1.00  0.00     0.213 A  
HETATM   28  C   UNL     1     -11.475   6.617  70.248  1.00  0.00    -0.449 A  
HETATM   29  C   UNL     1     -10.686   5.502  70.454  1.00  0.00    -0.251 A  
HETATM   30  O   UNL     1     -10.893   4.889  71.661  1.00  0.00    -0.075 OA 
HETATM   31  C   UNL     1      -9.791   5.058  69.506  1.00  0.00    -0.281 A  
HETATM   32  C   UNL     1      -9.696   5.773  68.305  1.00  0.00    -0.153 A  
HETATM   33  C   UNL     1     -11.815   5.756  72.361  1.00  0.00    -0.168 C  
HETATM   34  C   UNL     1     -12.329   6.853  71.427  1.00  0.00    -0.421 C  
ENDBRANCH  25  26
ENDBRANCH  24  25
ENDBRANCH  21  24
ENDBRANCH   6  19
ENDBRANCH   2   6
TORSDOF 7
ENDMDL
MODEL      218
REMARK 921   NORMALIZED FREE ENERGY PREDICTED BY IDOCK:   -2.83 KCAL/MOL
REMARK 922        TOTAL FREE ENERGY PREDICTED BY IDOCK:   -5.77 KCAL/MOL
REMARK 923 INTER-LIGAND FREE ENERGY PREDICTED BY IDOCK:   -5.34 KCAL/MOL
REMARK 924 INTRA-LIGAND FREE ENERGY PREDICTED BY IDOCK:   -0.43 KCAL/MOL
REMARK 927      BINDING AFFINITY PREDICTED BY RF-SCORE:    0.00 PKD
ROOT
HETATM    1  N   UNL     1      -9.762   9.588  65.799  1.00  0.00    -0.275 N  
HETATM    2  C   UNL     1      -8.839  10.422  66.376  1.00  0.00    -0.147 C  
HETATM    3  H1  UNL     1     -10.168   8.879  66.408  1.00  0.00     0.000 HD 
HETATM    4  H2  UNL     1     -10.028   9.673  64.817  1.00  0.00     0.000 HD 
HETATM    5  O   UNL     1      -8.352  11.275  65.643  1.00  0.00    -0.069 OA 
ENDROOT
BRANCH   2   6
HETATM    6  C   UNL     1      -8.556  10.263  67.932  1.00  0.00    -0.118 C  
BRANCH   6   7
HETATM    7  C   UNL     1      -7.847   8.854  68.157  1.00  0.00    -0.101 A  
HETATM    8  C   UNL     1      -6.714   6.255  68.430  1.00  0.00    -0.068 A  
HETATM    9  C   UNL     1      -7.801   6.628  69.206  1.00  0.00    -0.110 A  
HETATM   10  C   UNL     1      -6.148   7.178  67.563  1.00  0.00    -0.041 A  
HETATM   11  C   UNL     1      -8.346   7.913  69.086  1.00  0.00    -0.133 A  
HETATM   12  C   UNL     1      -6.702   8.459  67.436  1.00  0.00    -0.063 A  
ENDBRANCH   6   7
BRANCH   6  13
HETATM   13  C   UNL     1      -7.626  11.440  68.406  1.00  0.00    -0.123 A  
HETATM   14  C   UNL     1      -6.662  11.233  69.424  1.00  0.00    -0.123 A  
HETATM   15  C   UNL     1      -5.879  12.279  69.924  1.00  0.00    -0.140 A  
HETATM   16  C   UNL     1      -6.010  13.559  69.405  1.00  0.00    -0.097 A  
HETATM   17  C   UNL     1      -7.699  12.736  67.871  1.00  0.00    -0.143 A  
HETATM   18  C   UNL     1      -6.914  13.787  68.367  1.00  0.00    -0.103 A  
ENDBRANCH   6  13
BRANCH   6  19
HETATM   19  C   UNL     1      -9.924  10.300  68.771  1.00  0.00    -0.187 C  
HETATM   20  C   UNL     1     -11.955  11.220  67.755  1.00  0.00     0.067 C  
HETATM   21  N   UNL     1     -11.562  12.134  68.825  1.00  0.00    -0.302 NA 
HETATM   22  C   UNL     1     -10.356  11.597  69.475  1.00  0.00     0.320 C  
HETATM   23  C   UNL     1     -11.208   9.922  68.014  1.00  0.00    -0.129 C  
BRANCH  21  24
HETATM   24  C   UNL     1     -11.385  13.532  68.392  1.00  0.00    -0.292 C  
BRANCH  24  25
HETATM   25  C   UNL     1     -11.004  13.703  66.910  1.00  0.00    -0.296 C  
BRANCH  25  26
HETATM   26  C   UNL     1     -10.945  15.164  66.502  1.00  0.00    -0.318 A  
HETATM   27  C   UNL     1     -10.568  16.140  67.434  1.00  0.00    -0.311 A  
HETATM   28  C   UNL     1     -10.495  17.464  67.026  1.00  0.00    -0.284 A  
HETATM   29  C   UNL     1     -10.777  17.819  65.721  1.00  0.00    -0.098 A  
HETATM   30  O   UNL     1     -10.631  19.155  65.464  1.00  0.00    -0.536 OA 
HETATM   31  C   UNL     1     -11.154  16.888  64.778  1.00  0.00     0.094 A  
HETATM   32  C   UNL     1     -11.245  15.548  65.176  1.00  0.00    -0.322 A  
HETATM   33  C   UNL     1     -10.346  19.749  66.751  1.00  0.00    -0.482 C  
HETATM   34  C   UNL     1     -10.124  18.661  67.803  1.00  0.00    -0.408 C  
ENDBRANCH  25  26
ENDBRANCH  24  25
ENDBRANCH  21  24
ENDBRANCH   6  19
ENDBRANCH   2   6
TORSDOF 7
ENDMDL
MODEL      219
REMARK 921   NORMALIZED FREE ENERGY PREDICTED BY IDOCK:   -2.81 KCAL/MOL
REMARK 922        TOTAL FREE ENERGY PREDICTED BY IDOCK:   -5.73 KCAL/MOL
REMARK 923 INTER-LIGAND FREE ENERGY PREDICTED BY IDOCK:   -6.03 KCAL/MOL
REMARK 924 INTRA-LIGAND FREE ENERGY PREDICTED BY IDOCK:    0.30 KCAL/MOL
REMARK 927      BINDING AFFINITY PREDICTED BY RF-SCORE:    0.00 PKD
ROOT
HETATM    1  N   UNL     1     -10.424  15.224  69.570  1.00  0.00    -0.246 N  
HETATM    2  C   UNL     1     -10.063  14.225  68.702  1.00  0.00    -0.238 C  
HETATM    3  H1  UNL     1      -9.962  16.123  69.434  1.00  0.00     0.000 HD 
HETATM    4  H2  UNL     1     -11.114  15.077  70.307  1.00  0.00     0.000 HD 
HETATM    5  O   UNL     1     -10.618  13.145  68.865  1.00  0.00    -0.216 OA 
ENDROOT
BRANCH   2   6
HETATM    6  C   UNL     1      -9.042  14.579  67.537  1.00  0.00    -0.193 C  
BRANCH   6   7
HETATM    7  C   UNL     1      -8.675  16.124  67.662  1.00  0.00    -0.184 A  
HETATM    8  C   UNL     1      -7.832  18.840  67.824  1.00  0.00    -0.262 A  
HETATM    9  C   UNL     1      -7.614  17.977  68.887  1.00  0.00    -0.227 A  
HETATM   10  C   UNL     1      -8.515  18.384  66.706  1.00  0.00    -0.274 A  
HETATM   11  C   UNL     1      -8.047  16.646  68.816  1.00  0.00    -0.247 A  
HETATM   12  C   UNL     1      -8.937  17.050  66.632  1.00  0.00    -0.280 A  
ENDBRANCH   6   7
BRANCH   6  13
HETATM   13  C   UNL     1      -7.757  13.683  67.693  1.00  0.00    -0.184 A  
HETATM   14  C   UNL     1      -6.471  14.214  67.427  1.00  0.00     0.100 A  
HETATM   15  C   UNL     1      -5.320  13.421  67.477  1.00  0.00     0.064 A  
HETATM   16  C   UNL     1      -5.409  12.080  67.821  1.00  0.00    -0.069 A  
HETATM   17  C   UNL     1      -7.807  12.335  68.085  1.00  0.00    -0.148 A  
HETATM   18  C   UNL     1      -6.655  11.537  68.139  1.00  0.00    -0.057 A  
ENDBRANCH   6  13
BRANCH   6  19
HETATM   19  C   UNL     1      -9.699  14.312  66.097  1.00  0.00    -0.325 C  
HETATM   20  C   UNL     1     -11.915  13.279  65.940  1.00  0.00    -0.419 C  
HETATM   21  N   UNL     1     -10.957  12.314  65.407  1.00  0.00    -0.291 NA 
HETATM   22  C   UNL     1      -9.614  12.914  65.463  1.00  0.00     0.029 C  
HETATM   23  C   UNL     1     -11.200  14.620  65.957  1.00  0.00    -0.342 C  
BRANCH  21  24
HETATM   24  C   UNL     1     -11.004  10.992  66.057  1.00  0.00    -0.067 C  
BRANCH  24  25
HETATM   25  C   UNL     1     -10.008  10.810  67.218  1.00  0.00    -0.219 C  
BRANCH  25  26
HETATM   26  C   UNL     1      -9.925   9.365  67.676  1.00  0.00    -0.238 A  
HETATM   27  C   UNL     1      -9.981   8.326  66.737  1.00  0.00    -0.355 A  
HETATM   28  C   UNL     1      -9.874   7.016  67.181  1.00  0.00    -0.225 A  
HETATM   29  C   UNL     1      -9.702   6.735  68.523  1.00  0.00    -0.133 A  
HETATM   30  O   UNL     1      -9.581   5.400  68.801  1.00  0.00    -0.123 OA 
HETATM   31  C   UNL     1      -9.645   7.730  69.474  1.00  0.00    -0.160 A  
HETATM   32  C   UNL     1      -9.765   9.059  69.045  1.00  0.00    -0.167 A  
HETATM   33  C   UNL     1      -9.819   4.738  67.538  1.00  0.00    -0.162 C  
HETATM   34  C   UNL     1      -9.898   5.763  66.405  1.00  0.00    -0.174 C  
ENDBRANCH  25  26
ENDBRANCH  24  25
ENDBRANCH  21  24
ENDBRANCH   6  19
ENDBRANCH   2   6
TORSDOF 7
ENDMDL
MODEL      220
REMARK 921   NORMALIZED FREE ENERGY PREDICTED BY IDOCK:   -2.75 KCAL/MOL
REMARK 922        TOTAL FREE ENERGY PREDICTED BY IDOCK:   -5.66 KCAL/MOL
REMARK 923 INTER-LIGAND FREE ENERGY PREDICTED BY IDOCK:   -5.37 KCAL/MOL
REMARK 924 INTRA-LIGAND FREE ENERGY PREDICTED BY IDOCK:   -0.29 KCAL/MOL
REMARK 927      BINDING AFFINITY PREDICTED BY RF-SCORE:    0.00 PKD
ROOT
HETATM    1  N   UNL     1      -5.396  10.373  68.718  1.00  0.00    -0.038 N  
HETATM    2  C   UNL     1      -6.636  10.267  69.292  1.00  0.00    -0.055 C  
HETATM    3  H1  UNL     1      -5.306  10.000  67.774  1.00  0.00     0.000 HD 
HETATM    4  H2  UNL     1      -4.608  10.801  69.207  1.00  0.00     0.000 HD 
HETATM    5  O   UNL     1      -6.744  10.715  70.428  1.00  0.00    -0.263 OA 
ENDROOT
BRANCH   2   6
HETATM    6  C   UNL     1      -7.817   9.660  68.418  1.00  0.00    -0.085 C  
BRANCH   6   7
HETATM    7  C   UNL     1      -7.267   9.446  66.938  1.00  0.00    -0.087 A  
HETATM    8  C   UNL     1      -6.109   9.003  64.373  1.00  0.00    -0.070 A  
HETATM    9  C   UNL     1      -5.906  10.206  65.033  1.00  0.00    -0.120 A  
HETATM   10  C   UNL     1      -6.928   8.042  64.948  1.00  0.00    -0.063 A  
HETATM   11  C   UNL     1      -6.492  10.432  66.285  1.00  0.00    -0.102 A  
HETATM   12  C   UNL     1      -7.504   8.266  66.206  1.00  0.00    -0.079 A  
ENDBRANCH   6   7
BRANCH   6  13
HETATM   13  C   UNL     1      -8.272   8.293  69.050  1.00  0.00    -0.119 A  
HETATM   14  C   UNL     1      -7.316   7.380  69.559  1.00  0.00    -0.085 A  
HETATM   15  C   UNL     1      -7.683   6.123  70.050  1.00  0.00    -0.097 A  
HETATM   16  C   UNL     1      -9.019   5.747  70.078  1.00  0.00    -0.147 A  
HETATM   17  C   UNL     1      -9.617   7.901  69.137  1.00  0.00    -0.153 A  
HETATM   18  C   UNL     1      -9.991   6.643  69.632  1.00  0.00    -0.191 A  
ENDBRANCH   6  13
BRANCH   6  19
HETATM   19  C   UNL     1      -9.069  10.663  68.370  1.00  0.00    -0.156 C  
HETATM   20  C   UNL     1      -9.359  12.163  66.454  1.00  0.00    -0.224 C  
HETATM   21  N   UNL     1      -9.046  13.002  67.608  1.00  0.00    -0.187 NA 
HETATM   22  C   UNL     1      -8.890  12.133  68.785  1.00  0.00     0.115 C  
HETATM   23  C   UNL     1      -9.780  10.814  67.014  1.00  0.00    -0.205 C  
BRANCH  21  24
HETATM   24  C   UNL     1      -7.886  13.890  67.414  1.00  0.00    -0.161 C  
BRANCH  24  25
HETATM   25  C   UNL     1      -7.718  14.975  68.494  1.00  0.00    -0.121 C  
BRANCH  25  26
HETATM   26  C   UNL     1      -8.513  16.228  68.171  1.00  0.00    -0.174 A  
HETATM   27  C   UNL     1      -7.919  17.269  67.445  1.00  0.00    -0.201 A  
HETATM   28  C   UNL     1      -8.678  18.390  67.140  1.00  0.00    -0.260 A  
HETATM   29  C   UNL     1      -9.999  18.478  67.533  1.00  0.00    -0.332 A  
HETATM   30  O   UNL     1     -10.623  19.629  67.131  1.00  0.00    -0.458 OA 
HETATM   31  C   UNL     1     -10.616  17.476  68.249  1.00  0.00    -0.354 A  
HETATM   32  C   UNL     1      -9.860  16.342  68.577  1.00  0.00    -0.231 A  
HETATM   33  C   UNL     1      -9.578  20.423  66.525  1.00  0.00    -0.295 C  
HETATM   34  C   UNL     1      -8.293  19.602  66.395  1.00  0.00    -0.376 C  
ENDBRANCH  25  26
ENDBRANCH  24  25
ENDBRANCH  21  24
ENDBRANCH   6  19
ENDBRANCH   2   6
TORSDOF 7
ENDMDL
MODEL      221
REMARK 921   NORMALIZED FREE ENERGY PREDICTED BY IDOCK:   -2.75 KCAL/MOL
REMARK 922        TOTAL FREE ENERGY PREDICTED BY IDOCK:   -5.65 KCAL/MOL
REMARK 923 INTER-LIGAND FREE ENERGY PREDICTED BY IDOCK:   -6.58 KCAL/MOL
REMARK 924 INTRA-LIGAND FREE ENERGY PREDICTED BY IDOCK:    0.94 KCAL/MOL
REMARK 927      BINDING AFFINITY PREDICTED BY RF-SCORE:    0.00 PKD
ROOT
HETATM    1  N   UNL     1      -8.039  11.334  65.573  1.00  0.00    -0.361 N  
HETATM    2  C   UNL     1      -8.876  11.015  66.612  1.00  0.00    -0.164 C  
HETATM    3  H1  UNL     1      -8.335  12.111  64.984  1.00  0.00     0.000 HD 
HETATM    4  H2  UNL     1      -7.172  10.824  65.401  1.00  0.00     0.000 HD 
HETATM    5  O   UNL     1      -8.520  10.080  67.321  1.00  0.00    -0.121 OA 
ENDROOT
BRANCH   2   6
HETATM    6  C   UNL     1     -10.159  11.923  66.847  1.00  0.00    -0.229 C  
BRANCH   6   7
HETATM    7  C   UNL     1      -9.670  13.310  67.459  1.00  0.00    -0.224 A  
HETATM    8  C   UNL     1      -8.809  15.706  68.736  1.00  0.00    -0.208 A  
HETATM    9  C   UNL     1     -10.163  15.436  68.597  1.00  0.00    -0.217 A  
HETATM   10  C   UNL     1      -7.881  14.828  68.196  1.00  0.00    -0.125 A  
HETATM   11  C   UNL     1     -10.586  14.267  67.951  1.00  0.00    -0.240 A  
HETATM   12  C   UNL     1      -8.307  13.654  67.560  1.00  0.00    -0.191 A  
ENDBRANCH   6   7
BRANCH   6  13
HETATM   13  C   UNL     1     -10.888  12.144  65.469  1.00  0.00    -0.324 A  
HETATM   14  C   UNL     1     -12.236  12.577  65.428  1.00  0.00    -0.475 A  
HETATM   15  C   UNL     1     -12.935  12.702  64.223  1.00  0.00    -0.204 A  
HETATM   16  C   UNL     1     -12.305  12.428  63.018  1.00  0.00    -0.093 A  
HETATM   17  C   UNL     1     -10.266  11.921  64.230  1.00  0.00    -0.346 A  
HETATM   18  C   UNL     1     -10.962  12.048  63.020  1.00  0.00    -0.072 A  
ENDBRANCH   6  13
BRANCH   6  19
HETATM   19  C   UNL     1     -11.175  11.226  67.876  1.00  0.00    -0.353 C  
HETATM   20  C   UNL     1     -10.301   9.971  69.791  1.00  0.00    -0.255 C  
HETATM   21  N   UNL     1     -10.931   9.002  68.897  1.00  0.00    -0.030 NA 
HETATM   22  C   UNL     1     -11.489   9.726  67.745  1.00  0.00     0.592 C  
HETATM   23  C   UNL     1     -10.825  11.335  69.370  1.00  0.00    -0.239 C  
BRANCH  21  24
HETATM   24  C   UNL     1     -10.046   7.897  68.485  1.00  0.00    -0.197 C  
BRANCH  24  25
HETATM   25  C   UNL     1     -10.704   6.505  68.505  1.00  0.00    -0.329 C  
BRANCH  25  26
HETATM   26  C   UNL     1     -10.384   5.742  69.777  1.00  0.00    -0.332 A  
HETATM   27  C   UNL     1     -10.642   6.320  71.027  1.00  0.00    -0.289 A  
HETATM   28  C   UNL     1     -10.367   5.589  72.174  1.00  0.00    -0.263 A  
HETATM   29  C   UNL     1      -9.859   4.307  72.090  1.00  0.00    -0.167 A  
HETATM   30  O   UNL     1      -9.670   3.703  73.304  1.00  0.00    -0.110 OA 
HETATM   31  C   UNL     1      -9.591   3.706  70.880  1.00  0.00    -0.250 A  
HETATM   32  C   UNL     1      -9.851   4.436  69.712  1.00  0.00    -0.284 A  
HETATM   33  C   UNL     1      -9.965   4.732  74.277  1.00  0.00    -0.193 C  
HETATM   34  C   UNL     1     -10.550   5.966  73.588  1.00  0.00    -0.292 C  
ENDBRANCH  25  26
ENDBRANCH  24  25
ENDBRANCH  21  24
ENDBRANCH   6  19
ENDBRANCH   2   6
TORSDOF 7
ENDMDL
MODEL      222
REMARK 921   NORMALIZED FREE ENERGY PREDICTED BY IDOCK:   -2.69 KCAL/MOL
REMARK 922        TOTAL FREE ENERGY PREDICTED BY IDOCK:   -5.58 KCAL/MOL
REMARK 923 INTER-LIGAND FREE ENERGY PREDICTED BY IDOCK:   -5.87 KCAL/MOL
REMARK 924 INTRA-LIGAND FREE ENERGY PREDICTED BY IDOCK:    0.30 KCAL/MOL
REMARK 927      BINDING AFFINITY PREDICTED BY RF-SCORE:    0.00 PKD
ROOT
HETATM    1  N   UNL     1     -11.331  11.475  68.557  1.00  0.00    -0.250 N  
HETATM    2  C   UNL     1      -9.965  11.399  68.474  1.00  0.00    -0.201 C  
HETATM    3  H1  UNL     1     -11.789  12.068  67.865  1.00  0.00     0.000 HD 
HETATM    4  H2  UNL     1     -11.859  10.969  69.269  1.00  0.00     0.000 HD 
HETATM    5  O   UNL     1      -9.415  10.687  69.307  1.00  0.00    -0.197 OA 
ENDROOT
BRANCH   2   6
HETATM    6  C   UNL     1      -9.243  12.158  67.279  1.00  0.00    -0.185 C  
BRANCH   6   7
HETATM    7  C   UNL     1     -10.371  12.828  66.375  1.00  0.00    -0.271 A  
HETATM    8  C   UNL     1     -12.429  14.148  64.913  1.00  0.00    -0.419 A  
HETATM    9  C   UNL     1     -12.740  13.097  65.763  1.00  0.00    -0.202 A  
HETATM   10  C   UNL     1     -11.101  14.511  64.738  1.00  0.00    -0.400 A  
HETATM   11  C   UNL     1     -11.725  12.434  66.467  1.00  0.00    -0.443 A  
HETATM   12  C   UNL     1     -10.089  13.854  65.451  1.00  0.00    -0.328 A  
ENDBRANCH   6   7
BRANCH   6  13
HETATM   13  C   UNL     1      -8.279  13.251  67.875  1.00  0.00    -0.163 A  
HETATM   14  C   UNL     1      -6.907  13.271  67.522  1.00  0.00    -0.155 A  
HETATM   15  C   UNL     1      -6.010  14.177  68.099  1.00  0.00    -0.133 A  
HETATM   16  C   UNL     1      -6.457  15.112  69.022  1.00  0.00    -0.106 A  
HETATM   17  C   UNL     1      -8.707  14.239  68.775  1.00  0.00    -0.096 A  
HETATM   18  C   UNL     1      -7.812  15.151  69.353  1.00  0.00    -0.208 A  
ENDBRANCH   6  13
BRANCH   6  19
HETATM   19  C   UNL     1      -8.391  11.136  66.381  1.00  0.00    -0.167 C  
HETATM   20  C   UNL     1      -9.545   9.471  65.002  1.00  0.00    -0.148 C  
HETATM   21  N   UNL     1      -8.846   8.741  66.056  1.00  0.00    -0.164 NA 
HETATM   22  C   UNL     1      -8.120   9.711  66.891  1.00  0.00    -0.113 C  
HETATM   23  C   UNL     1      -8.921  10.857  64.964  1.00  0.00    -0.184 C  
BRANCH  21  24
HETATM   24  C   UNL     1      -9.713   7.856  66.856  1.00  0.00    -0.219 C  
BRANCH  24  25
HETATM   25  C   UNL     1      -9.081   6.504  67.232  1.00  0.00    -0.117 C  
BRANCH  25  26
HETATM   26  C   UNL     1      -9.278   5.461  66.148  1.00  0.00    -0.162 A  
HETATM   27  C   UNL     1      -8.171   4.810  65.588  1.00  0.00    -0.113 A  
HETATM   28  C   UNL     1      -8.383   3.840  64.619  1.00  0.00    -0.097 A  
HETATM   29  C   UNL     1      -9.662   3.509  64.217  1.00  0.00    -0.171 A  
HETATM   30  O   UNL     1      -9.711   2.514  63.278  1.00  0.00    -0.095 OA 
HETATM   31  C   UNL     1     -10.775   4.129  64.743  1.00  0.00    -0.151 A  
HETATM   32  C   UNL     1     -10.578   5.120  65.714  1.00  0.00    -0.079 A  
HETATM   33  C   UNL     1      -8.328   2.256  62.943  1.00  0.00    -0.073 C  
HETATM   34  C   UNL     1      -7.399   3.020  63.888  1.00  0.00    -0.065 C  
ENDBRANCH  25  26
ENDBRANCH  24  25
ENDBRANCH  21  24
ENDBRANCH   6  19
ENDBRANCH   2   6
TORSDOF 7
ENDMDL
MODEL      223
REMARK 921   NORMALIZED FREE ENERGY PREDICTED BY IDOCK:   -2.53 KCAL/MOL
REMARK 922        TOTAL FREE ENERGY PREDICTED BY IDOCK:   -5.35 KCAL/MOL
REMARK 923 INTER-LIGAND FREE ENERGY PREDICTED BY IDOCK:   -5.01 KCAL/MOL
REMARK 924 INTRA-LIGAND FREE ENERGY PREDICTED BY IDOCK:   -0.34 KCAL/MOL
REMARK 927      BINDING AFFINITY PREDICTED BY RF-SCORE:    0.00 PKD
ROOT
HETATM    1  N   UNL     1      -6.328  11.734  70.196  1.00  0.00    -0.316 N  
HETATM    2  C   UNL     1      -7.263  11.313  69.285  1.00  0.00    -0.094 C  
HETATM    3  H1  UNL     1      -5.812  12.578  69.949  1.00  0.00     0.000 HD 
HETATM    4  H2  UNL     1      -6.158  11.232  71.068  1.00  0.00     0.000 HD 
HETATM    5  O   UNL     1      -7.883  10.298  69.582  1.00  0.00    -0.153 OA 
ENDROOT
BRANCH   2   6
HETATM    6  C   UNL     1      -7.510  12.210  67.996  1.00  0.00    -0.116 C  
BRANCH   6   7
HETATM    7  C   UNL     1      -9.081  12.266  67.735  1.00  0.00    -0.191 A  
HETATM    8  C   UNL     1     -11.859  12.251  67.106  1.00  0.00    -0.328 A  
HETATM    9  C   UNL     1     -11.012  13.171  66.507  1.00  0.00    -0.303 A  
HETATM   10  C   UNL     1     -11.351  11.378  68.058  1.00  0.00    -0.372 A  
HETATM   11  C   UNL     1      -9.649  13.192  66.831  1.00  0.00    -0.248 A  
HETATM   12  C   UNL     1      -9.986  11.393  68.372  1.00  0.00    -0.206 A  
ENDBRANCH   6   7
BRANCH   6  13
HETATM   13  C   UNL     1      -6.933  13.651  68.257  1.00  0.00    -0.109 A  
HETATM   14  C   UNL     1      -7.653  14.585  69.041  1.00  0.00    -0.124 A  
HETATM   15  C   UNL     1      -7.206  15.898  69.221  1.00  0.00    -0.217 A  
HETATM   16  C   UNL     1      -6.012  16.314  68.650  1.00  0.00    -0.109 A  
HETATM   17  C   UNL     1      -5.706  14.089  67.734  1.00  0.00    -0.071 A  
HETATM   18  C   UNL     1      -5.252  15.404  67.914  1.00  0.00    -0.124 A  
ENDBRANCH   6  13
BRANCH   6  19
HETATM   19  C   UNL     1      -6.789  11.577  66.710  1.00  0.00    -0.114 C  
HETATM   20  C   UNL     1      -7.653   9.508  65.721  1.00  0.00    -0.100 C  
HETATM   21  N   UNL     1      -6.351   9.191  66.301  1.00  0.00    -0.064 NA 
HETATM   22  C   UNL     1      -5.790  10.420  66.884  1.00  0.00    -0.052 C  
HETATM   23  C   UNL     1      -7.707  11.023  65.607  1.00  0.00     0.090 C  
BRANCH  21  24
HETATM   24  C   UNL     1      -6.373   8.077  67.266  1.00  0.00    -0.056 C  
BRANCH  24  25
HETATM   25  C   UNL     1      -7.738   7.835  67.938  1.00  0.00    -0.122 C  
BRANCH  25  26
HETATM   26  C   UNL     1      -8.586   6.843  67.163  1.00  0.00    -0.121 A  
HETATM   27  C   UNL     1      -8.014   6.078  66.139  1.00  0.00    -0.107 A  
HETATM   28  C   UNL     1      -8.806   5.158  65.467  1.00  0.00    -0.148 A  
HETATM   29  C   UNL     1     -10.134   4.987  65.806  1.00  0.00    -0.123 A  
HETATM   30  O   UNL     1     -10.775   4.023  65.075  1.00  0.00    -0.183 OA 
HETATM   31  C   UNL     1     -10.732   5.723  66.805  1.00  0.00    -0.369 A  
HETATM   32  C   UNL     1      -9.950   6.666  67.485  1.00  0.00    -0.171 A  
HETATM   33  C   UNL     1      -9.809   3.610  64.082  1.00  0.00    -0.181 C  
HETATM   34  C   UNL     1      -8.445   4.241  64.370  1.00  0.00    -0.112 C  
ENDBRANCH  25  26
ENDBRANCH  24  25
ENDBRANCH  21  24
ENDBRANCH   6  19
ENDBRANCH   2   6
TORSDOF 7
ENDMDL
MODEL      224
REMARK 921   NORMALIZED FREE ENERGY PREDICTED BY IDOCK:   -2.44 KCAL/MOL
REMARK 922        TOTAL FREE ENERGY PREDICTED BY IDOCK:   -5.21 KCAL/MOL
REMARK 923 INTER-LIGAND FREE ENERGY PREDICTED BY IDOCK:   -6.50 KCAL/MOL
REMARK 924 INTRA-LIGAND FREE ENERGY PREDICTED BY IDOCK:    1.29 KCAL/MOL
REMARK 927      BINDING AFFINITY PREDICTED BY RF-SCORE:    0.00 PKD
ROOT
HETATM    1  N   UNL     1     -12.357  14.188  68.232  1.00  0.00    -0.556 N  
HETATM    2  C   UNL     1     -11.444  13.165  68.209  1.00  0.00    -0.314 C  
HETATM    3  H1  UNL     1     -12.072  15.053  67.775  1.00  0.00     0.000 HD 
HETATM    4  H2  UNL     1     -13.269  14.089  68.681  1.00  0.00     0.000 HD 
HETATM    5  O   UNL     1     -11.787  12.125  68.759  1.00  0.00    -0.305 OA 
ENDROOT
BRANCH   2   6
HETATM    6  C   UNL     1     -10.087  13.392  67.414  1.00  0.00    -0.237 C  
BRANCH   6   7
HETATM    7  C   UNL     1     -10.182  12.582  66.045  1.00  0.00    -0.269 A  
HETATM    8  C   UNL     1     -10.549  11.105  63.637  1.00  0.00    -0.414 A  
HETATM    9  C   UNL     1     -10.294  10.444  64.830  1.00  0.00    -0.221 A  
HETATM   10  C   UNL     1     -10.566  12.492  63.618  1.00  0.00    -0.446 A  
HETATM   11  C   UNL     1     -10.093  11.171  66.011  1.00  0.00    -0.292 A  
HETATM   12  C   UNL     1     -10.376  13.217  64.802  1.00  0.00    -0.369 A  
ENDBRANCH   6   7
BRANCH   6  13
HETATM   13  C   UNL     1      -9.903  14.932  67.142  1.00  0.00    -0.231 A  
HETATM   14  C   UNL     1      -9.196  15.746  68.061  1.00  0.00    -0.188 A  
HETATM   15  C   UNL     1      -9.088  17.130  67.889  1.00  0.00    -0.230 A  
HETATM   16  C   UNL     1      -9.655  17.743  66.781  1.00  0.00    -0.301 A  
HETATM   17  C   UNL     1     -10.424  15.576  66.009  1.00  0.00    -0.335 A  
HETATM   18  C   UNL     1     -10.315  16.962  65.831  1.00  0.00    -0.327 A  
ENDBRANCH   6  13
BRANCH   6  19
HETATM   19  C   UNL     1      -8.831  12.851  68.255  1.00  0.00    -0.168 C  
HETATM   20  C   UNL     1      -7.343  11.166  67.278  1.00  0.00    -0.118 C  
HETATM   21  N   UNL     1      -8.048  10.523  68.384  1.00  0.00    -0.114 NA 
HETATM   22  C   UNL     1      -8.935  11.515  69.011  1.00  0.00     0.150 C  
HETATM   23  C   UNL     1      -7.513  12.663  67.483  1.00  0.00    -0.155 C  
BRANCH  21  24
HETATM   24  C   UNL     1      -8.767   9.292  68.008  1.00  0.00    -0.125 C  
BRANCH  24  25
HETATM   25  C   UNL     1      -8.010   7.986  68.312  1.00  0.00    -0.128 C  
BRANCH  25  26
HETATM   26  C   UNL     1      -7.849   7.120  67.076  1.00  0.00    -0.108 A  
HETATM   27  C   UNL     1      -8.428   5.845  67.030  1.00  0.00    -0.107 A  
HETATM   28  C   UNL     1      -8.288   5.087  65.876  1.00  0.00    -0.116 A  
HETATM   29  C   UNL     1      -7.601   5.580  64.784  1.00  0.00    -0.079 A  
HETATM   30  O   UNL     1      -7.576   4.730  63.712  1.00  0.00    -0.061 OA 
HETATM   31  C   UNL     1      -7.017   6.828  64.793  1.00  0.00    -0.055 A  
HETATM   32  C   UNL     1      -7.137   7.602  65.955  1.00  0.00    -0.069 A  
HETATM   33  C   UNL     1      -8.200   3.515  64.190  1.00  0.00    -0.090 C  
HETATM   34  C   UNL     1      -8.800   3.736  65.580  1.00  0.00    -0.123 C  
ENDBRANCH  25  26
ENDBRANCH  24  25
ENDBRANCH  21  24
ENDBRANCH   6  19
ENDBRANCH   2   6
TORSDOF 7
ENDMDL
MODEL      225
REMARK 921   NORMALIZED FREE ENERGY PREDICTED BY IDOCK:   -2.39 KCAL/MOL
REMARK 922        TOTAL FREE ENERGY PREDICTED BY IDOCK:   -5.15 KCAL/MOL
REMARK 923 INTER-LIGAND FREE ENERGY PREDICTED BY IDOCK:   -5.60 KCAL/MOL
REMARK 924 INTRA-LIGAND FREE ENERGY PREDICTED BY IDOCK:    0.45 KCAL/MOL
REMARK 927      BINDING AFFINITY PREDICTED BY RF-SCORE:    0.00 PKD
ROOT
HETATM    1  N   UNL     1      -9.835  13.282  68.974  1.00  0.00    -0.406 N  
HETATM    2  C   UNL     1      -9.786  14.597  69.360  1.00  0.00     0.032 C  
HETATM    3  H1  UNL     1     -10.743  12.941  68.660  1.00  0.00     0.000 HD 
HETATM    4  H2  UNL     1      -9.012  12.679  69.000  1.00  0.00     0.000 HD 
HETATM    5  O   UNL     1      -8.694  15.005  69.739  1.00  0.00    -0.085 OA 
ENDROOT
BRANCH   2   6
HETATM    6  C   UNL     1     -11.103  15.472  69.204  1.00  0.00    -0.272 C  
BRANCH   6   7
HETATM    7  C   UNL     1     -11.887  15.425  70.590  1.00  0.00    -0.388 A  
HETATM    8  C   UNL     1     -13.174  15.183  73.120  1.00  0.00    -0.603 A  
HETATM    9  C   UNL     1     -13.597  14.415  72.045  1.00  0.00    -0.514 A  
HETATM   10  C   UNL     1     -12.159  16.110  72.936  1.00  0.00    -0.643 A  
HETATM   11  C   UNL     1     -12.978  14.549  70.796  1.00  0.00    -0.403 A  
HETATM   12  C   UNL     1     -11.533  16.234  71.689  1.00  0.00    -0.324 A  
ENDBRANCH   6   7
BRANCH   6  13
HETATM   13  C   UNL     1     -10.696  16.949  68.841  1.00  0.00    -0.321 A  
HETATM   14  C   UNL     1      -9.561  17.551  69.438  1.00  0.00     0.182 A  
HETATM   15  C   UNL     1      -9.223  18.887  69.198  1.00  0.00    -0.116 A  
HETATM   16  C   UNL     1      -9.987  19.657  68.333  1.00  0.00    -0.543 A  
HETATM   17  C   UNL     1     -11.418  17.740  67.934  1.00  0.00     0.784 A  
HETATM   18  C   UNL     1     -11.081  19.079  67.688  1.00  0.00    -0.153 A  
ENDBRANCH   6  13
BRANCH   6  19
HETATM   19  C   UNL     1     -12.049  14.886  68.048  1.00  0.00    -0.105 C  
HETATM   20  C   UNL     1     -11.152  13.266  66.443  1.00  0.00    -0.295 C  
HETATM   21  N   UNL     1     -11.425  14.494  65.702  1.00  0.00    -0.338 NA 
HETATM   22  C   UNL     1     -11.989  15.484  66.633  1.00  0.00     0.569 C  
HETATM   23  C   UNL     1     -11.921  13.382  67.749  1.00  0.00    -0.363 C  
BRANCH  21  24
HETATM   24  C   UNL     1     -10.265  15.024  64.962  1.00  0.00    -0.314 C  
BRANCH  24  25
HETATM   25  C   UNL     1     -10.031  16.537  65.129  1.00  0.00     0.408 C  
BRANCH  25  26
HETATM   26  C   UNL     1      -8.739  16.836  65.867  1.00  0.00    -0.082 A  
HETATM   27  C   UNL     1      -8.241  18.145  65.911  1.00  0.00     0.044 A  
HETATM   28  C   UNL     1      -7.072  18.394  66.616  1.00  0.00    -0.237 A  
HETATM   29  C   UNL     1      -6.413  17.375  67.276  1.00  0.00    -0.155 A  
HETATM   30  O   UNL     1      -5.295  17.782  67.952  1.00  0.00    -0.134 OA 
HETATM   31  C   UNL     1      -6.871  16.076  67.253  1.00  0.00    -0.236 A  
HETATM   32  C   UNL     1      -8.043  15.804  66.534  1.00  0.00    -0.231 A  
HETATM   33  C   UNL     1      -5.139  19.177  67.601  1.00  0.00    -0.170 C  
HETATM   34  C   UNL     1      -6.356  19.668  66.815  1.00  0.00    -0.185 C  
ENDBRANCH  25  26
ENDBRANCH  24  25
ENDBRANCH  21  24
ENDBRANCH   6  19
ENDBRANCH   2   6
TORSDOF 7
ENDMDL
MODEL      226
REMARK 921   NORMALIZED FREE ENERGY PREDICTED BY IDOCK:   -2.36 KCAL/MOL
REMARK 922        TOTAL FREE ENERGY PREDICTED BY IDOCK:   -5.11 KCAL/MOL
REMARK 923 INTER-LIGAND FREE ENERGY PREDICTED BY IDOCK:   -4.54 KCAL/MOL
REMARK 924 INTRA-LIGAND FREE ENERGY PREDICTED BY IDOCK:   -0.57 KCAL/MOL
REMARK 927      BINDING AFFINITY PREDICTED BY RF-SCORE:    0.00 PKD
ROOT
HETATM    1  N   UNL     1     -10.973   4.657  65.573  1.00  0.00    -0.893 N  
HETATM    2  C   UNL     1      -9.644   4.937  65.759  1.00  0.00    -0.170 C  
HETATM    3  H1  UNL     1     -11.604   4.971  66.310  1.00  0.00     0.000 HD 
HETATM    4  H2  UNL     1     -11.311   4.163  64.746  1.00  0.00     0.000 HD 
HETATM    5  O   UNL     1      -8.886   4.560  64.873  1.00  0.00    -0.136 OA 
ENDROOT
BRANCH   2   6
HETATM    6  C   UNL     1      -9.229   5.783  67.039  1.00  0.00    -0.118 C  
BRANCH   6   7
HETATM    7  C   UNL     1      -8.540   4.790  68.077  1.00  0.00    -0.105 A  
HETATM    8  C   UNL     1      -7.155   2.998  69.804  1.00  0.00    -0.041 A  
HETATM    9  C   UNL     1      -7.961   2.506  68.788  1.00  0.00    -0.062 A  
HETATM   10  C   UNL     1      -7.076   4.368  70.007  1.00  0.00    -0.045 A  
HETATM   11  C   UNL     1      -8.658   3.387  67.952  1.00  0.00    -0.119 A  
HETATM   12  C   UNL     1      -7.765   5.248  69.162  1.00  0.00    -0.081 A  
ENDBRANCH   6   7
BRANCH   6  13
HETATM   13  C   UNL     1      -8.230   6.918  66.601  1.00  0.00    -0.115 A  
HETATM   14  C   UNL     1      -8.605   7.869  65.621  1.00  0.00    -0.159 A  
HETATM   15  C   UNL     1      -7.711   8.837  65.151  1.00  0.00    -0.103 A  
HETATM   16  C   UNL     1      -6.424   8.908  65.665  1.00  0.00    -0.063 A  
HETATM   17  C   UNL     1      -6.937   7.047  67.133  1.00  0.00    -0.078 A  
HETATM   18  C   UNL     1      -6.039   8.017  66.668  1.00  0.00    -0.049 A  
ENDBRANCH   6  13
BRANCH   6  19
HETATM   19  C   UNL     1     -10.516   6.450  67.728  1.00  0.00    -0.281 C  
HETATM   20  C   UNL     1     -10.585   8.871  68.098  1.00  0.00    -0.157 C  
HETATM   21  N   UNL     1     -10.513   8.241  69.414  1.00  0.00    -0.223 NA 
HETATM   22  C   UNL     1     -10.495   6.781  69.230  1.00  0.00    -0.215 C  
HETATM   23  C   UNL     1     -11.009   7.779  67.130  1.00  0.00    -0.047 C  
BRANCH  21  24
HETATM   24  C   UNL     1      -9.392   8.712  70.248  1.00  0.00    -0.167 C  
BRANCH  24  25
HETATM   25  C   UNL     1      -8.039   8.798  69.519  1.00  0.00    -0.105 C  
BRANCH  25  26
HETATM   26  C   UNL     1      -7.560  10.231  69.374  1.00  0.00    -0.137 A  
HETATM   27  C   UNL     1      -6.647  10.764  70.295  1.00  0.00    -0.100 A  
HETATM   28  C   UNL     1      -6.205  12.067  70.122  1.00  0.00    -0.075 A  
HETATM   29  C   UNL     1      -6.644  12.828  69.055  1.00  0.00    -0.099 A  
HETATM   30  O   UNL     1      -6.094  14.081  69.002  1.00  0.00    -0.081 OA 
HETATM   31  C   UNL     1      -7.542  12.339  68.132  1.00  0.00    -0.127 A  
HETATM   32  C   UNL     1      -8.009  11.028  68.299  1.00  0.00    -0.124 A  
HETATM   33  C   UNL     1      -5.317  14.194  70.216  1.00  0.00    -0.105 C  
HETATM   34  C   UNL     1      -5.256  12.846  70.938  1.00  0.00    -0.162 C  
ENDBRANCH  25  26
ENDBRANCH  24  25
ENDBRANCH  21  24
ENDBRANCH   6  19
ENDBRANCH   2   6
TORSDOF 7
ENDMDL
MODEL      227
REMARK 921   NORMALIZED FREE ENERGY PREDICTED BY IDOCK:   -2.34 KCAL/MOL
REMARK 922        TOTAL FREE ENERGY PREDICTED BY IDOCK:   -5.07 KCAL/MOL
REMARK 923 INTER-LIGAND FREE ENERGY PREDICTED BY IDOCK:   -5.24 KCAL/MOL
REMARK 924 INTRA-LIGAND FREE ENERGY PREDICTED BY IDOCK:    0.17 KCAL/MOL
REMARK 927      BINDING AFFINITY PREDICTED BY RF-SCORE:    0.00 PKD
ROOT
HETATM    1  N   UNL     1      -7.783  11.318  65.781  1.00  0.00    -0.367 N  
HETATM    2  C   UNL     1      -8.338  11.622  66.998  1.00  0.00    -0.169 C  
HETATM    3  H1  UNL     1      -8.268  11.688  64.964  1.00  0.00     0.000 HD 
HETATM    4  H2  UNL     1      -6.935  10.757  65.698  1.00  0.00     0.000 HD 
HETATM    5  O   UNL     1      -7.755  11.177  67.980  1.00  0.00    -0.100 OA 
ENDROOT
BRANCH   2   6
HETATM    6  C   UNL     1      -9.611  12.572  67.025  1.00  0.00    -0.216 C  
BRANCH   6   7
HETATM    7  C   UNL     1      -9.119  14.037  67.412  1.00  0.00    -0.209 A  
HETATM    8  C   UNL     1      -8.278  16.611  68.298  1.00  0.00    -0.200 A  
HETATM    9  C   UNL     1      -9.619  16.363  68.041  1.00  0.00    -0.226 A  
HETATM   10  C   UNL     1      -7.345  15.611  68.064  1.00  0.00    -0.137 A  
HETATM   11  C   UNL     1     -10.030  15.104  67.586  1.00  0.00    -0.229 A  
HETATM   12  C   UNL     1      -7.760  14.348  67.619  1.00  0.00    -0.198 A  
ENDBRANCH   6   7
BRANCH   6  13
HETATM   13  C   UNL     1     -10.285  12.565  65.602  1.00  0.00    -0.287 A  
HETATM   14  C   UNL     1     -11.576  13.116  65.414  1.00  0.00    -0.362 A  
HETATM   15  C   UNL     1     -12.235  13.050  64.181  1.00  0.00    -0.471 A  
HETATM   16  C   UNL     1     -11.615  12.460  63.088  1.00  0.00    -0.291 A  
HETATM   17  C   UNL     1      -9.668  12.019  64.466  1.00  0.00    -0.101 A  
HETATM   18  C   UNL     1     -10.322  11.953  63.228  1.00  0.00    -0.432 A  
ENDBRANCH   6  13
BRANCH   6  19
HETATM   19  C   UNL     1     -10.677  12.073  68.116  1.00  0.00    -0.246 C  
HETATM   20  C   UNL     1     -10.008  10.443  69.819  1.00  0.00    -0.124 C  
HETATM   21  N   UNL     1     -10.964   9.773  68.940  1.00  0.00    -0.188 NA 
HETATM   22  C   UNL     1     -11.407  10.734  67.917  1.00  0.00    -0.299 C  
HETATM   23  C   UNL     1     -10.170  11.932  69.562  1.00  0.00     0.533 C  
BRANCH  21  24
HETATM   24  C   UNL     1     -10.465   8.519  68.347  1.00  0.00    -0.171 C  
BRANCH  24  25
HETATM   25  C   UNL     1      -9.230   7.923  69.048  1.00  0.00    -0.147 C  
BRANCH  25  26
HETATM   26  C   UNL     1      -8.157   7.508  68.057  1.00  0.00    -0.124 A  
HETATM   27  C   UNL     1      -8.460   7.414  66.693  1.00  0.00    -0.124 A  
HETATM   28  C   UNL     1      -7.453   7.060  65.806  1.00  0.00    -0.081 A  
HETATM   29  C   UNL     1      -6.169   6.816  66.254  1.00  0.00    -0.044 A  
HETATM   30  O   UNL     1      -5.281   6.509  65.258  1.00  0.00    -0.017 OA 
HETATM   31  C   UNL     1      -5.835   6.897  67.588  1.00  0.00    -0.021 A  
HETATM   32  C   UNL     1      -6.843   7.240  68.499  1.00  0.00    -0.073 A  
HETATM   33  C   UNL     1      -6.086   6.424  64.060  1.00  0.00    -0.026 C  
HETATM   34  C   UNL     1      -7.514   6.899  64.341  1.00  0.00    -0.100 C  
ENDBRANCH  25  26
ENDBRANCH  24  25
ENDBRANCH  21  24
ENDBRANCH   6  19
ENDBRANCH   2   6
TORSDOF 7
ENDMDL
MODEL      228
REMARK 921   NORMALIZED FREE ENERGY PREDICTED BY IDOCK:   -2.06 KCAL/MOL
REMARK 922        TOTAL FREE ENERGY PREDICTED BY IDOCK:   -4.68 KCAL/MOL
REMARK 923 INTER-LIGAND FREE ENERGY PREDICTED BY IDOCK:   -5.14 KCAL/MOL
REMARK 924 INTRA-LIGAND FREE ENERGY PREDICTED BY IDOCK:    0.47 KCAL/MOL
REMARK 927      BINDING AFFINITY PREDICTED BY RF-SCORE:    0.00 PKD
ROOT
HETATM    1  N   UNL     1      -8.479  11.776  67.753  1.00  0.00    -0.140 N  
HETATM    2  C   UNL     1      -8.129  13.066  67.446  1.00  0.00    -0.180 C  
HETATM    3  H1  UNL     1      -9.474  11.603  67.890  1.00  0.00     0.000 HD 
HETATM    4  H2  UNL     1      -7.785  11.033  67.839  1.00  0.00     0.000 HD 
HETATM    5  O   UNL     1      -6.932  13.273  67.281  1.00  0.00    -0.138 OA 
ENDROOT
BRANCH   2   6
HETATM    6  C   UNL     1      -9.292  14.131  67.253  1.00  0.00    -0.225 C  
BRANCH   6   7
HETATM    7  C   UNL     1     -10.354  13.910  68.420  1.00  0.00    -0.249 A  
HETATM    8  C   UNL     1     -12.103  13.444  70.620  1.00  0.00    -0.374 A  
HETATM    9  C   UNL     1     -11.812  12.421  69.729  1.00  0.00    -0.387 A  
HETATM   10  C   UNL     1     -11.581  14.710  70.396  1.00  0.00    -0.326 A  
HETATM   11  C   UNL     1     -10.968  12.655  68.636  1.00  0.00    -0.292 A  
HETATM   12  C   UNL     1     -10.728  14.939  69.308  1.00  0.00    -0.253 A  
ENDBRANCH   6   7
BRANCH   6  13
HETATM   13  C   UNL     1      -8.676  15.579  67.322  1.00  0.00    -0.214 A  
HETATM   14  C   UNL     1      -8.178  16.206  66.154  1.00  0.00    -0.143 A  
HETATM   15  C   UNL     1      -7.551  17.456  66.198  1.00  0.00    -0.321 A  
HETATM   16  C   UNL     1      -7.426  18.134  67.402  1.00  0.00    -0.219 A  
HETATM   17  C   UNL     1      -8.577  16.312  68.515  1.00  0.00    -0.211 A  
HETATM   18  C   UNL     1      -7.952  17.566  68.563  1.00  0.00    -0.271 A  
ENDBRANCH   6  13
BRANCH   6  19
HETATM   19  C   UNL     1     -10.022  13.935  65.838  1.00  0.00    -0.317 C  
HETATM   20  C   UNL     1     -11.497  12.010  65.482  1.00  0.00    -0.313 C  
HETATM   21  N   UNL     1     -10.328  11.815  64.628  1.00  0.00    -0.275 NA 
HETATM   22  C   UNL     1      -9.430  12.968  64.798  1.00  0.00     0.508 C  
HETATM   23  C   UNL     1     -11.490  13.478  65.876  1.00  0.00    -0.338 C  
BRANCH  21  24
HETATM   24  C   UNL     1      -9.633  10.532  64.839  1.00  0.00    -0.277 C  
BRANCH  24  25
HETATM   25  C   UNL     1     -10.551   9.360  65.232  1.00  0.00     1.577 C  
BRANCH  25  26
HETATM   26  C   UNL     1      -9.891   8.432  66.237  1.00  0.00    -0.257 A  
HETATM   27  C   UNL     1     -10.659   7.816  67.234  1.00  0.00    -0.376 A  
HETATM   28  C   UNL     1     -10.035   6.950  68.121  1.00  0.00    -0.170 A  
HETATM   29  C   UNL     1      -8.683   6.688  68.020  1.00  0.00    -0.117 A  
HETATM   30  O   UNL     1      -8.219   5.791  68.945  1.00  0.00    -0.100 OA 
HETATM   31  C   UNL     1      -7.896   7.276  67.054  1.00  0.00    -0.112 A  
HETATM   32  C   UNL     1      -8.507   8.163  66.158  1.00  0.00    -0.143 A  
HETATM   33  C   UNL     1      -9.350   5.537  69.810  1.00  0.00    -0.142 C  
HETATM   34  C   UNL     1     -10.614   6.185  69.240  1.00  0.00    -0.348 C  
ENDBRANCH  25  26
ENDBRANCH  24  25
ENDBRANCH  21  24
ENDBRANCH   6  19
ENDBRANCH   2   6
TORSDOF 7
ENDMDL
MODEL      229
REMARK 921   NORMALIZED FREE ENERGY PREDICTED BY IDOCK:   -1.89 KCAL/MOL
REMARK 922        TOTAL FREE ENERGY PREDICTED BY IDOCK:   -4.45 KCAL/MOL
REMARK 923 INTER-LIGAND FREE ENERGY PREDICTED BY IDOCK:   -4.33 KCAL/MOL
REMARK 924 INTRA-LIGAND FREE ENERGY PREDICTED BY IDOCK:   -0.12 KCAL/MOL
REMARK 927      BINDING AFFINITY PREDICTED BY RF-SCORE:    0.00 PKD
ROOT
HETATM    1  N   UNL     1      -7.534   8.434  74.527  1.00  0.00    -0.217 N  
HETATM    2  C   UNL     1      -6.893   7.374  73.938  1.00  0.00    -0.084 C  
HETATM    3  H1  UNL     1      -8.326   8.818  74.014  1.00  0.00     0.000 HD 
HETATM    4  H2  UNL     1      -7.236   8.814  75.426  1.00  0.00     0.000 HD 
HETATM    5  O   UNL     1      -5.940   6.912  74.555  1.00  0.00    -0.070 OA 
ENDROOT
BRANCH   2   6
HETATM    6  C   UNL     1      -7.485   6.803  72.578  1.00  0.00    -0.091 C  
BRANCH   6   7
HETATM    7  C   UNL     1      -8.892   6.130  72.904  1.00  0.00    -0.125 A  
HETATM    8  C   UNL     1     -11.358   4.778  73.361  1.00  0.00    -0.397 A  
HETATM    9  C   UNL     1     -11.219   5.631  72.277  1.00  0.00    -0.317 A  
HETATM   10  C   UNL     1     -10.304   4.635  74.253  1.00  0.00    -0.311 A  
HETATM   11  C   UNL     1     -10.014   6.312  72.063  1.00  0.00    -0.187 A  
HETATM   12  C   UNL     1      -9.095   5.308  74.031  1.00  0.00    -0.118 A  
ENDBRANCH   6   7
BRANCH   6  13
HETATM   13  C   UNL     1      -7.653   7.987  71.555  1.00  0.00    -0.087 A  
HETATM   14  C   UNL     1      -6.527   8.725  71.116  1.00  0.00    -0.061 A  
HETATM   15  C   UNL     1      -6.654   9.834  70.273  1.00  0.00    -0.102 A  
HETATM   16  C   UNL     1      -7.905  10.225  69.816  1.00  0.00    -0.151 A  
HETATM   17  C   UNL     1      -8.898   8.379  71.037  1.00  0.00    -0.193 A  
HETATM   18  C   UNL     1      -9.030   9.488  70.189  1.00  0.00    -0.269 A  
ENDBRANCH   6  13
BRANCH   6  19
HETATM   19  C   UNL     1      -6.510   5.695  71.948  1.00  0.00    -0.052 C  
HETATM   20  C   UNL     1      -6.924   4.849  69.686  1.00  0.00    -0.053 C  
HETATM   21  N   UNL     1      -7.179   3.745  70.607  1.00  0.00    -0.037 NA 
HETATM   22  C   UNL     1      -6.915   4.211  71.977  1.00  0.00    -0.046 C  
HETATM   23  C   UNL     1      -6.123   5.876  70.470  1.00  0.00    -0.030 C  
BRANCH  21  24
HETATM   24  C   UNL     1      -8.518   3.142  70.472  1.00  0.00    -0.060 C  
BRANCH  24  25
HETATM   25  C   UNL     1      -8.565   1.866  69.610  1.00  0.00    -0.095 C  
BRANCH  25  26
HETATM   26  C   UNL     1      -8.472   2.177  68.127  1.00  0.00    -0.089 A  
HETATM   27  C   UNL     1      -9.332   3.122  67.552  1.00  0.00    -0.241 A  
HETATM   28  C   UNL     1      -9.205   3.407  66.200  1.00  0.00    -0.169 A  
HETATM   29  C   UNL     1      -8.243   2.781  65.432  1.00  0.00    -0.088 A  
HETATM   30  O   UNL     1      -8.221   3.190  64.125  1.00  0.00    -0.085 OA 
HETATM   31  C   UNL     1      -7.382   1.846  65.962  1.00  0.00    -0.061 A  
HETATM   32  C   UNL     1      -7.505   1.536  67.323  1.00  0.00    -0.058 A  
HETATM   33  C   UNL     1      -9.357   4.076  63.997  1.00  0.00    -0.155 C  
HETATM   34  C   UNL     1      -9.975   4.352  65.369  1.00  0.00    -0.231 C  
ENDBRANCH  25  26
ENDBRANCH  24  25
ENDBRANCH  21  24
ENDBRANCH   6  19
ENDBRANCH   2   6
TORSDOF 7
ENDMDL
MODEL      230
REMARK 921   NORMALIZED FREE ENERGY PREDICTED BY IDOCK:   -1.84 KCAL/MOL
REMARK 922        TOTAL FREE ENERGY PREDICTED BY IDOCK:   -4.37 KCAL/MOL
REMARK 923 INTER-LIGAND FREE ENERGY PREDICTED BY IDOCK:   -4.37 KCAL/MOL
REMARK 924 INTRA-LIGAND FREE ENERGY PREDICTED BY IDOCK:   -0.00 KCAL/MOL
REMARK 927      BINDING AFFINITY PREDICTED BY RF-SCORE:    0.00 PKD
ROOT
HETATM    1  N   UNL     1      -6.447   6.942  73.770  1.00  0.00    -0.067 N  
HETATM    2  C   UNL     1      -7.217   7.680  72.909  1.00  0.00    -0.077 C  
HETATM    3  H1  UNL     1      -6.305   5.964  73.518  1.00  0.00     0.000 HD 
HETATM    4  H2  UNL     1      -6.039   7.346  74.614  1.00  0.00     0.000 HD 
HETATM    5  O   UNL     1      -7.387   8.855  73.213  1.00  0.00    -0.358 OA 
ENDROOT
BRANCH   2   6
HETATM    6  C   UNL     1      -7.735   6.979  71.580  1.00  0.00    -0.090 C  
BRANCH   6   7
HETATM    7  C   UNL     1      -9.327   6.931  71.643  1.00  0.00    -0.154 A  
HETATM    8  C   UNL     1     -12.167   6.712  71.606  1.00  0.00    -0.401 A  
HETATM    9  C   UNL     1     -11.522   7.588  70.745  1.00  0.00    -0.305 A  
HETATM   10  C   UNL     1     -11.420   5.988  72.524  1.00  0.00    -0.336 A  
HETATM   11  C   UNL     1     -10.127   7.711  70.777  1.00  0.00    -0.189 A  
HETATM   12  C   UNL     1     -10.023   6.104  72.547  1.00  0.00    -0.188 A  
ENDBRANCH   6   7
BRANCH   6  13
HETATM   13  C   UNL     1      -7.249   7.814  70.337  1.00  0.00    -0.058 A  
HETATM   14  C   UNL     1      -8.131   8.702  69.675  1.00  0.00    -0.112 A  
HETATM   15  C   UNL     1      -7.753   9.394  68.520  1.00  0.00    -0.085 A  
HETATM   16  C   UNL     1      -6.473   9.246  68.004  1.00  0.00    -0.059 A  
HETATM   17  C   UNL     1      -5.947   7.725  69.818  1.00  0.00    -0.023 A  
HETATM   18  C   UNL     1      -5.563   8.418  68.662  1.00  0.00    -0.037 A  
ENDBRANCH   6  13
BRANCH   6  19
HETATM   19  C   UNL     1      -7.172   5.481  71.463  1.00  0.00    -0.081 C  
HETATM   20  C   UNL     1      -7.220   4.324  69.304  1.00  0.00    -0.051 C  
HETATM   21  N   UNL     1      -8.168   3.636  70.178  1.00  0.00    -0.052 NA 
HETATM   22  C   UNL     1      -8.146   4.292  71.495  1.00  0.00    -0.087 C  
HETATM   23  C   UNL     1      -6.333   5.155  70.216  1.00  0.00    -0.026 C  
BRANCH  21  24
HETATM   24  C   UNL     1      -9.532   3.534  69.629  1.00  0.00    -0.165 C  
BRANCH  24  25
HETATM   25  C   UNL     1     -10.089   4.845  69.041  1.00  0.00    -0.210 C  
BRANCH  25  26
HETATM   26  C   UNL     1      -9.602   5.086  67.624  1.00  0.00    -0.173 A  
HETATM   27  C   UNL     1      -9.265   6.380  67.207  1.00  0.00    -0.122 A  
HETATM   28  C   UNL     1      -8.796   6.567  65.915  1.00  0.00    -0.131 A  
HETATM   29  C   UNL     1      -8.650   5.497  65.054  1.00  0.00    -0.128 A  
HETATM   30  O   UNL     1      -8.147   5.835  63.826  1.00  0.00    -0.117 OA 
HETATM   31  C   UNL     1      -8.973   4.211  65.427  1.00  0.00    -0.132 A  
HETATM   32  C   UNL     1      -9.461   4.006  66.725  1.00  0.00    -0.219 A  
HETATM   33  C   UNL     1      -8.073   7.280  63.843  1.00  0.00    -0.013 C  
HETATM   34  C   UNL     1      -8.376   7.812  65.245  1.00  0.00    -0.128 C  
ENDBRANCH  25  26
ENDBRANCH  24  25
ENDBRANCH  21  24
ENDBRANCH   6  19
ENDBRANCH   2   6
TORSDOF 7
ENDMDL
MODEL      231
REMARK 921   NORMALIZED FREE ENERGY PREDICTED BY IDOCK:   -1.66 KCAL/MOL
REMARK 922        TOTAL FREE ENERGY PREDICTED BY IDOCK:   -4.12 KCAL/MOL
REMARK 923 INTER-LIGAND FREE ENERGY PREDICTED BY IDOCK:   -4.68 KCAL/MOL
REMARK 924 INTRA-LIGAND FREE ENERGY PREDICTED BY IDOCK:    0.56 KCAL/MOL
REMARK 927      BINDING AFFINITY PREDICTED BY RF-SCORE:    0.00 PKD
ROOT
HETATM    1  N   UNL     1      -9.832   9.672  66.190  1.00  0.00    -0.247 N  
HETATM    2  C   UNL     1      -8.695   9.756  66.951  1.00  0.00    -0.135 C  
HETATM    3  H1  UNL     1     -10.675   9.371  66.677  1.00  0.00     0.000 HD 
HETATM    4  H2  UNL     1      -9.834   9.896  65.194  1.00  0.00     0.000 HD 
HETATM    5  O   UNL     1      -7.681  10.118  66.365  1.00  0.00    -0.105 OA 
ENDROOT
BRANCH   2   6
HETATM    6  C   UNL     1      -8.813   9.465  68.509  1.00  0.00    -0.128 C  
BRANCH   6   7
HETATM    7  C   UNL     1      -8.980   7.892  68.700  1.00  0.00    -0.134 A  
HETATM    8  C   UNL     1      -9.433   5.088  68.914  1.00  0.00    -0.195 A  
HETATM    9  C   UNL     1     -10.143   5.973  69.712  1.00  0.00    -0.246 A  
HETATM   10  C   UNL     1      -8.461   5.577  68.053  1.00  0.00    -0.098 A  
HETATM   11  C   UNL     1      -9.905   7.351  69.622  1.00  0.00    -0.175 A  
HETATM   12  C   UNL     1      -8.233   6.956  67.956  1.00  0.00    -0.115 A  
ENDBRANCH   6   7
BRANCH   6  13
HETATM   13  C   UNL     1      -7.511   9.982  69.227  1.00  0.00    -0.103 A  
HETATM   14  C   UNL     1      -7.365  11.352  69.554  1.00  0.00     0.077 A  
HETATM   15  C   UNL     1      -6.187  11.855  70.117  1.00  0.00    -0.087 A  
HETATM   16  C   UNL     1      -5.128  11.004  70.399  1.00  0.00    -0.069 A  
HETATM   17  C   UNL     1      -6.441   9.141  69.569  1.00  0.00    -0.043 A  
HETATM   18  C   UNL     1      -5.259   9.640  70.135  1.00  0.00    -0.032 A  
ENDBRANCH   6  13
BRANCH   6  19
HETATM   19  C   UNL     1     -10.092  10.206  69.136  1.00  0.00    -0.226 C  
HETATM   20  C   UNL     1     -11.861  11.044  67.662  1.00  0.00     0.167 C  
HETATM   21  N   UNL     1     -11.206  12.210  68.247  1.00  0.00    -0.245 NA 
HETATM   22  C   UNL     1     -10.151  11.742  69.160  1.00  0.00     0.126 C  
HETATM   23  C   UNL     1     -11.460   9.858  68.524  1.00  0.00     0.057 C  
BRANCH  21  24
HETATM   24  C   UNL     1     -10.697  13.179  67.258  1.00  0.00    -0.254 C  
BRANCH  24  25
HETATM   25  C   UNL     1     -11.347  14.573  67.330  1.00  0.00    -0.370 C  
BRANCH  25  26
HETATM   26  C   UNL     1     -10.312  15.683  67.357  1.00  0.00    -0.275 A  
HETATM   27  C   UNL     1      -9.286  15.664  68.312  1.00  0.00    -0.188 A  
HETATM   28  C   UNL     1      -8.337  16.676  68.296  1.00  0.00    -0.198 A  
HETATM   29  C   UNL     1      -8.391  17.681  67.349  1.00  0.00    -0.210 A  
HETATM   30  O   UNL     1      -7.369  18.588  67.442  1.00  0.00    -0.215 OA 
HETATM   31  C   UNL     1      -9.385  17.734  66.397  1.00  0.00    -0.264 A  
HETATM   32  C   UNL     1     -10.359  16.727  66.408  1.00  0.00    -0.309 A  
HETATM   33  C   UNL     1      -6.648  18.210  68.638  1.00  0.00    -0.233 C  
HETATM   34  C   UNL     1      -7.172  16.878  69.178  1.00  0.00    -0.209 C  
ENDBRANCH  25  26
ENDBRANCH  24  25
ENDBRANCH  21  24
ENDBRANCH   6  19
ENDBRANCH   2   6
TORSDOF 7
ENDMDL
MODEL      232
REMARK 921   NORMALIZED FREE ENERGY PREDICTED BY IDOCK:   -1.45 KCAL/MOL
REMARK 922        TOTAL FREE ENERGY PREDICTED BY IDOCK:   -3.82 KCAL/MOL
REMARK 923 INTER-LIGAND FREE ENERGY PREDICTED BY IDOCK:   -3.74 KCAL/MOL
REMARK 924 INTRA-LIGAND FREE ENERGY PREDICTED BY IDOCK:   -0.08 KCAL/MOL
REMARK 927      BINDING AFFINITY PREDICTED BY RF-SCORE:    0.00 PKD
ROOT
HETATM    1  N   UNL     1      -7.939   8.202  74.367  1.00  0.00    -0.245 N  
HETATM    2  C   UNL     1      -7.292   7.240  73.636  1.00  0.00    -0.086 C  
HETATM    3  H1  UNL     1      -8.917   8.362  74.129  1.00  0.00     0.000 HD 
HETATM    4  H2  UNL     1      -7.470   8.727  75.106  1.00  0.00     0.000 HD 
HETATM    5  O   UNL     1      -6.115   7.048  73.922  1.00  0.00    -0.062 OA 
ENDROOT
BRANCH   2   6
HETATM    6  C   UNL     1      -8.133   6.421  72.565  1.00  0.00    -0.102 C  
BRANCH   6   7
HETATM    7  C   UNL     1      -8.362   4.954  73.142  1.00  0.00    -0.104 A  
HETATM    8  C   UNL     1      -8.666   2.261  74.019  1.00  0.00    -0.066 A  
HETATM    9  C   UNL     1      -9.543   2.795  73.086  1.00  0.00    -0.139 A  
HETATM   10  C   UNL     1      -7.677   3.067  74.563  1.00  0.00    -0.056 A  
HETATM   11  C   UNL     1      -9.406   4.126  72.670  1.00  0.00    -0.155 A  
HETATM   12  C   UNL     1      -7.535   4.395  74.138  1.00  0.00    -0.073 A  
ENDBRANCH   6   7
BRANCH   6  13
HETATM   13  C   UNL     1      -9.507   7.151  72.326  1.00  0.00    -0.157 A  
HETATM   14  C   UNL     1      -9.581   8.295  71.495  1.00  0.00    -0.247 A  
HETATM   15  C   UNL     1     -10.770   9.013  71.330  1.00  0.00    -0.401 A  
HETATM   16  C   UNL     1     -11.931   8.597  71.966  1.00  0.00    -0.442 A  
HETATM   17  C   UNL     1     -10.709   6.729  72.915  1.00  0.00    -0.291 A  
HETATM   18  C   UNL     1     -11.904   7.443  72.751  1.00  0.00    -0.107 A  
ENDBRANCH   6  13
BRANCH   6  19
HETATM   19  C   UNL     1      -7.342   6.316  71.172  1.00  0.00    -0.080 C  
HETATM   20  C   UNL     1      -8.340   5.105  69.290  1.00  0.00    -0.087 C  
HETATM   21  N   UNL     1      -7.177   4.334  69.725  1.00  0.00    -0.049 NA 
HETATM   22  C   UNL     1      -6.537   5.048  70.841  1.00  0.00    -0.035 C  
HETATM   23  C   UNL     1      -8.175   6.491  69.890  1.00  0.00    -0.126 C  
BRANCH  21  24
HETATM   24  C   UNL     1      -7.474   2.929  70.059  1.00  0.00    -0.044 C  
BRANCH  24  25
HETATM   25  C   UNL     1      -6.716   1.892  69.210  1.00  0.00    -0.029 C  
BRANCH  25  26
HETATM   26  C   UNL     1      -6.803   2.198  67.725  1.00  0.00    -0.039 A  
HETATM   27  C   UNL     1      -8.045   2.183  67.076  1.00  0.00    -0.076 A  
HETATM   28  C   UNL     1      -8.099   2.495  65.725  1.00  0.00    -0.084 A  
HETATM   29  C   UNL     1      -6.952   2.827  65.030  1.00  0.00    -0.049 A  
HETATM   30  O   UNL     1      -7.171   3.139  63.715  1.00  0.00    -0.048 OA 
HETATM   31  C   UNL     1      -5.715   2.850  65.633  1.00  0.00    -0.018 A  
HETATM   32  C   UNL     1      -5.640   2.525  66.994  1.00  0.00    -0.018 A  
HETATM   33  C   UNL     1      -8.574   2.867  63.499  1.00  0.00    -0.086 C  
HETATM   34  C   UNL     1      -9.267   2.552  64.827  1.00  0.00    -0.137 C  
ENDBRANCH  25  26
ENDBRANCH  24  25
ENDBRANCH  21  24
ENDBRANCH   6  19
ENDBRANCH   2   6
TORSDOF 7
ENDMDL
MODEL      233
REMARK 921   NORMALIZED FREE ENERGY PREDICTED BY IDOCK:   -1.15 KCAL/MOL
REMARK 922        TOTAL FREE ENERGY PREDICTED BY IDOCK:   -3.39 KCAL/MOL
REMARK 923 INTER-LIGAND FREE ENERGY PREDICTED BY IDOCK:   -5.22 KCAL/MOL
REMARK 924 INTRA-LIGAND FREE ENERGY PREDICTED BY IDOCK:    1.83 KCAL/MOL
REMARK 927      BINDING AFFINITY PREDICTED BY RF-SCORE:    0.00 PKD
ROOT
HETATM    1  N   UNL     1      -8.631  10.857  67.633  1.00  0.00    -0.123 N  
HETATM    2  C   UNL     1      -8.019   9.682  67.986  1.00  0.00    -0.097 C  
HETATM    3  H1  UNL     1      -9.451  11.117  68.180  1.00  0.00     0.000 HD 
HETATM    4  H2  UNL     1      -8.286  11.438  66.868  1.00  0.00     0.000 HD 
HETATM    5  O   UNL     1      -7.033   9.370  67.328  1.00  0.00    -0.083 OA 
ENDROOT
BRANCH   2   6
HETATM    6  C   UNL     1      -8.584   8.892  69.244  1.00  0.00    -0.133 C  
BRANCH   6   7
HETATM    7  C   UNL     1      -9.090   7.468  68.739  1.00  0.00    -0.135 A  
HETATM    8  C   UNL     1      -9.825   4.909  67.728  1.00  0.00    -0.196 A  
HETATM    9  C   UNL     1     -10.113   6.056  67.003  1.00  0.00    -0.220 A  
HETATM   10  C   UNL     1      -9.229   5.025  68.975  1.00  0.00    -0.157 A  
HETATM   11  C   UNL     1      -9.769   7.316  67.509  1.00  0.00    -0.181 A  
HETATM   12  C   UNL     1      -8.877   6.285  69.475  1.00  0.00    -0.135 A  
ENDBRANCH   6   7
BRANCH   6  13
HETATM   13  C   UNL     1      -7.434   8.735  70.308  1.00  0.00    -0.067 A  
HETATM   14  C   UNL     1      -7.587   7.857  71.409  1.00  0.00    -0.083 A  
HETATM   15  C   UNL     1      -6.618   7.758  72.414  1.00  0.00    -0.060 A  
HETATM   16  C   UNL     1      -5.454   8.508  72.338  1.00  0.00    -0.048 A  
HETATM   17  C   UNL     1      -6.224   9.443  70.237  1.00  0.00    -0.056 A  
HETATM   18  C   UNL     1      -5.250   9.345  71.240  1.00  0.00    -0.050 A  
ENDBRANCH   6  13
BRANCH   6  19
HETATM   19  C   UNL     1      -9.815   9.678  69.910  1.00  0.00    -0.271 C  
HETATM   20  C   UNL     1     -11.984   9.738  68.770  1.00  0.00     0.992 C  
HETATM   21  N   UNL     1     -11.450  11.098  68.744  1.00  0.00    -0.271 NA 
HETATM   22  C   UNL     1     -10.156  11.104  69.443  1.00  0.00     0.040 C  
HETATM   23  C   UNL     1     -11.192   8.996  69.834  1.00  0.00    -0.092 C  
BRANCH  21  24
HETATM   24  C   UNL     1     -11.357  11.684  67.394  1.00  0.00    -0.300 C  
BRANCH  24  25
HETATM   25  C   UNL     1     -11.876  13.129  67.283  1.00  0.00    -0.420 C  
BRANCH  25  26
HETATM   26  C   UNL     1     -11.751  13.882  68.595  1.00  0.00    -0.396 A  
HETATM   27  C   UNL     1     -12.631  13.607  69.650  1.00  0.00     0.014 A  
HETATM   28  C   UNL     1     -12.476  14.289  70.848  1.00  0.00    -0.424 A  
HETATM   29  C   UNL     1     -11.465  15.217  71.007  1.00  0.00    -0.356 A  
HETATM   30  O   UNL     1     -11.420  15.783  72.253  1.00  0.00    -0.406 OA 
HETATM   31  C   UNL     1     -10.583  15.516  69.992  1.00  0.00    -0.337 A  
HETATM   32  C   UNL     1     -10.733  14.845  68.771  1.00  0.00    -0.252 A  
HETATM   33  C   UNL     1     -12.588  15.268  72.934  1.00  0.00    -0.408 C  
HETATM   34  C   UNL     1     -13.258  14.179  72.093  1.00  0.00    -0.510 C  
ENDBRANCH  25  26
ENDBRANCH  24  25
ENDBRANCH  21  24
ENDBRANCH   6  19
ENDBRANCH   2   6
TORSDOF 7
ENDMDL
MODEL      234
REMARK 921   NORMALIZED FREE ENERGY PREDICTED BY IDOCK:   -0.73 KCAL/MOL
REMARK 922        TOTAL FREE ENERGY PREDICTED BY IDOCK:   -2.81 KCAL/MOL
REMARK 923 INTER-LIGAND FREE ENERGY PREDICTED BY IDOCK:   -3.07 KCAL/MOL
REMARK 924 INTRA-LIGAND FREE ENERGY PREDICTED BY IDOCK:    0.26 KCAL/MOL
REMARK 927      BINDING AFFINITY PREDICTED BY RF-SCORE:    0.00 PKD
ROOT
HETATM    1  N   UNL     1     -10.263  18.139  68.240  1.00  0.00    -0.376 N  
HETATM    2  C   UNL     1     -10.796  16.877  68.184  1.00  0.00    -0.351 C  
HETATM    3  H1  UNL     1      -9.250  18.202  68.141  1.00  0.00     0.000 HD 
HETATM    4  H2  UNL     1     -10.845  18.967  68.373  1.00  0.00     0.000 HD 
HETATM    5  O   UNL     1     -12.013  16.802  68.303  1.00  0.00     0.359 OA 
ENDROOT
BRANCH   2   6
HETATM    6  C   UNL     1      -9.814  15.662  67.890  1.00  0.00    -0.217 C  
BRANCH   6   7
HETATM    7  C   UNL     1     -10.284  14.972  66.533  1.00  0.00    -0.281 A  
HETATM    8  C   UNL     1     -11.050  13.898  64.009  1.00  0.00     0.031 A  
HETATM    9  C   UNL     1     -11.879  14.793  64.668  1.00  0.00    -0.442 A  
HETATM   10  C   UNL     1      -9.873  13.487  64.617  1.00  0.00     0.062 A  
HETATM   11  C   UNL     1     -11.513  15.306  65.919  1.00  0.00    -0.092 A  
HETATM   12  C   UNL     1      -9.503  14.009  65.864  1.00  0.00    -0.106 A  
ENDBRANCH   6   7
BRANCH   6  13
HETATM   13  C   UNL     1      -8.344  16.211  67.761  1.00  0.00    -0.162 A  
HETATM   14  C   UNL     1      -7.598  15.998  66.576  1.00  0.00    -0.100 A  
HETATM   15  C   UNL     1      -6.263  16.401  66.463  1.00  0.00     0.400 A  
HETATM   16  C   UNL     1      -5.638  17.055  67.515  1.00  0.00    -0.161 A  
HETATM   17  C   UNL     1      -7.699  16.918  68.788  1.00  0.00    -0.247 A  
HETATM   18  C   UNL     1      -6.362  17.326  68.678  1.00  0.00    -0.173 A  
ENDBRANCH   6  13
BRANCH   6  19
HETATM   19  C   UNL     1      -9.871  14.580  69.074  1.00  0.00    -0.142 C  
HETATM   20  C   UNL     1      -8.778  12.404  68.792  1.00  0.00     0.154 C  
HETATM   21  N   UNL     1     -10.217  12.157  68.829  1.00  0.00    -0.167 NA 
HETATM   22  C   UNL     1     -10.905  13.443  69.023  1.00  0.00    -0.183 C  
HETATM   23  C   UNL     1      -8.576  13.800  69.359  1.00  0.00     0.753 C  
BRANCH  21  24
HETATM   24  C   UNL     1     -10.734  11.419  67.662  1.00  0.00    -0.216 C  
BRANCH  24  25
HETATM   25  C   UNL     1     -10.973   9.917  67.905  1.00  0.00    -0.281 C  
BRANCH  25  26
HETATM   26  C   UNL     1      -9.886   9.059  67.283  1.00  0.00    -0.252 A  
HETATM   27  C   UNL     1      -8.549   9.476  67.328  1.00  0.00    -0.128 A  
HETATM   28  C   UNL     1      -7.573   8.659  66.777  1.00  0.00    -0.086 A  
HETATM   29  C   UNL     1      -7.906   7.448  66.203  1.00  0.00    -0.107 A  
HETATM   30  O   UNL     1      -6.832   6.741  65.732  1.00  0.00    -0.053 OA 
HETATM   31  C   UNL     1      -9.209   7.006  66.138  1.00  0.00    -0.119 A  
HETATM   32  C   UNL     1     -10.209   7.825  66.678  1.00  0.00    -0.288 A  
HETATM   33  C   UNL     1      -5.703   7.629  65.903  1.00  0.00    -0.037 C  
HETATM   34  C   UNL     1      -6.115   8.866  66.703  1.00  0.00    -0.060 C  
ENDBRANCH  25  26
ENDBRANCH  24  25
ENDBRANCH  21  24
ENDBRANCH   6  19
ENDBRANCH   2   6
TORSDOF 7
ENDMDL
MODEL      235
REMARK 921   NORMALIZED FREE ENERGY PREDICTED BY IDOCK:   -0.19 KCAL/MOL
REMARK 922        TOTAL FREE ENERGY PREDICTED BY IDOCK:   -2.04 KCAL/MOL
REMARK 923 INTER-LIGAND FREE ENERGY PREDICTED BY IDOCK:   -3.04 KCAL/MOL
REMARK 924 INTRA-LIGAND FREE ENERGY PREDICTED BY IDOCK:    1.00 KCAL/MOL
REMARK 927      BINDING AFFINITY PREDICTED BY RF-SCORE:    0.00 PKD
ROOT
HETATM    1  N   UNL     1      -7.006   8.616  73.668  1.00  0.00    -0.021 N  
HETATM    2  C   UNL     1      -6.463   7.513  73.060  1.00  0.00    -0.061 C  
HETATM    3  H1  UNL     1      -7.776   9.066  73.173  1.00  0.00     0.000 HD 
HETATM    4  H2  UNL     1      -6.661   8.965  74.562  1.00  0.00     0.000 HD 
HETATM    5  O   UNL     1      -5.538   6.972  73.655  1.00  0.00    -0.049 OA 
ENDROOT
BRANCH   2   6
HETATM    6  C   UNL     1      -7.126   7.000  71.710  1.00  0.00    -0.070 C  
BRANCH   6   7
HETATM    7  C   UNL     1      -7.832   5.604  72.013  1.00  0.00    -0.106 A  
HETATM    8  C   UNL     1      -8.958   3.022  72.435  1.00  0.00    -0.123 A  
HETATM    9  C   UNL     1      -9.331   3.775  71.332  1.00  0.00    -0.208 A  
HETATM   10  C   UNL     1      -8.077   3.562  73.361  1.00  0.00    -0.075 A  
HETATM   11  C   UNL     1      -8.793   5.053  71.135  1.00  0.00    -0.149 A  
HETATM   12  C   UNL     1      -7.531   4.836  73.156  1.00  0.00    -0.087 A  
ENDBRANCH   6   7
BRANCH   6  13
HETATM   13  C   UNL     1      -8.176   8.064  71.218  1.00  0.00    -0.119 A  
HETATM   14  C   UNL     1      -9.471   8.117  71.790  1.00  0.00    -0.249 A  
HETATM   15  C   UNL     1     -10.451   8.995  71.317  1.00  0.00    -0.381 A  
HETATM   16  C   UNL     1     -10.164   9.871  70.279  1.00  0.00    -0.322 A  
HETATM   17  C   UNL     1      -7.903   8.995  70.203  1.00  0.00    -0.100 A  
HETATM   18  C   UNL     1      -8.882   9.880  69.728  1.00  0.00    -0.229 A  
ENDBRANCH   6  13
BRANCH   6  19
HETATM   19  C   UNL     1      -6.016   6.787  70.570  1.00  0.00    -0.024 C  
HETATM   20  C   UNL     1      -6.626   5.700  68.461  1.00  0.00    -0.052 C  
HETATM   21  N   UNL     1      -5.723   4.791  69.163  1.00  0.00    -0.016 NA 
HETATM   22  C   UNL     1      -5.316   5.425  70.427  1.00  0.00    -0.004 C  
HETATM   23  C   UNL     1      -6.455   7.058  69.121  1.00  0.00    -0.040 C  
BRANCH  21  24
HETATM   24  C   UNL     1      -6.269   3.437  69.370  1.00  0.00    -0.028 C  
BRANCH  24  25
HETATM   25  C   UNL     1      -5.842   2.403  68.311  1.00  0.00    -0.023 C  
BRANCH  25  26
HETATM   26  C   UNL     1      -6.530   2.635  66.978  1.00  0.00    -0.036 A  
HETATM   27  C   UNL     1      -6.140   1.903  65.849  1.00  0.00    -0.022 A  
HETATM   28  C   UNL     1      -6.805   2.116  64.650  1.00  0.00    -0.042 A  
HETATM   29  C   UNL     1      -7.843   3.024  64.568  1.00  0.00    -0.078 A  
HETATM   30  O   UNL     1      -8.420   3.099  63.329  1.00  0.00    -0.085 OA 
HETATM   31  C   UNL     1      -8.252   3.763  65.656  1.00  0.00    -0.105 A  
HETATM   32  C   UNL     1      -7.582   3.570  66.872  1.00  0.00    -0.079 A  
HETATM   33  C   UNL     1      -7.602   2.250  62.490  1.00  0.00    -0.045 C  
HETATM   34  C   UNL     1      -6.590   1.478  63.338  1.00  0.00    -0.014 C  
ENDBRANCH  25  26
ENDBRANCH  24  25
ENDBRANCH  21  24
ENDBRANCH   6  19
ENDBRANCH   2   6
TORSDOF 7
ENDMDL
MODEL      236
REMARK 921   NORMALIZED FREE ENERGY PREDICTED BY IDOCK:    0.02 KCAL/MOL
REMARK 922        TOTAL FREE ENERGY PREDICTED BY IDOCK:   -1.75 KCAL/MOL
REMARK 923 INTER-LIGAND FREE ENERGY PREDICTED BY IDOCK:   -3.56 KCAL/MOL
REMARK 924 INTRA-LIGAND FREE ENERGY PREDICTED BY IDOCK:    1.81 KCAL/MOL
REMARK 927      BINDING AFFINITY PREDICTED BY RF-SCORE:    0.00 PKD
ROOT
HETATM    1  N   UNL     1     -11.606  12.205  69.189  1.00  0.00    -0.296 N  
HETATM    2  C   UNL     1     -10.460  12.954  69.106  1.00  0.00     0.122 C  
HETATM    3  H1  UNL     1     -11.594  11.313  68.695  1.00  0.00     0.000 HD 
HETATM    4  H2  UNL     1     -12.422  12.521  69.715  1.00  0.00     0.000 HD 
HETATM    5  O   UNL     1     -10.475  14.026  69.700  1.00  0.00     0.057 OA 
ENDROOT
BRANCH   2   6
HETATM    6  C   UNL     1      -9.216  12.337  68.333  1.00  0.00    -0.145 C  
BRANCH   6   7
HETATM    7  C   UNL     1      -9.736  11.792  66.929  1.00  0.00    -0.212 A  
HETATM    8  C   UNL     1     -10.749  10.665  64.517  1.00  0.00     0.003 A  
HETATM    9  C   UNL     1      -9.537  10.233  65.035  1.00  0.00    -0.346 A  
HETATM   10  C   UNL     1     -11.434  11.690  65.153  1.00  0.00    -0.180 A  
HETATM   11  C   UNL     1      -9.028  10.802  66.210  1.00  0.00    -0.184 A  
HETATM   12  C   UNL     1     -10.929  12.250  66.334  1.00  0.00    -0.326 A  
ENDBRANCH   6   7
BRANCH   6  13
HETATM   13  C   UNL     1      -8.130  13.459  68.132  1.00  0.00    -0.155 A  
HETATM   14  C   UNL     1      -8.308  14.466  67.153  1.00  0.00    -0.214 A  
HETATM   15  C   UNL     1      -7.323  15.426  66.895  1.00  0.00     0.016 A  
HETATM   16  C   UNL     1      -6.143  15.431  67.625  1.00  0.00    -0.151 A  
HETATM   17  C   UNL     1      -6.947  13.521  68.885  1.00  0.00    -0.108 A  
HETATM   18  C   UNL     1      -5.959  14.483  68.632  1.00  0.00    -0.089 A  
ENDBRANCH   6  13
BRANCH   6  19
HETATM   19  C   UNL     1      -8.573  11.121  69.160  1.00  0.00     0.045 C  
HETATM   20  C   UNL     1      -7.400   9.325  67.974  1.00  0.00    -0.080 C  
HETATM   21  N   UNL     1      -8.615   8.741  68.538  1.00  0.00    -0.133 NA 
HETATM   22  C   UNL     1      -9.333   9.789  69.280  1.00  0.00    -0.191 C  
HETATM   23  C   UNL     1      -7.183  10.638  68.708  1.00  0.00    -0.087 C  
BRANCH  21  24
HETATM   24  C   UNL     1      -9.477   8.068  67.549  1.00  0.00    -0.146 C  
BRANCH  24  25
HETATM   25  C   UNL     1      -8.723   7.212  66.515  1.00  0.00    -0.139 C  
BRANCH  25  26
HETATM   26  C   UNL     1      -8.293   5.874  67.088  1.00  0.00    -0.105 A  
HETATM   27  C   UNL     1      -7.164   5.793  67.914  1.00  0.00    -0.072 A  
HETATM   28  C   UNL     1      -6.810   4.562  68.447  1.00  0.00    -0.051 A  
HETATM   29  C   UNL     1      -7.561   3.434  68.181  1.00  0.00    -0.057 A  
HETATM   30  O   UNL     1      -7.106   2.302  68.802  1.00  0.00    -0.043 OA 
HETATM   31  C   UNL     1      -8.676   3.474  67.372  1.00  0.00    -0.129 A  
HETATM   32  C   UNL     1      -9.040   4.707  66.815  1.00  0.00    -0.121 A  
HETATM   33  C   UNL     1      -5.869   2.703  69.435  1.00  0.00    -0.023 C  
HETATM   34  C   UNL     1      -5.684   4.218  69.335  1.00  0.00    -0.017 C  
ENDBRANCH  25  26
ENDBRANCH  24  25
ENDBRANCH  21  24
ENDBRANCH   6  19
ENDBRANCH   2   6
TORSDOF 7
ENDMDL
MODEL      237
REMARK 921   NORMALIZED FREE ENERGY PREDICTED BY IDOCK:    0.20 KCAL/MOL
REMARK 922        TOTAL FREE ENERGY PREDICTED BY IDOCK:   -1.50 KCAL/MOL
REMARK 923 INTER-LIGAND FREE ENERGY PREDICTED BY IDOCK:   -2.19 KCAL/MOL
REMARK 924 INTRA-LIGAND FREE ENERGY PREDICTED BY IDOCK:    0.69 KCAL/MOL
REMARK 927      BINDING AFFINITY PREDICTED BY RF-SCORE:    0.00 PKD
ROOT
HETATM    1  N   UNL     1      -9.105  16.989  66.513  1.00  0.00    -0.251 N  
HETATM    2  C   UNL     1      -8.089  16.073  66.613  1.00  0.00    -0.276 C  
HETATM    3  H1  UNL     1     -10.022  16.676  66.828  1.00  0.00     0.000 HD 
HETATM    4  H2  UNL     1      -8.952  17.928  66.144  1.00  0.00     0.000 HD 
HETATM    5  O   UNL     1      -6.986  16.449  66.234  1.00  0.00    -0.101 OA 
ENDROOT
BRANCH   2   6
HETATM    6  C   UNL     1      -8.413  14.666  67.278  1.00  0.00    -0.234 C  
BRANCH   6   7
HETATM    7  C   UNL     1      -7.346  14.416  68.435  1.00  0.00    -0.117 A  
HETATM    8  C   UNL     1      -5.515  13.784  70.524  1.00  0.00    -0.136 A  
HETATM    9  C   UNL     1      -6.786  14.251  70.826  1.00  0.00     0.366 A  
HETATM   10  C   UNL     1      -5.125  13.684  69.196  1.00  0.00    -0.077 A  
HETATM   11  C   UNL     1      -7.679  14.582  69.799  1.00  0.00     0.219 A  
HETATM   12  C   UNL     1      -6.025  14.004  68.170  1.00  0.00    -0.126 A  
ENDBRANCH   6   7
BRANCH   6  13
HETATM   13  C   UNL     1      -9.875  14.699  67.860  1.00  0.00    -0.217 A  
HETATM   14  C   UNL     1     -10.217  13.918  68.991  1.00  0.00    -0.071 A  
HETATM   15  C   UNL     1     -11.527  13.863  69.481  1.00  0.00    -0.332 A  
HETATM   16  C   UNL     1     -12.531  14.607  68.877  1.00  0.00     0.069 A  
HETATM   17  C   UNL     1     -10.903  15.476  67.303  1.00  0.00    -0.313 A  
HETATM   18  C   UNL     1     -12.216  15.426  67.792  1.00  0.00     0.489 A  
ENDBRANCH   6  13
BRANCH   6  19
HETATM   19  C   UNL     1      -8.300  13.483  66.199  1.00  0.00     1.143 C  
HETATM   20  C   UNL     1     -10.276  12.140  65.650  1.00  0.00    -0.256 C  
HETATM   21  N   UNL     1      -9.343  11.260  66.348  1.00  0.00    -0.187 NA 
HETATM   22  C   UNL     1      -8.131  12.029  66.672  1.00  0.00    -0.023 C  
HETATM   23  C   UNL     1      -9.464  13.345  65.202  1.00  0.00     0.373 C  
BRANCH  21  24
HETATM   24  C   UNL     1      -9.912  10.593  67.534  1.00  0.00    -0.171 C  
BRANCH  24  25
HETATM   25  C   UNL     1      -9.963   9.056  67.445  1.00  0.00    -0.266 C  
BRANCH  25  26
HETATM   26  C   UNL     1      -9.719   8.400  68.792  1.00  0.00    -0.168 A  
HETATM   27  C   UNL     1     -10.777   7.786  69.476  1.00  0.00    -0.200 A  
HETATM   28  C   UNL     1     -10.520   7.169  70.692  1.00  0.00    -0.226 A  
HETATM   29  C   UNL     1      -9.243   7.146  71.218  1.00  0.00    -0.151 A  
HETATM   30  O   UNL     1      -9.143   6.474  72.407  1.00  0.00    -0.135 OA 
HETATM   31  C   UNL     1      -8.180   7.741  70.576  1.00  0.00    -0.120 A  
HETATM   32  C   UNL     1      -8.424   8.380  69.353  1.00  0.00    -0.125 A  
HETATM   33  C   UNL     1     -10.505   6.130  72.752  1.00  0.00    -0.216 C  
HETATM   34  C   UNL     1     -11.448   6.459  71.592  1.00  0.00    -0.354 C  
ENDBRANCH  25  26
ENDBRANCH  24  25
ENDBRANCH  21  24
ENDBRANCH   6  19
ENDBRANCH   2   6
TORSDOF 7
ENDMDL
MODEL      238
REMARK 921   NORMALIZED FREE ENERGY PREDICTED BY IDOCK:    0.60 KCAL/MOL
REMARK 922        TOTAL FREE ENERGY PREDICTED BY IDOCK:   -0.94 KCAL/MOL
REMARK 923 INTER-LIGAND FREE ENERGY PREDICTED BY IDOCK:   -3.20 KCAL/MOL
REMARK 924 INTRA-LIGAND FREE ENERGY PREDICTED BY IDOCK:    2.26 KCAL/MOL
REMARK 927      BINDING AFFINITY PREDICTED BY RF-SCORE:    0.00 PKD
ROOT
HETATM    1  N   UNL     1      -6.826  12.544  67.290  1.00  0.00    -0.268 N  
HETATM    2  C   UNL     1      -6.230  11.423  67.809  1.00  0.00    -0.050 C  
HETATM    3  H1  UNL     1      -7.729  12.796  67.689  1.00  0.00     0.000 HD 
HETATM    4  H2  UNL     1      -6.391  13.094  66.548  1.00  0.00     0.000 HD 
HETATM    5  O   UNL     1      -5.144  11.121  67.328  1.00  0.00    -0.039 OA 
ENDROOT
BRANCH   2   6
HETATM    6  C   UNL     1      -6.948  10.685  69.019  1.00  0.00    -0.080 C  
BRANCH   6   7
HETATM    7  C   UNL     1      -6.785   9.115  68.798  1.00  0.00    -0.053 A  
HETATM    8  C   UNL     1      -6.669   6.285  68.499  1.00  0.00    -0.064 A  
HETATM    9  C   UNL     1      -6.217   6.883  69.666  1.00  0.00    -0.034 A  
HETATM   10  C   UNL     1      -7.124   7.082  67.458  1.00  0.00    -0.085 A  
HETATM   11  C   UNL     1      -6.255   8.277  69.805  1.00  0.00    -0.032 A  
HETATM   12  C   UNL     1      -7.171   8.475  67.604  1.00  0.00    -0.084 A  
ENDBRANCH   6   7
BRANCH   6  13
HETATM   13  C   UNL     1      -6.272  11.135  70.367  1.00  0.00    -0.094 A  
HETATM   14  C   UNL     1      -6.242  10.265  71.484  1.00  0.00     0.454 A  
HETATM   15  C   UNL     1      -5.724  10.666  72.719  1.00  0.00     1.050 A  
HETATM   16  C   UNL     1      -5.191  11.938  72.874  1.00  0.00     0.633 A  
HETATM   17  C   UNL     1      -5.683  12.397  70.543  1.00  0.00    -0.162 A  
HETATM   18  C   UNL     1      -5.159  12.803  71.778  1.00  0.00    -0.087 A  
ENDBRANCH   6  13
BRANCH   6  19
HETATM   19  C   UNL     1      -8.511  11.047  69.065  1.00  0.00    -0.082 C  
HETATM   20  C   UNL     1     -10.100   9.769  67.705  1.00  0.00    -0.190 C  
HETATM   21  N   UNL     1     -10.056  11.121  67.152  1.00  0.00    -0.186 NA 
HETATM   22  C   UNL     1      -9.127  11.925  67.962  1.00  0.00    -0.189 C  
HETATM   23  C   UNL     1      -9.493   9.862  69.095  1.00  0.00    -0.201 C  
BRANCH  21  24
HETATM   24  C   UNL     1      -9.732  11.176  65.715  1.00  0.00    -0.225 C  
BRANCH  24  25
HETATM   25  C   UNL     1     -10.343  12.373  64.963  1.00  0.00    -0.319 C  
BRANCH  25  26
HETATM   26  C   UNL     1     -10.640  13.537  65.891  1.00  0.00    -0.284 A  
HETATM   27  C   UNL     1      -9.938  14.742  65.754  1.00  0.00    -0.375 A  
HETATM   28  C   UNL     1     -10.251  15.799  66.597  1.00  0.00    -0.290 A  
HETATM   29  C   UNL     1     -11.244  15.674  67.549  1.00  0.00    -0.245 A  
HETATM   30  O   UNL     1     -11.458  16.811  68.282  1.00  0.00    -0.184 OA 
HETATM   31  C   UNL     1     -11.954  14.505  67.714  1.00  0.00    -0.345 A  
HETATM   32  C   UNL     1     -11.642  13.423  66.880  1.00  0.00    -0.404 A  
HETATM   33  C   UNL     1     -10.423  17.726  67.853  1.00  0.00    -0.397 C  
HETATM   34  C   UNL     1      -9.669  17.152  66.652  1.00  0.00    -0.285 C  
ENDBRANCH  25  26
ENDBRANCH  24  25
ENDBRANCH  21  24
ENDBRANCH   6  19
ENDBRANCH   2   6
TORSDOF 7
ENDMDL
MODEL      239
REMARK 921   NORMALIZED FREE ENERGY PREDICTED BY IDOCK:    1.29 KCAL/MOL
REMARK 922        TOTAL FREE ENERGY PREDICTED BY IDOCK:    0.05 KCAL/MOL
REMARK 923 INTER-LIGAND FREE ENERGY PREDICTED BY IDOCK:   -1.58 KCAL/MOL
REMARK 924 INTRA-LIGAND FREE ENERGY PREDICTED BY IDOCK:    1.63 KCAL/MOL
REMARK 927      BINDING AFFINITY PREDICTED BY RF-SCORE:    0.00 PKD
ROOT
HETATM    1  N   UNL     1     -10.791  19.190  68.616  1.00  0.00    -0.122 N  
HETATM    2  C   UNL     1      -9.663  18.625  69.153  1.00  0.00    -0.163 C  
HETATM    3  H1  UNL     1     -11.449  18.546  68.178  1.00  0.00     0.000 HD 
HETATM    4  H2  UNL     1     -10.963  20.195  68.653  1.00  0.00     0.000 HD 
HETATM    5  O   UNL     1      -8.872  19.399  69.680  1.00  0.00     0.110 OA 
ENDROOT
BRANCH   2   6
HETATM    6  C   UNL     1      -9.529  17.042  69.118  1.00  0.00    -0.108 C  
BRANCH   6   7
HETATM    7  C   UNL     1     -10.559  16.441  70.175  1.00  0.00    -0.128 A  
HETATM    8  C   UNL     1     -12.243  15.305  72.172  1.00  0.00    -0.457 A  
HETATM    9  C   UNL     1     -11.753  14.517  71.140  1.00  0.00    -0.292 A  
HETATM   10  C   UNL     1     -11.952  16.661  72.189  1.00  0.00    -0.104 A  
HETATM   11  C   UNL     1     -10.941  15.080  70.146  1.00  0.00    -0.247 A  
HETATM   12  C   UNL     1     -11.132  17.220  71.200  1.00  0.00     1.337 A  
ENDBRANCH   6   7
BRANCH   6  13
HETATM   13  C   UNL     1      -9.855  16.532  67.665  1.00  0.00    -0.247 A  
HETATM   14  C   UNL     1      -8.832  16.424  66.692  1.00  0.00    -0.283 A  
HETATM   15  C   UNL     1      -9.105  16.054  65.371  1.00  0.00     0.587 A  
HETATM   16  C   UNL     1     -10.402  15.752  64.983  1.00  0.00    -0.246 A  
HETATM   17  C   UNL     1     -11.149  16.174  67.253  1.00  0.00    -0.091 A  
HETATM   18  C   UNL     1     -11.427  15.800  65.930  1.00  0.00     0.244 A  
ENDBRANCH   6  13
BRANCH   6  19
HETATM   19  C   UNL     1      -8.044  16.582  69.517  1.00  0.00     0.231 C  
HETATM   20  C   UNL     1      -6.429  16.014  67.763  1.00  0.00    -0.157 C  
HETATM   21  N   UNL     1      -6.738  14.777  68.475  1.00  0.00    -0.092 NA 
HETATM   22  C   UNL     1      -7.689  15.086  69.555  1.00  0.00    -0.168 C  
HETATM   23  C   UNL     1      -6.894  17.147  68.664  1.00  0.00    -0.197 C  
BRANCH  21  24
HETATM   24  C   UNL     1      -7.216  13.684  67.609  1.00  0.00    -0.170 C  
BRANCH  24  25
HETATM   25  C   UNL     1      -7.026  12.271  68.192  1.00  0.00    -0.087 C  
BRANCH  25  26
HETATM   26  C   UNL     1      -7.034  11.203  67.113  1.00  0.00    -0.112 A  
HETATM   27  C   UNL     1      -8.181  10.426  66.903  1.00  0.00    -0.124 A  
HETATM   28  C   UNL     1      -8.171   9.477  65.890  1.00  0.00    -0.115 A  
HETATM   29  C   UNL     1      -7.056   9.305  65.093  1.00  0.00    -0.090 A  
HETATM   30  O   UNL     1      -7.209   8.355  64.120  1.00  0.00    -0.087 OA 
HETATM   31  C   UNL     1      -5.910  10.049  65.272  1.00  0.00    -0.091 A  
HETATM   32  C   UNL     1      -5.899  11.003  66.298  1.00  0.00    -0.148 A  
HETATM   33  C   UNL     1      -8.502   7.763  64.383  1.00  0.00     0.142 C  
HETATM   34  C   UNL     1      -9.237   8.549  65.470  1.00  0.00    -0.109 C  
ENDBRANCH  25  26
ENDBRANCH  24  25
ENDBRANCH  21  24
ENDBRANCH   6  19
ENDBRANCH   2   6
TORSDOF 7
ENDMDL
MODEL      240
REMARK 921   NORMALIZED FREE ENERGY PREDICTED BY IDOCK:    1.51 KCAL/MOL
REMARK 922        TOTAL FREE ENERGY PREDICTED BY IDOCK:    0.35 KCAL/MOL
REMARK 923 INTER-LIGAND FREE ENERGY PREDICTED BY IDOCK:   -0.85 KCAL/MOL
REMARK 924 INTRA-LIGAND FREE ENERGY PREDICTED BY IDOCK:    1.20 KCAL/MOL
REMARK 927      BINDING AFFINITY PREDICTED BY RF-SCORE:    0.00 PKD
ROOT
HETATM    1  N   UNL     1      -9.595  13.055  69.257  1.00  0.00     0.018 N  
HETATM    2  C   UNL     1      -9.743  14.278  69.859  1.00  0.00     0.902 C  
HETATM    3  H1  UNL     1     -10.428  12.671  68.812  1.00  0.00     0.000 HD 
HETATM    4  H2  UNL     1      -8.703  12.558  69.254  1.00  0.00     0.000 HD 
HETATM    5  O   UNL     1      -8.741  14.739  70.394  1.00  0.00     0.796 OA 
ENDROOT
BRANCH   2   6
HETATM    6  C   UNL     1     -11.150  15.007  69.737  1.00  0.00    -0.297 C  
BRANCH   6   7
HETATM    7  C   UNL     1     -11.672  15.309  71.212  1.00  0.00    -0.425 A  
HETATM    8  C   UNL     1     -12.418  15.815  73.914  1.00  0.00    -0.751 A  
HETATM    9  C   UNL     1     -12.402  14.518  73.425  1.00  0.00    -0.278 A  
HETATM   10  C   UNL     1     -12.124  16.868  73.059  1.00  0.00     0.043 A  
HETATM   11  C   UNL     1     -12.055  14.270  72.091  1.00  0.00    -0.062 A  
HETATM   12  C   UNL     1     -11.766  16.617  71.728  1.00  0.00    -0.044 A  
ENDBRANCH   6   7
BRANCH   6  13
HETATM   13  C   UNL     1     -10.966  16.341  68.923  1.00  0.00    -0.334 A  
HETATM   14  C   UNL     1     -10.093  17.355  69.387  1.00  0.00    -0.075 A  
HETATM   15  C   UNL     1      -9.972  18.584  68.730  1.00  0.00    -0.417 A  
HETATM   16  C   UNL     1     -10.695  18.831  67.572  1.00  0.00    -0.474 A  
HETATM   17  C   UNL     1     -11.646  16.605  67.723  1.00  0.00     0.370 A  
HETATM   18  C   UNL     1     -11.526  17.834  67.059  1.00  0.00     1.136 A  
ENDBRANCH   6  13
BRANCH   6  19
HETATM   19  C   UNL     1     -12.217  14.073  68.987  1.00  0.00    -0.280 C  
HETATM   20  C   UNL     1     -11.744  11.689  68.671  1.00  0.00    -0.325 C  
HETATM   21  N   UNL     1     -11.723  12.307  67.348  1.00  0.00    -0.482 NA 
HETATM   22  C   UNL     1     -12.029  13.738  67.497  1.00  0.00    -0.376 C  
HETATM   23  C   UNL     1     -12.453  12.675  69.585  1.00  0.00     0.120 C  
BRANCH  21  24
HETATM   24  C   UNL     1     -10.476  12.079  66.594  1.00  0.00    -0.215 C  
BRANCH  24  25
HETATM   25  C   UNL     1     -10.343  12.910  65.304  1.00  0.00    -0.315 C  
BRANCH  25  26
HETATM   26  C   UNL     1      -9.631  14.228  65.545  1.00  0.00    -0.075 A  
HETATM   27  C   UNL     1      -8.498  14.274  66.369  1.00  0.00     0.396 A  
HETATM   28  C   UNL     1      -7.850  15.488  66.549  1.00  0.00     0.083 A  
HETATM   29  C   UNL     1      -8.302  16.632  65.920  1.00  0.00     0.060 A  
HETATM   30  O   UNL     1      -7.541  17.742  66.170  1.00  0.00    -0.322 OA 
HETATM   31  C   UNL     1      -9.413  16.625  65.106  1.00  0.00     1.216 A  
HETATM   32  C   UNL     1     -10.088  15.411  64.924  1.00  0.00    -0.059 A  
HETATM   33  C   UNL     1      -6.571  17.311  67.152  1.00  0.00    -0.170 C  
HETATM   34  C   UNL     1      -6.651  15.795  67.351  1.00  0.00    -0.215 C  
ENDBRANCH  25  26
ENDBRANCH  24  25
ENDBRANCH  21  24
ENDBRANCH   6  19
ENDBRANCH   2   6
TORSDOF 7
ENDMDL
MODEL      241
REMARK 921   NORMALIZED FREE ENERGY PREDICTED BY IDOCK:    1.81 KCAL/MOL
REMARK 922        TOTAL FREE ENERGY PREDICTED BY IDOCK:    0.77 KCAL/MOL
REMARK 923 INTER-LIGAND FREE ENERGY PREDICTED BY IDOCK:    0.34 KCAL/MOL
REMARK 924 INTRA-LIGAND FREE ENERGY PREDICTED BY IDOCK:    0.43 KCAL/MOL
REMARK 927      BINDING AFFINITY PREDICTED BY RF-SCORE:    0.00 PKD
ROOT
HETATM    1  N   UNL     1     -12.761  14.828  67.368  1.00  0.00     0.173 N  
HETATM    2  C   UNL     1     -12.136  13.793  68.016  1.00  0.00    -0.280 C  
HETATM    3  H1  UNL     1     -12.202  15.324  66.674  1.00  0.00     0.000 HD 
HETATM    4  H2  UNL     1     -13.728  15.086  67.567  1.00  0.00     0.000 HD 
HETATM    5  O   UNL     1     -12.808  13.197  68.850  1.00  0.00     0.703 OA 
ENDROOT
BRANCH   2   6
HETATM    6  C   UNL     1     -10.656  13.418  67.574  1.00  0.00    -0.255 C  
BRANCH   6   7
HETATM    7  C   UNL     1     -10.645  13.262  65.989  1.00  0.00    -0.292 A  
HETATM    8  C   UNL     1     -10.797  13.088  63.150  1.00  0.00     0.762 A  
HETATM    9  C   UNL     1     -11.475  12.174  63.943  1.00  0.00    -0.519 A  
HETATM   10  C   UNL     1      -9.998  14.050  63.751  1.00  0.00     2.872 A  
HETATM   11  C   UNL     1     -11.384  12.247  65.339  1.00  0.00    -0.389 A  
HETATM   12  C   UNL     1      -9.918  14.128  65.148  1.00  0.00    -0.263 A  
ENDBRANCH   6   7
BRANCH   6  13
HETATM   13  C   UNL     1      -9.679  14.564  68.032  1.00  0.00    -0.218 A  
HETATM   14  C   UNL     1      -9.533  14.881  69.404  1.00  0.00    -0.068 A  
HETATM   15  C   UNL     1      -8.736  15.948  69.835  1.00  0.00     0.402 A  
HETATM   16  C   UNL     1      -8.036  16.714  68.913  1.00  0.00    -0.235 A  
HETATM   17  C   UNL     1      -8.920  15.327  67.130  1.00  0.00    -0.227 A  
HETATM   18  C   UNL     1      -8.119  16.396  67.557  1.00  0.00    -0.166 A  
ENDBRANCH   6  13
BRANCH   6  19
HETATM   19  C   UNL     1     -10.193  12.033  68.239  1.00  0.00    -0.207 C  
HETATM   20  C   UNL     1      -8.208  10.874  67.388  1.00  0.00    -0.117 C  
HETATM   21  N   UNL     1      -9.363  10.043  67.055  1.00  0.00    -0.152 NA 
HETATM   22  C   UNL     1     -10.573  10.699  67.574  1.00  0.00    -0.252 C  
HETATM   23  C   UNL     1      -8.682  11.843  68.458  1.00  0.00    -0.108 C  
BRANCH  21  24
HETATM   24  C   UNL     1      -9.479   9.716  65.621  1.00  0.00    -0.255 C  
BRANCH  24  25
HETATM   25  C   UNL     1      -8.157   9.302  64.947  1.00  0.00    -0.130 C  
BRANCH  25  26
HETATM   26  C   UNL     1      -7.732   7.899  65.342  1.00  0.00    -0.097 A  
HETATM   27  C   UNL     1      -6.689   7.713  66.259  1.00  0.00    -0.057 A  
HETATM   28  C   UNL     1      -6.339   6.421  66.624  1.00  0.00    -0.042 A  
HETATM   29  C   UNL     1      -7.013   5.333  66.103  1.00  0.00    -0.063 A  
HETATM   30  O   UNL     1      -6.575   4.127  66.582  1.00  0.00    -0.043 OA 
HETATM   31  C   UNL     1      -8.041   5.477  65.198  1.00  0.00    -0.124 A  
HETATM   32  C   UNL     1      -8.398   6.775  64.809  1.00  0.00     0.008 A  
HETATM   33  C   UNL     1      -5.425   4.450  67.398  1.00  0.00    -0.013 C  
HETATM   34  C   UNL     1      -5.295   5.965  67.560  1.00  0.00    -0.005 C  
ENDBRANCH  25  26
ENDBRANCH  24  25
ENDBRANCH  21  24
ENDBRANCH   6  19
ENDBRANCH   2   6
TORSDOF 7
ENDMDL
MODEL      242
REMARK 921   NORMALIZED FREE ENERGY PREDICTED BY IDOCK:    2.07 KCAL/MOL
REMARK 922        TOTAL FREE ENERGY PREDICTED BY IDOCK:    1.14 KCAL/MOL
REMARK 923 INTER-LIGAND FREE ENERGY PREDICTED BY IDOCK:    1.75 KCAL/MOL
REMARK 924 INTRA-LIGAND FREE ENERGY PREDICTED BY IDOCK:   -0.61 KCAL/MOL
REMARK 927      BINDING AFFINITY PREDICTED BY RF-SCORE:    0.00 PKD
ROOT
HETATM    1  N   UNL     1     -12.881  14.790  67.409  1.00  0.00     0.544 N  
HETATM    2  C   UNL     1     -12.578  13.799  68.308  1.00  0.00     0.623 C  
HETATM    3  H1  UNL     1     -12.145  15.033  66.747  1.00  0.00     0.000 HD 
HETATM    4  H2  UNL     1     -13.789  15.255  67.402  1.00  0.00     0.000 HD 
HETATM    5  O   UNL     1     -13.463  13.507  69.104  1.00  0.00     2.355 OA 
ENDROOT
BRANCH   2   6
HETATM    6  C   UNL     1     -11.166  13.080  68.182  1.00  0.00    -0.305 C  
BRANCH   6   7
HETATM    7  C   UNL     1     -11.083  12.420  66.735  1.00  0.00    -0.333 A  
HETATM    8  C   UNL     1     -10.997  11.414  64.071  1.00  0.00    -0.428 A  
HETATM    9  C   UNL     1     -12.182  11.387  64.790  1.00  0.00     0.696 A  
HETATM   10  C   UNL     1      -9.842  11.881  64.681  1.00  0.00    -0.207 A  
HETATM   11  C   UNL     1     -12.221  11.863  66.107  1.00  0.00     0.553 A  
HETATM   12  C   UNL     1      -9.884  12.367  65.995  1.00  0.00    -0.268 A  
ENDBRANCH   6   7
BRANCH   6  13
HETATM   13  C   UNL     1     -10.028  14.149  68.377  1.00  0.00    -0.235 A  
HETATM   14  C   UNL     1      -9.898  14.848  69.602  1.00  0.00    -0.010 A  
HETATM   15  C   UNL     1      -8.950  15.862  69.777  1.00  0.00     0.134 A  
HETATM   16  C   UNL     1      -8.080  16.191  68.747  1.00  0.00    -0.218 A  
HETATM   17  C   UNL     1      -9.102  14.473  67.372  1.00  0.00    -0.201 A  
HETATM   18  C   UNL     1      -8.148  15.486  67.544  1.00  0.00    -0.185 A  
ENDBRANCH   6  13
BRANCH   6  19
HETATM   19  C   UNL     1     -11.007  11.931  69.291  1.00  0.00    -0.208 C  
HETATM   20  C   UNL     1      -9.160  10.329  69.131  1.00  0.00    -0.191 C  
HETATM   21  N   UNL     1     -10.392   9.583  68.891  1.00  0.00    -0.202 NA 
HETATM   22  C   UNL     1     -11.528  10.512  69.004  1.00  0.00    -0.237 C  
HETATM   23  C   UNL     1      -9.578  11.637  69.781  1.00  0.00     1.418 C  
BRANCH  21  24
HETATM   24  C   UNL     1     -10.409   8.836  67.620  1.00  0.00    -0.254 C  
BRANCH  24  25
HETATM   25  C   UNL     1      -9.103   8.086  67.298  1.00  0.00    -0.153 C  
BRANCH  25  26
HETATM   26  C   UNL     1      -8.936   6.841  68.150  1.00  0.00    -0.118 A  
HETATM   27  C   UNL     1      -8.033   6.838  69.221  1.00  0.00    -0.115 A  
HETATM   28  C   UNL     1      -7.922   5.696  70.001  1.00  0.00    -0.091 A  
HETATM   29  C   UNL     1      -8.695   4.581  69.738  1.00  0.00    -0.077 A  
HETATM   30  O   UNL     1      -8.495   3.547  70.612  1.00  0.00    -0.066 OA 
HETATM   31  C   UNL     1      -9.591   4.546  68.692  1.00  0.00    -0.222 A  
HETATM   32  C   UNL     1      -9.707   5.687  67.887  1.00  0.00    -0.145 A  
HETATM   33  C   UNL     1      -7.400   3.980  71.451  1.00  0.00    -0.044 C  
HETATM   34  C   UNL     1      -7.060   5.445  71.171  1.00  0.00    -0.065 C  
ENDBRANCH  25  26
ENDBRANCH  24  25
ENDBRANCH  21  24
ENDBRANCH   6  19
ENDBRANCH   2   6
TORSDOF 7
ENDMDL
MODEL      243
REMARK 921   NORMALIZED FREE ENERGY PREDICTED BY IDOCK:    2.17 KCAL/MOL
REMARK 922        TOTAL FREE ENERGY PREDICTED BY IDOCK:    1.27 KCAL/MOL
REMARK 923 INTER-LIGAND FREE ENERGY PREDICTED BY IDOCK:   -1.29 KCAL/MOL
REMARK 924 INTRA-LIGAND FREE ENERGY PREDICTED BY IDOCK:    2.57 KCAL/MOL
REMARK 927      BINDING AFFINITY PREDICTED BY RF-SCORE:    0.00 PKD
ROOT
HETATM    1  N   UNL     1      -6.932  12.043  68.021  1.00  0.00    -0.077 N  
HETATM    2  C   UNL     1      -6.299  10.935  68.523  1.00  0.00    -0.049 C  
HETATM    3  H1  UNL     1      -7.828  12.278  68.448  1.00  0.00     0.000 HD 
HETATM    4  H2  UNL     1      -6.531  12.599  67.265  1.00  0.00     0.000 HD 
HETATM    5  O   UNL     1      -5.222  10.652  68.010  1.00  0.00    -0.037 OA 
ENDROOT
BRANCH   2   6
HETATM    6  C   UNL     1      -6.966  10.185  69.756  1.00  0.00    -0.118 C  
BRANCH   6   7
HETATM    7  C   UNL     1      -6.772   8.619  69.537  1.00  0.00    -0.040 A  
HETATM    8  C   UNL     1      -6.292   5.821  69.298  1.00  0.00    -0.040 A  
HETATM    9  C   UNL     1      -5.461   6.730  68.658  1.00  0.00    -0.017 A  
HETATM   10  C   UNL     1      -7.391   6.286  70.006  1.00  0.00    -0.082 A  
HETATM   11  C   UNL     1      -5.709   8.105  68.759  1.00  0.00    -0.036 A  
HETATM   12  C   UNL     1      -7.630   7.662  70.115  1.00  0.00    -0.086 A  
ENDBRANCH   6   7
BRANCH   6  13
HETATM   13  C   UNL     1      -6.263  10.658  71.083  1.00  0.00     0.330 A  
HETATM   14  C   UNL     1      -6.181   9.793  72.202  1.00  0.00     0.484 A  
HETATM   15  C   UNL     1      -5.637  10.212  73.421  1.00  0.00     0.540 A  
HETATM   16  C   UNL     1      -5.132  11.497  73.555  1.00  0.00     0.497 A  
HETATM   17  C   UNL     1      -5.700  11.934  71.238  1.00  0.00     0.272 A  
HETATM   18  C   UNL     1      -5.152  12.358  72.457  1.00  0.00     0.250 A  
ENDBRANCH   6  13
BRANCH   6  19
HETATM   19  C   UNL     1      -8.535  10.510  69.844  1.00  0.00     0.230 C  
HETATM   20  C   UNL     1     -10.041   9.748  68.067  1.00  0.00    -0.171 C  
HETATM   21  N   UNL     1      -9.994  11.206  67.991  1.00  0.00    -0.172 NA 
HETATM   22  C   UNL     1      -9.116  11.701  69.062  1.00  0.00     0.198 C  
HETATM   23  C   UNL     1      -9.497   9.381  69.439  1.00  0.00    -0.177 C  
BRANCH  21  24
HETATM   24  C   UNL     1      -9.608  11.730  66.668  1.00  0.00    -0.205 C  
BRANCH  24  25
HETATM   25  C   UNL     1     -10.051  13.180  66.396  1.00  0.00    -0.281 C  
BRANCH  25  26
HETATM   26  C   UNL     1     -10.404  13.917  67.674  1.00  0.00    -0.242 A  
HETATM   27  C   UNL     1     -11.653  13.719  68.278  1.00  0.00    -0.373 A  
HETATM   28  C   UNL     1     -11.938  14.384  69.462  1.00  0.00    -0.376 A  
HETATM   29  C   UNL     1     -11.006  15.219  70.046  1.00  0.00    -0.288 A  
HETATM   30  O   UNL     1     -11.421  15.778  71.225  1.00  0.00    -0.361 OA 
HETATM   31  C   UNL     1      -9.769  15.440  69.481  1.00  0.00    -0.259 A  
HETATM   32  C   UNL     1      -9.470  14.787  68.278  1.00  0.00    -0.207 A  
HETATM   33  C   UNL     1     -12.800  15.367  71.362  1.00  0.00    -0.439 C  
HETATM   34  C   UNL     1     -13.161  14.342  70.285  1.00  0.00     0.039 C  
ENDBRANCH  25  26
ENDBRANCH  24  25
ENDBRANCH  21  24
ENDBRANCH   6  19
ENDBRANCH   2   6
TORSDOF 7
ENDMDL
MODEL      244
REMARK 921   NORMALIZED FREE ENERGY PREDICTED BY IDOCK:    2.90 KCAL/MOL
REMARK 922        TOTAL FREE ENERGY PREDICTED BY IDOCK:    2.31 KCAL/MOL
REMARK 923 INTER-LIGAND FREE ENERGY PREDICTED BY IDOCK:   -0.90 KCAL/MOL
REMARK 924 INTRA-LIGAND FREE ENERGY PREDICTED BY IDOCK:    3.21 KCAL/MOL
REMARK 927      BINDING AFFINITY PREDICTED BY RF-SCORE:    0.00 PKD
ROOT
HETATM    1  N   UNL     1     -11.893  11.769  69.374  1.00  0.00    -0.324 N  
HETATM    2  C   UNL     1     -11.439  10.601  69.930  1.00  0.00    -0.317 C  
HETATM    3  H1  UNL     1     -11.361  12.123  68.580  1.00  0.00     0.000 HD 
HETATM    4  H2  UNL     1     -12.716  12.255  69.732  1.00  0.00     0.000 HD 
HETATM    5  O   UNL     1     -12.080  10.176  70.885  1.00  0.00    -0.302 OA 
ENDROOT
BRANCH   2   6
HETATM    6  C   UNL     1     -10.200   9.878  69.247  1.00  0.00    -0.222 C  
BRANCH   6   7
HETATM    7  C   UNL     1      -9.076   9.682  70.359  1.00  0.00    -0.245 A  
HETATM    8  C   UNL     1      -7.111   9.515  72.415  1.00  0.00     1.064 A  
HETATM    9  C   UNL     1      -6.804  10.115  71.202  1.00  0.00     0.495 A  
HETATM   10  C   UNL     1      -8.363   8.946  72.595  1.00  0.00     0.333 A  
HETATM   11  C   UNL     1      -7.764  10.179  70.184  1.00  0.00    -0.086 A  
HETATM   12  C   UNL     1      -9.326   9.021  71.579  1.00  0.00    -0.294 A  
ENDBRANCH   6   7
BRANCH   6  13
HETATM   13  C   UNL     1     -10.670   8.490  68.673  1.00  0.00    -0.082 A  
HETATM   14  C   UNL     1     -10.870   7.384  69.536  1.00  0.00    -0.201 A  
HETATM   15  C   UNL     1     -11.206   6.117  69.046  1.00  0.00    -0.375 A  
HETATM   16  C   UNL     1     -11.383   5.919  67.684  1.00  0.00     0.427 A  
HETATM   17  C   UNL     1     -10.903   8.266  67.307  1.00  0.00    -0.103 A  
HETATM   18  C   UNL     1     -11.243   6.999  66.812  1.00  0.00     0.243 A  
ENDBRANCH   6  13
BRANCH   6  19
HETATM   19  C   UNL     1      -9.603  10.768  68.053  1.00  0.00    -0.172 C  
HETATM   20  C   UNL     1     -10.794  10.899  65.915  1.00  0.00    -0.062 C  
HETATM   21  N   UNL     1      -9.551  10.174  65.667  1.00  0.00    -0.223 NA 
HETATM   22  C   UNL     1      -8.796  10.099  66.928  1.00  0.00    -0.132 C  
HETATM   23  C   UNL     1     -10.610  11.607  67.247  1.00  0.00    -0.265 C  
BRANCH  21  24
HETATM   24  C   UNL     1      -9.736   8.849  65.048  1.00  0.00     0.619 C  
BRANCH  24  25
HETATM   25  C   UNL     1      -8.440   8.185  64.548  1.00  0.00    -0.013 C  
BRANCH  25  26
HETATM   26  C   UNL     1      -7.865   7.218  65.566  1.00  0.00    -0.115 A  
HETATM   27  C   UNL     1      -7.695   7.619  66.898  1.00  0.00    -0.103 A  
HETATM   28  C   UNL     1      -7.194   6.705  67.814  1.00  0.00    -0.091 A  
HETATM   29  C   UNL     1      -6.877   5.417  67.428  1.00  0.00    -0.060 A  
HETATM   30  O   UNL     1      -6.425   4.625  68.449  1.00  0.00    -0.035 OA 
HETATM   31  C   UNL     1      -7.028   4.988  66.127  1.00  0.00    -0.070 A  
HETATM   32  C   UNL     1      -7.521   5.902  65.186  1.00  0.00    -0.079 A  
HETATM   33  C   UNL     1      -6.319   5.513  69.585  1.00  0.00    -0.033 C  
HETATM   34  C   UNL     1      -6.930   6.876  69.255  1.00  0.00    -0.074 C  
ENDBRANCH  25  26
ENDBRANCH  24  25
ENDBRANCH  21  24
ENDBRANCH   6  19
ENDBRANCH   2   6
TORSDOF 7
ENDMDL
MODEL      245
REMARK 921   NORMALIZED FREE ENERGY PREDICTED BY IDOCK:    4.53 KCAL/MOL
REMARK 922        TOTAL FREE ENERGY PREDICTED BY IDOCK:    4.61 KCAL/MOL
REMARK 923 INTER-LIGAND FREE ENERGY PREDICTED BY IDOCK:    1.81 KCAL/MOL
REMARK 924 INTRA-LIGAND FREE ENERGY PREDICTED BY IDOCK:    2.79 KCAL/MOL
REMARK 927      BINDING AFFINITY PREDICTED BY RF-SCORE:    0.00 PKD
ROOT
HETATM    1  N   UNL     1      -9.444  11.562  66.912  1.00  0.00    -0.179 N  
HETATM    2  C   UNL     1      -8.537  12.590  66.892  1.00  0.00    -0.158 C  
HETATM    3  H1  UNL     1     -10.381  11.799  67.237  1.00  0.00     0.000 HD 
HETATM    4  H2  UNL     1      -9.196  10.617  66.619  1.00  0.00     0.000 HD 
HETATM    5  O   UNL     1      -7.410  12.306  66.501  1.00  0.00     0.166 OA 
ENDROOT
BRANCH   2   6
HETATM    6  C   UNL     1      -9.043  14.044  67.288  1.00  0.00    -0.224 C  
BRANCH   6   7
HETATM    7  C   UNL     1     -10.509  13.901  67.894  1.00  0.00    -0.242 A  
HETATM    8  C   UNL     1     -13.074  13.768  69.127  1.00  0.00     1.757 A  
HETATM    9  C   UNL     1     -12.056  12.922  69.540  1.00  0.00    -0.274 A  
HETATM   10  C   UNL     1     -12.849  14.638  68.070  1.00  0.00     1.434 A  
HETATM   11  C   UNL     1     -10.800  12.973  68.921  1.00  0.00    -0.244 A  
HETATM   12  C   UNL     1     -11.589  14.695  67.459  1.00  0.00    -0.396 A  
ENDBRANCH   6   7
BRANCH   6  13
HETATM   13  C   UNL     1      -8.055  14.658  68.349  1.00  0.00    -0.147 A  
HETATM   14  C   UNL     1      -6.667  14.740  68.079  1.00  0.00    -0.154 A  
HETATM   15  C   UNL     1      -5.755  15.204  69.033  1.00  0.00    -0.097 A  
HETATM   16  C   UNL     1      -6.200  15.629  70.277  1.00  0.00    -0.027 A  
HETATM   17  C   UNL     1      -8.478  15.140  69.598  1.00  0.00    -0.064 A  
HETATM   18  C   UNL     1      -7.568  15.609  70.557  1.00  0.00     1.289 A  
ENDBRANCH   6  13
BRANCH   6  19
HETATM   19  C   UNL     1      -9.100  15.003  66.003  1.00  0.00    -0.150 C  
HETATM   20  C   UNL     1      -8.439  17.354  66.204  1.00  0.00    -0.163 C  
HETATM   21  N   UNL     1      -9.877  17.335  65.947  1.00  0.00    -0.534 NA 
HETATM   22  C   UNL     1     -10.305  15.936  65.796  1.00  0.00    -0.376 C  
HETATM   23  C   UNL     1      -7.924  15.977  65.816  1.00  0.00     1.239 C  
BRANCH  21  24
HETATM   24  C   UNL     1     -10.680  18.057  66.951  1.00  0.00    -0.200 C  
BRANCH  24  25
HETATM   25  C   UNL     1     -10.201  17.883  68.404  1.00  0.00    -0.398 C  
BRANCH  25  26
HETATM   26  C   UNL     1      -8.976  18.726  68.706  1.00  0.00    -0.315 A  
HETATM   27  C   UNL     1      -8.198  19.236  67.657  1.00  0.00    -0.327 A  
HETATM   28  C   UNL     1      -7.100  20.028  67.961  1.00  0.00    -0.322 A  
HETATM   29  C   UNL     1      -6.781  20.322  69.272  1.00  0.00    -0.164 A  
HETATM   30  O   UNL     1      -5.691  21.139  69.410  1.00  0.00    -0.313 OA 
HETATM   31  C   UNL     1      -7.521  19.838  70.329  1.00  0.00     0.603 A  
HETATM   32  C   UNL     1      -8.625  19.025  70.040  1.00  0.00     1.292 A  
HETATM   33  C   UNL     1      -5.174  21.294  68.068  1.00  0.00    -0.233 C  
HETATM   34  C   UNL     1      -6.138  20.678  67.052  1.00  0.00    -0.267 C  
ENDBRANCH  25  26
ENDBRANCH  24  25
ENDBRANCH  21  24
ENDBRANCH   6  19
ENDBRANCH   2   6
TORSDOF 7
ENDMDL
MODEL      246
REMARK 921   NORMALIZED FREE ENERGY PREDICTED BY IDOCK:    5.39 KCAL/MOL
REMARK 922        TOTAL FREE ENERGY PREDICTED BY IDOCK:    5.81 KCAL/MOL
REMARK 923 INTER-LIGAND FREE ENERGY PREDICTED BY IDOCK:    5.10 KCAL/MOL
REMARK 924 INTRA-LIGAND FREE ENERGY PREDICTED BY IDOCK:    0.71 KCAL/MOL
REMARK 927      BINDING AFFINITY PREDICTED BY RF-SCORE:    0.00 PKD
ROOT
HETATM    1  N   UNL     1      -8.960   5.463  69.591  1.00  0.00    -0.108 N  
HETATM    2  C   UNL     1      -9.730   6.365  68.902  1.00  0.00    -0.126 C  
HETATM    3  H1  UNL     1      -8.218   5.858  70.169  1.00  0.00     0.000 HD 
HETATM    4  H2  UNL     1      -9.119   4.457  69.530  1.00  0.00     0.000 HD 
HETATM    5  O   UNL     1     -10.621   5.890  68.208  1.00  0.00    -0.213 OA 
ENDROOT
BRANCH   2   6
HETATM    6  C   UNL     1      -9.455   7.913  69.130  1.00  0.00    -0.155 C  
BRANCH   6   7
HETATM    7  C   UNL     1     -10.687   8.513  69.942  1.00  0.00    -0.224 A  
HETATM    8  C   UNL     1     -12.880   9.426  71.516  1.00  0.00    -0.442 A  
HETATM    9  C   UNL     1     -13.089   8.528  70.479  1.00  0.00     0.816 A  
HETATM   10  C   UNL     1     -11.602   9.919  71.741  1.00  0.00    -0.094 A  
HETATM   11  C   UNL     1     -12.014   8.095  69.692  1.00  0.00     1.072 A  
HETATM   12  C   UNL     1     -10.527   9.476  70.960  1.00  0.00    -0.377 A  
ENDBRANCH   6   7
BRANCH   6  13
HETATM   13  C   UNL     1      -8.115   8.081  69.939  1.00  0.00    -0.117 A  
HETATM   14  C   UNL     1      -6.893   8.328  69.266  1.00  0.00    -0.050 A  
HETATM   15  C   UNL     1      -5.675   8.399  69.950  1.00  0.00    -0.025 A  
HETATM   16  C   UNL     1      -5.639   8.257  71.330  1.00  0.00    -0.033 A  
HETATM   17  C   UNL     1      -8.050   7.991  71.338  1.00  0.00    -0.118 A  
HETATM   18  C   UNL     1      -6.831   8.064  72.029  1.00  0.00    -0.072 A  
ENDBRANCH   6  13
BRANCH   6  19
HETATM   19  C   UNL     1      -9.327   8.685  67.729  1.00  0.00    -0.157 C  
HETATM   20  C   UNL     1      -9.984  11.041  67.569  1.00  0.00    -0.174 C  
HETATM   21  N   UNL     1     -10.944  10.276  66.778  1.00  0.00    -0.088 NA 
HETATM   22  C   UNL     1     -10.564   8.855  66.832  1.00  0.00    -0.184 C  
HETATM   23  C   UNL     1      -8.789  10.126  67.782  1.00  0.00    -0.125 C  
BRANCH  21  24
HETATM   24  C   UNL     1     -12.352  10.490  67.163  1.00  0.00     3.955 C  
BRANCH  24  25
HETATM   25  C   UNL     1     -12.548  11.275  68.473  1.00  0.00     1.065 C  
BRANCH  25  26
HETATM   26  C   UNL     1     -12.188  12.742  68.318  1.00  0.00     0.023 A  
HETATM   27  C   UNL     1     -11.072  13.266  68.983  1.00  0.00    -0.291 A  
HETATM   28  C   UNL     1     -10.750  14.604  68.800  1.00  0.00    -0.252 A  
HETATM   29  C   UNL     1     -11.507  15.406  67.968  1.00  0.00    -0.326 A  
HETATM   30  O   UNL     1     -11.046  16.691  67.865  1.00  0.00    -0.315 OA 
HETATM   31  C   UNL     1     -12.612  14.926  67.300  1.00  0.00     0.860 A  
HETATM   32  C   UNL     1     -12.959  13.581  67.483  1.00  0.00     1.917 A  
HETATM   33  C   UNL     1      -9.959  16.770  68.815  1.00  0.00    -0.269 C  
HETATM   34  C   UNL     1      -9.639  15.383  69.376  1.00  0.00    -0.270 C  
ENDBRANCH  25  26
ENDBRANCH  24  25
ENDBRANCH  21  24
ENDBRANCH   6  19
ENDBRANCH   2   6
TORSDOF 7
ENDMDL
MODEL      247
REMARK 921   NORMALIZED FREE ENERGY PREDICTED BY IDOCK:    8.52 KCAL/MOL
REMARK 922        TOTAL FREE ENERGY PREDICTED BY IDOCK:   10.23 KCAL/MOL
REMARK 923 INTER-LIGAND FREE ENERGY PREDICTED BY IDOCK:    9.68 KCAL/MOL
REMARK 924 INTRA-LIGAND FREE ENERGY PREDICTED BY IDOCK:    0.55 KCAL/MOL
REMARK 927      BINDING AFFINITY PREDICTED BY RF-SCORE:    0.00 PKD
ROOT
HETATM    1  N   UNL     1      -9.116  16.988  66.508  1.00  0.00    -0.251 N  
HETATM    2  C   UNL     1      -8.150  16.034  66.703  1.00  0.00    -0.276 C  
HETATM    3  H1  UNL     1     -10.080  16.678  66.624  1.00  0.00     0.000 HD 
HETATM    4  H2  UNL     1      -8.884  17.950  66.263  1.00  0.00     0.000 HD 
HETATM    5  O   UNL     1      -6.991  16.406  66.564  1.00  0.00    -0.183 OA 
ENDROOT
BRANCH   2   6
HETATM    6  C   UNL     1      -8.611  14.584  67.164  1.00  0.00    -0.242 C  
BRANCH   6   7
HETATM    7  C   UNL     1      -7.919  14.275  68.565  1.00  0.00    -0.145 A  
HETATM    8  C   UNL     1      -6.752  13.534  71.056  1.00  0.00     1.435 A  
HETATM    9  C   UNL     1      -8.076  13.943  70.999  1.00  0.00     4.860 A  
HETATM   10  C   UNL     1      -5.986  13.545  69.899  1.00  0.00    -0.130 A  
HETATM   11  C   UNL     1      -8.645  14.327  69.778  1.00  0.00     0.864 A  
HETATM   12  C   UNL     1      -6.560  13.919  68.676  1.00  0.00    -0.095 A  
ENDBRANCH   6   7
BRANCH   6  13
HETATM   13  C   UNL     1     -10.179  14.564  67.296  1.00  0.00    -0.255 A  
HETATM   14  C   UNL     1     -10.809  13.759  68.277  1.00  0.00    -0.266 A  
HETATM   15  C   UNL     1     -12.202  13.656  68.364  1.00  0.00    -0.168 A  
HETATM   16  C   UNL     1     -13.012  14.375  67.496  1.00  0.00     1.817 A  
HETATM   17  C   UNL     1     -11.027  15.315  66.466  1.00  0.00    -0.295 A  
HETATM   18  C   UNL     1     -12.423  15.217  66.551  1.00  0.00     0.798 A  
ENDBRANCH   6  13
BRANCH   6  19
HETATM   19  C   UNL     1      -8.156  13.472  66.100  1.00  0.00     1.592 C  
HETATM   20  C   UNL     1      -9.848  12.159  64.908  1.00  0.00    -0.150 C  
HETATM   21  N   UNL     1      -9.145  11.240  65.799  1.00  0.00    -0.210 NA 
HETATM   22  C   UNL     1      -8.102  11.992  66.515  1.00  0.00     0.055 C  
HETATM   23  C   UNL     1      -8.967  13.393  64.795  1.00  0.00     2.281 C  
BRANCH  21  24
HETATM   24  C   UNL     1     -10.026  10.497  66.719  1.00  0.00    -0.204 C  
BRANCH  24  25
HETATM   25  C   UNL     1     -10.180   9.000  66.393  1.00  0.00    -0.297 C  
BRANCH  25  26
HETATM   26  C   UNL     1      -9.136   8.153  67.098  1.00  0.00    -0.163 A  
HETATM   27  C   UNL     1      -8.727   6.934  66.542  1.00  0.00    -0.137 A  
HETATM   28  C   UNL     1      -7.750   6.194  67.193  1.00  0.00    -0.101 A  
HETATM   29  C   UNL     1      -7.178   6.653  68.364  1.00  0.00    -0.085 A  
HETATM   30  O   UNL     1      -6.208   5.830  68.869  1.00  0.00    -0.026 OA 
HETATM   31  C   UNL     1      -7.555   7.846  68.941  1.00  0.00    -0.100 A  
HETATM   32  C   UNL     1      -8.550   8.599  68.303  1.00  0.00    -0.138 A  
HETATM   33  C   UNL     1      -6.235   4.662  68.016  1.00  0.00    -0.036 C  
HETATM   34  C   UNL     1      -7.154   4.899  66.816  1.00  0.00    -0.068 C  
ENDBRANCH  25  26
ENDBRANCH  24  25
ENDBRANCH  21  24
ENDBRANCH   6  19
ENDBRANCH   2   6
TORSDOF 7
ENDMDL
MODEL      248
REMARK 921   NORMALIZED FREE ENERGY PREDICTED BY IDOCK:   15.96 KCAL/MOL
REMARK 922        TOTAL FREE ENERGY PREDICTED BY IDOCK:   20.71 KCAL/MOL
REMARK 923 INTER-LIGAND FREE ENERGY PREDICTED BY IDOCK:   19.19 KCAL/MOL
REMARK 924 INTRA-LIGAND FREE ENERGY PREDICTED BY IDOCK:    1.53 KCAL/MOL
REMARK 927      BINDING AFFINITY PREDICTED BY RF-SCORE:    0.00 PKD
ROOT
HETATM    1  N   UNL     1      -9.138  16.982  66.508  1.00  0.00    -0.251 N  
HETATM    2  C   UNL     1      -8.314  15.897  66.662  1.00  0.00    -0.293 C  
HETATM    3  H1  UNL     1     -10.139  16.794  66.552  1.00  0.00     0.000 HD 
HETATM    4  H2  UNL     1      -8.771  17.923  66.359  1.00  0.00     0.000 HD 
HETATM    5  O   UNL     1      -7.111  16.123  66.610  1.00  0.00    -0.174 OA 
ENDROOT
BRANCH   2   6
HETATM    6  C   UNL     1      -8.982  14.488  66.972  1.00  0.00    -0.258 C  
BRANCH   6   7
HETATM    7  C   UNL     1      -8.981  14.285  68.553  1.00  0.00    -0.185 A  
HETATM    8  C   UNL     1      -9.040  13.733  71.347  1.00  0.00     8.861 A  
HETATM    9  C   UNL     1     -10.193  14.136  70.690  1.00  0.00     1.982 A  
HETATM   10  C   UNL     1      -7.847  13.657  70.642  1.00  0.00     3.461 A  
HETATM   11  C   UNL     1     -10.160  14.428  69.320  1.00  0.00    -0.038 A  
HETATM   12  C   UNL     1      -7.818  13.938  69.270  1.00  0.00     0.254 A  
ENDBRANCH   6   7
BRANCH   6  13
HETATM   13  C   UNL     1     -10.452  14.483  66.408  1.00  0.00    -0.295 A  
HETATM   14  C   UNL     1     -10.699  14.178  65.047  1.00  0.00    -0.429 A  
HETATM   15  C   UNL     1     -11.984  14.247  64.497  1.00  0.00    -0.478 A  
HETATM   16  C   UNL     1     -13.067  14.592  65.292  1.00  0.00     0.291 A  
HETATM   17  C   UNL     1     -11.575  14.782  67.195  1.00  0.00    -0.373 A  
HETATM   18  C   UNL     1     -12.864  14.849  66.649  1.00  0.00     1.255 A  
ENDBRANCH   6  13
BRANCH   6  19
HETATM   19  C   UNL     1      -8.151  13.296  66.291  1.00  0.00     1.146 C  
HETATM   20  C   UNL     1      -9.154  11.988  64.478  1.00  0.00     0.572 C  
HETATM   21  N   UNL     1      -9.022  11.095  65.626  1.00  0.00    -0.200 NA 
HETATM   22  C   UNL     1      -8.398  11.843  66.729  1.00  0.00    -0.153 C  
HETATM   23  C   UNL     1      -8.247  13.174  64.761  1.00  0.00     5.300 C  
BRANCH  21  24
HETATM   24  C   UNL     1     -10.281  10.446  66.036  1.00  0.00    -0.228 C  
BRANCH  24  25
HETATM   25  C   UNL     1     -10.380   8.951  65.680  1.00  0.00     0.955 C  
BRANCH  25  26
HETATM   26  C   UNL     1      -9.838   8.065  66.787  1.00  0.00    -0.327 A  
HETATM   27  C   UNL     1      -9.943   8.468  68.125  1.00  0.00    -0.214 A  
HETATM   28  C   UNL     1      -9.466   7.625  69.118  1.00  0.00    -0.154 A  
HETATM   29  C   UNL     1      -8.906   6.403  68.800  1.00  0.00    -0.124 A  
HETATM   30  O   UNL     1      -8.510   5.672  69.888  1.00  0.00    -0.117 OA 
HETATM   31  C   UNL     1      -8.784   5.974  67.496  1.00  0.00    -0.107 A  
HETATM   32  C   UNL     1      -9.249   6.819  66.480  1.00  0.00    -0.190 A  
HETATM   33  C   UNL     1      -8.718   6.550  71.017  1.00  0.00    -0.138 C  
HETATM   34  C   UNL     1      -9.463   7.814  70.580  1.00  0.00    -0.162 C  
ENDBRANCH  25  26
ENDBRANCH  24  25
ENDBRANCH  21  24
ENDBRANCH   6  19
ENDBRANCH   2   6
TORSDOF 7
ENDMDL
MODEL      249
REMARK 921   NORMALIZED FREE ENERGY PREDICTED BY IDOCK:   18.90 KCAL/MOL
REMARK 922        TOTAL FREE ENERGY PREDICTED BY IDOCK:   24.85 KCAL/MOL
REMARK 923 INTER-LIGAND FREE ENERGY PREDICTED BY IDOCK:   22.70 KCAL/MOL
REMARK 924 INTRA-LIGAND FREE ENERGY PREDICTED BY IDOCK:    2.15 KCAL/MOL
REMARK 927      BINDING AFFINITY PREDICTED BY RF-SCORE:    0.00 PKD
ROOT
HETATM    1  N   UNL     1      -9.473  15.395  68.975  1.00  0.00    -0.220 N  
HETATM    2  C   UNL     1      -9.645  16.207  70.066  1.00  0.00     0.429 C  
HETATM    3  H1  UNL     1     -10.183  15.468  68.247  1.00  0.00     0.000 HD 
HETATM    4  H2  UNL     1      -8.681  14.756  68.895  1.00  0.00     0.000 HD 
HETATM    5  O   UNL     1      -8.792  16.119  70.941  1.00  0.00     2.687 OA 
ENDROOT
BRANCH   2   6
HETATM    6  C   UNL     1     -10.865  17.226  70.057  1.00  0.00     0.569 C  
BRANCH   6   7
HETATM    7  C   UNL     1     -10.981  17.860  71.514  1.00  0.00     2.623 A  
HETATM    8  C   UNL     1     -11.087  18.837  74.188  1.00  0.00     2.784 A  
HETATM    9  C   UNL     1     -12.035  17.930  73.737  1.00  0.00     1.206 A  
HETATM   10  C   UNL     1     -10.123  19.306  73.308  1.00  0.00     3.785 A  
HETATM   11  C   UNL     1     -11.996  17.465  72.416  1.00  0.00     1.906 A  
HETATM   12  C   UNL     1     -10.078  18.832  71.990  1.00  0.00     4.545 A  
ENDBRANCH   6   7
BRANCH   6  13
HETATM   13  C   UNL     1     -10.592  18.340  68.980  1.00  0.00     0.244 A  
HETATM   14  C   UNL     1      -9.442  19.162  69.068  1.00  0.00    -0.361 A  
HETATM   15  C   UNL     1      -9.216  20.214  68.174  1.00  0.00    -0.259 A  
HETATM   16  C   UNL     1     -10.114  20.463  67.145  1.00  0.00    -0.502 A  
HETATM   17  C   UNL     1     -11.455  18.588  67.900  1.00  0.00     0.993 A  
HETATM   18  C   UNL     1     -11.231  19.639  67.000  1.00  0.00    -0.043 A  
ENDBRANCH   6  13
BRANCH   6  19
HETATM   19  C   UNL     1     -12.238  16.474  69.704  1.00  0.00     0.985 C  
HETATM   20  C   UNL     1     -12.222  14.075  69.203  1.00  0.00    -0.262 C  
HETATM   21  N   UNL     1     -12.569  14.767  67.964  1.00  0.00     0.402 NA 
HETATM   22  C   UNL     1     -12.612  16.213  68.235  1.00  0.00     1.671 C  
HETATM   23  C   UNL     1     -12.441  15.080  70.322  1.00  0.00    -0.385 C  
BRANCH  21  24
HETATM   24  C   UNL     1     -11.694  14.440  66.823  1.00  0.00    -0.397 C  
BRANCH  24  25
HETATM   25  C   UNL     1     -11.024  15.656  66.157  1.00  0.00    -0.206 C  
BRANCH  25  26
HETATM   26  C   UNL     1      -9.526  15.685  66.399  1.00  0.00    -0.321 A  
HETATM   27  C   UNL     1      -8.831  14.495  66.652  1.00  0.00    -0.214 A  
HETATM   28  C   UNL     1      -7.458  14.547  66.841  1.00  0.00     0.429 A  
HETATM   29  C   UNL     1      -6.780  15.749  66.771  1.00  0.00     0.379 A  
HETATM   30  O   UNL     1      -5.427  15.635  66.948  1.00  0.00    -0.181 OA 
HETATM   31  C   UNL     1      -7.429  16.939  66.527  1.00  0.00    -0.328 A  
HETATM   32  C   UNL     1      -8.818  16.906  66.347  1.00  0.00    -0.322 A  
HETATM   33  C   UNL     1      -5.215  14.246  67.288  1.00  0.00     0.651 C  
HETATM   34  C   UNL     1      -6.511  13.451  67.113  1.00  0.00     0.419 C  
ENDBRANCH  25  26
ENDBRANCH  24  25
ENDBRANCH  21  24
ENDBRANCH   6  19
ENDBRANCH   2   6
TORSDOF 7
ENDMDL
MODEL      250
REMARK 921   NORMALIZED FREE ENERGY PREDICTED BY IDOCK:   21.04 KCAL/MOL
REMARK 922        TOTAL FREE ENERGY PREDICTED BY IDOCK:   27.87 KCAL/MOL
REMARK 923 INTER-LIGAND FREE ENERGY PREDICTED BY IDOCK:   25.86 KCAL/MOL
REMARK 924 INTRA-LIGAND FREE ENERGY PREDICTED BY IDOCK:    2.01 KCAL/MOL
REMARK 927      BINDING AFFINITY PREDICTED BY RF-SCORE:    0.00 PKD
ROOT
HETATM    1  N   UNL     1      -9.448  11.547  66.845  1.00  0.00    -0.179 N  
HETATM    2  C   UNL     1      -8.478  12.513  66.936  1.00  0.00    -0.130 C  
HETATM    3  H1  UNL     1     -10.412  11.881  66.834  1.00  0.00     0.000 HD 
HETATM    4  H2  UNL     1      -9.220  10.554  66.790  1.00  0.00     0.000 HD 
HETATM    5  O   UNL     1      -7.320  12.111  66.948  1.00  0.00    -0.111 OA 
ENDROOT
BRANCH   2   6
HETATM    6  C   UNL     1      -8.934  14.035  66.932  1.00  0.00    -0.243 C  
BRANCH   6   7
HETATM    7  C   UNL     1     -10.496  14.076  66.618  1.00  0.00    -0.272 A  
HETATM    8  C   UNL     1     -13.261  14.335  65.984  1.00  0.00     0.637 A  
HETATM    9  C   UNL     1     -12.772  14.818  67.189  1.00  0.00     1.041 A  
HETATM   10  C   UNL     1     -12.402  13.673  65.118  1.00  0.00    -0.486 A  
HETATM   11  C   UNL     1     -11.416  14.672  67.510  1.00  0.00    -0.378 A  
HETATM   12  C   UNL     1     -11.044  13.539  65.436  1.00  0.00    -0.302 A  
ENDBRANCH   6   7
BRANCH   6  13
HETATM   13  C   UNL     1      -8.629  14.664  68.342  1.00  0.00    -0.169 A  
HETATM   14  C   UNL     1      -7.522  15.529  68.521  1.00  0.00    -0.118 A  
HETATM   15  C   UNL     1      -7.177  16.036  69.778  1.00  0.00     0.056 A  
HETATM   16  C   UNL     1      -7.942  15.723  70.893  1.00  0.00     2.891 A  
HETATM   17  C   UNL     1      -9.410  14.406  69.480  1.00  0.00     0.393 A  
HETATM   18  C   UNL     1      -9.070  14.915  70.742  1.00  0.00     2.046 A  
ENDBRANCH   6  13
BRANCH   6  19
HETATM   19  C   UNL     1      -8.152  14.865  65.803  1.00  0.00     2.629 C  
HETATM   20  C   UNL     1      -7.905  17.293  66.025  1.00  0.00    -0.175 C  
HETATM   21  N   UNL     1      -8.792  17.058  64.889  1.00  0.00     2.514 NA 
HETATM   22  C   UNL     1      -8.943  15.605  64.710  1.00  0.00     3.657 C  
HETATM   23  C   UNL     1      -7.203  15.972  66.293  1.00  0.00     0.719 C  
BRANCH  21  24
HETATM   24  C   UNL     1     -10.092  17.746  64.984  1.00  0.00     1.545 C  
BRANCH  24  25
HETATM   25  C   UNL     1     -10.822  17.560  66.327  1.00  0.00     0.062 C  
BRANCH  25  26
HETATM   26  C   UNL     1     -10.243  18.444  67.417  1.00  0.00    -0.393 A  
HETATM   27  C   UNL     1      -9.987  17.916  68.689  1.00  0.00    -0.387 A  
HETATM   28  C   UNL     1      -9.431  18.739  69.657  1.00  0.00     0.460 A  
HETATM   29  C   UNL     1      -9.123  20.056  69.374  1.00  0.00     0.430 A  
HETATM   30  O   UNL     1      -8.552  20.731  70.420  1.00  0.00     1.683 OA 
HETATM   31  C   UNL     1      -9.363  20.611  68.136  1.00  0.00     0.049 A  
HETATM   32  C   UNL     1      -9.936  19.796  67.150  1.00  0.00    -0.536 A  
HETATM   33  C   UNL     1      -8.606  19.805  71.529  1.00  0.00     3.115 C  
HETATM   34  C   UNL     1      -9.068  18.427  71.052  1.00  0.00     5.811 C  
ENDBRANCH  25  26
ENDBRANCH  24  25
ENDBRANCH  21  24
ENDBRANCH   6  19
ENDBRANCH   2   6
TORSDOF 7
ENDMDL
MODEL      251
REMARK 921   NORMALIZED FREE ENERGY PREDICTED BY IDOCK:   30.21 KCAL/MOL
REMARK 922        TOTAL FREE ENERGY PREDICTED BY IDOCK:   40.80 KCAL/MOL
REMARK 923 INTER-LIGAND FREE ENERGY PREDICTED BY IDOCK:   22.85 KCAL/MOL
REMARK 924 INTRA-LIGAND FREE ENERGY PREDICTED BY IDOCK:   17.94 KCAL/MOL
REMARK 927      BINDING AFFINITY PREDICTED BY RF-SCORE:    0.00 PKD
ROOT
HETATM    1  N   UNL     1     -10.587  19.505  69.976  1.00  0.00     0.259 N  
HETATM    2  C   UNL     1      -9.800  18.384  69.903  1.00  0.00     0.885 C  
HETATM    3  H1  UNL     1     -11.524  19.420  69.583  1.00  0.00     0.000 HD 
HETATM    4  H2  UNL     1     -10.256  20.372  70.398  1.00  0.00     0.000 HD 
HETATM    5  O   UNL     1      -8.674  18.487  70.375  1.00  0.00     2.341 OA 
ENDROOT
BRANCH   2   6
HETATM    6  C   UNL     1     -10.438  17.059  69.301  1.00  0.00    -0.293 C  
BRANCH   6   7
HETATM    7  C   UNL     1      -9.412  15.866  69.552  1.00  0.00    -0.219 A  
HETATM    8  C   UNL     1      -7.599  13.765  70.197  1.00  0.00     1.321 A  
HETATM    9  C   UNL     1      -7.151  15.075  70.117  1.00  0.00     0.040 A  
HETATM   10  C   UNL     1      -8.925  13.482  69.904  1.00  0.00     2.361 A  
HETATM   11  C   UNL     1      -8.038  16.106  69.779  1.00  0.00     0.415 A  
HETATM   12  C   UNL     1      -9.813  14.515  69.577  1.00  0.00     0.159 A  
ENDBRANCH   6   7
BRANCH   6  13
HETATM   13  C   UNL     1     -11.810  16.779  70.020  1.00  0.00     1.055 A  
HETATM   14  C   UNL     1     -11.911  16.845  71.431  1.00  0.00     0.913 A  
HETATM   15  C   UNL     1     -13.094  16.520  72.103  1.00  0.00     1.162 A  
HETATM   16  C   UNL     1     -14.224  16.148  71.389  1.00  0.00     1.534 A  
HETATM   17  C   UNL     1     -12.984  16.446  69.326  1.00  0.00     2.552 A  
HETATM   18  C   UNL     1     -14.173  16.122  69.994  1.00  0.00     3.989 A  
ENDBRANCH   6  13
BRANCH   6  19
HETATM   19  C   UNL     1     -10.690  17.208  67.723  1.00  0.00    -0.329 C  
HETATM   20  C   UNL     1      -8.793  17.150  66.173  1.00  0.00    -0.185 C  
HETATM   21  N   UNL     1      -9.330  18.507  66.138  1.00  0.00    -0.493 NA 
HETATM   22  C   UNL     1     -10.490  18.573  67.041  1.00  0.00    -0.402 C  
HETATM   23  C   UNL     1      -9.873  16.285  66.803  1.00  0.00    -0.254 C  
BRANCH  21  24
HETATM   24  C   UNL     1      -8.337  19.558  66.430  1.00  0.00    -0.347 C  
BRANCH  24  25
HETATM   25  C   UNL     1      -8.850  20.694  67.335  1.00  0.00    -0.331 C  
BRANCH  25  26
HETATM   26  C   UNL     1      -8.365  20.546  68.765  1.00  0.00     0.687 A  
HETATM   27  C   UNL     1      -7.002  20.680  69.063  1.00  0.00     0.240 A  
HETATM   28  C   UNL     1      -6.591  20.569  70.384  1.00  0.00     0.299 A  
HETATM   29  C   UNL     1      -7.506  20.340  71.393  1.00  0.00     1.426 A  
HETATM   30  O   UNL     1      -6.953  20.286  72.644  1.00  0.00     0.827 OA 
HETATM   31  C   UNL     1      -8.853  20.200  71.138  1.00  0.00     2.107 A  
HETATM   32  C   UNL     1      -9.284  20.297  69.808  1.00  0.00     0.903 A  
HETATM   33  C   UNL     1      -5.526  20.363  72.420  1.00  0.00     0.479 C  
HETATM   34  C   UNL     1      -5.234  20.673  70.950  1.00  0.00    -0.247 C  
ENDBRANCH  25  26
ENDBRANCH  24  25
ENDBRANCH  21  24
ENDBRANCH   6  19
ENDBRANCH   2   6
TORSDOF 7
ENDMDL
MODEL      252
REMARK 921   NORMALIZED FREE ENERGY PREDICTED BY IDOCK:   55.49 KCAL/MOL
REMARK 922        TOTAL FREE ENERGY PREDICTED BY IDOCK:   76.42 KCAL/MOL
REMARK 923 INTER-LIGAND FREE ENERGY PREDICTED BY IDOCK:   73.60 KCAL/MOL
REMARK 924 INTRA-LIGAND FREE ENERGY PREDICTED BY IDOCK:    2.83 KCAL/MOL
REMARK 927      BINDING AFFINITY PREDICTED BY RF-SCORE:    0.00 PKD
ROOT
HETATM    1  N   UNL     1      -9.286  17.524  66.772  1.00  0.00    -0.257 N  
HETATM    2  C   UNL     1      -8.751  17.616  68.032  1.00  0.00    -0.253 C  
HETATM    3  H1  UNL     1     -10.085  16.899  66.671  1.00  0.00     0.000 HD 
HETATM    4  H2  UNL     1      -8.906  18.049  65.984  1.00  0.00     0.000 HD 
HETATM    5  O   UNL     1      -7.789  18.367  68.153  1.00  0.00    -0.271 OA 
ENDROOT
BRANCH   2   6
HETATM    6  C   UNL     1      -9.465  16.823  69.209  1.00  0.00    -0.091 C  
BRANCH   6   7
HETATM    7  C   UNL     1     -10.829  17.574  69.546  1.00  0.00     0.498 A  
HETATM    8  C   UNL     1     -13.166  19.091  70.142  1.00  0.00    24.699 A  
HETATM    9  C   UNL     1     -12.301  18.711  71.158  1.00  0.00    14.153 A  
HETATM   10  C   UNL     1     -12.912  18.675  68.843  1.00  0.00    12.420 A  
HETATM   11  C   UNL     1     -11.162  17.948  70.868  1.00  0.00     2.862 A  
HETATM   12  C   UNL     1     -11.767  17.921  68.553  1.00  0.00     2.134 A  
ENDBRANCH   6   7
BRANCH   6  13
HETATM   13  C   UNL     1      -9.739  15.346  68.738  1.00  0.00    -0.210 A  
HETATM   14  C   UNL     1      -8.778  14.329  68.958  1.00  0.00     0.060 A  
HETATM   15  C   UNL     1      -8.957  13.028  68.478  1.00  0.00    -0.048 A  
HETATM   16  C   UNL     1     -10.114  12.690  67.790  1.00  0.00    -0.220 A  
HETATM   17  C   UNL     1     -10.918  14.959  68.081  1.00  0.00    -0.276 A  
HETATM   18  C   UNL     1     -11.104  13.655  67.601  1.00  0.00    -0.293 A  
ENDBRANCH   6  13
BRANCH   6  19
HETATM   19  C   UNL     1      -8.545  16.796  70.524  1.00  0.00     3.537 C  
HETATM   20  C   UNL     1      -6.205  16.085  70.361  1.00  0.00     0.130 C  
HETATM   21  N   UNL     1      -6.909  15.063  71.133  1.00  0.00     0.773 NA 
HETATM   22  C   UNL     1      -8.316  15.471  71.271  1.00  0.00     3.966 C  
HETATM   23  C   UNL     1      -7.103  17.311  70.368  1.00  0.00     1.938 C  
BRANCH  21  24
HETATM   24  C   UNL     1      -6.776  13.698  70.591  1.00  0.00     0.697 C  
BRANCH  24  25
HETATM   25  C   UNL     1      -5.659  12.856  71.235  1.00  0.00    -0.038 C  
BRANCH  25  26
HETATM   26  C   UNL     1      -6.190  11.562  71.825  1.00  0.00     2.168 A  
HETATM   27  C   UNL     1      -7.087  10.772  71.093  1.00  0.00     2.096 A  
HETATM   28  C   UNL     1      -7.533   9.580  71.644  1.00  0.00     0.606 A  
HETATM   29  C   UNL     1      -7.095   9.167  72.888  1.00  0.00     0.628 A  
HETATM   30  O   UNL     1      -7.599   7.957  73.282  1.00  0.00    -0.112 OA 
HETATM   31  C   UNL     1      -6.216   9.918  73.637  1.00  0.00     0.992 A  
HETATM   32  C   UNL     1      -5.765  11.132  73.101  1.00  0.00     1.625 A  
HETATM   33  C   UNL     1      -8.553   7.602  72.255  1.00  0.00    -0.123 C  
HETATM   34  C   UNL     1      -8.463   8.582  71.083  1.00  0.00    -0.191 C  
ENDBRANCH  25  26
ENDBRANCH  24  25
ENDBRANCH  21  24
ENDBRANCH   6  19
ENDBRANCH   2   6
TORSDOF 7
ENDMDL
