MODEL        1
REMARK 921   NORMALIZED FREE ENERGY PREDICTED BY IDOCK:   -8.54 KCAL/MOL
REMARK 922        TOTAL FREE ENERGY PREDICTED BY IDOCK:  -13.15 KCAL/MOL
REMARK 923 INTER-LIGAND FREE ENERGY PREDICTED BY IDOCK:  -11.53 KCAL/MOL
REMARK 924 INTRA-LIGAND FREE ENERGY PREDICTED BY IDOCK:   -1.62 KCAL/MOL
REMARK 927      BINDING AFFINITY PREDICTED BY RF-SCORE:    0.00 PKD
ROOT
HETATM    1  C   UNL     1      -9.386  11.247  62.749  1.00  0.00    -0.362 C  
HETATM    2  C   UNL     1     -10.411  11.552  63.846  1.00  0.00    -0.385 C  
ENDROOT
BRANCH   2   3
HETATM    3  C   UNL     1     -10.203  10.624  65.055  1.00  0.00    -0.310 C  
BRANCH   3   4
HETATM    4  N   UNL     1      -9.981  11.360  66.287  1.00  0.00    -0.217 NA 
HETATM    5  C   UNL     1      -8.788  11.554  66.914  1.00  0.00    -0.182 A  
HETATM    6  N   UNL     1     -11.020  11.916  66.934  1.00  0.00    -0.273 NA 
HETATM    7  C   UNL     1     -10.481  12.486  68.025  1.00  0.00    -0.219 A  
HETATM    8  C   UNL     1      -9.072  12.295  68.035  1.00  0.00    -0.191 A  
BRANCH   7   9
HETATM    9  C   UNL     1     -11.315  13.169  69.023  1.00  0.00    -0.332 A  
HETATM   10  C   UNL     1     -11.945  12.435  70.041  1.00  0.00    -0.372 A  
HETATM   11  C   UNL     1     -11.486  14.560  68.998  1.00  0.00    -0.318 A  
HETATM   12  N   UNL     1     -14.244  15.762  72.769  1.00  0.00    -0.416 NA 
HETATM   13  C   UNL     1     -12.257  15.202  69.974  1.00  0.00    -0.379 A  
HETATM   14 CL   UNL     1     -13.443  12.095  72.242  1.00  0.00    -0.484 Cl 
HETATM   15  C   UNL     1     -12.870  14.464  70.992  1.00  0.00    -0.423 A  
HETATM   16  C   UNL     1     -13.636  15.162  71.984  1.00  0.00    -0.446 C  
HETATM   17  C   UNL     1     -12.715  13.076  71.019  1.00  0.00    -0.262 A  
ENDBRANCH   7   9
ENDBRANCH   3   4
ENDBRANCH   2   3
BRANCH   2  18
HETATM   18  N   UNL     1     -10.384  12.970  64.186  1.00  0.00    -0.531 N  
HETATM   19  O   UNL     1     -12.590  13.402  63.740  1.00  0.00    -0.692 OA 
HETATM   20  H   UNL     1      -9.501  13.376  64.496  1.00  0.00     0.000 HD 
HETATM   21  C   UNL     1     -11.487  13.790  64.112  1.00  0.00    -0.293 C  
BRANCH  21  22
HETATM   22  C   UNL     1     -11.232  15.182  64.494  1.00  0.00    -0.272 A  
HETATM   23  N   UNL     1     -11.785  16.243  63.874  1.00  0.00    -1.518 NA 
HETATM   24  H   UNL     1     -12.441  16.245  63.093  1.00  0.00     0.000 HD 
HETATM   25  C   UNL     1     -10.377  15.589  65.544  1.00  0.00    -0.419 A  
HETATM   26  N   UNL     1     -11.265  17.301  64.529  1.00  0.00    -0.924 NA 
HETATM   27  C   UNL     1     -10.387  16.964  65.522  1.00  0.00    -0.177 A  
BRANCH  27  28
HETATM   28  C   UNL     1      -9.683  17.970  66.354  1.00  0.00    -0.321 C  
HETATM   29  C   UNL     1      -9.734  17.635  67.842  1.00  0.00    -0.295 C  
HETATM   30  O   UNL     1      -8.332  17.996  65.908  1.00  0.00    -0.516 OA 
HETATM   31  H   UNL     1      -7.882  18.639  66.442  1.00  0.00     0.000 HD 
ENDBRANCH  27  28
ENDBRANCH  21  22
ENDBRANCH   2  18
TORSDOF 6
ENDMDL
MODEL        2
REMARK 921   NORMALIZED FREE ENERGY PREDICTED BY IDOCK:   -8.30 KCAL/MOL
REMARK 922        TOTAL FREE ENERGY PREDICTED BY IDOCK:  -12.83 KCAL/MOL
REMARK 923 INTER-LIGAND FREE ENERGY PREDICTED BY IDOCK:  -11.37 KCAL/MOL
REMARK 924 INTRA-LIGAND FREE ENERGY PREDICTED BY IDOCK:   -1.46 KCAL/MOL
REMARK 927      BINDING AFFINITY PREDICTED BY RF-SCORE:    0.00 PKD
ROOT
HETATM    1  C   UNL     1      -9.772  11.142  62.712  1.00  0.00    -0.298 C  
HETATM    2  C   UNL     1     -10.166  11.389  64.172  1.00  0.00    -0.324 C  
ENDROOT
BRANCH   2   3
HETATM    3  C   UNL     1      -9.261  10.584  65.120  1.00  0.00    -0.205 C  
BRANCH   3   4
HETATM    4  N   UNL     1      -9.852  10.409  66.435  1.00  0.00    -0.204 NA 
HETATM    5  C   UNL     1     -10.042   9.232  67.091  1.00  0.00    -0.236 A  
HETATM    6  N   UNL     1     -10.295  11.478  67.120  1.00  0.00    -0.210 NA 
HETATM    7  C   UNL     1     -10.796  10.974  68.260  1.00  0.00    -0.215 A  
HETATM    8  C   UNL     1     -10.635   9.560  68.285  1.00  0.00    -0.260 A  
BRANCH   7   9
HETATM    9  C   UNL     1     -11.423  11.837  69.270  1.00  0.00    -0.369 A  
HETATM   10  C   UNL     1     -11.421  13.232  69.108  1.00  0.00    -0.357 A  
HETATM   11  C   UNL     1     -12.052  11.297  70.400  1.00  0.00    -0.474 A  
HETATM   12  N   UNL     1     -13.892  14.961  72.942  1.00  0.00    -0.492 NA 
HETATM   13  C   UNL     1     -12.673  12.130  71.337  1.00  0.00    -0.368 A  
HETATM   14 CL   UNL     1     -12.004  15.770  69.757  1.00  0.00    -0.358 Cl 
HETATM   15  C   UNL     1     -12.677  13.517  71.162  1.00  0.00    -0.425 A  
HETATM   16  C   UNL     1     -13.342  14.334  72.136  1.00  0.00    -0.416 C  
HETATM   17  C   UNL     1     -12.044  14.066  70.043  1.00  0.00    -0.348 A  
ENDBRANCH   7   9
ENDBRANCH   3   4
ENDBRANCH   2   3
BRANCH   2  18
HETATM   18  N   UNL     1     -10.186  12.820  64.457  1.00  0.00    -0.493 N  
HETATM   19  O   UNL     1     -12.425  13.141  64.090  1.00  0.00    -0.577 OA 
HETATM   20  H   UNL     1      -9.309  13.274  64.713  1.00  0.00     0.000 HD 
HETATM   21  C   UNL     1     -11.326  13.589  64.399  1.00  0.00    -0.382 C  
BRANCH  21  22
HETATM   22  C   UNL     1     -11.116  15.004  64.718  1.00  0.00    -0.376 A  
HETATM   23  N   UNL     1     -11.497  16.018  63.916  1.00  0.00    -1.258 NA 
HETATM   24  H   UNL     1     -11.976  15.964  63.017  1.00  0.00     0.000 HD 
HETATM   25  C   UNL     1     -10.486  15.486  65.889  1.00  0.00    -0.356 A  
HETATM   26  N   UNL     1     -11.094  17.120  64.581  1.00  0.00    -1.007 NA 
HETATM   27  C   UNL     1     -10.452  16.854  65.759  1.00  0.00    -0.268 A  
BRANCH  27  28
HETATM   28  C   UNL     1      -9.907  17.916  66.640  1.00  0.00    -0.342 C  
HETATM   29  C   UNL     1      -9.361  17.362  67.952  1.00  0.00    -0.267 C  
HETATM   30  O   UNL     1      -8.867  18.557  65.912  1.00  0.00    -0.482 OA 
HETATM   31  H   UNL     1      -8.518  19.236  66.477  1.00  0.00     0.000 HD 
ENDBRANCH  27  28
ENDBRANCH  21  22
ENDBRANCH   2  18
TORSDOF 6
ENDMDL
MODEL        3
REMARK 921   NORMALIZED FREE ENERGY PREDICTED BY IDOCK:   -7.88 KCAL/MOL
REMARK 922        TOTAL FREE ENERGY PREDICTED BY IDOCK:  -12.26 KCAL/MOL
REMARK 923 INTER-LIGAND FREE ENERGY PREDICTED BY IDOCK:  -10.96 KCAL/MOL
REMARK 924 INTRA-LIGAND FREE ENERGY PREDICTED BY IDOCK:   -1.30 KCAL/MOL
REMARK 927      BINDING AFFINITY PREDICTED BY RF-SCORE:    0.00 PKD
ROOT
HETATM    1  C   UNL     1      -8.213   9.243  66.595  1.00  0.00    -0.115 C  
HETATM    2  C   UNL     1      -9.588   8.995  65.965  1.00  0.00    -0.272 C  
ENDROOT
BRANCH   2   3
HETATM    3  C   UNL     1     -10.443   8.091  66.869  1.00  0.00    -0.317 C  
BRANCH   3   4
HETATM    4  N   UNL     1     -10.636   8.654  68.194  1.00  0.00    -0.177 NA 
HETATM    5  C   UNL     1     -10.295   8.078  69.380  1.00  0.00    -0.217 A  
HETATM    6  N   UNL     1     -11.222   9.856  68.334  1.00  0.00    -0.141 NA 
HETATM    7  C   UNL     1     -11.268  10.064  69.661  1.00  0.00    -0.239 A  
HETATM    8  C   UNL     1     -10.674   8.971  70.351  1.00  0.00    -0.267 A  
BRANCH   7   9
HETATM    9  C   UNL     1     -11.887  11.271  70.225  1.00  0.00    -0.446 A  
HETATM   10  C   UNL     1     -11.661  12.524  69.635  1.00  0.00    -0.372 A  
HETATM   11  C   UNL     1     -12.727  11.201  71.345  1.00  0.00    -0.524 A  
HETATM   12  N   UNL     1     -14.325  15.662  72.254  1.00  0.00    -0.504 NA 
HETATM   13  C   UNL     1     -13.335  12.355  71.853  1.00  0.00    -0.450 A  
HETATM   14 CL   UNL     1     -11.947  15.177  69.342  1.00  0.00    -0.344 Cl 
HETATM   15  C   UNL     1     -13.115  13.598  71.251  1.00  0.00    -0.357 A  
HETATM   16  C   UNL     1     -13.773  14.752  71.791  1.00  0.00    -0.421 C  
HETATM   17  C   UNL     1     -12.271  13.679  70.140  1.00  0.00    -0.342 A  
ENDBRANCH   7   9
ENDBRANCH   3   4
ENDBRANCH   2   3
BRANCH   2  18
HETATM   18  N   UNL     1     -10.230  10.263  65.633  1.00  0.00    -0.261 N  
HETATM   19  O   UNL     1      -9.769  10.223  63.388  1.00  0.00    -0.301 OA 
HETATM   20  H   UNL     1     -10.668  10.794  66.385  1.00  0.00     0.000 HD 
HETATM   21  C   UNL     1     -10.275  10.778  64.357  1.00  0.00    -0.364 C  
BRANCH  21  22
HETATM   22  C   UNL     1     -10.965  12.067  64.251  1.00  0.00    -0.346 A  
HETATM   23  N   UNL     1     -12.056  12.274  63.487  1.00  0.00    -0.596 NA 
HETATM   24  H   UNL     1     -12.555  11.600  62.906  1.00  0.00     0.000 HD 
HETATM   25  C   UNL     1     -10.575  13.251  64.918  1.00  0.00    -0.381 A  
HETATM   26  N   UNL     1     -12.333  13.581  63.672  1.00  0.00    -0.725 NA 
HETATM   27  C   UNL     1     -11.452  14.223  64.499  1.00  0.00    -0.355 A  
BRANCH  27  28
HETATM   28  C   UNL     1     -11.555  15.667  64.823  1.00  0.00    -0.218 C  
HETATM   29  C   UNL     1     -10.315  16.194  65.538  1.00  0.00    -0.391 C  
HETATM   30  O   UNL     1     -11.733  16.351  63.589  1.00  0.00    -1.520 OA 
HETATM   31  H   UNL     1     -11.798  17.275  63.797  1.00  0.00     0.000 HD 
ENDBRANCH  27  28
ENDBRANCH  21  22
ENDBRANCH   2  18
TORSDOF 6
ENDMDL
MODEL        4
REMARK 921   NORMALIZED FREE ENERGY PREDICTED BY IDOCK:   -7.36 KCAL/MOL
REMARK 922        TOTAL FREE ENERGY PREDICTED BY IDOCK:  -11.57 KCAL/MOL
REMARK 923 INTER-LIGAND FREE ENERGY PREDICTED BY IDOCK:  -10.44 KCAL/MOL
REMARK 924 INTRA-LIGAND FREE ENERGY PREDICTED BY IDOCK:   -1.13 KCAL/MOL
REMARK 927      BINDING AFFINITY PREDICTED BY RF-SCORE:    0.00 PKD
ROOT
HETATM    1  C   UNL     1     -10.770  17.022  69.565  1.00  0.00    -0.124 C  
HETATM    2  C   UNL     1     -11.436  15.652  69.736  1.00  0.00    -0.342 C  
ENDROOT
BRANCH   2   3
HETATM    3  C   UNL     1     -12.633  15.749  70.698  1.00  0.00    -0.326 C  
BRANCH   3   4
HETATM    4  N   UNL     1     -13.025  14.455  71.227  1.00  0.00    -0.327 NA 
HETATM    5  C   UNL     1     -13.954  14.219  72.193  1.00  0.00    -0.523 A  
HETATM    6  N   UNL     1     -12.433  13.336  70.772  1.00  0.00    -0.349 NA 
HETATM    7  C   UNL     1     -12.997  12.338  71.474  1.00  0.00    -0.289 A  
HETATM    8  C   UNL     1     -13.976  12.858  72.366  1.00  0.00    -0.338 A  
BRANCH   7   9
HETATM    9  C   UNL     1     -12.579  10.943  71.292  1.00  0.00    -0.526 A  
HETATM   10  C   UNL     1     -11.480  10.634  70.475  1.00  0.00    -0.407 A  
HETATM   11  C   UNL     1     -13.246   9.893  71.939  1.00  0.00    -0.558 A  
HETATM   12  N   UNL     1     -10.982   5.791  70.789  1.00  0.00    -0.271 NA 
HETATM   13  C   UNL     1     -12.816   8.570  71.782  1.00  0.00    -0.380 A  
HETATM   14 CL   UNL     1      -9.678   9.025  69.304  1.00  0.00    -0.165 Cl 
HETATM   15  C   UNL     1     -11.713   8.273  70.976  1.00  0.00    -0.293 A  
HETATM   16  C   UNL     1     -11.293   6.907  70.857  1.00  0.00    -0.304 C  
HETATM   17  C   UNL     1     -11.048   9.311  70.319  1.00  0.00    -0.251 A  
ENDBRANCH   7   9
ENDBRANCH   3   4
ENDBRANCH   2   3
BRANCH   2  18
HETATM   18  N   UNL     1     -11.777  15.087  68.435  1.00  0.00    -0.404 N  
HETATM   19  O   UNL     1     -10.034  13.604  68.316  1.00  0.00    -0.227 OA 
HETATM   20  H   UNL     1     -12.600  15.447  67.952  1.00  0.00     0.000 HD 
HETATM   21  C   UNL     1     -11.045  14.094  67.824  1.00  0.00    -0.276 C  
BRANCH  21  22
HETATM   22  C   UNL     1     -11.563  13.679  66.517  1.00  0.00    -0.366 A  
HETATM   23  N   UNL     1     -12.817  13.930  66.093  1.00  0.00    -0.427 NA 
HETATM   24  H   UNL     1     -13.558  14.432  66.581  1.00  0.00     0.000 HD 
HETATM   25  C   UNL     1     -10.827  12.960  65.547  1.00  0.00    -0.298 A  
HETATM   26  N   UNL     1     -12.860  13.360  64.871  1.00  0.00    -0.723 NA 
HETATM   27  C   UNL     1     -11.699  12.735  64.508  1.00  0.00    -0.366 A  
BRANCH  27  28
HETATM   28  C   UNL     1     -11.534  12.025  63.216  1.00  0.00    -0.310 C  
HETATM   29  C   UNL     1     -10.405  11.000  63.254  1.00  0.00    -0.317 C  
HETATM   30  O   UNL     1     -12.771  11.378  62.944  1.00  0.00    -0.951 OA 
HETATM   31  H   UNL     1     -12.664  10.923  62.117  1.00  0.00     0.000 HD 
ENDBRANCH  27  28
ENDBRANCH  21  22
ENDBRANCH   2  18
TORSDOF 6
ENDMDL
MODEL        5
REMARK 921   NORMALIZED FREE ENERGY PREDICTED BY IDOCK:   -7.35 KCAL/MOL
REMARK 922        TOTAL FREE ENERGY PREDICTED BY IDOCK:  -11.55 KCAL/MOL
REMARK 923 INTER-LIGAND FREE ENERGY PREDICTED BY IDOCK:  -10.05 KCAL/MOL
REMARK 924 INTRA-LIGAND FREE ENERGY PREDICTED BY IDOCK:   -1.50 KCAL/MOL
REMARK 927      BINDING AFFINITY PREDICTED BY RF-SCORE:    0.00 PKD
ROOT
HETATM    1  C   UNL     1     -10.260  19.109  68.255  1.00  0.00    -0.486 C  
HETATM    2  C   UNL     1      -9.890  17.623  68.301  1.00  0.00    -0.324 C  
ENDROOT
BRANCH   2   3
HETATM    3  C   UNL     1     -10.169  17.038  69.696  1.00  0.00    -0.008 C  
BRANCH   3   4
HETATM    4  N   UNL     1     -10.932  15.804  69.638  1.00  0.00    -0.278 NA 
HETATM    5  C   UNL     1     -12.195  15.607  70.107  1.00  0.00    -0.361 A  
HETATM    6  N   UNL     1     -10.387  14.702  69.095  1.00  0.00    -0.236 NA 
HETATM    7  C   UNL     1     -11.330  13.753  69.222  1.00  0.00    -0.273 A  
HETATM    8  C   UNL     1     -12.492  14.294  69.838  1.00  0.00    -0.315 A  
BRANCH   7   9
HETATM    9  C   UNL     1     -11.092  12.373  68.778  1.00  0.00    -0.307 A  
HETATM   10  C   UNL     1     -11.309  11.300  69.656  1.00  0.00    -0.359 A  
HETATM   11  C   UNL     1     -10.668  12.093  67.471  1.00  0.00    -0.265 A  
HETATM   12  N   UNL     1     -10.356   7.299  67.032  1.00  0.00    -0.281 NA 
HETATM   13  C   UNL     1     -10.476  10.772  67.052  1.00  0.00    -0.297 A  
HETATM   14 CL   UNL     1     -11.422   8.717  70.381  1.00  0.00    -0.213 Cl 
HETATM   15  C   UNL     1     -10.706   9.707  67.929  1.00  0.00    -0.302 A  
HETATM   16  C   UNL     1     -10.517   8.368  67.454  1.00  0.00    -0.283 C  
HETATM   17  C   UNL     1     -11.120   9.977  69.237  1.00  0.00    -0.206 A  
ENDBRANCH   7   9
ENDBRANCH   3   4
ENDBRANCH   2   3
BRANCH   2  18
HETATM   18  N   UNL     1     -10.554  16.900  67.221  1.00  0.00    -0.304 N  
HETATM   19  O   UNL     1      -8.884  17.131  65.669  1.00  0.00    -0.482 OA 
HETATM   20  H   UNL     1     -11.485  16.521  67.395  1.00  0.00     0.000 HD 
HETATM   21  C   UNL     1      -9.992  16.704  65.981  1.00  0.00    -0.324 C  
BRANCH  21  22
HETATM   22  C   UNL     1     -10.837  15.957  65.045  1.00  0.00    -0.426 A  
HETATM   23  N   UNL     1     -11.560  16.532  64.064  1.00  0.00    -1.544 NA 
HETATM   24  H   UNL     1     -11.619  17.521  63.822  1.00  0.00     0.000 HD 
HETATM   25  C   UNL     1     -11.011  14.554  65.056  1.00  0.00    -0.408 A  
HETATM   26  N   UNL     1     -12.186  15.491  63.478  1.00  0.00     0.022 NA 
HETATM   27  C   UNL     1     -11.916  14.282  64.057  1.00  0.00    -0.297 A  
BRANCH  27  28
HETATM   28  C   UNL     1     -12.514  13.008  63.586  1.00  0.00    -0.315 C  
HETATM   29  C   UNL     1     -11.460  11.955  63.259  1.00  0.00    -0.376 C  
HETATM   30  O   UNL     1     -13.359  12.544  64.631  1.00  0.00    -0.804 OA 
HETATM   31  H   UNL     1     -13.741  11.728  64.330  1.00  0.00     0.000 HD 
ENDBRANCH  27  28
ENDBRANCH  21  22
ENDBRANCH   2  18
TORSDOF 6
ENDMDL
MODEL        6
REMARK 921   NORMALIZED FREE ENERGY PREDICTED BY IDOCK:   -7.33 KCAL/MOL
REMARK 922        TOTAL FREE ENERGY PREDICTED BY IDOCK:  -11.52 KCAL/MOL
REMARK 923 INTER-LIGAND FREE ENERGY PREDICTED BY IDOCK:  -10.20 KCAL/MOL
REMARK 924 INTRA-LIGAND FREE ENERGY PREDICTED BY IDOCK:   -1.32 KCAL/MOL
REMARK 927      BINDING AFFINITY PREDICTED BY RF-SCORE:    0.00 PKD
ROOT
HETATM    1  C   UNL     1     -12.597  11.892  63.618  1.00  0.00    -0.555 C  
HETATM    2  C   UNL     1     -11.682  12.659  64.579  1.00  0.00    -0.359 C  
ENDROOT
BRANCH   2   3
HETATM    3  C   UNL     1     -11.977  14.167  64.520  1.00  0.00    -0.458 C  
BRANCH   3   4
HETATM    4  N   UNL     1     -11.470  14.877  65.682  1.00  0.00    -0.325 NA 
HETATM    5  C   UNL     1     -10.460  15.789  65.701  1.00  0.00    -0.383 A  
HETATM    6  N   UNL     1     -11.998  14.640  66.895  1.00  0.00    -0.340 NA 
HETATM    7  C   UNL     1     -11.299  15.425  67.734  1.00  0.00    -0.306 A  
HETATM    8  C   UNL     1     -10.333  16.179  67.011  1.00  0.00    -0.290 A  
BRANCH   7   9
HETATM    9  C   UNL     1     -11.553  15.418  69.180  1.00  0.00    -0.354 A  
HETATM   10  C   UNL     1     -12.190  14.321  69.782  1.00  0.00    -0.390 A  
HETATM   11  C   UNL     1     -11.152  16.487  69.994  1.00  0.00    -0.217 A  
HETATM   12  N   UNL     1     -12.318  15.379  74.542  1.00  0.00    -0.638 NA 
HETATM   13  C   UNL     1     -11.373  16.453  71.376  1.00  0.00    -0.151 A  
HETATM   14 CL   UNL     1     -13.188  12.888  71.820  1.00  0.00    -0.511 Cl 
HETATM   15  C   UNL     1     -11.996  15.350  71.968  1.00  0.00    -0.500 A  
HETATM   16  C   UNL     1     -12.186  15.347  73.390  1.00  0.00    -0.508 C  
HETATM   17  C   UNL     1     -12.409  14.285  71.164  1.00  0.00    -0.368 A  
ENDBRANCH   7   9
ENDBRANCH   3   4
ENDBRANCH   2   3
BRANCH   2  18
HETATM   18  N   UNL     1     -11.775  12.098  65.923  1.00  0.00    -0.378 N  
HETATM   19  O   UNL     1      -9.674  11.182  65.983  1.00  0.00    -0.209 OA 
HETATM   20  H   UNL     1     -12.643  12.228  66.442  1.00  0.00     0.000 HD 
HETATM   21  C   UNL     1     -10.752  11.403  66.527  1.00  0.00    -0.277 C  
BRANCH  21  22
HETATM   22  C   UNL     1     -11.062  10.922  67.877  1.00  0.00    -0.302 A  
HETATM   23  N   UNL     1     -12.272  11.044  68.457  1.00  0.00    -0.781 NA 
HETATM   24  H   UNL     1     -13.120  11.455  68.065  1.00  0.00     0.000 HD 
HETATM   25  C   UNL     1     -10.141  10.286  68.741  1.00  0.00    -0.198 A  
HETATM   26  N   UNL     1     -12.098  10.497  69.677  1.00  0.00    -0.219 NA 
HETATM   27  C   UNL     1     -10.825  10.054  69.910  1.00  0.00    -0.285 A  
BRANCH  27  28
HETATM   28  C   UNL     1     -10.407   9.438  71.193  1.00  0.00    -0.307 C  
HETATM   29  C   UNL     1     -11.592   8.953  72.022  1.00  0.00    -0.435 C  
HETATM   30  O   UNL     1      -9.564   8.340  70.863  1.00  0.00    -0.159 OA 
HETATM   31  H   UNL     1      -9.296   7.946  71.684  1.00  0.00     0.000 HD 
ENDBRANCH  27  28
ENDBRANCH  21  22
ENDBRANCH   2  18
TORSDOF 6
ENDMDL
MODEL        7
REMARK 921   NORMALIZED FREE ENERGY PREDICTED BY IDOCK:   -7.29 KCAL/MOL
REMARK 922        TOTAL FREE ENERGY PREDICTED BY IDOCK:  -11.46 KCAL/MOL
REMARK 923 INTER-LIGAND FREE ENERGY PREDICTED BY IDOCK:  -10.02 KCAL/MOL
REMARK 924 INTRA-LIGAND FREE ENERGY PREDICTED BY IDOCK:   -1.44 KCAL/MOL
REMARK 927      BINDING AFFINITY PREDICTED BY RF-SCORE:    0.00 PKD
ROOT
HETATM    1  C   UNL     1     -10.695  20.187  65.767  1.00  0.00    -0.273 C  
HETATM    2  C   UNL     1     -10.246  18.863  66.394  1.00  0.00    -0.426 C  
ENDROOT
BRANCH   2   3
HETATM    3  C   UNL     1     -10.494  18.871  67.912  1.00  0.00    -0.388 C  
BRANCH   3   4
HETATM    4  N   UNL     1     -10.114  17.619  68.542  1.00  0.00    -0.355 NA 
HETATM    5  C   UNL     1      -8.861  17.249  68.927  1.00  0.00    -0.173 A  
HETATM    6  N   UNL     1     -11.044  16.678  68.781  1.00  0.00    -0.307 NA 
HETATM    7  C   UNL     1     -10.368  15.657  69.336  1.00  0.00    -0.260 A  
HETATM    8  C   UNL     1      -8.991  15.991  69.462  1.00  0.00    -0.071 A  
BRANCH   7   9
HETATM    9  C   UNL     1     -11.039  14.404  69.705  1.00  0.00    -0.202 A  
HETATM   10  C   UNL     1     -11.007  13.301  68.838  1.00  0.00    -0.278 A  
HETATM   11  C   UNL     1     -11.706  14.271  70.931  1.00  0.00    -0.242 A  
HETATM   12  N   UNL     1     -13.395   9.759  71.194  1.00  0.00    -0.349 NA 
HETATM   13  C   UNL     1     -12.314  13.061  71.285  1.00  0.00    -0.198 A  
HETATM   14 CL   UNL     1     -11.513  10.780  68.066  1.00  0.00    -0.373 Cl 
HETATM   15  C   UNL     1     -12.266  11.963  70.420  1.00  0.00    -0.399 A  
HETATM   16  C   UNL     1     -12.886  10.736  70.828  1.00  0.00    -0.320 C  
HETATM   17  C   UNL     1     -11.613  12.089  69.191  1.00  0.00    -0.312 A  
ENDBRANCH   7   9
ENDBRANCH   3   4
ENDBRANCH   2   3
BRANCH   2  18
HETATM   18  N   UNL     1     -10.869  17.737  65.706  1.00  0.00    -0.129 N  
HETATM   19  O   UNL     1      -8.999  16.418  65.587  1.00  0.00    -0.427 OA 
HETATM   20  H   UNL     1     -11.859  17.804  65.470  1.00  0.00     0.000 HD 
HETATM   21  C   UNL     1     -10.192  16.591  65.359  1.00  0.00    -0.148 C  
BRANCH  21  22
HETATM   22  C   UNL     1     -11.011  15.591  64.669  1.00  0.00    -0.322 A  
HETATM   23  N   UNL     1     -12.113  15.888  63.953  1.00  0.00    -1.210 NA 
HETATM   24  H   UNL     1     -12.521  16.806  63.776  1.00  0.00     0.000 HD 
HETATM   25  C   UNL     1     -10.762  14.198  64.672  1.00  0.00    -0.408 A  
HETATM   26  N   UNL     1     -12.550  14.686  63.525  1.00  0.00    -0.509 NA 
HETATM   27  C   UNL     1     -11.791  13.634  63.957  1.00  0.00    -0.400 A  
BRANCH  27  28
HETATM   28  C   UNL     1     -12.103  12.222  63.622  1.00  0.00    -0.554 C  
HETATM   29  C   UNL     1     -11.023  11.257  64.102  1.00  0.00    -0.376 C  
HETATM   30  O   UNL     1     -13.341  11.917  64.252  1.00  0.00    -0.610 OA 
HETATM   31  H   UNL     1     -13.540  11.013  64.038  1.00  0.00     0.000 HD 
ENDBRANCH  27  28
ENDBRANCH  21  22
ENDBRANCH   2  18
TORSDOF 6
ENDMDL
MODEL        8
REMARK 921   NORMALIZED FREE ENERGY PREDICTED BY IDOCK:   -7.27 KCAL/MOL
REMARK 922        TOTAL FREE ENERGY PREDICTED BY IDOCK:  -11.44 KCAL/MOL
REMARK 923 INTER-LIGAND FREE ENERGY PREDICTED BY IDOCK:  -11.44 KCAL/MOL
REMARK 924 INTRA-LIGAND FREE ENERGY PREDICTED BY IDOCK:    0.00 KCAL/MOL
REMARK 927      BINDING AFFINITY PREDICTED BY RF-SCORE:    0.00 PKD
ROOT
HETATM    1  C   UNL     1     -10.380  12.384  63.777  1.00  0.00    -0.454 C  
HETATM    2  C   UNL     1     -11.397  13.408  64.293  1.00  0.00    -0.389 C  
ENDROOT
BRANCH   2   3
HETATM    3  C   UNL     1     -12.491  12.715  65.122  1.00  0.00    -0.463 C  
BRANCH   3   4
HETATM    4  N   UNL     1     -12.218  12.758  66.548  1.00  0.00    -0.496 NA 
HETATM    5  C   UNL     1     -12.107  13.873  67.321  1.00  0.00    -0.368 A  
HETATM    6  N   UNL     1     -12.026  11.616  67.229  1.00  0.00    -0.602 NA 
HETATM    7  C   UNL     1     -11.775  12.005  68.491  1.00  0.00    -0.332 A  
HETATM    8  C   UNL     1     -11.839  13.423  68.589  1.00  0.00    -0.397 A  
BRANCH   7   9
HETATM    9  C   UNL     1     -11.467  11.032  69.547  1.00  0.00    -0.370 A  
HETATM   10  C   UNL     1     -12.459  10.641  70.461  1.00  0.00    -0.445 A  
HETATM   11  C   UNL     1     -10.194  10.456  69.656  1.00  0.00    -0.245 A  
HETATM   12  N   UNL     1     -10.318   7.316  73.316  1.00  0.00    -0.305 NA 
HETATM   13  C   UNL     1      -9.923   9.506  70.647  1.00  0.00    -0.342 A  
HETATM   14 CL   UNL     1     -13.475   9.259  72.525  1.00  0.00    -0.510 Cl 
HETATM   15  C   UNL     1     -10.921   9.113  71.546  1.00  0.00    -0.434 A  
HETATM   16  C   UNL     1     -10.608   8.122  72.534  1.00  0.00    -0.340 C  
HETATM   17  C   UNL     1     -12.190   9.689  71.451  1.00  0.00    -0.385 A  
ENDBRANCH   7   9
ENDBRANCH   3   4
ENDBRANCH   2   3
BRANCH   2  18
HETATM   18  N   UNL     1     -10.716  14.484  65.007  1.00  0.00    -0.401 N  
HETATM   19  O   UNL     1     -11.804  16.223  63.984  1.00  0.00    -0.958 OA 
HETATM   20  H   UNL     1     -10.008  14.233  65.696  1.00  0.00     0.000 HD 
HETATM   21  C   UNL     1     -10.980  15.818  64.798  1.00  0.00    -0.393 C  
BRANCH  21  22
HETATM   22  C   UNL     1     -10.176  16.729  65.619  1.00  0.00    -0.236 A  
HETATM   23  N   UNL     1      -8.884  16.511  65.934  1.00  0.00    -0.483 NA 
HETATM   24  H   UNL     1      -8.291  15.729  65.657  1.00  0.00     0.000 HD 
HETATM   25  C   UNL     1     -10.647  17.934  66.188  1.00  0.00    -0.243 A  
HETATM   26  N   UNL     1      -8.561  17.570  66.704  1.00  0.00    -0.246 NA 
HETATM   27  C   UNL     1      -9.595  18.440  66.915  1.00  0.00    -0.303 A  
BRANCH  27  28
HETATM   28  C   UNL     1      -9.468  19.660  67.749  1.00  0.00    -0.348 C  
HETATM   29  C   UNL     1      -8.334  19.557  68.764  1.00  0.00    -0.346 C  
HETATM   30  O   UNL     1      -9.224  20.741  66.856  1.00  0.00    -0.609 OA 
HETATM   31  H   UNL     1      -9.142  21.522  67.390  1.00  0.00     0.000 HD 
ENDBRANCH  27  28
ENDBRANCH  21  22
ENDBRANCH   2  18
TORSDOF 6
ENDMDL
MODEL        9
REMARK 921   NORMALIZED FREE ENERGY PREDICTED BY IDOCK:   -7.24 KCAL/MOL
REMARK 922        TOTAL FREE ENERGY PREDICTED BY IDOCK:  -11.40 KCAL/MOL
REMARK 923 INTER-LIGAND FREE ENERGY PREDICTED BY IDOCK:  -10.45 KCAL/MOL
REMARK 924 INTRA-LIGAND FREE ENERGY PREDICTED BY IDOCK:   -0.94 KCAL/MOL
REMARK 927      BINDING AFFINITY PREDICTED BY RF-SCORE:    0.00 PKD
ROOT
HETATM    1  C   UNL     1     -10.369   8.111  71.928  1.00  0.00    -0.300 C  
HETATM    2  C   UNL     1     -10.404   9.047  70.716  1.00  0.00    -0.243 C  
ENDROOT
BRANCH   2   3
HETATM    3  C   UNL     1     -11.035   8.340  69.504  1.00  0.00    -0.041 C  
BRANCH   3   4
HETATM    4  N   UNL     1     -10.735   9.011  68.252  1.00  0.00    -0.154 NA 
HETATM    5  C   UNL     1     -10.050   8.493  67.195  1.00  0.00    -0.262 A  
HETATM    6  N   UNL     1     -11.128  10.282  68.060  1.00  0.00    -0.289 NA 
HETATM    7  C   UNL     1     -10.676  10.602  66.835  1.00  0.00    -0.237 A  
HETATM    8  C   UNL     1     -10.009   9.489  66.252  1.00  0.00    -0.344 A  
BRANCH   7   9
HETATM    9  C   UNL     1     -10.873  11.944  66.273  1.00  0.00    -0.323 A  
HETATM   10  C   UNL     1     -10.706  13.081  67.079  1.00  0.00    -0.270 A  
HETATM   11  C   UNL     1     -11.208  12.125  64.924  1.00  0.00    -0.374 A  
HETATM   12  N   UNL     1     -11.452  16.873  64.101  1.00  0.00    -0.999 NA 
HETATM   13  C   UNL     1     -11.361  13.411  64.393  1.00  0.00    -0.419 A  
HETATM   14 CL   UNL     1     -10.620  15.711  67.612  1.00  0.00    -0.288 Cl 
HETATM   15  C   UNL     1     -11.181  14.539  65.200  1.00  0.00    -0.367 A  
HETATM   16  C   UNL     1     -11.328  15.839  64.613  1.00  0.00    -0.337 C  
HETATM   17  C   UNL     1     -10.856  14.369  66.549  1.00  0.00    -0.310 A  
ENDBRANCH   7   9
ENDBRANCH   3   4
ENDBRANCH   2   3
BRANCH   2  18
HETATM   18  N   UNL     1     -11.058  10.305  71.064  1.00  0.00    -0.308 N  
HETATM   19  O   UNL     1     -13.164   9.448  71.354  1.00  0.00    -0.348 OA 
HETATM   20  H   UNL     1     -10.492  11.153  71.085  1.00  0.00     0.000 HD 
HETATM   21  C   UNL     1     -12.397  10.406  71.364  1.00  0.00    -0.397 C  
BRANCH  21  22
HETATM   22  C   UNL     1     -12.845  11.765  71.679  1.00  0.00    -0.328 A  
HETATM   23  N   UNL     1     -13.735  12.056  72.647  1.00  0.00    -0.355 NA 
HETATM   24  H   UNL     1     -14.202  11.414  73.287  1.00  0.00     0.000 HD 
HETATM   25  C   UNL     1     -12.415  12.934  71.010  1.00  0.00    -0.374 A  
HETATM   26  N   UNL     1     -13.864  13.397  72.570  1.00  0.00    -0.738 NA 
HETATM   27  C   UNL     1     -13.116  13.970  71.580  1.00  0.00    -0.363 A  
BRANCH  27  28
HETATM   28  C   UNL     1     -13.122  15.428  71.304  1.00  0.00    -0.493 C  
HETATM   29  C   UNL     1     -11.948  16.151  71.957  1.00  0.00    -0.607 C  
HETATM   30  O   UNL     1     -13.058  15.576  69.891  1.00  0.00    -0.586 OA 
HETATM   31  H   UNL     1     -13.062  16.509  69.714  1.00  0.00     0.000 HD 
ENDBRANCH  27  28
ENDBRANCH  21  22
ENDBRANCH   2  18
TORSDOF 6
ENDMDL
MODEL       10
REMARK 921   NORMALIZED FREE ENERGY PREDICTED BY IDOCK:   -7.09 KCAL/MOL
REMARK 922        TOTAL FREE ENERGY PREDICTED BY IDOCK:  -11.20 KCAL/MOL
REMARK 923 INTER-LIGAND FREE ENERGY PREDICTED BY IDOCK:   -9.63 KCAL/MOL
REMARK 924 INTRA-LIGAND FREE ENERGY PREDICTED BY IDOCK:   -1.57 KCAL/MOL
REMARK 927      BINDING AFFINITY PREDICTED BY RF-SCORE:    0.00 PKD
ROOT
HETATM    1  C   UNL     1     -11.790  12.614  63.264  1.00  0.00    -0.504 C  
HETATM    2  C   UNL     1     -11.367  12.496  64.733  1.00  0.00    -0.313 C  
ENDROOT
BRANCH   2   3
HETATM    3  C   UNL     1     -12.458  13.063  65.657  1.00  0.00    -0.390 C  
BRANCH   3   4
HETATM    4  N   UNL     1     -12.089  12.991  67.060  1.00  0.00    -0.361 NA 
HETATM    5  C   UNL     1     -11.758  14.035  67.869  1.00  0.00    -0.362 A  
HETATM    6  N   UNL     1     -12.030  11.798  67.678  1.00  0.00    -0.606 NA 
HETATM    7  C   UNL     1     -11.640  12.080  68.933  1.00  0.00    -0.321 A  
HETATM    8  C   UNL     1     -11.479  13.484  69.095  1.00  0.00    -0.345 A  
BRANCH   7   9
HETATM    9  C   UNL     1     -11.417  11.017  69.922  1.00  0.00    -0.400 A  
HETATM   10  C   UNL     1     -12.436  10.658  70.817  1.00  0.00    -0.480 A  
HETATM   11  C   UNL     1     -10.199  10.326  69.984  1.00  0.00    -0.214 A  
HETATM   12  N   UNL     1     -10.589   6.980  73.438  1.00  0.00    -0.339 NA 
HETATM   13  C   UNL     1     -10.010   9.294  70.910  1.00  0.00    -0.367 A  
HETATM   14 CL   UNL     1     -13.565   9.240  72.798  1.00  0.00    -0.371 Cl 
HETATM   15  C   UNL     1     -11.036   8.933  71.790  1.00  0.00    -0.431 A  
HETATM   16  C   UNL     1     -10.809   7.858  72.711  1.00  0.00    -0.386 C  
HETATM   17  C   UNL     1     -12.250   9.624  71.743  1.00  0.00    -0.384 A  
ENDBRANCH   7   9
ENDBRANCH   3   4
ENDBRANCH   2   3
BRANCH   2  18
HETATM   18  N   UNL     1     -10.994  11.121  65.044  1.00  0.00    -0.168 N  
HETATM   19  O   UNL     1      -8.905  11.584  65.867  1.00  0.00    -0.187 OA 
HETATM   20  H   UNL     1     -11.664  10.380  64.842  1.00  0.00     0.000 HD 
HETATM   21  C   UNL     1      -9.783  10.771  65.598  1.00  0.00    -0.237 C  
BRANCH  21  22
HETATM   22  C   UNL     1      -9.615   9.332  65.822  1.00  0.00    -0.271 A  
HETATM   23  N   UNL     1      -8.694   8.577  65.191  1.00  0.00    -0.332 NA 
HETATM   24  H   UNL     1      -7.999   8.873  64.506  1.00  0.00     0.000 HD 
HETATM   25  C   UNL     1     -10.393   8.555  66.711  1.00  0.00    -0.346 A  
HETATM   26  N   UNL     1      -8.909   7.338  65.679  1.00  0.00    -0.075 NA 
HETATM   27  C   UNL     1      -9.942   7.264  66.572  1.00  0.00    -0.112 A  
BRANCH  27  28
HETATM   28  C   UNL     1     -10.365   5.996  67.216  1.00  0.00    -0.223 C  
HETATM   29  C   UNL     1     -11.038   6.223  68.565  1.00  0.00    -0.397 C  
HETATM   30  O   UNL     1     -11.273   5.367  66.319  1.00  0.00    -0.709 OA 
HETATM   31  H   UNL     1     -11.544   4.555  66.731  1.00  0.00     0.000 HD 
ENDBRANCH  27  28
ENDBRANCH  21  22
ENDBRANCH   2  18
TORSDOF 6
ENDMDL
MODEL       11
REMARK 921   NORMALIZED FREE ENERGY PREDICTED BY IDOCK:   -7.09 KCAL/MOL
REMARK 922        TOTAL FREE ENERGY PREDICTED BY IDOCK:  -11.20 KCAL/MOL
REMARK 923 INTER-LIGAND FREE ENERGY PREDICTED BY IDOCK:   -9.82 KCAL/MOL
REMARK 924 INTRA-LIGAND FREE ENERGY PREDICTED BY IDOCK:   -1.38 KCAL/MOL
REMARK 927      BINDING AFFINITY PREDICTED BY RF-SCORE:    0.00 PKD
ROOT
HETATM    1  C   UNL     1      -9.286   9.745  65.423  1.00  0.00    -0.282 C  
HETATM    2  C   UNL     1      -9.738  10.868  66.363  1.00  0.00    -0.201 C  
ENDROOT
BRANCH   2   3
HETATM    3  C   UNL     1     -10.829  11.724  65.698  1.00  0.00    -0.292 C  
BRANCH   3   4
HETATM    4  N   UNL     1     -11.041  12.985  66.386  1.00  0.00    -0.281 NA 
HETATM    5  C   UNL     1     -10.917  14.232  65.855  1.00  0.00    -0.304 A  
HETATM    6  N   UNL     1     -11.377  12.991  67.688  1.00  0.00    -0.283 NA 
HETATM    7  C   UNL     1     -11.469  14.292  68.014  1.00  0.00    -0.314 A  
HETATM    8  C   UNL     1     -11.204  15.104  66.875  1.00  0.00    -0.292 A  
BRANCH   7   9
HETATM    9  C   UNL     1     -11.781  14.718  69.384  1.00  0.00    -0.358 A  
HETATM   10  C   UNL     1     -12.497  13.870  70.243  1.00  0.00    -0.380 A  
HETATM   11  C   UNL     1     -11.358  15.962  69.873  1.00  0.00    -0.348 A  
HETATM   12  N   UNL     1     -12.761  16.277  74.478  1.00  0.00    -0.718 NA 
HETATM   13  C   UNL     1     -11.635  16.342  71.191  1.00  0.00    -0.376 A  
HETATM   14 CL   UNL     1     -13.650  13.134  72.553  1.00  0.00    -0.665 Cl 
HETATM   15  C   UNL     1     -12.339  15.485  72.044  1.00  0.00    -0.478 A  
HETATM   16  C   UNL     1     -12.585  15.904  73.393  1.00  0.00    -0.550 C  
HETATM   17  C   UNL     1     -12.773  14.247  71.563  1.00  0.00    -0.350 A  
ENDBRANCH   7   9
ENDBRANCH   3   4
ENDBRANCH   2   3
BRANCH   2  18
HETATM   18  N   UNL     1     -10.132  10.320  67.656  1.00  0.00    -0.182 N  
HETATM   19  O   UNL     1      -8.310  11.059  68.834  1.00  0.00    -0.150 OA 
HETATM   20  H   UNL     1     -11.009   9.802  67.715  1.00  0.00     0.000 HD 
HETATM   21  C   UNL     1      -9.383  10.465  68.802  1.00  0.00    -0.175 C  
BRANCH  21  22
HETATM   22  C   UNL     1      -9.964   9.830  69.988  1.00  0.00    -0.254 A  
HETATM   23  N   UNL     1      -9.251   9.478  71.076  1.00  0.00    -0.331 NA 
HETATM   24  H   UNL     1      -8.252   9.604  71.242  1.00  0.00     0.000 HD 
HETATM   25  C   UNL     1     -11.330   9.496  70.141  1.00  0.00    -0.241 A  
HETATM   26  N   UNL     1     -10.167   8.920  71.893  1.00  0.00    -0.343 NA 
HETATM   27  C   UNL     1     -11.428   8.877  71.364  1.00  0.00    -0.311 A  
BRANCH  27  28
HETATM   28  C   UNL     1     -12.585   8.287  72.082  1.00  0.00    -0.337 C  
HETATM   29  C   UNL     1     -13.604   9.338  72.510  1.00  0.00    -0.478 C  
HETATM   30  O   UNL     1     -13.190   7.359  71.188  1.00  0.00    -0.542 OA 
HETATM   31  H   UNL     1     -13.930   6.982  71.648  1.00  0.00     0.000 HD 
ENDBRANCH  27  28
ENDBRANCH  21  22
ENDBRANCH   2  18
TORSDOF 6
ENDMDL
MODEL       12
REMARK 921   NORMALIZED FREE ENERGY PREDICTED BY IDOCK:   -7.06 KCAL/MOL
REMARK 922        TOTAL FREE ENERGY PREDICTED BY IDOCK:  -11.16 KCAL/MOL
REMARK 923 INTER-LIGAND FREE ENERGY PREDICTED BY IDOCK:  -10.02 KCAL/MOL
REMARK 924 INTRA-LIGAND FREE ENERGY PREDICTED BY IDOCK:   -1.15 KCAL/MOL
REMARK 927      BINDING AFFINITY PREDICTED BY RF-SCORE:    0.00 PKD
ROOT
HETATM    1  C   UNL     1      -7.603   8.545  66.978  1.00  0.00    -0.092 C  
HETATM    2  C   UNL     1      -8.758   8.048  66.101  1.00  0.00    -0.154 C  
ENDROOT
BRANCH   2   3
HETATM    3  C   UNL     1      -9.569   6.967  66.836  1.00  0.00    -0.168 C  
BRANCH   3   4
HETATM    4  N   UNL     1      -9.941   7.371  68.180  1.00  0.00    -0.160 NA 
HETATM    5  C   UNL     1      -9.745   6.663  69.326  1.00  0.00    -0.146 A  
HETATM    6  N   UNL     1     -10.564   8.545  68.380  1.00  0.00    -0.160 NA 
HETATM    7  C   UNL     1     -10.786   8.597  69.705  1.00  0.00    -0.200 A  
HETATM    8  C   UNL     1     -10.263   7.434  70.336  1.00  0.00    -0.201 A  
BRANCH   7   9
HETATM    9  C   UNL     1     -11.496   9.726  70.319  1.00  0.00    -0.317 A  
HETATM   10  C   UNL     1     -11.297  11.032  69.842  1.00  0.00    -0.364 A  
HETATM   11  C   UNL     1     -12.398   9.531  71.374  1.00  0.00    -0.451 A  
HETATM   12  N   UNL     1     -14.265  13.830  72.517  1.00  0.00    -0.718 NA 
HETATM   13  C   UNL     1     -13.092  10.613  71.929  1.00  0.00    -0.563 A  
HETATM   14 CL   UNL     1     -11.694  13.684  69.735  1.00  0.00    -0.362 Cl 
HETATM   15  C   UNL     1     -12.897  11.908  71.439  1.00  0.00    -0.411 A  
HETATM   16  C   UNL     1     -13.642  12.986  72.022  1.00  0.00    -0.441 C  
HETATM   17  C   UNL     1     -11.992  12.114  70.394  1.00  0.00    -0.272 A  
ENDBRANCH   7   9
ENDBRANCH   3   4
ENDBRANCH   2   3
BRANCH   2  18
HETATM   18  N   UNL     1      -9.566   9.172  65.641  1.00  0.00    -0.405 N  
HETATM   19  O   UNL     1      -8.299   9.684  63.800  1.00  0.00    -0.147 OA 
HETATM   20  H   UNL     1     -10.390   9.429  66.183  1.00  0.00     0.000 HD 
HETATM   21  C   UNL     1      -9.273   9.905  64.513  1.00  0.00    -0.261 C  
BRANCH  21  22
HETATM   22  C   UNL     1     -10.215  10.994  64.238  1.00  0.00    -0.352 A  
HETATM   23  N   UNL     1     -10.862  11.149  63.067  1.00  0.00    -0.822 NA 
HETATM   24  H   UNL     1     -10.813  10.558  62.237  1.00  0.00     0.000 HD 
HETATM   25  C   UNL     1     -10.555  12.019  65.151  1.00  0.00    -0.330 A  
HETATM   26  N   UNL     1     -11.591  12.269  63.250  1.00  0.00    -0.405 NA 
HETATM   27  C   UNL     1     -11.417  12.849  64.476  1.00  0.00    -0.344 A  
BRANCH  27  28
HETATM   28  C   UNL     1     -12.105  14.100  64.882  1.00  0.00    -0.428 C  
HETATM   29  C   UNL     1     -11.172  15.072  65.598  1.00  0.00    -0.327 C  
HETATM   30  O   UNL     1     -12.606  14.696  63.691  1.00  0.00    -1.017 OA 
HETATM   31  H   UNL     1     -13.045  15.496  63.952  1.00  0.00     0.000 HD 
ENDBRANCH  27  28
ENDBRANCH  21  22
ENDBRANCH   2  18
TORSDOF 6
ENDMDL
MODEL       13
REMARK 921   NORMALIZED FREE ENERGY PREDICTED BY IDOCK:   -7.04 KCAL/MOL
REMARK 922        TOTAL FREE ENERGY PREDICTED BY IDOCK:  -11.13 KCAL/MOL
REMARK 923 INTER-LIGAND FREE ENERGY PREDICTED BY IDOCK:  -10.05 KCAL/MOL
REMARK 924 INTRA-LIGAND FREE ENERGY PREDICTED BY IDOCK:   -1.08 KCAL/MOL
REMARK 927      BINDING AFFINITY PREDICTED BY RF-SCORE:    0.00 PKD
ROOT
HETATM    1  C   UNL     1     -12.077  16.185  72.574  1.00  0.00    -0.644 C  
HETATM    2  C   UNL     1     -11.753  15.467  71.259  1.00  0.00    -0.401 C  
ENDROOT
BRANCH   2   3
HETATM    3  C   UNL     1     -12.920  14.559  70.836  1.00  0.00    -0.361 C  
BRANCH   3   4
HETATM    4  N   UNL     1     -12.468  13.343  70.185  1.00  0.00    -0.228 NA 
HETATM    5  C   UNL     1     -12.312  12.120  70.763  1.00  0.00    -0.297 A  
HETATM    6  N   UNL     1     -12.134  13.362  68.882  1.00  0.00    -0.309 NA 
HETATM    7  C   UNL     1     -11.742  12.106  68.608  1.00  0.00    -0.330 A  
HETATM    8  C   UNL     1     -11.861  11.290  69.767  1.00  0.00    -0.437 A  
BRANCH   7   9
HETATM    9  C   UNL     1     -11.254  11.730  67.275  1.00  0.00    -0.364 A  
HETATM   10  C   UNL     1     -11.670  12.446  66.141  1.00  0.00    -0.460 A  
HETATM   11  C   UNL     1     -10.353  10.671  67.102  1.00  0.00    -0.275 A  
HETATM   12  N   UNL     1      -9.294  10.401  62.403  1.00  0.00    -0.276 NA 
HETATM   13  C   UNL     1      -9.871  10.344  65.830  1.00  0.00    -0.300 A  
HETATM   14 CL   UNL     1     -11.744  13.065  63.530  1.00  0.00    -0.550 Cl 
HETATM   15  C   UNL     1     -10.281  11.071  64.707  1.00  0.00    -0.381 A  
HETATM   16  C   UNL     1      -9.749  10.716  63.424  1.00  0.00    -0.339 C  
HETATM   17  C   UNL     1     -11.187  12.122  64.867  1.00  0.00    -0.323 A  
ENDBRANCH   7   9
ENDBRANCH   3   4
ENDBRANCH   2   3
BRANCH   2  18
HETATM   18  N   UNL     1     -11.364  16.433  70.237  1.00  0.00    -0.468 N  
HETATM   19  O   UNL     1      -9.413  15.402  69.615  1.00  0.00    -0.264 OA 
HETATM   20  H   UNL     1     -11.973  17.234  70.071  1.00  0.00     0.000 HD 
HETATM   21  C   UNL     1     -10.217  16.320  69.484  1.00  0.00    -0.251 C  
BRANCH  21  22
HETATM   22  C   UNL     1     -10.018  17.405  68.519  1.00  0.00    -0.331 A  
HETATM   23  N   UNL     1     -10.693  17.509  67.358  1.00  0.00    -0.301 NA 
HETATM   24  H   UNL     1     -11.419  16.891  66.993  1.00  0.00     0.000 HD 
HETATM   25  C   UNL     1      -9.095  18.465  68.672  1.00  0.00    -0.317 A  
HETATM   26  N   UNL     1     -10.184  18.621  66.790  1.00  0.00    -0.370 NA 
HETATM   27  C   UNL     1      -9.196  19.217  67.526  1.00  0.00    -0.296 A  
BRANCH  27  28
HETATM   28  C   UNL     1      -8.483  20.440  67.080  1.00  0.00    -0.318 C  
HETATM   29  C   UNL     1      -7.052  20.503  67.603  1.00  0.00    -0.363 C  
HETATM   30  O   UNL     1      -8.481  20.416  65.658  1.00  0.00    -0.498 OA 
HETATM   31  H   UNL     1      -8.024  21.198  65.374  1.00  0.00     0.000 HD 
ENDBRANCH  27  28
ENDBRANCH  21  22
ENDBRANCH   2  18
TORSDOF 6
ENDMDL
MODEL       14
REMARK 921   NORMALIZED FREE ENERGY PREDICTED BY IDOCK:   -7.02 KCAL/MOL
REMARK 922        TOTAL FREE ENERGY PREDICTED BY IDOCK:  -11.11 KCAL/MOL
REMARK 923 INTER-LIGAND FREE ENERGY PREDICTED BY IDOCK:  -10.45 KCAL/MOL
REMARK 924 INTRA-LIGAND FREE ENERGY PREDICTED BY IDOCK:   -0.66 KCAL/MOL
REMARK 927      BINDING AFFINITY PREDICTED BY RF-SCORE:    0.00 PKD
ROOT
HETATM    1  C   UNL     1      -8.674  16.939  68.197  1.00  0.00    -0.226 C  
HETATM    2  C   UNL     1      -9.706  15.874  68.584  1.00  0.00    -0.207 C  
ENDROOT
BRANCH   2   3
HETATM    3  C   UNL     1     -10.835  16.494  69.424  1.00  0.00    -0.311 C  
BRANCH   3   4
HETATM    4  N   UNL     1     -11.668  15.489  70.060  1.00  0.00    -0.319 NA 
HETATM    5  C   UNL     1     -12.755  15.714  70.849  1.00  0.00    -0.445 A  
HETATM    6  N   UNL     1     -11.380  14.184  69.910  1.00  0.00    -0.216 NA 
HETATM    7  C   UNL     1     -12.312  13.540  70.634  1.00  0.00    -0.358 A  
HETATM    8  C   UNL     1     -13.208  14.474  71.224  1.00  0.00    -0.422 A  
BRANCH   7   9
HETATM    9  C   UNL     1     -12.309  12.077  70.757  1.00  0.00    -0.403 A  
HETATM   10  C   UNL     1     -11.487  11.298  69.927  1.00  0.00    -0.373 A  
HETATM   11  C   UNL     1     -13.102  11.426  71.712  1.00  0.00    -0.523 A  
HETATM   12  N   UNL     1     -12.219   6.695  71.369  1.00  0.00    -0.350 NA 
HETATM   13  C   UNL     1     -13.066  10.033  71.840  1.00  0.00    -0.563 A  
HETATM   14 CL   UNL     1     -10.397   9.027  69.000  1.00  0.00    -0.226 Cl 
HETATM   15  C   UNL     1     -12.235   9.266  71.017  1.00  0.00    -0.322 A  
HETATM   16  C   UNL     1     -12.212   7.842  71.194  1.00  0.00    -0.255 C  
HETATM   17  C   UNL     1     -11.447   9.904  70.056  1.00  0.00    -0.217 A  
ENDBRANCH   7   9
ENDBRANCH   3   4
ENDBRANCH   2   3
BRANCH   2  18
HETATM   18  N   UNL     1     -10.179  15.171  67.396  1.00  0.00    -0.234 N  
HETATM   19  O   UNL     1     -10.668  17.033  66.152  1.00  0.00    -0.234 OA 
HETATM   20  H   UNL     1     -10.184  14.151  67.408  1.00  0.00     0.000 HD 
HETATM   21  C   UNL     1     -10.622  15.812  66.261  1.00  0.00    -0.310 C  
BRANCH  21  22
HETATM   22  C   UNL     1     -11.058  14.912  65.190  1.00  0.00    -0.393 A  
HETATM   23  N   UNL     1     -12.122  15.149  64.398  1.00  0.00    -0.578 NA 
HETATM   24  H   UNL     1     -12.748  15.954  64.409  1.00  0.00     0.000 HD 
HETATM   25  C   UNL     1     -10.435  13.687  64.858  1.00  0.00    -0.426 A  
HETATM   26  N   UNL     1     -12.164  14.072  63.588  1.00  0.00    -0.660 NA 
HETATM   27  C   UNL     1     -11.190  13.146  63.845  1.00  0.00    -0.336 A  
BRANCH  27  28
HETATM   28  C   UNL     1     -11.063  11.876  63.088  1.00  0.00    -0.183 C  
HETATM   29  C   UNL     1     -10.214  10.843  63.822  1.00  0.00    -0.407 C  
HETATM   30  O   UNL     1     -12.382  11.378  62.903  1.00  0.00    -0.954 OA 
HETATM   31  H   UNL     1     -12.301  10.565  62.419  1.00  0.00     0.000 HD 
ENDBRANCH  27  28
ENDBRANCH  21  22
ENDBRANCH   2  18
TORSDOF 6
ENDMDL
MODEL       15
REMARK 921   NORMALIZED FREE ENERGY PREDICTED BY IDOCK:   -6.98 KCAL/MOL
REMARK 922        TOTAL FREE ENERGY PREDICTED BY IDOCK:  -11.06 KCAL/MOL
REMARK 923 INTER-LIGAND FREE ENERGY PREDICTED BY IDOCK:   -9.93 KCAL/MOL
REMARK 924 INTRA-LIGAND FREE ENERGY PREDICTED BY IDOCK:   -1.13 KCAL/MOL
REMARK 927      BINDING AFFINITY PREDICTED BY RF-SCORE:    0.00 PKD
ROOT
HETATM    1  C   UNL     1     -11.999   6.728  70.001  1.00  0.00    -0.179 C  
HETATM    2  C   UNL     1     -10.895   7.744  69.692  1.00  0.00    -0.184 C  
ENDROOT
BRANCH   2   3
HETATM    3  C   UNL     1     -10.312   7.500  68.289  1.00  0.00    -0.195 C  
BRANCH   3   4
HETATM    4  N   UNL     1      -9.619   8.664  67.767  1.00  0.00    -0.145 NA 
HETATM    5  C   UNL     1      -8.272   8.862  67.733  1.00  0.00    -0.110 A  
HETATM    6  N   UNL     1     -10.322   9.697  67.268  1.00  0.00    -0.233 NA 
HETATM    7  C   UNL     1      -9.395  10.600  66.903  1.00  0.00    -0.159 A  
HETATM    8  C   UNL     1      -8.090  10.097  67.163  1.00  0.00    -0.120 A  
BRANCH   7   9
HETATM    9  C   UNL     1      -9.775  11.903  66.344  1.00  0.00    -0.238 A  
HETATM   10  C   UNL     1     -10.621  11.975  65.226  1.00  0.00    -0.328 A  
HETATM   11  C   UNL     1      -9.326  13.100  66.919  1.00  0.00    -0.246 A  
HETATM   12  N   UNL     1     -11.273  16.743  64.427  1.00  0.00    -1.107 NA 
HETATM   13  C   UNL     1      -9.722  14.336  66.395  1.00  0.00    -0.315 A  
HETATM   14 CL   UNL     1     -12.072  13.203  63.331  1.00  0.00    -0.613 Cl 
HETATM   15  C   UNL     1     -10.574  14.398  65.289  1.00  0.00    -0.398 A  
HETATM   16  C   UNL     1     -10.971  15.685  64.795  1.00  0.00    -0.400 C  
HETATM   17  C   UNL     1     -11.020  13.211  64.702  1.00  0.00    -0.356 A  
ENDBRANCH   7   9
ENDBRANCH   3   4
ENDBRANCH   2   3
BRANCH   2  18
HETATM   18  N   UNL     1     -11.384   9.103  69.893  1.00  0.00    -0.430 N  
HETATM   19  O   UNL     1     -11.341   9.074  72.185  1.00  0.00    -0.357 OA 
HETATM   20  H   UNL     1     -11.605   9.664  69.071  1.00  0.00     0.000 HD 
HETATM   21  C   UNL     1     -11.565   9.668  71.135  1.00  0.00    -0.381 C  
BRANCH  21  22
HETATM   22  C   UNL     1     -12.071  11.043  71.106  1.00  0.00    -0.244 A  
HETATM   23  N   UNL     1     -11.661  11.975  70.222  1.00  0.00    -0.530 NA 
HETATM   24  H   UNL     1     -10.982  11.873  69.468  1.00  0.00     0.000 HD 
HETATM   25  C   UNL     1     -13.036  11.570  71.995  1.00  0.00    -0.430 A  
HETATM   26  N   UNL     1     -12.361  13.075  70.570  1.00  0.00    -0.324 NA 
HETATM   27  C   UNL     1     -13.178  12.893  71.651  1.00  0.00    -0.324 A  
BRANCH  27  28
HETATM   28  C   UNL     1     -14.021  13.975  72.218  1.00  0.00    -0.553 C  
HETATM   29  C   UNL     1     -13.285  14.798  73.270  1.00  0.00    -0.456 C  
HETATM   30  O   UNL     1     -14.403  14.808  71.129  1.00  0.00    -0.576 OA 
HETATM   31  H   UNL     1     -14.942  15.500  71.491  1.00  0.00     0.000 HD 
ENDBRANCH  27  28
ENDBRANCH  21  22
ENDBRANCH   2  18
TORSDOF 6
ENDMDL
MODEL       16
REMARK 921   NORMALIZED FREE ENERGY PREDICTED BY IDOCK:   -6.98 KCAL/MOL
REMARK 922        TOTAL FREE ENERGY PREDICTED BY IDOCK:  -11.05 KCAL/MOL
REMARK 923 INTER-LIGAND FREE ENERGY PREDICTED BY IDOCK:  -10.33 KCAL/MOL
REMARK 924 INTRA-LIGAND FREE ENERGY PREDICTED BY IDOCK:   -0.72 KCAL/MOL
REMARK 927      BINDING AFFINITY PREDICTED BY RF-SCORE:    0.00 PKD
ROOT
HETATM    1  C   UNL     1      -9.678  10.009  68.531  1.00  0.00    -0.164 C  
HETATM    2  C   UNL     1      -9.974  11.452  68.108  1.00  0.00    -0.189 C  
ENDROOT
BRANCH   2   3
HETATM    3  C   UNL     1     -10.738  11.479  66.773  1.00  0.00    -0.270 C  
BRANCH   3   4
HETATM    4  N   UNL     1     -10.683  12.780  66.130  1.00  0.00    -0.271 NA 
HETATM    5  C   UNL     1     -11.203  13.109  64.915  1.00  0.00    -0.310 A  
HETATM    6  N   UNL     1     -10.052  13.802  66.733  1.00  0.00    -0.260 NA 
HETATM    7  C   UNL     1     -10.162  14.830  65.875  1.00  0.00    -0.313 A  
HETATM    8  C   UNL     1     -10.901  14.434  64.726  1.00  0.00    -0.415 A  
BRANCH   7   9
HETATM    9  C   UNL     1      -9.552  16.135  66.161  1.00  0.00    -0.359 A  
HETATM   10  C   UNL     1     -10.361  17.264  66.369  1.00  0.00    -0.316 A  
HETATM   11  C   UNL     1      -8.162  16.284  66.255  1.00  0.00    -0.312 A  
HETATM   12  N   UNL     1      -7.253  20.888  67.374  1.00  0.00    -0.357 NA 
HETATM   13  C   UNL     1      -7.596  17.527  66.560  1.00  0.00    -0.311 A  
HETATM   14 CL   UNL     1     -10.869  19.840  66.928  1.00  0.00    -0.545 Cl 
HETATM   15  C   UNL     1      -8.409  18.643  66.778  1.00  0.00    -0.287 A  
HETATM   16  C   UNL     1      -7.790  19.894  67.107  1.00  0.00    -0.290 C  
HETATM   17  C   UNL     1      -9.796  18.508  66.676  1.00  0.00    -0.354 A  
ENDBRANCH   7   9
ENDBRANCH   3   4
ENDBRANCH   2   3
BRANCH   2  18
HETATM   18  N   UNL     1     -10.652  12.167  69.184  1.00  0.00    -0.427 N  
HETATM   19  O   UNL     1     -12.561  10.898  69.196  1.00  0.00    -0.361 OA 
HETATM   20  H   UNL     1     -10.176  12.961  69.611  1.00  0.00     0.000 HD 
HETATM   21  C   UNL     1     -11.901  11.827  69.651  1.00  0.00    -0.339 C  
BRANCH  21  22
HETATM   22  C   UNL     1     -12.396  12.684  70.733  1.00  0.00    -0.283 A  
HETATM   23  N   UNL     1     -13.212  12.256  71.716  1.00  0.00    -0.411 NA 
HETATM   24  H   UNL     1     -13.583  11.317  71.862  1.00  0.00     0.000 HD 
HETATM   25  C   UNL     1     -12.094  14.058  70.879  1.00  0.00    -0.404 A  
HETATM   26  N   UNL     1     -13.423  13.361  72.459  1.00  0.00    -0.579 NA 
HETATM   27  C   UNL     1     -12.800  14.480  71.981  1.00  0.00    -0.337 A  
BRANCH  27  28
HETATM   28  C   UNL     1     -12.913  15.809  72.630  1.00  0.00    -0.478 C  
HETATM   29  C   UNL     1     -12.542  15.769  74.109  1.00  0.00    -0.761 C  
HETATM   30  O   UNL     1     -12.034  16.682  71.931  1.00  0.00    -0.630 OA 
HETATM   31  H   UNL     1     -12.107  17.532  72.348  1.00  0.00     0.000 HD 
ENDBRANCH  27  28
ENDBRANCH  21  22
ENDBRANCH   2  18
TORSDOF 6
ENDMDL
MODEL       17
REMARK 921   NORMALIZED FREE ENERGY PREDICTED BY IDOCK:   -6.96 KCAL/MOL
REMARK 922        TOTAL FREE ENERGY PREDICTED BY IDOCK:  -11.03 KCAL/MOL
REMARK 923 INTER-LIGAND FREE ENERGY PREDICTED BY IDOCK:   -9.77 KCAL/MOL
REMARK 924 INTRA-LIGAND FREE ENERGY PREDICTED BY IDOCK:   -1.26 KCAL/MOL
REMARK 927      BINDING AFFINITY PREDICTED BY RF-SCORE:    0.00 PKD
ROOT
HETATM    1  C   UNL     1     -10.772  16.193  69.880  1.00  0.00    -0.328 C  
HETATM    2  C   UNL     1     -11.646  15.332  68.962  1.00  0.00    -0.343 C  
ENDROOT
BRANCH   2   3
HETATM    3  C   UNL     1     -11.255  15.541  67.489  1.00  0.00    -0.272 C  
BRANCH   3   4
HETATM    4  N   UNL     1     -11.433  14.340  66.693  1.00  0.00    -0.350 NA 
HETATM    5  C   UNL     1     -12.466  14.070  65.848  1.00  0.00    -0.481 A  
HETATM    6  N   UNL     1     -10.530  13.346  66.765  1.00  0.00    -0.272 NA 
HETATM    7  C   UNL     1     -11.000  12.393  65.941  1.00  0.00    -0.288 A  
HETATM    8  C   UNL     1     -12.209  12.826  65.329  1.00  0.00    -0.535 A  
BRANCH   7   9
HETATM    9  C   UNL     1     -10.303  11.111  65.778  1.00  0.00    -0.316 A  
HETATM   10  C   UNL     1     -10.404  10.120  66.767  1.00  0.00    -0.285 A  
HETATM   11  C   UNL     1      -9.543  10.836  64.632  1.00  0.00    -0.320 A  
HETATM   12  N   UNL     1      -7.846   6.340  65.045  1.00  0.00    -0.105 NA 
HETATM   13  C   UNL     1      -8.911   9.598  64.475  1.00  0.00    -0.278 A  
HETATM   14 CL   UNL     1      -9.964   7.713  67.872  1.00  0.00    -0.193 Cl 
HETATM   15  C   UNL     1      -9.028   8.611  65.459  1.00  0.00    -0.209 A  
HETATM   16  C   UNL     1      -8.380   7.349  65.251  1.00  0.00    -0.104 C  
HETATM   17  C   UNL     1      -9.775   8.879  66.610  1.00  0.00    -0.237 A  
ENDBRANCH   7   9
ENDBRANCH   3   4
ENDBRANCH   2   3
BRANCH   2  18
HETATM   18  N   UNL     1     -11.606  13.936  69.385  1.00  0.00    -0.279 N  
HETATM   19  O   UNL     1     -13.180  14.106  71.043  1.00  0.00    -0.336 OA 
HETATM   20  H   UNL     1     -10.964  13.305  68.906  1.00  0.00     0.000 HD 
HETATM   21  C   UNL     1     -12.387  13.428  70.397  1.00  0.00    -0.312 C  
BRANCH  21  22
HETATM   22  C   UNL     1     -12.180  12.001  70.662  1.00  0.00    -0.316 A  
HETATM   23  N   UNL     1     -11.205  11.266  70.092  1.00  0.00    -0.490 NA 
HETATM   24  H   UNL     1     -10.488  11.572  69.434  1.00  0.00     0.000 HD 
HETATM   25  C   UNL     1     -12.973  11.215  71.530  1.00  0.00    -0.542 A  
HETATM   26  N   UNL     1     -11.400  10.030  70.595  1.00  0.00    -0.323 NA 
HETATM   27  C   UNL     1     -12.471   9.938  71.441  1.00  0.00    -0.398 A  
BRANCH  27  28
HETATM   28  C   UNL     1     -12.881   8.669  72.091  1.00  0.00    -0.391 C  
HETATM   29  C   UNL     1     -11.687   7.834  72.543  1.00  0.00    -0.393 C  
HETATM   30  O   UNL     1     -13.678   9.025  73.214  1.00  0.00    -1.072 OA 
HETATM   31  H   UNL     1     -13.940   8.212  73.630  1.00  0.00     0.000 HD 
ENDBRANCH  27  28
ENDBRANCH  21  22
ENDBRANCH   2  18
TORSDOF 6
ENDMDL
MODEL       18
REMARK 921   NORMALIZED FREE ENERGY PREDICTED BY IDOCK:   -6.94 KCAL/MOL
REMARK 922        TOTAL FREE ENERGY PREDICTED BY IDOCK:  -11.00 KCAL/MOL
REMARK 923 INTER-LIGAND FREE ENERGY PREDICTED BY IDOCK:   -9.58 KCAL/MOL
REMARK 924 INTRA-LIGAND FREE ENERGY PREDICTED BY IDOCK:   -1.42 KCAL/MOL
REMARK 927      BINDING AFFINITY PREDICTED BY RF-SCORE:    0.00 PKD
ROOT
HETATM    1  C   UNL     1     -12.322  16.156  72.244  1.00  0.00    -0.538 C  
HETATM    2  C   UNL     1     -12.069  14.895  71.410  1.00  0.00    -0.337 C  
ENDROOT
BRANCH   2   3
HETATM    3  C   UNL     1     -13.195  13.870  71.624  1.00  0.00    -0.370 C  
BRANCH   3   4
HETATM    4  N   UNL     1     -12.805  12.528  71.228  1.00  0.00    -0.313 NA 
HETATM    5  C   UNL     1     -13.135  11.366  71.856  1.00  0.00    -0.400 A  
HETATM    6  N   UNL     1     -12.021  12.347  70.151  1.00  0.00    -0.339 NA 
HETATM    7  C   UNL     1     -11.832  11.018  70.081  1.00  0.00    -0.357 A  
HETATM    8  C   UNL     1     -12.538  10.366  71.131  1.00  0.00    -0.512 A  
BRANCH   7   9
HETATM    9  C   UNL     1     -10.981  10.418  69.045  1.00  0.00    -0.282 A  
HETATM   10  C   UNL     1     -11.045  10.881  67.722  1.00  0.00    -0.371 A  
HETATM   11  C   UNL     1     -10.076   9.392  69.351  1.00  0.00    -0.204 A  
HETATM   12  N   UNL     1      -7.702   8.279  65.302  1.00  0.00    -0.100 NA 
HETATM   13  C   UNL     1      -9.249   8.852  68.361  1.00  0.00    -0.140 A  
HETATM   14 CL   UNL     1     -10.354  10.983  65.130  1.00  0.00    -0.341 Cl 
HETATM   15  C   UNL     1      -9.310   9.328  67.047  1.00  0.00    -0.183 A  
HETATM   16  C   UNL     1      -8.431   8.760  66.066  1.00  0.00    -0.135 C  
HETATM   17  C   UNL     1     -10.216  10.343  66.730  1.00  0.00    -0.226 A  
ENDBRANCH   7   9
ENDBRANCH   3   4
ENDBRANCH   2   3
BRANCH   2  18
HETATM   18  N   UNL     1     -11.857  15.247  70.010  1.00  0.00    -0.310 N  
HETATM   19  O   UNL     1      -9.571  15.388  70.106  1.00  0.00    -0.140 OA 
HETATM   20  H   UNL     1     -12.673  15.339  69.406  1.00  0.00     0.000 HD 
HETATM   21  C   UNL     1     -10.613  15.462  69.462  1.00  0.00    -0.268 C  
BRANCH  21  22
HETATM   22  C   UNL     1     -10.631  15.811  68.039  1.00  0.00    -0.279 A  
HETATM   23  N   UNL     1     -10.388  17.049  67.567  1.00  0.00    -0.321 NA 
HETATM   24  H   UNL     1     -10.153  17.890  68.094  1.00  0.00     0.000 HD 
HETATM   25  C   UNL     1     -10.914  14.908  66.988  1.00  0.00    -0.327 A  
HETATM   26  N   UNL     1     -10.531  16.916  66.232  1.00  0.00    -0.296 NA 
HETATM   27  C   UNL     1     -10.879  15.655  65.834  1.00  0.00    -0.293 A  
BRANCH  27  28
HETATM   28  C   UNL     1     -11.108  15.290  64.414  1.00  0.00    -0.117 C  
HETATM   29  C   UNL     1     -12.141  14.179  64.257  1.00  0.00    -0.471 C  
HETATM   30  O   UNL     1     -11.557  16.468  63.757  1.00  0.00    -1.617 OA 
HETATM   31  H   UNL     1     -11.704  16.234  62.849  1.00  0.00     0.000 HD 
ENDBRANCH  27  28
ENDBRANCH  21  22
ENDBRANCH   2  18
TORSDOF 6
ENDMDL
MODEL       19
REMARK 921   NORMALIZED FREE ENERGY PREDICTED BY IDOCK:   -6.91 KCAL/MOL
REMARK 922        TOTAL FREE ENERGY PREDICTED BY IDOCK:  -10.96 KCAL/MOL
REMARK 923 INTER-LIGAND FREE ENERGY PREDICTED BY IDOCK:  -10.71 KCAL/MOL
REMARK 924 INTRA-LIGAND FREE ENERGY PREDICTED BY IDOCK:   -0.25 KCAL/MOL
REMARK 927      BINDING AFFINITY PREDICTED BY RF-SCORE:    0.00 PKD
ROOT
HETATM    1  C   UNL     1     -10.088  12.484  64.062  1.00  0.00    -0.316 C  
HETATM    2  C   UNL     1     -11.182  13.501  64.402  1.00  0.00    -0.379 C  
ENDROOT
BRANCH   2   3
HETATM    3  C   UNL     1     -12.338  12.822  65.157  1.00  0.00    -0.496 C  
BRANCH   3   4
HETATM    4  N   UNL     1     -12.137  12.823  66.595  1.00  0.00    -0.501 NA 
HETATM    5  C   UNL     1     -12.061  13.915  67.405  1.00  0.00    -0.345 A  
HETATM    6  N   UNL     1     -11.986  11.660  67.252  1.00  0.00    -0.602 NA 
HETATM    7  C   UNL     1     -11.798  12.012  68.536  1.00  0.00    -0.311 A  
HETATM    8  C   UNL     1     -11.860  13.427  68.672  1.00  0.00    -0.397 A  
BRANCH   7   9
HETATM    9  C   UNL     1     -11.549  11.006  69.577  1.00  0.00    -0.384 A  
HETATM   10  C   UNL     1     -10.265  10.463  69.744  1.00  0.00    -0.228 A  
HETATM   11  C   UNL     1     -12.571  10.582  70.438  1.00  0.00    -0.364 A  
HETATM   12  N   UNL     1     -10.653   7.423  73.539  1.00  0.00    -0.375 NA 
HETATM   13  C   UNL     1     -12.312   9.647  71.446  1.00  0.00    -0.468 A  
HETATM   14 CL   UNL     1      -8.391   8.923  70.894  1.00  0.00    -0.196 Cl 
HETATM   15  C   UNL     1     -11.027   9.120  71.613  1.00  0.00    -0.445 A  
HETATM   16  C   UNL     1     -10.799   8.179  72.671  1.00  0.00    -0.359 C  
HETATM   17  C   UNL     1     -10.004   9.529  70.754  1.00  0.00    -0.264 A  
ENDBRANCH   7   9
ENDBRANCH   3   4
ENDBRANCH   2   3
BRANCH   2  18
HETATM   18  N   UNL     1     -10.612  14.642  65.112  1.00  0.00    -0.391 N  
HETATM   19  O   UNL     1     -11.609  16.275  63.850  1.00  0.00    -0.987 OA 
HETATM   20  H   UNL     1      -9.983  14.459  65.894  1.00  0.00     0.000 HD 
HETATM   21  C   UNL     1     -10.877  15.951  64.780  1.00  0.00    -0.324 C  
BRANCH  21  22
HETATM   22  C   UNL     1     -10.194  16.938  65.621  1.00  0.00    -0.206 A  
HETATM   23  N   UNL     1     -10.500  18.250  65.638  1.00  0.00    -0.623 NA 
HETATM   24  H   UNL     1     -11.225  18.735  65.108  1.00  0.00     0.000 HD 
HETATM   25  C   UNL     1      -9.129  16.648  66.506  1.00  0.00    -0.303 A  
HETATM   26  N   UNL     1      -9.623  18.771  66.520  1.00  0.00    -0.337 NA 
HETATM   27  C   UNL     1      -8.754  17.856  67.046  1.00  0.00    -0.245 A  
BRANCH  27  28
HETATM   28  C   UNL     1      -7.693  18.215  68.019  1.00  0.00    -0.255 C  
HETATM   29  C   UNL     1      -8.030  19.474  68.811  1.00  0.00    -0.362 C  
HETATM   30  O   UNL     1      -7.557  17.107  68.902  1.00  0.00    -0.247 OA 
HETATM   31  H   UNL     1      -6.878  17.338  69.525  1.00  0.00     0.000 HD 
ENDBRANCH  27  28
ENDBRANCH  21  22
ENDBRANCH   2  18
TORSDOF 6
ENDMDL
MODEL       20
REMARK 921   NORMALIZED FREE ENERGY PREDICTED BY IDOCK:   -6.91 KCAL/MOL
REMARK 922        TOTAL FREE ENERGY PREDICTED BY IDOCK:  -10.95 KCAL/MOL
REMARK 923 INTER-LIGAND FREE ENERGY PREDICTED BY IDOCK:   -9.34 KCAL/MOL
REMARK 924 INTRA-LIGAND FREE ENERGY PREDICTED BY IDOCK:   -1.61 KCAL/MOL
REMARK 927      BINDING AFFINITY PREDICTED BY RF-SCORE:    0.00 PKD
ROOT
HETATM    1  C   UNL     1      -8.575  15.585  69.509  1.00  0.00    -0.218 C  
HETATM    2  C   UNL     1     -10.044  15.605  69.073  1.00  0.00    -0.227 C  
ENDROOT
BRANCH   2   3
HETATM    3  C   UNL     1     -10.153  15.598  67.538  1.00  0.00    -0.253 C  
BRANCH   3   4
HETATM    4  N   UNL     1     -10.721  14.362  67.029  1.00  0.00    -0.282 NA 
HETATM    5  C   UNL     1     -11.928  14.214  66.416  1.00  0.00    -0.436 A  
HETATM    6  N   UNL     1     -10.045  13.208  67.161  1.00  0.00    -0.239 NA 
HETATM    7  C   UNL     1     -10.847  12.275  66.619  1.00  0.00    -0.258 A  
HETATM    8  C   UNL     1     -12.035  12.878  66.120  1.00  0.00    -0.491 A  
BRANCH   7   9
HETATM    9  C   UNL     1     -10.473  10.855  66.610  1.00  0.00    -0.307 A  
HETATM   10  C   UNL     1      -9.661  10.343  65.586  1.00  0.00    -0.281 A  
HETATM   11  C   UNL     1     -10.895   9.985  67.625  1.00  0.00    -0.336 A  
HETATM   12  N   UNL     1      -8.992   5.646  66.718  1.00  0.00    -0.114 NA 
HETATM   13  C   UNL     1     -10.505   8.641  67.621  1.00  0.00    -0.311 A  
HETATM   14 CL   UNL     1      -8.256   8.459  64.288  1.00  0.00    -0.152 Cl 
HETATM   15  C   UNL     1      -9.685   8.143  66.604  1.00  0.00    -0.318 A  
HETATM   16  C   UNL     1      -9.292   6.764  66.647  1.00  0.00    -0.165 C  
HETATM   17  C   UNL     1      -9.267   9.000  65.582  1.00  0.00    -0.225 A  
ENDBRANCH   7   9
ENDBRANCH   3   4
ENDBRANCH   2   3
BRANCH   2  18
HETATM   18  N   UNL     1     -10.780  14.522  69.716  1.00  0.00    -0.443 N  
HETATM   19  O   UNL     1     -12.481  15.807  70.556  1.00  0.00    -0.414 OA 
HETATM   20  H   UNL     1     -10.403  13.576  69.649  1.00  0.00     0.000 HD 
HETATM   21  C   UNL     1     -11.954  14.709  70.408  1.00  0.00    -0.311 C  
BRANCH  21  22
HETATM   22  C   UNL     1     -12.521  13.484  70.979  1.00  0.00    -0.369 A  
HETATM   23  N   UNL     1     -13.418  13.470  71.985  1.00  0.00    -0.458 NA 
HETATM   24  H   UNL     1     -13.831  14.266  72.471  1.00  0.00     0.000 HD 
HETATM   25  C   UNL     1     -12.198  12.172  70.563  1.00  0.00    -0.392 A  
HETATM   26  N   UNL     1     -13.640  12.157  72.197  1.00  0.00    -0.349 NA 
HETATM   27  C   UNL     1     -12.906  11.333  71.390  1.00  0.00    -0.410 A  
BRANCH  27  28
HETATM   28  C   UNL     1     -12.977   9.852  71.467  1.00  0.00    -0.422 C  
HETATM   29  C   UNL     1     -11.600   9.207  71.589  1.00  0.00    -0.449 C  
HETATM   30  O   UNL     1     -13.763   9.541  72.612  1.00  0.00    -0.706 OA 
HETATM   31  H   UNL     1     -13.808   8.594  72.661  1.00  0.00     0.000 HD 
ENDBRANCH  27  28
ENDBRANCH  21  22
ENDBRANCH   2  18
TORSDOF 6
ENDMDL
MODEL       21
REMARK 921   NORMALIZED FREE ENERGY PREDICTED BY IDOCK:   -6.90 KCAL/MOL
REMARK 922        TOTAL FREE ENERGY PREDICTED BY IDOCK:  -10.94 KCAL/MOL
REMARK 923 INTER-LIGAND FREE ENERGY PREDICTED BY IDOCK:   -9.66 KCAL/MOL
REMARK 924 INTRA-LIGAND FREE ENERGY PREDICTED BY IDOCK:   -1.28 KCAL/MOL
REMARK 927      BINDING AFFINITY PREDICTED BY RF-SCORE:    0.00 PKD
ROOT
HETATM    1  C   UNL     1     -11.574  15.363  71.918  1.00  0.00    -0.521 C  
HETATM    2  C   UNL     1     -12.093  14.672  70.652  1.00  0.00    -0.317 C  
ENDROOT
BRANCH   2   3
HETATM    3  C   UNL     1     -11.260  15.087  69.428  1.00  0.00    -0.284 C  
BRANCH   3   4
HETATM    4  N   UNL     1     -11.390  14.151  68.325  1.00  0.00    -0.276 NA 
HETATM    5  C   UNL     1     -12.126  14.325  67.194  1.00  0.00    -0.377 A  
HETATM    6  N   UNL     1     -10.759  12.965  68.374  1.00  0.00    -0.248 NA 
HETATM    7  C   UNL     1     -11.104  12.344  67.233  1.00  0.00    -0.281 A  
HETATM    8  C   UNL     1     -11.950  13.182  66.454  1.00  0.00    -0.462 A  
BRANCH   7   9
HETATM    9  C   UNL     1     -10.642  10.983  66.931  1.00  0.00    -0.307 A  
HETATM   10  C   UNL     1      -9.926  10.724  65.751  1.00  0.00    -0.306 A  
HETATM   11  C   UNL     1     -10.881   9.921  67.814  1.00  0.00    -0.321 A  
HETATM   12  N   UNL     1      -8.820   5.977  65.951  1.00  0.00    -0.154 NA 
HETATM   13  C   UNL     1     -10.407   8.636  67.529  1.00  0.00    -0.336 A  
HETATM   14 CL   UNL     1      -8.566   9.215  63.996  1.00  0.00    -0.202 Cl 
HETATM   15  C   UNL     1      -9.684   8.389  66.357  1.00  0.00    -0.312 A  
HETATM   16  C   UNL     1      -9.199   7.062  66.112  1.00  0.00    -0.077 C  
HETATM   17  C   UNL     1      -9.448   9.439  65.466  1.00  0.00    -0.260 A  
ENDBRANCH   7   9
ENDBRANCH   3   4
ENDBRANCH   2   3
BRANCH   2  18
HETATM   18  N   UNL     1     -12.158  13.228  70.852  1.00  0.00    -0.484 N  
HETATM   19  O   UNL     1     -13.902  13.235  72.339  1.00  0.00    -0.581 OA 
HETATM   20  H   UNL     1     -11.492  12.641  70.351  1.00  0.00     0.000 HD 
HETATM   21  C   UNL     1     -13.069  12.618  71.683  1.00  0.00    -0.323 C  
BRANCH  21  22
HETATM   22  C   UNL     1     -12.952  11.158  71.740  1.00  0.00    -0.421 A  
HETATM   23  N   UNL     1     -13.801  10.363  72.422  1.00  0.00    -0.380 NA 
HETATM   24  H   UNL     1     -14.620  10.636  72.965  1.00  0.00     0.000 HD 
HETATM   25  C   UNL     1     -11.941  10.401  71.104  1.00  0.00    -0.460 A  
HETATM   26  N   UNL     1     -13.310   9.123  72.218  1.00  0.00    -0.448 NA 
HETATM   27  C   UNL     1     -12.174   9.094  71.459  1.00  0.00    -0.349 A  
BRANCH  27  28
HETATM   28  C   UNL     1     -11.455   7.838  71.128  1.00  0.00    -0.274 C  
HETATM   29  C   UNL     1     -10.937   7.119  72.369  1.00  0.00    -0.286 C  
HETATM   30  O   UNL     1     -12.379   7.009  70.436  1.00  0.00    -0.615 OA 
HETATM   31  H   UNL     1     -11.919   6.205  70.225  1.00  0.00     0.000 HD 
ENDBRANCH  27  28
ENDBRANCH  21  22
ENDBRANCH   2  18
TORSDOF 6
ENDMDL
MODEL       22
REMARK 921   NORMALIZED FREE ENERGY PREDICTED BY IDOCK:   -6.82 KCAL/MOL
REMARK 922        TOTAL FREE ENERGY PREDICTED BY IDOCK:  -10.84 KCAL/MOL
REMARK 923 INTER-LIGAND FREE ENERGY PREDICTED BY IDOCK:   -9.58 KCAL/MOL
REMARK 924 INTRA-LIGAND FREE ENERGY PREDICTED BY IDOCK:   -1.26 KCAL/MOL
REMARK 927      BINDING AFFINITY PREDICTED BY RF-SCORE:    0.00 PKD
ROOT
HETATM    1  C   UNL     1     -12.580  15.677  70.831  1.00  0.00    -0.503 C  
HETATM    2  C   UNL     1     -12.274  14.214  70.490  1.00  0.00    -0.361 C  
ENDROOT
BRANCH   2   3
HETATM    3  C   UNL     1     -13.093  13.267  71.383  1.00  0.00    -0.277 C  
BRANCH   3   4
HETATM    4  N   UNL     1     -12.701  11.878  71.223  1.00  0.00    -0.356 NA 
HETATM    5  C   UNL     1     -13.208  10.807  71.895  1.00  0.00    -0.419 A  
HETATM    6  N   UNL     1     -11.731  11.550  70.353  1.00  0.00    -0.296 NA 
HETATM    7  C   UNL     1     -11.600  10.217  70.469  1.00  0.00    -0.329 A  
HETATM    8  C   UNL     1     -12.531   9.712  71.418  1.00  0.00    -0.465 A  
BRANCH   7   9
HETATM    9  C   UNL     1     -10.593   9.476  69.698  1.00  0.00    -0.245 A  
HETATM   10  C   UNL     1     -10.561   9.573  68.298  1.00  0.00    -0.260 A  
HETATM   11  C   UNL     1      -9.633   8.678  70.334  1.00  0.00    -0.196 A  
HETATM   12  N   UNL     1      -6.754   6.851  66.920  1.00  0.00    -0.054 NA 
HETATM   13  C   UNL     1      -8.659   8.003  69.589  1.00  0.00    -0.135 A  
HETATM   14 CL   UNL     1      -9.615   9.087  65.833  1.00  0.00    -0.328 Cl 
HETATM   15  C   UNL     1      -8.627   8.115  68.195  1.00  0.00    -0.129 A  
HETATM   16  C   UNL     1      -7.601   7.423  67.471  1.00  0.00    -0.106 C  
HETATM   17  C   UNL     1      -9.586   8.901  67.551  1.00  0.00    -0.145 A  
ENDBRANCH   7   9
ENDBRANCH   3   4
ENDBRANCH   2   3
BRANCH   2  18
HETATM   18  N   UNL     1     -12.459  13.977  69.062  1.00  0.00    -0.442 N  
HETATM   19  O   UNL     1     -10.326  14.512  68.417  1.00  0.00    -0.229 OA 
HETATM   20  H   UNL     1     -13.378  13.674  68.738  1.00  0.00     0.000 HD 
HETATM   21  C   UNL     1     -11.460  14.140  68.130  1.00  0.00    -0.310 C  
BRANCH  21  22
HETATM   22  C   UNL     1     -11.866  13.852  66.752  1.00  0.00    -0.424 A  
HETATM   23  N   UNL     1     -13.074  14.166  66.245  1.00  0.00    -0.281 NA 
HETATM   24  H   UNL     1     -13.849  14.640  66.710  1.00  0.00     0.000 HD 
HETATM   25  C   UNL     1     -11.058  13.206  65.788  1.00  0.00    -0.293 A  
HETATM   26  N   UNL     1     -13.019  13.707  64.978  1.00  0.00    -0.744 NA 
HETATM   27  C   UNL     1     -11.839  13.092  64.662  1.00  0.00    -0.372 A  
BRANCH  27  28
HETATM   28  C   UNL     1     -11.570  12.495  63.331  1.00  0.00    -0.473 C  
HETATM   29  C   UNL     1     -10.228  11.771  63.276  1.00  0.00    -0.452 C  
HETATM   30  O   UNL     1     -12.627  11.579  63.072  1.00  0.00    -0.958 OA 
HETATM   31  H   UNL     1     -12.455  11.197  62.220  1.00  0.00     0.000 HD 
ENDBRANCH  27  28
ENDBRANCH  21  22
ENDBRANCH   2  18
TORSDOF 6
ENDMDL
MODEL       23
REMARK 921   NORMALIZED FREE ENERGY PREDICTED BY IDOCK:   -6.82 KCAL/MOL
REMARK 922        TOTAL FREE ENERGY PREDICTED BY IDOCK:  -10.83 KCAL/MOL
REMARK 923 INTER-LIGAND FREE ENERGY PREDICTED BY IDOCK:  -10.40 KCAL/MOL
REMARK 924 INTRA-LIGAND FREE ENERGY PREDICTED BY IDOCK:   -0.43 KCAL/MOL
REMARK 927      BINDING AFFINITY PREDICTED BY RF-SCORE:    0.00 PKD
ROOT
HETATM    1  C   UNL     1     -10.585  11.293  63.722  1.00  0.00    -0.455 C  
HETATM    2  C   UNL     1     -10.826  11.766  65.160  1.00  0.00    -0.297 C  
ENDROOT
BRANCH   2   3
HETATM    3  C   UNL     1      -9.924  10.998  66.141  1.00  0.00    -0.231 C  
BRANCH   3   4
HETATM    4  N   UNL     1     -10.600  10.684  67.387  1.00  0.00    -0.238 NA 
HETATM    5  C   UNL     1     -11.592  11.405  67.978  1.00  0.00    -0.286 A  
HETATM    6  N   UNL     1     -10.245   9.592  68.087  1.00  0.00    -0.180 NA 
HETATM    7  C   UNL     1     -11.033   9.610  69.176  1.00  0.00    -0.151 A  
HETATM    8  C   UNL     1     -11.910  10.729  69.130  1.00  0.00    -0.347 A  
BRANCH   7   9
HETATM    9  C   UNL     1     -10.916   8.587  70.223  1.00  0.00    -0.245 A  
HETATM   10  C   UNL     1     -10.626   7.256  69.883  1.00  0.00    -0.244 A  
HETATM   11  C   UNL     1     -11.067   8.912  71.578  1.00  0.00    -0.397 A  
HETATM   12  N   UNL     1     -10.333   4.890  74.139  1.00  0.00    -0.240 NA 
HETATM   13  C   UNL     1     -10.920   7.933  72.567  1.00  0.00    -0.412 A  
HETATM   14 CL   UNL     1     -10.108   4.666  70.362  1.00  0.00    -0.302 Cl 
HETATM   15  C   UNL     1     -10.620   6.612  72.220  1.00  0.00    -0.241 A  
HETATM   16  C   UNL     1     -10.459   5.644  73.266  1.00  0.00    -0.231 C  
HETATM   17  C   UNL     1     -10.477   6.276  70.872  1.00  0.00    -0.223 A  
ENDBRANCH   7   9
ENDBRANCH   3   4
ENDBRANCH   2   3
BRANCH   2  18
HETATM   18  N   UNL     1     -10.684  13.215  65.248  1.00  0.00    -0.295 N  
HETATM   19  O   UNL     1     -12.570  13.747  64.058  1.00  0.00    -0.685 OA 
HETATM   20  H   UNL     1      -9.880  13.593  65.749  1.00  0.00     0.000 HD 
HETATM   21  C   UNL     1     -11.579  14.100  64.690  1.00  0.00    -0.406 C  
BRANCH  21  22
HETATM   22  C   UNL     1     -11.240  15.511  64.894  1.00  0.00    -0.389 A  
HETATM   23  N   UNL     1     -11.509  16.484  64.001  1.00  0.00    -1.581 NA 
HETATM   24  H   UNL     1     -11.977  16.399  63.098  1.00  0.00     0.000 HD 
HETATM   25  C   UNL     1     -10.585  16.030  66.034  1.00  0.00    -0.324 A  
HETATM   26  N   UNL     1     -11.013  17.596  64.580  1.00  0.00    -0.492 NA 
HETATM   27  C   UNL     1     -10.417  17.372  65.791  1.00  0.00    -0.215 A  
BRANCH  27  28
HETATM   28  C   UNL     1      -9.787  18.450  66.593  1.00  0.00    -0.353 C  
HETATM   29  C   UNL     1     -10.275  19.838  66.190  1.00  0.00    -0.618 C  
HETATM   30  O   UNL     1     -10.118  18.194  67.952  1.00  0.00    -0.321 OA 
HETATM   31  H   UNL     1      -9.715  18.884  68.465  1.00  0.00     0.000 HD 
ENDBRANCH  27  28
ENDBRANCH  21  22
ENDBRANCH   2  18
TORSDOF 6
ENDMDL
MODEL       24
REMARK 921   NORMALIZED FREE ENERGY PREDICTED BY IDOCK:   -6.80 KCAL/MOL
REMARK 922        TOTAL FREE ENERGY PREDICTED BY IDOCK:  -10.80 KCAL/MOL
REMARK 923 INTER-LIGAND FREE ENERGY PREDICTED BY IDOCK:  -10.57 KCAL/MOL
REMARK 924 INTRA-LIGAND FREE ENERGY PREDICTED BY IDOCK:   -0.24 KCAL/MOL
REMARK 927      BINDING AFFINITY PREDICTED BY RF-SCORE:    0.00 PKD
ROOT
HETATM    1  C   UNL     1     -12.489  11.746  63.227  1.00  0.00    -0.411 C  
HETATM    2  C   UNL     1     -11.220  11.871  64.077  1.00  0.00    -0.396 C  
ENDROOT
BRANCH   2   3
HETATM    3  C   UNL     1     -10.055  11.106  63.425  1.00  0.00    -0.390 C  
BRANCH   3   4
HETATM    4  N   UNL     1      -9.535  10.054  64.280  1.00  0.00    -0.292 NA 
HETATM    5  C   UNL     1      -8.472   9.244  64.019  1.00  0.00    -0.193 A  
HETATM    6  N   UNL     1     -10.131   9.788  65.455  1.00  0.00    -0.263 NA 
HETATM    7  C   UNL     1      -9.432   8.763  65.973  1.00  0.00    -0.233 A  
HETATM    8  C   UNL     1      -8.364   8.408  65.102  1.00  0.00    -0.177 A  
BRANCH   7   9
HETATM    9  C   UNL     1      -9.807   8.149  67.253  1.00  0.00    -0.259 A  
HETATM   10  C   UNL     1      -9.580   8.831  68.459  1.00  0.00    -0.158 A  
HETATM   11  C   UNL     1     -10.414   6.887  67.304  1.00  0.00    -0.357 A  
HETATM   12  N   UNL     1     -11.359   5.903  71.931  1.00  0.00    -0.270 NA 
HETATM   13  C   UNL     1     -10.795   6.327  68.528  1.00  0.00    -0.394 A  
HETATM   14 CL   UNL     1      -9.656   9.190  71.118  1.00  0.00    -0.353 Cl 
HETATM   15  C   UNL     1     -10.577   7.019  69.724  1.00  0.00    -0.253 A  
HETATM   16  C   UNL     1     -11.000   6.419  70.956  1.00  0.00    -0.274 C  
HETATM   17  C   UNL     1      -9.963   8.274  69.685  1.00  0.00    -0.193 A  
ENDBRANCH   7   9
ENDBRANCH   3   4
ENDBRANCH   2   3
BRANCH   2  18
HETATM   18  N   UNL     1     -10.922  13.274  64.341  1.00  0.00    -0.376 N  
HETATM   19  O   UNL     1     -13.012  13.864  65.074  1.00  0.00    -0.731 OA 
HETATM   20  H   UNL     1      -9.978  13.611  64.155  1.00  0.00     0.000 HD 
HETATM   21  C   UNL     1     -11.848  14.167  64.830  1.00  0.00    -0.417 C  
BRANCH  21  22
HETATM   22  C   UNL     1     -11.337  15.528  65.016  1.00  0.00    -0.299 A  
HETATM   23  N   UNL     1     -11.621  16.556  64.191  1.00  0.00    -1.413 NA 
HETATM   24  H   UNL     1     -12.214  16.552  63.362  1.00  0.00     0.000 HD 
HETATM   25  C   UNL     1     -10.480  15.934  66.065  1.00  0.00    -0.357 A  
HETATM   26  N   UNL     1     -10.934  17.589  64.721  1.00  0.00    -0.763 NA 
HETATM   27  C   UNL     1     -10.206  17.261  65.831  1.00  0.00    -0.261 A  
BRANCH  27  28
HETATM   28  C   UNL     1      -9.361  18.238  66.560  1.00  0.00    -0.302 C  
HETATM   29  C   UNL     1      -9.232  17.905  68.043  1.00  0.00    -0.267 C  
HETATM   30  O   UNL     1      -8.080  18.211  65.943  1.00  0.00    -0.514 OA 
HETATM   31  H   UNL     1      -7.539  18.836  66.410  1.00  0.00     0.000 HD 
ENDBRANCH  27  28
ENDBRANCH  21  22
ENDBRANCH   2  18
TORSDOF 6
ENDMDL
MODEL       25
REMARK 921   NORMALIZED FREE ENERGY PREDICTED BY IDOCK:   -6.79 KCAL/MOL
REMARK 922        TOTAL FREE ENERGY PREDICTED BY IDOCK:  -10.80 KCAL/MOL
REMARK 923 INTER-LIGAND FREE ENERGY PREDICTED BY IDOCK:   -9.78 KCAL/MOL
REMARK 924 INTRA-LIGAND FREE ENERGY PREDICTED BY IDOCK:   -1.02 KCAL/MOL
REMARK 927      BINDING AFFINITY PREDICTED BY RF-SCORE:    0.00 PKD
ROOT
HETATM    1  C   UNL     1      -8.433  16.086  66.637  1.00  0.00    -0.323 C  
HETATM    2  C   UNL     1      -9.924  16.369  66.427  1.00  0.00    -0.303 C  
ENDROOT
BRANCH   2   3
HETATM    3  C   UNL     1     -10.414  15.742  65.111  1.00  0.00    -0.366 C  
BRANCH   3   4
HETATM    4  N   UNL     1     -11.059  14.457  65.315  1.00  0.00    -0.324 NA 
HETATM    5  C   UNL     1     -12.277  14.074  64.841  1.00  0.00    -0.437 A  
HETATM    6  N   UNL     1     -10.454  13.512  66.054  1.00  0.00    -0.293 NA 
HETATM    7  C   UNL     1     -11.314  12.479  66.065  1.00  0.00    -0.344 A  
HETATM    8  C   UNL     1     -12.466  12.791  65.291  1.00  0.00    -0.528 A  
BRANCH   7   9
HETATM    9  C   UNL     1     -11.026  11.250  66.816  1.00  0.00    -0.339 A  
HETATM   10  C   UNL     1     -11.440  11.124  68.152  1.00  0.00    -0.373 A  
HETATM   11  C   UNL     1     -10.357  10.173  66.220  1.00  0.00    -0.245 A  
HETATM   12  N   UNL     1     -10.081   6.633  69.486  1.00  0.00    -0.173 NA 
HETATM   13  C   UNL     1     -10.117   8.996  66.938  1.00  0.00    -0.338 A  
HETATM   14 CL   UNL     1     -11.760   9.875  70.506  1.00  0.00    -0.357 Cl 
HETATM   15  C   UNL     1     -10.544   8.874  68.265  1.00  0.00    -0.203 A  
HETATM   16  C   UNL     1     -10.297   7.644  68.959  1.00  0.00    -0.213 C  
HETATM   17  C   UNL     1     -11.204   9.946  68.871  1.00  0.00    -0.079 A  
ENDBRANCH   7   9
ENDBRANCH   3   4
ENDBRANCH   2   3
BRANCH   2  18
HETATM   18  N   UNL     1     -10.690  15.947  67.595  1.00  0.00    -0.308 N  
HETATM   19  O   UNL     1     -10.274  17.800  68.879  1.00  0.00    -0.368 OA 
HETATM   20  H   UNL     1     -11.160  15.043  67.564  1.00  0.00     0.000 HD 
HETATM   21  C   UNL     1     -10.810  16.706  68.737  1.00  0.00    -0.331 C  
BRANCH  21  22
HETATM   22  C   UNL     1     -11.621  16.088  69.791  1.00  0.00    -0.297 A  
HETATM   23  N   UNL     1     -12.961  15.965  69.731  1.00  0.00    -0.475 NA 
HETATM   24  H   UNL     1     -13.588  16.254  68.980  1.00  0.00     0.000 HD 
HETATM   25  C   UNL     1     -11.110  15.555  70.997  1.00  0.00    -0.387 A  
HETATM   26  N   UNL     1     -13.280  15.370  70.899  1.00  0.00    -0.479 NA 
HETATM   27  C   UNL     1     -12.206  15.131  71.711  1.00  0.00    -0.355 A  
BRANCH  27  28
HETATM   28  C   UNL     1     -12.329  14.505  73.051  1.00  0.00    -0.166 C  
HETATM   29  C   UNL     1     -12.520  15.534  74.161  1.00  0.00    -0.805 C  
HETATM   30  O   UNL     1     -13.454  13.637  72.993  1.00  0.00    -0.573 OA 
HETATM   31  H   UNL     1     -13.533  13.236  73.851  1.00  0.00     0.000 HD 
ENDBRANCH  27  28
ENDBRANCH  21  22
ENDBRANCH   2  18
TORSDOF 6
ENDMDL
MODEL       26
REMARK 921   NORMALIZED FREE ENERGY PREDICTED BY IDOCK:   -6.78 KCAL/MOL
REMARK 922        TOTAL FREE ENERGY PREDICTED BY IDOCK:  -10.78 KCAL/MOL
REMARK 923 INTER-LIGAND FREE ENERGY PREDICTED BY IDOCK:   -9.52 KCAL/MOL
REMARK 924 INTRA-LIGAND FREE ENERGY PREDICTED BY IDOCK:   -1.26 KCAL/MOL
REMARK 927      BINDING AFFINITY PREDICTED BY RF-SCORE:    0.00 PKD
ROOT
HETATM    1  C   UNL     1      -9.961  10.225  65.783  1.00  0.00    -0.337 C  
HETATM    2  C   UNL     1     -10.181  11.735  65.924  1.00  0.00    -0.237 C  
ENDROOT
BRANCH   2   3
HETATM    3  C   UNL     1     -10.822  12.311  64.650  1.00  0.00    -0.308 C  
BRANCH   3   4
HETATM    4  N   UNL     1     -11.044  13.743  64.740  1.00  0.00    -0.359 NA 
HETATM    5  C   UNL     1     -12.111  14.433  64.250  1.00  0.00    -0.436 A  
HETATM    6  N   UNL     1     -10.131  14.528  65.339  1.00  0.00    -0.365 NA 
HETATM    7  C   UNL     1     -10.622  15.774  65.228  1.00  0.00    -0.423 A  
HETATM    8  C   UNL     1     -11.880  15.749  64.564  1.00  0.00    -0.126 A  
BRANCH   7   9
HETATM    9  C   UNL     1      -9.881  16.937  65.732  1.00  0.00    -0.166 A  
HETATM   10  C   UNL     1      -8.530  16.813  66.094  1.00  0.00    -0.298 A  
HETATM   11  C   UNL     1     -10.490  18.195  65.845  1.00  0.00    -0.292 A  
HETATM   12  N   UNL     1      -7.154  21.298  67.431  1.00  0.00    -0.522 NA 
HETATM   13  C   UNL     1      -9.762  19.302  66.297  1.00  0.00    -0.430 A  
HETATM   14 CL   UNL     1      -6.139  17.677  66.955  1.00  0.00    -0.175 Cl 
HETATM   15  C   UNL     1      -8.413  19.172  66.643  1.00  0.00    -0.319 A  
HETATM   16  C   UNL     1      -7.699  20.335  67.083  1.00  0.00    -0.323 C  
HETATM   17  C   UNL     1      -7.800  17.920  66.544  1.00  0.00    -0.264 A  
ENDBRANCH   7   9
ENDBRANCH   3   4
ENDBRANCH   2   3
BRANCH   2  18
HETATM   18  N   UNL     1     -10.935  12.027  67.140  1.00  0.00    -0.255 N  
HETATM   19  O   UNL     1      -9.166  12.788  68.382  1.00  0.00    -0.198 OA 
HETATM   20  H   UNL     1     -11.937  11.839  67.143  1.00  0.00     0.000 HD 
HETATM   21  C   UNL     1     -10.363  12.540  68.281  1.00  0.00    -0.236 C  
BRANCH  21  22
HETATM   22  C   UNL     1     -11.303  12.750  69.386  1.00  0.00    -0.202 A  
HETATM   23  N   UNL     1     -11.704  11.775  70.225  1.00  0.00    -0.501 NA 
HETATM   24  H   UNL     1     -11.423  10.795  70.232  1.00  0.00     0.000 HD 
HETATM   25  C   UNL     1     -11.913  13.985  69.706  1.00  0.00    -0.393 A  
HETATM   26  N   UNL     1     -12.566  12.401  71.053  1.00  0.00    -0.325 NA 
HETATM   27  C   UNL     1     -12.752  13.724  70.763  1.00  0.00    -0.290 A  
BRANCH  27  28
HETATM   28  C   UNL     1     -13.673  14.598  71.531  1.00  0.00    -0.419 C  
HETATM   29  C   UNL     1     -12.954  15.393  72.617  1.00  0.00    -0.521 C  
HETATM   30  O   UNL     1     -14.271  15.486  70.594  1.00  0.00    -0.799 OA 
HETATM   31  H   UNL     1     -14.860  16.045  71.086  1.00  0.00     0.000 HD 
ENDBRANCH  27  28
ENDBRANCH  21  22
ENDBRANCH   2  18
TORSDOF 6
ENDMDL
MODEL       27
REMARK 921   NORMALIZED FREE ENERGY PREDICTED BY IDOCK:   -6.77 KCAL/MOL
REMARK 922        TOTAL FREE ENERGY PREDICTED BY IDOCK:  -10.76 KCAL/MOL
REMARK 923 INTER-LIGAND FREE ENERGY PREDICTED BY IDOCK:   -9.42 KCAL/MOL
REMARK 924 INTRA-LIGAND FREE ENERGY PREDICTED BY IDOCK:   -1.34 KCAL/MOL
REMARK 927      BINDING AFFINITY PREDICTED BY RF-SCORE:    0.00 PKD
ROOT
HETATM    1  C   UNL     1     -12.011  15.569  72.740  1.00  0.00    -0.573 C  
HETATM    2  C   UNL     1     -12.758  15.010  71.525  1.00  0.00    -0.340 C  
ENDROOT
BRANCH   2   3
HETATM    3  C   UNL     1     -12.432  15.829  70.264  1.00  0.00    -0.256 C  
BRANCH   3   4
HETATM    4  N   UNL     1     -11.327  15.267  69.509  1.00  0.00    -0.267 NA 
HETATM    5  C   UNL     1     -10.003  15.533  69.684  1.00  0.00    -0.284 A  
HETATM    6  N   UNL     1     -11.569  14.403  68.507  1.00  0.00    -0.297 NA 
HETATM    7  C   UNL     1     -10.356  14.103  68.010  1.00  0.00    -0.231 A  
HETATM    8  C   UNL     1      -9.343  14.783  68.743  1.00  0.00    -0.198 A  
BRANCH   7   9
HETATM    9  C   UNL     1     -10.201  13.207  66.858  1.00  0.00    -0.245 A  
HETATM   10  C   UNL     1     -11.033  13.347  65.735  1.00  0.00    -0.288 A  
HETATM   11  C   UNL     1      -9.215  12.211  66.838  1.00  0.00    -0.203 A  
HETATM   12  N   UNL     1      -9.475   9.978  62.569  1.00  0.00    -0.267 NA 
HETATM   13  C   UNL     1      -9.057  11.384  65.720  1.00  0.00    -0.195 A  
HETATM   14 CL   UNL     1     -11.935  12.775  63.272  1.00  0.00    -0.594 Cl 
HETATM   15  C   UNL     1      -9.882  11.539  64.601  1.00  0.00    -0.283 A  
HETATM   16  C   UNL     1      -9.675  10.685  63.467  1.00  0.00    -0.339 C  
HETATM   17  C   UNL     1     -10.875  12.523  64.614  1.00  0.00    -0.310 A  
ENDBRANCH   7   9
ENDBRANCH   3   4
ENDBRANCH   2   3
BRANCH   2  18
HETATM   18  N   UNL     1     -12.492  13.582  71.379  1.00  0.00    -0.305 N  
HETATM   19  O   UNL     1     -14.269  12.844  72.625  1.00  0.00    -0.523 OA 
HETATM   20  H   UNL     1     -11.681  13.295  70.833  1.00  0.00     0.000 HD 
HETATM   21  C   UNL     1     -13.280  12.603  71.941  1.00  0.00    -0.403 C  
BRANCH  21  22
HETATM   22  C   UNL     1     -12.826  11.235  71.673  1.00  0.00    -0.405 A  
HETATM   23  N   UNL     1     -13.346  10.143  72.266  1.00  0.00    -0.590 NA 
HETATM   24  H   UNL     1     -14.104  10.096  72.947  1.00  0.00     0.000 HD 
HETATM   25  C   UNL     1     -11.789  10.888  70.776  1.00  0.00    -0.424 A  
HETATM   26  N   UNL     1     -12.627   9.126  71.748  1.00  0.00    -0.344 NA 
HETATM   27  C   UNL     1     -11.656   9.523  70.871  1.00  0.00    -0.326 A  
BRANCH  27  28
HETATM   28  C   UNL     1     -10.736   8.572  70.200  1.00  0.00    -0.235 C  
HETATM   29  C   UNL     1     -10.806   7.171  70.798  1.00  0.00    -0.267 C  
HETATM   30  O   UNL     1     -11.115   8.535  68.829  1.00  0.00    -0.431 OA 
HETATM   31  H   UNL     1     -10.526   7.926  68.400  1.00  0.00     0.000 HD 
ENDBRANCH  27  28
ENDBRANCH  21  22
ENDBRANCH   2  18
TORSDOF 6
ENDMDL
MODEL       28
REMARK 921   NORMALIZED FREE ENERGY PREDICTED BY IDOCK:   -6.74 KCAL/MOL
REMARK 922        TOTAL FREE ENERGY PREDICTED BY IDOCK:  -10.73 KCAL/MOL
REMARK 923 INTER-LIGAND FREE ENERGY PREDICTED BY IDOCK:   -9.36 KCAL/MOL
REMARK 924 INTRA-LIGAND FREE ENERGY PREDICTED BY IDOCK:   -1.38 KCAL/MOL
REMARK 927      BINDING AFFINITY PREDICTED BY RF-SCORE:    0.00 PKD
ROOT
HETATM    1  C   UNL     1     -10.899  19.550  67.451  1.00  0.00    -0.536 C  
HETATM    2  C   UNL     1     -10.104  18.240  67.415  1.00  0.00    -0.352 C  
ENDROOT
BRANCH   2   3
HETATM    3  C   UNL     1      -9.880  17.703  68.839  1.00  0.00    -0.293 C  
BRANCH   3   4
HETATM    4  N   UNL     1      -9.214  16.413  68.846  1.00  0.00    -0.251 NA 
HETATM    5  C   UNL     1      -7.916  16.170  69.178  1.00  0.00    -0.233 A  
HETATM    6  N   UNL     1      -9.886  15.308  68.480  1.00  0.00    -0.205 NA 
HETATM    7  C   UNL     1      -8.989  14.312  68.573  1.00  0.00    -0.185 A  
HETATM    8  C   UNL     1      -7.740  14.816  69.030  1.00  0.00    -0.145 A  
BRANCH   7   9
HETATM    9  C   UNL     1      -9.336  12.932  68.209  1.00  0.00    -0.194 A  
HETATM   10  C   UNL     1      -8.354  12.064  67.705  1.00  0.00    -0.156 A  
HETATM   11  C   UNL     1     -10.639  12.442  68.374  1.00  0.00    -0.251 A  
HETATM   12  N   UNL     1     -10.640   7.806  67.039  1.00  0.00    -0.352 NA 
HETATM   13  C   UNL     1     -10.949  11.116  68.053  1.00  0.00    -0.307 A  
HETATM   14 CL   UNL     1      -7.387   9.736  66.783  1.00  0.00    -0.090 Cl 
HETATM   15  C   UNL     1      -9.962  10.255  67.563  1.00  0.00    -0.226 A  
HETATM   16  C   UNL     1     -10.316   8.897  67.265  1.00  0.00    -0.280 C  
HETATM   17  C   UNL     1      -8.662  10.736  67.386  1.00  0.00    -0.126 A  
ENDBRANCH   7   9
ENDBRANCH   3   4
ENDBRANCH   2   3
BRANCH   2  18
HETATM   18  N   UNL     1     -10.747  17.280  66.523  1.00  0.00    -0.157 N  
HETATM   19  O   UNL     1      -8.832  16.500  65.534  1.00  0.00    -0.325 OA 
HETATM   20  H   UNL     1     -11.763  17.203  66.549  1.00  0.00     0.000 HD 
HETATM   21  C   UNL     1     -10.053  16.474  65.649  1.00  0.00    -0.251 C  
BRANCH  21  22
HETATM   22  C   UNL     1     -10.898  15.589  64.844  1.00  0.00    -0.427 A  
HETATM   23  N   UNL     1     -11.921  16.019  64.079  1.00  0.00    -1.206 NA 
HETATM   24  H   UNL     1     -12.243  16.977  63.938  1.00  0.00     0.000 HD 
HETATM   25  C   UNL     1     -10.761  14.183  64.771  1.00  0.00    -0.436 A  
HETATM   26  N   UNL     1     -12.421  14.885  63.546  1.00  0.00    -0.355 NA 
HETATM   27  C   UNL     1     -11.779  13.750  63.956  1.00  0.00    -0.328 A  
BRANCH  27  28
HETATM   28  C   UNL     1     -12.176  12.391  63.510  1.00  0.00    -0.563 C  
HETATM   29  C   UNL     1     -11.080  11.357  63.743  1.00  0.00    -0.417 C  
HETATM   30  O   UNL     1     -13.339  12.043  64.251  1.00  0.00    -0.709 OA 
HETATM   31  H   UNL     1     -13.593  11.173  63.965  1.00  0.00     0.000 HD 
ENDBRANCH  27  28
ENDBRANCH  21  22
ENDBRANCH   2  18
TORSDOF 6
ENDMDL
MODEL       29
REMARK 921   NORMALIZED FREE ENERGY PREDICTED BY IDOCK:   -6.74 KCAL/MOL
REMARK 922        TOTAL FREE ENERGY PREDICTED BY IDOCK:  -10.73 KCAL/MOL
REMARK 923 INTER-LIGAND FREE ENERGY PREDICTED BY IDOCK:   -9.16 KCAL/MOL
REMARK 924 INTRA-LIGAND FREE ENERGY PREDICTED BY IDOCK:   -1.57 KCAL/MOL
REMARK 927      BINDING AFFINITY PREDICTED BY RF-SCORE:    0.00 PKD
ROOT
HETATM    1  C   UNL     1     -10.873  19.740  67.572  1.00  0.00    -0.406 C  
HETATM    2  C   UNL     1      -9.992  18.490  67.466  1.00  0.00    -0.332 C  
ENDROOT
BRANCH   2   3
HETATM    3  C   UNL     1      -9.621  17.969  68.864  1.00  0.00    -0.231 C  
BRANCH   3   4
HETATM    4  N   UNL     1      -8.914  16.701  68.814  1.00  0.00    -0.248 NA 
HETATM    5  C   UNL     1      -7.576  16.509  68.973  1.00  0.00    -0.233 A  
HETATM    6  N   UNL     1      -9.590  15.565  68.569  1.00  0.00    -0.198 NA 
HETATM    7  C   UNL     1      -8.654  14.601  68.564  1.00  0.00    -0.170 A  
HETATM    8  C   UNL     1      -7.373  15.158  68.836  1.00  0.00    -0.142 A  
BRANCH   7   9
HETATM    9  C   UNL     1      -8.997  13.201  68.285  1.00  0.00    -0.175 A  
HETATM   10  C   UNL     1     -10.162  12.636  68.827  1.00  0.00    -0.094 A  
HETATM   11  C   UNL     1      -8.191  12.405  67.460  1.00  0.00    -0.173 A  
HETATM   12  N   UNL     1     -10.297   8.081  67.087  1.00  0.00    -0.298 NA 
HETATM   13  C   UNL     1      -8.547  11.081  67.176  1.00  0.00    -0.136 A  
HETATM   14 CL   UNL     1     -11.980  10.704  69.244  1.00  0.00    -0.311 Cl 
HETATM   15  C   UNL     1      -9.716  10.530  67.711  1.00  0.00    -0.180 A  
HETATM   16  C   UNL     1     -10.055   9.177  67.380  1.00  0.00    -0.230 C  
HETATM   17  C   UNL     1     -10.521  11.313  68.542  1.00  0.00    -0.197 A  
ENDBRANCH   7   9
ENDBRANCH   3   4
ENDBRANCH   2   3
BRANCH   2  18
HETATM   18  N   UNL     1     -10.633  17.488  66.620  1.00  0.00    -0.254 N  
HETATM   19  O   UNL     1      -8.738  16.798  65.530  1.00  0.00    -0.315 OA 
HETATM   20  H   UNL     1     -11.641  17.359  66.704  1.00  0.00     0.000 HD 
HETATM   21  C   UNL     1      -9.948  16.710  65.715  1.00  0.00    -0.243 C  
BRANCH  21  22
HETATM   22  C   UNL     1     -10.790  15.773  64.965  1.00  0.00    -0.443 A  
HETATM   23  N   UNL     1     -11.813  16.151  64.174  1.00  0.00    -1.143 NA 
HETATM   24  H   UNL     1     -12.137  17.097  63.973  1.00  0.00     0.000 HD 
HETATM   25  C   UNL     1     -10.647  14.366  64.982  1.00  0.00    -0.452 A  
HETATM   26  N   UNL     1     -12.308  14.985  63.713  1.00  0.00    -0.612 NA 
HETATM   27  C   UNL     1     -11.663  13.879  64.194  1.00  0.00    -0.340 A  
BRANCH  27  28
HETATM   28  C   UNL     1     -12.056  12.494  63.834  1.00  0.00    -0.498 C  
HETATM   29  C   UNL     1     -11.121  11.448  64.433  1.00  0.00    -0.329 C  
HETATM   30  O   UNL     1     -13.377  12.304  64.325  1.00  0.00    -0.777 OA 
HETATM   31  H   UNL     1     -13.628  11.417  64.094  1.00  0.00     0.000 HD 
ENDBRANCH  27  28
ENDBRANCH  21  22
ENDBRANCH   2  18
TORSDOF 6
ENDMDL
MODEL       30
REMARK 921   NORMALIZED FREE ENERGY PREDICTED BY IDOCK:   -6.72 KCAL/MOL
REMARK 922        TOTAL FREE ENERGY PREDICTED BY IDOCK:  -10.70 KCAL/MOL
REMARK 923 INTER-LIGAND FREE ENERGY PREDICTED BY IDOCK:   -9.95 KCAL/MOL
REMARK 924 INTRA-LIGAND FREE ENERGY PREDICTED BY IDOCK:   -0.75 KCAL/MOL
REMARK 927      BINDING AFFINITY PREDICTED BY RF-SCORE:    0.00 PKD
ROOT
HETATM    1  C   UNL     1     -11.925  16.189  72.521  1.00  0.00    -0.660 C  
HETATM    2  C   UNL     1     -11.591  15.645  71.127  1.00  0.00    -0.412 C  
ENDROOT
BRANCH   2   3
HETATM    3  C   UNL     1     -12.759  14.809  70.578  1.00  0.00    -0.343 C  
BRANCH   3   4
HETATM    4  N   UNL     1     -12.340  13.488  70.146  1.00  0.00    -0.304 NA 
HETATM    5  C   UNL     1     -11.956  13.127  68.891  1.00  0.00    -0.277 A  
HETATM    6  N   UNL     1     -12.326  12.468  71.022  1.00  0.00    -0.306 NA 
HETATM    7  C   UNL     1     -11.923  11.404  70.306  1.00  0.00    -0.373 A  
HETATM    8  C   UNL     1     -11.660  11.788  68.961  1.00  0.00    -0.372 A  
BRANCH   7   9
HETATM    9  C   UNL     1     -11.820  10.069  70.909  1.00  0.00    -0.459 A  
HETATM   10  C   UNL     1     -12.971   9.289  71.101  1.00  0.00    -0.264 A  
HETATM   11  C   UNL     1     -10.580   9.535  71.286  1.00  0.00    -0.358 A  
HETATM   12  N   UNL     1     -11.359   5.089  72.988  1.00  0.00    -0.311 NA 
HETATM   13  C   UNL     1     -10.493   8.248  71.830  1.00  0.00    -0.342 A  
HETATM   14 CL   UNL     1     -14.353   7.107  71.833  1.00  0.00    -0.512 Cl 
HETATM   15  C   UNL     1     -11.643   7.473  72.007  1.00  0.00    -0.326 A  
HETATM   16  C   UNL     1     -11.509   6.152  72.550  1.00  0.00    -0.276 C  
HETATM   17  C   UNL     1     -12.885   8.001  71.644  1.00  0.00    -0.329 A  
ENDBRANCH   7   9
ENDBRANCH   3   4
ENDBRANCH   2   3
BRANCH   2  18
HETATM   18  N   UNL     1     -11.184  16.732  70.242  1.00  0.00    -0.391 N  
HETATM   19  O   UNL     1      -9.469  15.617  69.209  1.00  0.00    -0.230 OA 
HETATM   20  H   UNL     1     -11.693  17.614  70.295  1.00  0.00     0.000 HD 
HETATM   21  C   UNL     1     -10.150  16.629  69.341  1.00  0.00    -0.204 C  
BRANCH  21  22
HETATM   22  C   UNL     1      -9.908  17.844  68.557  1.00  0.00    -0.367 A  
HETATM   23  N   UNL     1     -10.826  18.411  67.750  1.00  0.00    -0.328 NA 
HETATM   24  H   UNL     1     -11.785  18.109  67.578  1.00  0.00     0.000 HD 
HETATM   25  C   UNL     1      -8.692  18.565  68.536  1.00  0.00    -0.352 A  
HETATM   26  N   UNL     1     -10.179  19.470  67.224  1.00  0.00    -0.398 NA 
HETATM   27  C   UNL     1      -8.881  19.590  67.639  1.00  0.00    -0.314 A  
BRANCH  27  28
HETATM   28  C   UNL     1      -7.978  20.670  67.170  1.00  0.00    -0.266 C  
HETATM   29  C   UNL     1      -6.671  20.719  67.954  1.00  0.00    -0.347 C  
HETATM   30  O   UNL     1      -7.713  20.412  65.797  1.00  0.00    -0.528 OA 
HETATM   31  H   UNL     1      -7.135  21.103  65.497  1.00  0.00     0.000 HD 
ENDBRANCH  27  28
ENDBRANCH  21  22
ENDBRANCH   2  18
TORSDOF 6
ENDMDL
MODEL       31
REMARK 921   NORMALIZED FREE ENERGY PREDICTED BY IDOCK:   -6.69 KCAL/MOL
REMARK 922        TOTAL FREE ENERGY PREDICTED BY IDOCK:  -10.65 KCAL/MOL
REMARK 923 INTER-LIGAND FREE ENERGY PREDICTED BY IDOCK:   -9.10 KCAL/MOL
REMARK 924 INTRA-LIGAND FREE ENERGY PREDICTED BY IDOCK:   -1.55 KCAL/MOL
REMARK 927      BINDING AFFINITY PREDICTED BY RF-SCORE:    0.00 PKD
ROOT
HETATM    1  C   UNL     1      -7.334  15.397  67.663  1.00  0.00    -0.203 C  
HETATM    2  C   UNL     1      -8.792  15.244  67.219  1.00  0.00    -0.196 C  
ENDROOT
BRANCH   2   3
HETATM    3  C   UNL     1      -8.962  13.994  66.338  1.00  0.00    -0.011 C  
BRANCH   3   4
HETATM    4  N   UNL     1      -9.915  13.049  66.895  1.00  0.00    -0.238 NA 
HETATM    5  C   UNL     1     -11.179  12.812  66.449  1.00  0.00    -0.299 A  
HETATM    6  N   UNL     1      -9.583  12.317  67.972  1.00  0.00    -0.200 NA 
HETATM    7  C   UNL     1     -10.676  11.581  68.238  1.00  0.00    -0.211 A  
HETATM    8  C   UNL     1     -11.696  11.853  67.284  1.00  0.00    -0.319 A  
BRANCH   7   9
HETATM    9  C   UNL     1     -10.723  10.669  69.388  1.00  0.00    -0.281 A  
HETATM   10  C   UNL     1     -11.879  10.589  70.181  1.00  0.00    -0.404 A  
HETATM   11  C   UNL     1      -9.635   9.846  69.709  1.00  0.00    -0.261 A  
HETATM   12  N   UNL     1     -10.898   7.168  73.518  1.00  0.00    -0.336 NA 
HETATM   13  C   UNL     1      -9.705   8.958  70.788  1.00  0.00    -0.281 A  
HETATM   14 CL   UNL     1     -13.418   9.660  72.175  1.00  0.00    -0.519 Cl 
HETATM   15  C   UNL     1     -10.865   8.876  71.566  1.00  0.00    -0.396 A  
HETATM   16  C   UNL     1     -10.904   7.939  72.651  1.00  0.00    -0.364 C  
HETATM   17  C   UNL     1     -11.952   9.700  71.260  1.00  0.00    -0.380 A  
ENDBRANCH   7   9
ENDBRANCH   3   4
ENDBRANCH   2   3
BRANCH   2  18
HETATM   18  N   UNL     1      -9.681  15.268  68.376  1.00  0.00    -0.209 N  
HETATM   19  O   UNL     1     -11.011  16.993  67.664  1.00  0.00    -0.290 OA 
HETATM   20  H   UNL     1      -9.512  14.601  69.128  1.00  0.00     0.000 HD 
HETATM   21  C   UNL     1     -10.733  16.145  68.506  1.00  0.00    -0.300 C  
BRANCH  21  22
HETATM   22  C   UNL     1     -11.491  15.999  69.752  1.00  0.00    -0.318 A  
HETATM   23  N   UNL     1     -11.178  16.633  70.899  1.00  0.00    -0.375 NA 
HETATM   24  H   UNL     1     -10.414  17.288  71.069  1.00  0.00     0.000 HD 
HETATM   25  C   UNL     1     -12.630  15.177  69.915  1.00  0.00    -0.205 A  
HETATM   26  N   UNL     1     -12.110  16.196  71.770  1.00  0.00    -0.481 NA 
HETATM   27  C   UNL     1     -12.989  15.294  71.237  1.00  0.00    -0.441 A  
BRANCH  27  28
HETATM   28  C   UNL     1     -14.082  14.669  72.022  1.00  0.00    -0.511 C  
HETATM   29  C   UNL     1     -13.778  13.222  72.395  1.00  0.00    -0.678 C  
HETATM   30  O   UNL     1     -14.238  15.452  73.199  1.00  0.00    -0.393 OA 
HETATM   31  H   UNL     1     -14.937  15.052  73.702  1.00  0.00     0.000 HD 
ENDBRANCH  27  28
ENDBRANCH  21  22
ENDBRANCH   2  18
TORSDOF 6
ENDMDL
MODEL       32
REMARK 921   NORMALIZED FREE ENERGY PREDICTED BY IDOCK:   -6.66 KCAL/MOL
REMARK 922        TOTAL FREE ENERGY PREDICTED BY IDOCK:  -10.62 KCAL/MOL
REMARK 923 INTER-LIGAND FREE ENERGY PREDICTED BY IDOCK:   -9.46 KCAL/MOL
REMARK 924 INTRA-LIGAND FREE ENERGY PREDICTED BY IDOCK:   -1.16 KCAL/MOL
REMARK 927      BINDING AFFINITY PREDICTED BY RF-SCORE:    0.00 PKD
ROOT
HETATM    1  C   UNL     1      -8.802   9.170  64.389  1.00  0.00    -0.156 C  
HETATM    2  C   UNL     1      -9.353  10.552  64.758  1.00  0.00    -0.238 C  
ENDROOT
BRANCH   2   3
HETATM    3  C   UNL     1     -10.086  11.180  63.561  1.00  0.00    -0.385 C  
BRANCH   3   4
HETATM    4  N   UNL     1     -10.827  12.374  63.928  1.00  0.00    -0.383 NA 
HETATM    5  C   UNL     1     -12.031  12.769  63.430  1.00  0.00    -0.535 A  
HETATM    6  N   UNL     1     -10.317  13.228  64.833  1.00  0.00    -0.353 NA 
HETATM    7  C   UNL     1     -11.223  14.217  64.921  1.00  0.00    -0.379 A  
HETATM    8  C   UNL     1     -12.327  13.950  64.064  1.00  0.00    -0.355 A  
BRANCH   7   9
HETATM    9  C   UNL     1     -11.004  15.381  65.790  1.00  0.00    -0.311 A  
HETATM   10  C   UNL     1     -11.143  15.261  67.181  1.00  0.00    -0.323 A  
HETATM   11  C   UNL     1     -10.634  16.625  65.260  1.00  0.00    -0.224 A  
HETATM   12  N   UNL     1     -10.025  19.666  68.956  1.00  0.00    -0.445 NA 
HETATM   13  C   UNL     1     -10.397  17.717  66.102  1.00  0.00    -0.340 A  
HETATM   14 CL   UNL     1     -11.086  16.110  69.728  1.00  0.00    -0.334 Cl 
HETATM   15  C   UNL     1     -10.525  17.585  67.489  1.00  0.00    -0.355 A  
HETATM   16  C   UNL     1     -10.255  18.724  68.318  1.00  0.00    -0.375 C  
HETATM   17  C   UNL     1     -10.904  16.352  68.026  1.00  0.00    -0.342 A  
ENDBRANCH   7   9
ENDBRANCH   3   4
ENDBRANCH   2   3
BRANCH   2  18
HETATM   18  N   UNL     1     -10.169  10.467  65.964  1.00  0.00    -0.254 N  
HETATM   19  O   UNL     1      -8.578  11.229  67.427  1.00  0.00    -0.132 OA 
HETATM   20  H   UNL     1     -11.127  10.127  65.876  1.00  0.00     0.000 HD 
HETATM   21  C   UNL     1      -9.715  10.821  67.214  1.00  0.00    -0.161 C  
BRANCH  21  22
HETATM   22  C   UNL     1     -10.700  10.651  68.286  1.00  0.00    -0.219 A  
HETATM   23  N   UNL     1     -12.016  10.901  68.141  1.00  0.00    -0.796 NA 
HETATM   24  H   UNL     1     -12.510  11.218  67.307  1.00  0.00     0.000 HD 
HETATM   25  C   UNL     1     -10.402  10.218  69.598  1.00  0.00    -0.281 A  
HETATM   26  N   UNL     1     -12.528  10.635  69.361  1.00  0.00    -0.247 NA 
HETATM   27  C   UNL     1     -11.593  10.251  70.283  1.00  0.00    -0.316 A  
BRANCH  27  28
HETATM   28  C   UNL     1     -11.932   9.931  71.691  1.00  0.00    -0.346 C  
HETATM   29  C   UNL     1     -13.398   9.547  71.866  1.00  0.00    -0.518 C  
HETATM   30  O   UNL     1     -11.096   8.845  72.075  1.00  0.00    -0.356 OA 
HETATM   31  H   UNL     1     -11.314   8.640  72.977  1.00  0.00     0.000 HD 
ENDBRANCH  27  28
ENDBRANCH  21  22
ENDBRANCH   2  18
TORSDOF 6
ENDMDL
MODEL       33
REMARK 921   NORMALIZED FREE ENERGY PREDICTED BY IDOCK:   -6.66 KCAL/MOL
REMARK 922        TOTAL FREE ENERGY PREDICTED BY IDOCK:  -10.62 KCAL/MOL
REMARK 923 INTER-LIGAND FREE ENERGY PREDICTED BY IDOCK:   -9.48 KCAL/MOL
REMARK 924 INTRA-LIGAND FREE ENERGY PREDICTED BY IDOCK:   -1.14 KCAL/MOL
REMARK 927      BINDING AFFINITY PREDICTED BY RF-SCORE:    0.00 PKD
ROOT
HETATM    1  C   UNL     1     -14.011  13.794  72.470  1.00  0.00    -0.572 C  
HETATM    2  C   UNL     1     -12.853  12.997  71.861  1.00  0.00    -0.211 C  
ENDROOT
BRANCH   2   3
HETATM    3  C   UNL     1     -13.229  11.512  71.725  1.00  0.00    -0.351 C  
BRANCH   3   4
HETATM    4  N   UNL     1     -12.280  10.772  70.912  1.00  0.00    -0.357 NA 
HETATM    5  C   UNL     1     -11.406   9.821  71.343  1.00  0.00    -0.337 A  
HETATM    6  N   UNL     1     -12.192  11.017  69.593  1.00  0.00    -0.329 NA 
HETATM    7  C   UNL     1     -11.221  10.198  69.154  1.00  0.00    -0.183 A  
HETATM    8  C   UNL     1     -10.717   9.414  70.229  1.00  0.00    -0.299 A  
BRANCH   7   9
HETATM    9  C   UNL     1     -10.793  10.201  67.749  1.00  0.00    -0.346 A  
HETATM   10  C   UNL     1     -11.034  11.321  66.938  1.00  0.00    -0.348 A  
HETATM   11  C   UNL     1     -10.122   9.105  67.191  1.00  0.00    -0.301 A  
HETATM   12  N   UNL     1      -9.050  10.216  62.621  1.00  0.00    -0.264 NA 
HETATM   13  C   UNL     1      -9.692   9.133  65.860  1.00  0.00    -0.336 A  
HETATM   14 CL   UNL     1     -10.931  12.778  64.685  1.00  0.00    -0.335 Cl 
HETATM   15  C   UNL     1      -9.925  10.258  65.062  1.00  0.00    -0.393 A  
HETATM   16  C   UNL     1      -9.451  10.255  63.709  1.00  0.00    -0.300 C  
HETATM   17  C   UNL     1     -10.603  11.352  65.606  1.00  0.00    -0.258 A  
ENDBRANCH   7   9
ENDBRANCH   3   4
ENDBRANCH   2   3
BRANCH   2  18
HETATM   18  N   UNL     1     -12.421  13.608  70.608  1.00  0.00    -0.354 N  
HETATM   19  O   UNL     1     -11.324  15.394  71.537  1.00  0.00    -0.377 OA 
HETATM   20  H   UNL     1     -12.683  13.153  69.734  1.00  0.00     0.000 HD 
HETATM   21  C   UNL     1     -11.679  14.765  70.544  1.00  0.00    -0.293 C  
BRANCH  21  22
HETATM   22  C   UNL     1     -11.360  15.204  69.183  1.00  0.00    -0.298 A  
HETATM   23  N   UNL     1     -11.813  14.591  68.071  1.00  0.00    -0.445 NA 
HETATM   24  H   UNL     1     -12.426  13.778  68.006  1.00  0.00     0.000 HD 
HETATM   25  C   UNL     1     -10.538  16.308  68.860  1.00  0.00    -0.284 A  
HETATM   26  N   UNL     1     -11.265  15.305  67.067  1.00  0.00    -0.312 NA 
HETATM   27  C   UNL     1     -10.462  16.330  67.488  1.00  0.00    -0.302 A  
BRANCH  27  28
HETATM   28  C   UNL     1      -9.743  17.229  66.552  1.00  0.00    -0.288 C  
HETATM   29  C   UNL     1      -8.303  16.787  66.310  1.00  0.00    -0.353 C  
HETATM   30  O   UNL     1     -10.469  17.211  65.329  1.00  0.00    -0.655 OA 
HETATM   31  H   UNL     1     -10.008  17.786  64.730  1.00  0.00     0.000 HD 
ENDBRANCH  27  28
ENDBRANCH  21  22
ENDBRANCH   2  18
TORSDOF 6
ENDMDL
MODEL       34
REMARK 921   NORMALIZED FREE ENERGY PREDICTED BY IDOCK:   -6.63 KCAL/MOL
REMARK 922        TOTAL FREE ENERGY PREDICTED BY IDOCK:  -10.57 KCAL/MOL
REMARK 923 INTER-LIGAND FREE ENERGY PREDICTED BY IDOCK:   -9.18 KCAL/MOL
REMARK 924 INTRA-LIGAND FREE ENERGY PREDICTED BY IDOCK:   -1.40 KCAL/MOL
REMARK 927      BINDING AFFINITY PREDICTED BY RF-SCORE:    0.00 PKD
ROOT
HETATM    1  C   UNL     1      -9.998   4.640  69.557  1.00  0.00    -0.266 C  
HETATM    2  C   UNL     1     -10.998   5.796  69.665  1.00  0.00    -0.315 C  
ENDROOT
BRANCH   2   3
HETATM    3  C   UNL     1     -11.241   6.167  71.138  1.00  0.00    -0.292 C  
BRANCH   3   4
HETATM    4  N   UNL     1     -12.097   7.331  71.283  1.00  0.00    -0.322 NA 
HETATM    5  C   UNL     1     -13.395   7.340  71.691  1.00  0.00    -0.358 A  
HETATM    6  N   UNL     1     -11.625   8.554  70.981  1.00  0.00    -0.278 NA 
HETATM    7  C   UNL     1     -12.659   9.385  71.197  1.00  0.00    -0.282 A  
HETATM    8  C   UNL     1     -13.787   8.655  71.665  1.00  0.00    -0.440 A  
BRANCH   7   9
HETATM    9  C   UNL     1     -12.550  10.826  70.935  1.00  0.00    -0.498 A  
HETATM   10  C   UNL     1     -13.083  11.753  71.845  1.00  0.00    -0.482 A  
HETATM   11  C   UNL     1     -11.900  11.310  69.791  1.00  0.00    -0.437 A  
HETATM   12  N   UNL     1     -11.976  16.130  69.996  1.00  0.00    -0.161 NA 
HETATM   13  C   UNL     1     -11.776  12.687  69.570  1.00  0.00    -0.374 A  
HETATM   14 CL   UNL     1     -13.632  14.199  72.806  1.00  0.00    -0.588 Cl 
HETATM   15  C   UNL     1     -12.298  13.603  70.488  1.00  0.00    -0.425 A  
HETATM   16  C   UNL     1     -12.133  15.005  70.234  1.00  0.00    -0.329 C  
HETATM   17  C   UNL     1     -12.957  13.130  71.626  1.00  0.00    -0.335 A  
ENDBRANCH   7   9
ENDBRANCH   3   4
ENDBRANCH   2   3
BRANCH   2  18
HETATM   18  N   UNL     1     -10.564   6.921  68.843  1.00  0.00    -0.211 N  
HETATM   19  O   UNL     1     -11.286   6.086  66.834  1.00  0.00    -0.240 OA 
HETATM   20  H   UNL     1     -10.099   7.704  69.302  1.00  0.00     0.000 HD 
HETATM   21  C   UNL     1     -10.749   6.981  67.481  1.00  0.00    -0.281 C  
BRANCH  21  22
HETATM   22  C   UNL     1     -10.231   8.199  66.853  1.00  0.00    -0.316 A  
HETATM   23  N   UNL     1      -9.289   8.204  65.890  1.00  0.00    -0.398 NA 
HETATM   24  H   UNL     1      -8.823   7.405  65.459  1.00  0.00     0.000 HD 
HETATM   25  C   UNL     1     -10.637   9.514  67.179  1.00  0.00    -0.295 A  
HETATM   26  N   UNL     1      -9.105   9.515  65.629  1.00  0.00    -0.185 NA 
HETATM   27  C   UNL     1      -9.869  10.346  66.401  1.00  0.00    -0.213 A  
BRANCH  27  28
HETATM   28  C   UNL     1      -9.811  11.825  66.296  1.00  0.00    -0.221 C  
HETATM   29  C   UNL     1      -8.701  12.428  67.151  1.00  0.00    -0.195 C  
HETATM   30  O   UNL     1      -9.588  12.129  64.924  1.00  0.00    -0.439 OA 
HETATM   31  H   UNL     1      -9.551  13.076  64.858  1.00  0.00     0.000 HD 
ENDBRANCH  27  28
ENDBRANCH  21  22
ENDBRANCH   2  18
TORSDOF 6
ENDMDL
MODEL       35
REMARK 921   NORMALIZED FREE ENERGY PREDICTED BY IDOCK:   -6.58 KCAL/MOL
REMARK 922        TOTAL FREE ENERGY PREDICTED BY IDOCK:  -10.51 KCAL/MOL
REMARK 923 INTER-LIGAND FREE ENERGY PREDICTED BY IDOCK:   -9.49 KCAL/MOL
REMARK 924 INTRA-LIGAND FREE ENERGY PREDICTED BY IDOCK:   -1.02 KCAL/MOL
REMARK 927      BINDING AFFINITY PREDICTED BY RF-SCORE:    0.00 PKD
ROOT
HETATM    1  C   UNL     1      -9.759  14.687  65.734  1.00  0.00    -0.331 C  
HETATM    2  C   UNL     1     -11.285  14.718  65.871  1.00  0.00    -0.340 C  
ENDROOT
BRANCH   2   3
HETATM    3  C   UNL     1     -11.924  13.568  65.074  1.00  0.00    -0.372 C  
BRANCH   3   4
HETATM    4  N   UNL     1     -11.272  12.294  65.321  1.00  0.00    -0.318 NA 
HETATM    5  C   UNL     1     -10.491  11.597  64.450  1.00  0.00    -0.322 A  
HETATM    6  N   UNL     1     -11.432  11.676  66.505  1.00  0.00    -0.447 NA 
HETATM    7  C   UNL     1     -10.733  10.534  66.395  1.00  0.00    -0.096 A  
HETATM    8  C   UNL     1     -10.109  10.460  65.118  1.00  0.00    -0.379 A  
BRANCH   7   9
HETATM    9  C   UNL     1     -10.696   9.550  67.485  1.00  0.00    -0.311 A  
HETATM   10  C   UNL     1     -10.845   9.965  68.817  1.00  0.00    -0.240 A  
HETATM   11  C   UNL     1     -10.534   8.182  67.225  1.00  0.00    -0.379 A  
HETATM   12  N   UNL     1     -10.715   5.859  71.449  1.00  0.00    -0.251 NA 
HETATM   13  C   UNL     1     -10.533   7.253  68.271  1.00  0.00    -0.239 A  
HETATM   14 CL   UNL     1     -11.048   9.635  71.474  1.00  0.00    -0.415 Cl 
HETATM   15  C   UNL     1     -10.695   7.673  69.595  1.00  0.00    -0.230 A  
HETATM   16  C   UNL     1     -10.707   6.687  70.636  1.00  0.00    -0.241 C  
HETATM   17  C   UNL     1     -10.846   9.036  69.865  1.00  0.00    -0.218 A  
ENDBRANCH   7   9
ENDBRANCH   3   4
ENDBRANCH   2   3
BRANCH   2  18
HETATM   18  N   UNL     1     -11.669  14.737  67.278  1.00  0.00    -0.375 N  
HETATM   19  O   UNL     1     -10.817  16.809  67.766  1.00  0.00    -0.341 OA 
HETATM   20  H   UNL     1     -12.156  13.925  67.657  1.00  0.00     0.000 HD 
HETATM   21  C   UNL     1     -11.407  15.793  68.121  1.00  0.00    -0.337 C  
BRANCH  21  22
HETATM   22  C   UNL     1     -11.875  15.599  69.497  1.00  0.00    -0.372 A  
HETATM   23  N   UNL     1     -11.585  16.435  70.513  1.00  0.00    -0.492 NA 
HETATM   24  H   UNL     1     -11.036  17.294  70.485  1.00  0.00     0.000 HD 
HETATM   25  C   UNL     1     -12.673  14.516  69.935  1.00  0.00    -0.118 A  
HETATM   26  N   UNL     1     -12.191  15.867  71.576  1.00  0.00    -0.447 NA 
HETATM   27  C   UNL     1     -12.832  14.694  71.289  1.00  0.00    -0.335 A  
BRANCH  27  28
HETATM   28  C   UNL     1     -13.546  13.891  72.312  1.00  0.00    -0.544 C  
HETATM   29  C   UNL     1     -13.360  12.391  72.111  1.00  0.00    -0.508 C  
HETATM   30  O   UNL     1     -13.021  14.281  73.575  1.00  0.00    -0.494 OA 
HETATM   31  H   UNL     1     -13.478  13.767  74.230  1.00  0.00     0.000 HD 
ENDBRANCH  27  28
ENDBRANCH  21  22
ENDBRANCH   2  18
TORSDOF 6
ENDMDL
MODEL       36
REMARK 921   NORMALIZED FREE ENERGY PREDICTED BY IDOCK:   -6.57 KCAL/MOL
REMARK 922        TOTAL FREE ENERGY PREDICTED BY IDOCK:  -10.50 KCAL/MOL
REMARK 923 INTER-LIGAND FREE ENERGY PREDICTED BY IDOCK:  -10.10 KCAL/MOL
REMARK 924 INTRA-LIGAND FREE ENERGY PREDICTED BY IDOCK:   -0.41 KCAL/MOL
REMARK 927      BINDING AFFINITY PREDICTED BY RF-SCORE:    0.00 PKD
ROOT
HETATM    1  C   UNL     1     -10.347  11.887  63.634  1.00  0.00    -0.477 C  
HETATM    2  C   UNL     1     -10.986  13.126  64.271  1.00  0.00    -0.403 C  
ENDROOT
BRANCH   2   3
HETATM    3  C   UNL     1     -12.275  12.747  65.019  1.00  0.00    -0.473 C  
BRANCH   3   4
HETATM    4  N   UNL     1     -12.106  12.765  66.461  1.00  0.00    -0.509 NA 
HETATM    5  C   UNL     1     -12.129  13.861  67.269  1.00  0.00    -0.368 A  
HETATM    6  N   UNL     1     -11.881  11.618  67.125  1.00  0.00    -0.607 NA 
HETATM    7  C   UNL     1     -11.748  11.985  68.412  1.00  0.00    -0.332 A  
HETATM    8  C   UNL     1     -11.919  13.392  68.541  1.00  0.00    -0.363 A  
BRANCH   7   9
HETATM    9  C   UNL     1     -11.446  11.003  69.461  1.00  0.00    -0.370 A  
HETATM   10  C   UNL     1     -10.277  10.229  69.390  1.00  0.00    -0.255 A  
HETATM   11  C   UNL     1     -12.297  10.829  70.561  1.00  0.00    -0.458 A  
HETATM   12  N   UNL     1     -10.303   7.514  73.443  1.00  0.00    -0.353 NA 
HETATM   13  C   UNL     1     -11.980   9.913  71.570  1.00  0.00    -0.473 A  
HETATM   14 CL   UNL     1      -8.492   8.411  70.237  1.00  0.00    -0.122 Cl 
HETATM   15  C   UNL     1     -10.807   9.154  71.498  1.00  0.00    -0.436 A  
HETATM   16  C   UNL     1     -10.510   8.240  72.562  1.00  0.00    -0.336 C  
HETATM   17  C   UNL     1      -9.957   9.313  70.400  1.00  0.00    -0.237 A  
ENDBRANCH   7   9
ENDBRANCH   3   4
ENDBRANCH   2   3
BRANCH   2  18
HETATM   18  N   UNL     1     -10.013  13.828  65.103  1.00  0.00    -0.579 N  
HETATM   19  O   UNL     1     -10.747  15.952  64.648  1.00  0.00    -0.553 OA 
HETATM   20  H   UNL     1      -9.327  13.275  65.615  1.00  0.00     0.000 HD 
HETATM   21  C   UNL     1      -9.974  15.198  65.232  1.00  0.00    -0.290 C  
BRANCH  21  22
HETATM   22  C   UNL     1      -8.912  15.691  66.113  1.00  0.00    -0.327 A  
HETATM   23  N   UNL     1      -8.080  14.890  66.806  1.00  0.00    -0.353 NA 
HETATM   24  H   UNL     1      -8.050  13.871  66.817  1.00  0.00     0.000 HD 
HETATM   25  C   UNL     1      -8.631  17.056  66.356  1.00  0.00    -0.311 A  
HETATM   26  N   UNL     1      -7.296  15.754  67.484  1.00  0.00    -0.160 NA 
HETATM   27  C   UNL     1      -7.607  17.069  67.273  1.00  0.00    -0.165 A  
BRANCH  27  28
HETATM   28  C   UNL     1      -6.887  18.185  67.933  1.00  0.00    -0.211 C  
HETATM   29  C   UNL     1      -7.683  19.486  67.913  1.00  0.00    -0.324 C  
HETATM   30  O   UNL     1      -6.650  17.781  69.276  1.00  0.00    -0.251 OA 
HETATM   31  H   UNL     1      -6.189  18.496  69.698  1.00  0.00     0.000 HD 
ENDBRANCH  27  28
ENDBRANCH  21  22
ENDBRANCH   2  18
TORSDOF 6
ENDMDL
MODEL       37
REMARK 921   NORMALIZED FREE ENERGY PREDICTED BY IDOCK:   -6.55 KCAL/MOL
REMARK 922        TOTAL FREE ENERGY PREDICTED BY IDOCK:  -10.47 KCAL/MOL
REMARK 923 INTER-LIGAND FREE ENERGY PREDICTED BY IDOCK:   -9.28 KCAL/MOL
REMARK 924 INTRA-LIGAND FREE ENERGY PREDICTED BY IDOCK:   -1.19 KCAL/MOL
REMARK 927      BINDING AFFINITY PREDICTED BY RF-SCORE:    0.00 PKD
ROOT
HETATM    1  C   UNL     1      -9.631  10.439  62.685  1.00  0.00    -0.274 C  
HETATM    2  C   UNL     1      -9.950  11.149  64.005  1.00  0.00    -0.323 C  
ENDROOT
BRANCH   2   3
HETATM    3  C   UNL     1     -11.043  12.212  63.797  1.00  0.00    -0.436 C  
BRANCH   3   4
HETATM    4  N   UNL     1     -11.018  13.240  64.822  1.00  0.00    -0.331 NA 
HETATM    5  C   UNL     1     -10.485  14.488  64.709  1.00  0.00    -0.337 A  
HETATM    6  N   UNL     1     -11.541  12.992  66.035  1.00  0.00    -0.346 NA 
HETATM    7  C   UNL     1     -11.334  14.120  66.737  1.00  0.00    -0.343 A  
HETATM    8  C   UNL     1     -10.688  15.093  65.924  1.00  0.00    -0.341 A  
BRANCH   7   9
HETATM    9  C   UNL     1     -11.734  14.230  68.146  1.00  0.00    -0.385 A  
HETATM   10  C   UNL     1     -12.000  13.075  68.898  1.00  0.00    -0.303 A  
HETATM   11  C   UNL     1     -11.839  15.477  68.777  1.00  0.00    -0.335 A  
HETATM   12  N   UNL     1     -13.045  14.689  73.381  1.00  0.00    -0.572 NA 
HETATM   13  C   UNL     1     -12.189  15.565  70.129  1.00  0.00    -0.404 A  
HETATM   14 CL   UNL     1     -12.647  11.686  71.102  1.00  0.00    -0.477 Cl 
HETATM   15  C   UNL     1     -12.441  14.408  70.874  1.00  0.00    -0.424 A  
HETATM   16  C   UNL     1     -12.778  14.541  72.262  1.00  0.00    -0.328 C  
HETATM   17  C   UNL     1     -12.349  13.161  70.251  1.00  0.00    -0.249 A  
ENDBRANCH   7   9
ENDBRANCH   3   4
ENDBRANCH   2   3
BRANCH   2  18
HETATM   18  N   UNL     1     -10.273  10.174  65.041  1.00  0.00    -0.259 N  
HETATM   19  O   UNL     1      -8.115   9.630  65.588  1.00  0.00    -0.112 OA 
HETATM   20  H   UNL     1     -11.256   9.990  65.242  1.00  0.00     0.000 HD 
HETATM   21  C   UNL     1      -9.321   9.490  65.762  1.00  0.00    -0.233 C  
BRANCH  21  22
HETATM   22  C   UNL     1      -9.868   8.554  66.749  1.00  0.00    -0.257 A  
HETATM   23  N   UNL     1     -10.419   7.366  66.431  1.00  0.00    -0.437 NA 
HETATM   24  H   UNL     1     -10.526   6.948  65.507  1.00  0.00     0.000 HD 
HETATM   25  C   UNL     1      -9.897   8.776  68.145  1.00  0.00    -0.194 A  
HETATM   26  N   UNL     1     -10.798   6.861  67.623  1.00  0.00    -0.263 NA 
HETATM   27  C   UNL     1     -10.536   7.684  68.683  1.00  0.00    -0.130 A  
BRANCH  27  28
HETATM   28  C   UNL     1     -10.888   7.336  70.082  1.00  0.00    -0.256 C  
HETATM   29  C   UNL     1     -10.964   8.563  70.986  1.00  0.00    -0.296 C  
HETATM   30  O   UNL     1     -12.153   6.688  70.036  1.00  0.00    -0.633 OA 
HETATM   31  H   UNL     1     -12.379   6.466  70.931  1.00  0.00     0.000 HD 
ENDBRANCH  27  28
ENDBRANCH  21  22
ENDBRANCH   2  18
TORSDOF 6
ENDMDL
MODEL       38
REMARK 921   NORMALIZED FREE ENERGY PREDICTED BY IDOCK:   -6.53 KCAL/MOL
REMARK 922        TOTAL FREE ENERGY PREDICTED BY IDOCK:  -10.44 KCAL/MOL
REMARK 923 INTER-LIGAND FREE ENERGY PREDICTED BY IDOCK:   -8.76 KCAL/MOL
REMARK 924 INTRA-LIGAND FREE ENERGY PREDICTED BY IDOCK:   -1.68 KCAL/MOL
REMARK 927      BINDING AFFINITY PREDICTED BY RF-SCORE:    0.00 PKD
ROOT
HETATM    1  C   UNL     1      -7.193   7.679  69.115  1.00  0.00    -0.080 C  
HETATM    2  C   UNL     1      -8.651   8.122  68.950  1.00  0.00    -0.130 C  
ENDROOT
BRANCH   2   3
HETATM    3  C   UNL     1      -9.101   8.964  70.156  1.00  0.00    -0.176 C  
BRANCH   3   4
HETATM    4  N   UNL     1     -10.084   9.970  69.794  1.00  0.00    -0.239 NA 
HETATM    5  C   UNL     1     -11.382  10.023  70.202  1.00  0.00    -0.291 A  
HETATM    6  N   UNL     1      -9.748  10.968  68.958  1.00  0.00    -0.174 NA 
HETATM    7  C   UNL     1     -10.871  11.691  68.815  1.00  0.00    -0.220 A  
HETATM    8  C   UNL     1     -11.918  11.135  69.602  1.00  0.00    -0.429 A  
BRANCH   7   9
HETATM    9  C   UNL     1     -10.921  12.862  67.930  1.00  0.00    -0.266 A  
HETATM   10  C   UNL     1      -9.770  13.637  67.717  1.00  0.00    -0.225 A  
HETATM   11  C   UNL     1     -12.101  13.221  67.264  1.00  0.00    -0.341 A  
HETATM   12  N   UNL     1     -11.124  17.072  64.527  1.00  0.00    -1.062 NA 
HETATM   13  C   UNL     1     -12.126  14.320  66.398  1.00  0.00    -0.442 A  
HETATM   14 CL   UNL     1      -8.326  15.626  66.637  1.00  0.00    -0.309 Cl 
HETATM   15  C   UNL     1     -10.972  15.080  66.182  1.00  0.00    -0.334 A  
HETATM   16  C   UNL     1     -11.035  16.187  65.273  1.00  0.00    -0.270 C  
HETATM   17  C   UNL     1      -9.793  14.736  66.849  1.00  0.00    -0.243 A  
ENDBRANCH   7   9
ENDBRANCH   3   4
ENDBRANCH   2   3
BRANCH   2  18
HETATM   18  N   UNL     1      -8.835   8.794  67.667  1.00  0.00    -0.135 N  
HETATM   19  O   UNL     1     -10.166   7.192  66.709  1.00  0.00    -0.235 OA 
HETATM   20  H   UNL     1      -8.381   9.695  67.524  1.00  0.00     0.000 HD 
HETATM   21  C   UNL     1      -9.590   8.273  66.641  1.00  0.00    -0.233 C  
BRANCH  21  22
HETATM   22  C   UNL     1      -9.635   9.111  65.439  1.00  0.00    -0.096 A  
HETATM   23  N   UNL     1      -8.916   8.865  64.326  1.00  0.00    -0.418 NA 
HETATM   24  H   UNL     1      -8.274   8.093  64.149  1.00  0.00     0.000 HD 
HETATM   25  C   UNL     1     -10.420  10.279  65.295  1.00  0.00    -0.099 A  
HETATM   26  N   UNL     1      -9.246   9.881  63.502  1.00  0.00    -0.264 NA 
HETATM   27  C   UNL     1     -10.122  10.777  64.049  1.00  0.00    -0.345 A  
BRANCH  27  28
HETATM   28  C   UNL     1     -10.603  11.981  63.327  1.00  0.00    -0.348 C  
HETATM   29  C   UNL     1     -12.096  12.224  63.526  1.00  0.00    -0.649 C  
HETATM   30  O   UNL     1      -9.859  13.084  63.832  1.00  0.00    -0.709 OA 
HETATM   31  H   UNL     1     -10.167  13.854  63.370  1.00  0.00     0.000 HD 
ENDBRANCH  27  28
ENDBRANCH  21  22
ENDBRANCH   2  18
TORSDOF 6
ENDMDL
MODEL       39
REMARK 921   NORMALIZED FREE ENERGY PREDICTED BY IDOCK:   -6.52 KCAL/MOL
REMARK 922        TOTAL FREE ENERGY PREDICTED BY IDOCK:  -10.44 KCAL/MOL
REMARK 923 INTER-LIGAND FREE ENERGY PREDICTED BY IDOCK:   -9.45 KCAL/MOL
REMARK 924 INTRA-LIGAND FREE ENERGY PREDICTED BY IDOCK:   -0.99 KCAL/MOL
REMARK 927      BINDING AFFINITY PREDICTED BY RF-SCORE:    0.00 PKD
ROOT
HETATM    1  C   UNL     1      -9.705  10.033  65.184  1.00  0.00    -0.380 C  
HETATM    2  C   UNL     1     -10.348  11.272  65.816  1.00  0.00    -0.258 C  
ENDROOT
BRANCH   2   3
HETATM    3  C   UNL     1     -11.303  11.953  64.820  1.00  0.00    -0.283 C  
BRANCH   3   4
HETATM    4  N   UNL     1     -11.263  13.401  64.915  1.00  0.00    -0.319 NA 
HETATM    5  C   UNL     1     -12.042  14.283  64.231  1.00  0.00    -0.441 A  
HETATM    6  N   UNL     1     -10.374  13.996  65.730  1.00  0.00    -0.307 NA 
HETATM    7  C   UNL     1     -10.581  15.314  65.563  1.00  0.00    -0.373 A  
HETATM    8  C   UNL     1     -11.641  15.531  64.639  1.00  0.00    -0.281 A  
BRANCH   7   9
HETATM    9  C   UNL     1      -9.763  16.312  66.262  1.00  0.00    -0.329 A  
HETATM   10  C   UNL     1     -10.168  17.656  66.304  1.00  0.00    -0.362 A  
HETATM   11  C   UNL     1      -8.577  15.952  66.917  1.00  0.00    -0.274 A  
HETATM   12  N   UNL     1      -6.787  19.921  68.994  1.00  0.00    -0.322 NA 
HETATM   13  C   UNL     1      -7.823  16.908  67.606  1.00  0.00    -0.186 A  
HETATM   14 CL   UNL     1      -9.999  20.241  67.007  1.00  0.00    -0.596 Cl 
HETATM   15  C   UNL     1      -8.241  18.242  67.654  1.00  0.00    -0.254 A  
HETATM   16  C   UNL     1      -7.451  19.187  68.388  1.00  0.00    -0.307 C  
HETATM   17  C   UNL     1      -9.417  18.613  66.996  1.00  0.00    -0.298 A  
ENDBRANCH   7   9
ENDBRANCH   3   4
ENDBRANCH   2   3
BRANCH   2  18
HETATM   18  N   UNL     1     -10.977  10.926  67.086  1.00  0.00    -0.282 N  
HETATM   19  O   UNL     1      -9.406  11.899  68.443  1.00  0.00    -0.199 OA 
HETATM   20  H   UNL     1     -11.849  10.398  67.065  1.00  0.00     0.000 HD 
HETATM   21  C   UNL     1     -10.455  11.275  68.311  1.00  0.00    -0.196 C  
BRANCH  21  22
HETATM   22  C   UNL     1     -11.247  10.821  69.457  1.00  0.00    -0.281 A  
HETATM   23  N   UNL     1     -12.132  11.597  70.113  1.00  0.00    -0.336 NA 
HETATM   24  H   UNL     1     -12.386  12.565  69.918  1.00  0.00     0.000 HD 
HETATM   25  C   UNL     1     -11.179   9.527  70.025  1.00  0.00    -0.243 A  
HETATM   26  N   UNL     1     -12.601  10.792  71.088  1.00  0.00    -0.394 NA 
HETATM   27  C   UNL     1     -12.037   9.547  71.100  1.00  0.00    -0.347 A  
BRANCH  27  28
HETATM   28  C   UNL     1     -12.390   8.509  72.099  1.00  0.00    -0.382 C  
HETATM   29  C   UNL     1     -11.165   7.940  72.808  1.00  0.00    -0.466 C  
HETATM   30  O   UNL     1     -13.255   9.129  73.044  1.00  0.00    -0.750 OA 
HETATM   31  H   UNL     1     -13.480   8.464  73.683  1.00  0.00     0.000 HD 
ENDBRANCH  27  28
ENDBRANCH  21  22
ENDBRANCH   2  18
TORSDOF 6
ENDMDL
MODEL       40
REMARK 921   NORMALIZED FREE ENERGY PREDICTED BY IDOCK:   -6.50 KCAL/MOL
REMARK 922        TOTAL FREE ENERGY PREDICTED BY IDOCK:  -10.41 KCAL/MOL
REMARK 923 INTER-LIGAND FREE ENERGY PREDICTED BY IDOCK:   -9.15 KCAL/MOL
REMARK 924 INTRA-LIGAND FREE ENERGY PREDICTED BY IDOCK:   -1.26 KCAL/MOL
REMARK 927      BINDING AFFINITY PREDICTED BY RF-SCORE:    0.00 PKD
ROOT
HETATM    1  C   UNL     1      -9.073  16.231  66.100  1.00  0.00    -0.377 C  
HETATM    2  C   UNL     1     -10.604  16.173  66.116  1.00  0.00    -0.283 C  
ENDROOT
BRANCH   2   3
HETATM    3  C   UNL     1     -11.147  15.796  64.727  1.00  0.00    -0.400 C  
BRANCH   3   4
HETATM    4  N   UNL     1     -11.386  14.370  64.594  1.00  0.00    -0.381 NA 
HETATM    5  C   UNL     1     -12.506  13.775  64.099  1.00  0.00    -0.240 A  
HETATM    6  N   UNL     1     -10.452  13.492  65.000  1.00  0.00    -0.356 NA 
HETATM    7  C   UNL     1     -10.990  12.283  64.765  1.00  0.00    -0.303 A  
HETATM    8  C   UNL     1     -12.278  12.424  64.177  1.00  0.00    -0.558 A  
BRANCH   7   9
HETATM    9  C   UNL     1     -10.281  11.047  65.120  1.00  0.00    -0.352 A  
HETATM   10  C   UNL     1     -10.555  10.397  66.333  1.00  0.00    -0.198 A  
HETATM   11  C   UNL     1      -9.335  10.477  64.256  1.00  0.00    -0.310 A  
HETATM   12  N   UNL     1      -7.752   6.404  66.300  1.00  0.00    -0.097 NA 
HETATM   13  C   UNL     1      -8.690   9.281  64.592  1.00  0.00    -0.223 A  
HETATM   14 CL   UNL     1     -10.322   8.462  68.179  1.00  0.00    -0.255 Cl 
HETATM   15  C   UNL     1      -8.979   8.634  65.798  1.00  0.00    -0.244 A  
HETATM   16  C   UNL     1      -8.310   7.401  66.096  1.00  0.00    -0.139 C  
HETATM   17  C   UNL     1      -9.912   9.199  66.670  1.00  0.00    -0.273 A  
ENDBRANCH   7   9
ENDBRANCH   3   4
ENDBRANCH   2   3
BRANCH   2  18
HETATM   18  N   UNL     1     -11.068  15.293  67.183  1.00  0.00    -0.336 N  
HETATM   19  O   UNL     1     -11.091  16.869  68.848  1.00  0.00    -0.262 OA 
HETATM   20  H   UNL     1     -11.242  14.313  66.960  1.00  0.00     0.000 HD 
HETATM   21  C   UNL     1     -11.283  15.715  68.475  1.00  0.00    -0.342 C  
BRANCH  21  22
HETATM   22  C   UNL     1     -11.742  14.663  69.387  1.00  0.00    -0.316 A  
HETATM   23  N   UNL     1     -12.307  14.904  70.586  1.00  0.00    -0.320 NA 
HETATM   24  H   UNL     1     -12.506  15.806  71.019  1.00  0.00     0.000 HD 
HETATM   25  C   UNL     1     -11.643  13.275  69.136  1.00  0.00    -0.370 A  
HETATM   26  N   UNL     1     -12.547  13.672  71.079  1.00  0.00    -0.361 NA 
HETATM   27  C   UNL     1     -12.137  12.656  70.260  1.00  0.00    -0.294 A  
BRANCH  27  28
HETATM   28  C   UNL     1     -12.283  11.223  70.613  1.00  0.00    -0.393 C  
HETATM   29  C   UNL     1     -13.155  11.013  71.847  1.00  0.00    -0.525 C  
HETATM   30  O   UNL     1     -12.872  10.583  69.487  1.00  0.00    -0.642 OA 
HETATM   31  H   UNL     1     -12.966   9.666  69.714  1.00  0.00     0.000 HD 
ENDBRANCH  27  28
ENDBRANCH  21  22
ENDBRANCH   2  18
TORSDOF 6
ENDMDL
MODEL       41
REMARK 921   NORMALIZED FREE ENERGY PREDICTED BY IDOCK:   -6.47 KCAL/MOL
REMARK 922        TOTAL FREE ENERGY PREDICTED BY IDOCK:  -10.36 KCAL/MOL
REMARK 923 INTER-LIGAND FREE ENERGY PREDICTED BY IDOCK:   -9.02 KCAL/MOL
REMARK 924 INTRA-LIGAND FREE ENERGY PREDICTED BY IDOCK:   -1.34 KCAL/MOL
REMARK 927      BINDING AFFINITY PREDICTED BY RF-SCORE:    0.00 PKD
ROOT
HETATM    1  C   UNL     1     -10.185  11.040  64.077  1.00  0.00    -0.420 C  
HETATM    2  C   UNL     1     -10.956  11.603  65.276  1.00  0.00    -0.268 C  
ENDROOT
BRANCH   2   3
HETATM    3  C   UNL     1     -10.513  10.914  66.578  1.00  0.00    -0.253 C  
BRANCH   3   4
HETATM    4  N   UNL     1      -9.201  11.354  67.018  1.00  0.00    -0.166 NA 
HETATM    5  C   UNL     1      -8.071  10.597  67.091  1.00  0.00    -0.121 A  
HETATM    6  N   UNL     1      -9.020  12.622  67.428  1.00  0.00    -0.181 NA 
HETATM    7  C   UNL     1      -7.725  12.687  67.785  1.00  0.00    -0.145 A  
HETATM    8  C   UNL     1      -7.091  11.433  67.566  1.00  0.00    -0.106 A  
BRANCH   7   9
HETATM    9  C   UNL     1      -7.144  13.919  68.335  1.00  0.00    -0.104 A  
HETATM   10  C   UNL     1      -7.221  15.121  67.614  1.00  0.00    -0.208 A  
HETATM   11  C   UNL     1      -6.521  13.931  69.590  1.00  0.00    -0.108 A  
HETATM   12  N   UNL     1      -5.126  18.462  70.486  1.00  0.00    -0.226 NA 
HETATM   13  C   UNL     1      -6.000  15.119  70.116  1.00  0.00    -0.145 A  
HETATM   14 CL   UNL     1      -6.853  17.746  67.188  1.00  0.00    -0.188 Cl 
HETATM   15  C   UNL     1      -6.092  16.315  69.397  1.00  0.00    -0.169 A  
HETATM   16  C   UNL     1      -5.562  17.513  69.980  1.00  0.00    -0.248 C  
HETATM   17  C   UNL     1      -6.702  16.310  68.140  1.00  0.00    -0.125 A  
ENDBRANCH   7   9
ENDBRANCH   3   4
ENDBRANCH   2   3
BRANCH   2  18
HETATM   18  N   UNL     1     -10.841  13.057  65.316  1.00  0.00    -0.285 N  
HETATM   19  O   UNL     1     -12.625  13.511  63.951  1.00  0.00    -0.681 OA 
HETATM   20  H   UNL     1     -10.087  13.467  65.867  1.00  0.00     0.000 HD 
HETATM   21  C   UNL     1     -11.696  13.905  64.649  1.00  0.00    -0.397 C  
BRANCH  21  22
HETATM   22  C   UNL     1     -11.393  15.328  64.822  1.00  0.00    -0.391 A  
HETATM   23  N   UNL     1     -11.756  16.284  63.945  1.00  0.00    -1.518 NA 
HETATM   24  H   UNL     1     -12.280  16.177  63.076  1.00  0.00     0.000 HD 
HETATM   25  C   UNL     1     -10.681  15.877  65.914  1.00  0.00    -0.303 A  
HETATM   26  N   UNL     1     -11.261  17.417  64.484  1.00  0.00    -0.789 NA 
HETATM   27  C   UNL     1     -10.577  17.223  65.653  1.00  0.00    -0.166 A  
BRANCH  27  28
HETATM   28  C   UNL     1      -9.932  18.327  66.405  1.00  0.00    -0.380 C  
HETATM   29  C   UNL     1     -10.398  19.702  65.936  1.00  0.00    -0.584 C  
HETATM   30  O   UNL     1     -10.270  18.140  67.774  1.00  0.00    -0.345 OA 
HETATM   31  H   UNL     1      -9.857  18.848  68.255  1.00  0.00     0.000 HD 
ENDBRANCH  27  28
ENDBRANCH  21  22
ENDBRANCH   2  18
TORSDOF 6
ENDMDL
MODEL       42
REMARK 921   NORMALIZED FREE ENERGY PREDICTED BY IDOCK:   -6.44 KCAL/MOL
REMARK 922        TOTAL FREE ENERGY PREDICTED BY IDOCK:  -10.32 KCAL/MOL
REMARK 923 INTER-LIGAND FREE ENERGY PREDICTED BY IDOCK:   -8.57 KCAL/MOL
REMARK 924 INTRA-LIGAND FREE ENERGY PREDICTED BY IDOCK:   -1.76 KCAL/MOL
REMARK 927      BINDING AFFINITY PREDICTED BY RF-SCORE:    0.00 PKD
ROOT
HETATM    1  C   UNL     1     -12.736  12.041  63.271  1.00  0.00    -0.437 C  
HETATM    2  C   UNL     1     -11.762  12.374  64.406  1.00  0.00    -0.366 C  
ENDROOT
BRANCH   2   3
HETATM    3  C   UNL     1     -12.462  13.208  65.493  1.00  0.00    -0.458 C  
BRANCH   3   4
HETATM    4  N   UNL     1     -11.842  13.051  66.797  1.00  0.00    -0.386 NA 
HETATM    5  C   UNL     1     -11.046  13.954  67.433  1.00  0.00    -0.298 A  
HETATM    6  N   UNL     1     -12.018  11.913  67.491  1.00  0.00    -0.588 NA 
HETATM    7  C   UNL     1     -11.303  12.083  68.617  1.00  0.00    -0.277 A  
HETATM    8  C   UNL     1     -10.693  13.369  68.623  1.00  0.00    -0.275 A  
BRANCH   7   9
HETATM    9  C   UNL     1     -11.207  11.024  69.630  1.00  0.00    -0.345 A  
HETATM   10  C   UNL     1     -10.038  10.255  69.742  1.00  0.00    -0.244 A  
HETATM   11  C   UNL     1     -12.262  10.770  70.518  1.00  0.00    -0.457 A  
HETATM   12  N   UNL     1     -10.851   7.243  73.492  1.00  0.00    -0.338 NA 
HETATM   13  C   UNL     1     -12.145   9.779  71.500  1.00  0.00    -0.493 A  
HETATM   14 CL   UNL     1      -8.438   8.376  70.797  1.00  0.00    -0.134 Cl 
HETATM   15  C   UNL     1     -10.972   9.026  71.612  1.00  0.00    -0.435 A  
HETATM   16  C   UNL     1     -10.885   8.034  72.644  1.00  0.00    -0.368 C  
HETATM   17  C   UNL     1      -9.919   9.265  70.725  1.00  0.00    -0.290 A  
ENDBRANCH   7   9
ENDBRANCH   3   4
ENDBRANCH   2   3
BRANCH   2  18
HETATM   18  N   UNL     1     -11.140  11.156  64.915  1.00  0.00    -0.125 N  
HETATM   19  O   UNL     1      -9.434  11.062  63.387  1.00  0.00    -0.249 OA 
HETATM   20  H   UNL     1     -11.564  10.697  65.720  1.00  0.00     0.000 HD 
HETATM   21  C   UNL     1     -10.011  10.594  64.363  1.00  0.00    -0.350 C  
BRANCH  21  22
HETATM   22  C   UNL     1      -9.560   9.368  65.028  1.00  0.00    -0.056 A  
HETATM   23  N   UNL     1      -8.768   8.447  64.445  1.00  0.00    -0.404 NA 
HETATM   24  H   UNL     1      -8.369   8.462  63.507  1.00  0.00     0.000 HD 
HETATM   25  C   UNL     1      -9.901   8.990  66.347  1.00  0.00    -0.356 A  
HETATM   26  N   UNL     1      -8.629   7.499  65.395  1.00  0.00    -0.098 NA 
HETATM   27  C   UNL     1      -9.317   7.762  66.547  1.00  0.00    -0.189 A  
BRANCH  27  28
HETATM   28  C   UNL     1      -9.322   6.844  67.713  1.00  0.00    -0.120 C  
HETATM   29  C   UNL     1     -10.727   6.593  68.252  1.00  0.00    -0.317 C  
HETATM   30  O   UNL     1      -8.744   5.621  67.272  1.00  0.00    -0.110 OA 
HETATM   31  H   UNL     1      -8.748   5.034  68.018  1.00  0.00     0.000 HD 
ENDBRANCH  27  28
ENDBRANCH  21  22
ENDBRANCH   2  18
TORSDOF 6
ENDMDL
MODEL       43
REMARK 921   NORMALIZED FREE ENERGY PREDICTED BY IDOCK:   -6.42 KCAL/MOL
REMARK 922        TOTAL FREE ENERGY PREDICTED BY IDOCK:  -10.29 KCAL/MOL
REMARK 923 INTER-LIGAND FREE ENERGY PREDICTED BY IDOCK:   -8.78 KCAL/MOL
REMARK 924 INTRA-LIGAND FREE ENERGY PREDICTED BY IDOCK:   -1.51 KCAL/MOL
REMARK 927      BINDING AFFINITY PREDICTED BY RF-SCORE:    0.00 PKD
ROOT
HETATM    1  C   UNL     1     -10.889   8.353  72.361  1.00  0.00    -0.416 C  
HETATM    2  C   UNL     1     -11.858   8.020  71.221  1.00  0.00    -0.294 C  
ENDROOT
BRANCH   2   3
HETATM    3  C   UNL     1     -13.140   8.863  71.337  1.00  0.00    -0.269 C  
BRANCH   3   4
HETATM    4  N   UNL     1     -12.890  10.281  71.147  1.00  0.00    -0.380 NA 
HETATM    5  C   UNL     1     -13.079  11.269  72.064  1.00  0.00    -0.326 A  
HETATM    6  N   UNL     1     -12.443  10.731  69.962  1.00  0.00    -0.302 NA 
HETATM    7  C   UNL     1     -12.344  12.063  70.114  1.00  0.00    -0.155 A  
HETATM    8  C   UNL     1     -12.718  12.435  71.436  1.00  0.00    -0.346 A  
BRANCH   7   9
HETATM    9  C   UNL     1     -11.922  12.931  69.008  1.00  0.00    -0.297 A  
HETATM   10  C   UNL     1     -11.783  12.409  67.712  1.00  0.00    -0.413 A  
HETATM   11  C   UNL     1     -11.670  14.295  69.209  1.00  0.00    -0.363 A  
HETATM   12  N   UNL     1     -10.521  16.217  64.936  1.00  0.00    -0.608 NA 
HETATM   13  C   UNL     1     -11.299  15.118  68.139  1.00  0.00    -0.345 A  
HETATM   14 CL   UNL     1     -11.280  12.506  65.077  1.00  0.00    -0.333 Cl 
HETATM   15  C   UNL     1     -11.175  14.592  66.849  1.00  0.00    -0.345 A  
HETATM   16  C   UNL     1     -10.812  15.473  65.777  1.00  0.00    -0.331 C  
HETATM   17  C   UNL     1     -11.415  13.232  66.640  1.00  0.00    -0.347 A  
ENDBRANCH   7   9
ENDBRANCH   3   4
ENDBRANCH   2   3
BRANCH   2  18
HETATM   18  N   UNL     1     -11.189   8.148  69.931  1.00  0.00    -0.446 N  
HETATM   19  O   UNL     1     -11.185   5.918  69.401  1.00  0.00    -0.375 OA 
HETATM   20  H   UNL     1     -10.914   9.080  69.620  1.00  0.00     0.000 HD 
HETATM   21  C   UNL     1     -10.908   7.078  69.113  1.00  0.00    -0.195 C  
BRANCH  21  22
HETATM   22  C   UNL     1     -10.225   7.434  67.866  1.00  0.00    -0.194 A  
HETATM   23  N   UNL     1      -9.349   6.628  67.234  1.00  0.00    -0.130 NA 
HETATM   24  H   UNL     1      -9.051   5.690  67.500  1.00  0.00     0.000 HD 
HETATM   25  C   UNL     1     -10.383   8.659  67.177  1.00  0.00    -0.369 A  
HETATM   26  N   UNL     1      -8.960   7.354  66.166  1.00  0.00    -0.164 NA 
HETATM   27  C   UNL     1      -9.529   8.596  66.102  1.00  0.00    -0.240 A  
BRANCH  27  28
HETATM   28  C   UNL     1      -9.226   9.569  65.023  1.00  0.00    -0.236 C  
HETATM   29  C   UNL     1      -7.993  10.413  65.328  1.00  0.00    -0.143 C  
HETATM   30  O   UNL     1      -9.017   8.812  63.838  1.00  0.00    -0.419 OA 
HETATM   31  H   UNL     1      -8.823   9.434  63.148  1.00  0.00     0.000 HD 
ENDBRANCH  27  28
ENDBRANCH  21  22
ENDBRANCH   2  18
TORSDOF 6
ENDMDL
MODEL       44
REMARK 921   NORMALIZED FREE ENERGY PREDICTED BY IDOCK:   -6.38 KCAL/MOL
REMARK 922        TOTAL FREE ENERGY PREDICTED BY IDOCK:  -10.25 KCAL/MOL
REMARK 923 INTER-LIGAND FREE ENERGY PREDICTED BY IDOCK:   -9.72 KCAL/MOL
REMARK 924 INTRA-LIGAND FREE ENERGY PREDICTED BY IDOCK:   -0.53 KCAL/MOL
REMARK 927      BINDING AFFINITY PREDICTED BY RF-SCORE:    0.00 PKD
ROOT
HETATM    1  C   UNL     1      -8.876  15.576  66.499  1.00  0.00    -0.348 C  
HETATM    2  C   UNL     1     -10.395  15.592  66.301  1.00  0.00    -0.306 C  
ENDROOT
BRANCH   2   3
HETATM    3  C   UNL     1     -10.798  14.681  65.129  1.00  0.00    -0.401 C  
BRANCH   3   4
HETATM    4  N   UNL     1     -10.765  13.273  65.485  1.00  0.00    -0.283 NA 
HETATM    5  C   UNL     1     -10.610  12.223  64.633  1.00  0.00    -0.303 A  
HETATM    6  N   UNL     1     -10.918  12.901  66.768  1.00  0.00    -0.267 NA 
HETATM    7  C   UNL     1     -10.864  11.559  66.746  1.00  0.00    -0.282 A  
HETATM    8  C   UNL     1     -10.650  11.097  65.417  1.00  0.00    -0.291 A  
BRANCH   7   9
HETATM    9  C   UNL     1     -11.036  10.765  67.970  1.00  0.00    -0.359 A  
HETATM   10  C   UNL     1     -10.610   9.428  68.012  1.00  0.00    -0.278 A  
HETATM   11  C   UNL     1     -11.606  11.322  69.123  1.00  0.00    -0.387 A  
HETATM   12  N   UNL     1     -11.548   7.939  72.562  1.00  0.00    -0.377 NA 
HETATM   13  C   UNL     1     -11.735  10.564  70.293  1.00  0.00    -0.420 A  
HETATM   14 CL   UNL     1     -10.172   7.035  69.148  1.00  0.00    -0.183 Cl 
HETATM   15  C   UNL     1     -11.296   9.236  70.330  1.00  0.00    -0.283 A  
HETATM   16  C   UNL     1     -11.428   8.500  71.554  1.00  0.00    -0.287 C  
HETATM   17  C   UNL     1     -10.736   8.669  69.182  1.00  0.00    -0.118 A  
ENDBRANCH   7   9
ENDBRANCH   3   4
ENDBRANCH   2   3
BRANCH   2  18
HETATM   18  N   UNL     1     -11.074  15.271  67.552  1.00  0.00    -0.320 N  
HETATM   19  O   UNL     1     -10.818  17.323  68.538  1.00  0.00    -0.332 OA 
HETATM   20  H   UNL     1     -11.446  14.328  67.671  1.00  0.00     0.000 HD 
HETATM   21  C   UNL     1     -11.238  16.172  68.579  1.00  0.00    -0.365 C  
BRANCH  21  22
HETATM   22  C   UNL     1     -11.944  15.635  69.746  1.00  0.00    -0.354 A  
HETATM   23  N   UNL     1     -12.762  14.565  69.701  1.00  0.00    -0.540 NA 
HETATM   24  H   UNL     1     -12.996  13.984  68.896  1.00  0.00     0.000 HD 
HETATM   25  C   UNL     1     -11.869  16.169  71.053  1.00  0.00    -0.368 A  
HETATM   26  N   UNL     1     -13.200  14.444  70.971  1.00  0.00    -0.356 NA 
HETATM   27  C   UNL     1     -12.717  15.404  71.818  1.00  0.00    -0.396 A  
BRANCH  27  28
HETATM   28  C   UNL     1     -13.085  15.473  73.254  1.00  0.00    -0.543 C  
HETATM   29  C   UNL     1     -12.070  16.258  74.079  1.00  0.00    -0.474 C  
HETATM   30  O   UNL     1     -14.357  16.106  73.320  1.00  0.00    -0.498 OA 
HETATM   31  H   UNL     1     -14.592  16.151  74.239  1.00  0.00     0.000 HD 
ENDBRANCH  27  28
ENDBRANCH  21  22
ENDBRANCH   2  18
TORSDOF 6
ENDMDL
MODEL       45
REMARK 921   NORMALIZED FREE ENERGY PREDICTED BY IDOCK:   -6.35 KCAL/MOL
REMARK 922        TOTAL FREE ENERGY PREDICTED BY IDOCK:  -10.20 KCAL/MOL
REMARK 923 INTER-LIGAND FREE ENERGY PREDICTED BY IDOCK:   -9.25 KCAL/MOL
REMARK 924 INTRA-LIGAND FREE ENERGY PREDICTED BY IDOCK:   -0.94 KCAL/MOL
REMARK 927      BINDING AFFINITY PREDICTED BY RF-SCORE:    0.00 PKD
ROOT
HETATM    1  C   UNL     1      -9.968  17.261  66.915  1.00  0.00    -0.294 C  
HETATM    2  C   UNL     1     -10.318  16.039  67.770  1.00  0.00    -0.279 C  
ENDROOT
BRANCH   2   3
HETATM    3  C   UNL     1     -11.763  16.136  68.289  1.00  0.00    -0.074 C  
BRANCH   3   4
HETATM    4  N   UNL     1     -12.047  15.159  69.325  1.00  0.00    -0.277 NA 
HETATM    5  C   UNL     1     -12.532  15.414  70.571  1.00  0.00    -0.422 A  
HETATM    6  N   UNL     1     -11.811  13.855  69.101  1.00  0.00    -0.337 NA 
HETATM    7  C   UNL     1     -12.151  13.241  70.248  1.00  0.00    -0.335 A  
HETATM    8  C   UNL     1     -12.629  14.193  71.191  1.00  0.00    -0.439 A  
BRANCH   7   9
HETATM    9  C   UNL     1     -11.993  11.791  70.416  1.00  0.00    -0.422 A  
HETATM   10  C   UNL     1     -12.851  11.080  71.270  1.00  0.00    -0.528 A  
HETATM   11  C   UNL     1     -11.004  11.082  69.721  1.00  0.00    -0.258 A  
HETATM   12  N   UNL     1     -11.466   6.419  70.872  1.00  0.00    -0.338 NA 
HETATM   13  C   UNL     1     -10.885   9.695  69.866  1.00  0.00    -0.287 A  
HETATM   14 CL   UNL     1     -13.843   8.897  72.477  1.00  0.00    -0.494 Cl 
HETATM   15  C   UNL     1     -11.753   8.992  70.709  1.00  0.00    -0.286 A  
HETATM   16  C   UNL     1     -11.610   7.569  70.815  1.00  0.00    -0.277 C  
HETATM   17  C   UNL     1     -12.735   9.692  71.415  1.00  0.00    -0.374 A  
ENDBRANCH   7   9
ENDBRANCH   3   4
ENDBRANCH   2   3
BRANCH   2  18
HETATM   18  N   UNL     1     -10.043  14.809  67.034  1.00  0.00    -0.243 N  
HETATM   19  O   UNL     1     -11.347  15.284  65.210  1.00  0.00    -0.338 OA 
HETATM   20  H   UNL     1      -9.422  14.121  67.458  1.00  0.00     0.000 HD 
HETATM   21  C   UNL     1     -10.580  14.529  65.798  1.00  0.00    -0.317 C  
BRANCH  21  22
HETATM   22  C   UNL     1     -10.175  13.234  65.243  1.00  0.00    -0.290 A  
HETATM   23  N   UNL     1     -10.085  12.979  63.923  1.00  0.00    -0.757 NA 
HETATM   24  H   UNL     1     -10.260  13.615  63.145  1.00  0.00     0.000 HD 
HETATM   25  C   UNL     1      -9.842  12.094  66.010  1.00  0.00    -0.260 A  
HETATM   26  N   UNL     1      -9.708  11.685  63.873  1.00  0.00    -0.251 NA 
HETATM   27  C   UNL     1      -9.579  11.096  65.101  1.00  0.00    -0.234 A  
BRANCH  27  28
HETATM   28  C   UNL     1      -9.195   9.674  65.279  1.00  0.00    -0.237 C  
HETATM   29  C   UNL     1     -10.080   8.953  66.290  1.00  0.00    -0.284 C  
HETATM   30  O   UNL     1      -9.312   9.057  64.003  1.00  0.00    -0.319 OA 
HETATM   31  H   UNL     1      -9.066   8.147  64.117  1.00  0.00     0.000 HD 
ENDBRANCH  27  28
ENDBRANCH  21  22
ENDBRANCH   2  18
TORSDOF 6
ENDMDL
MODEL       46
REMARK 921   NORMALIZED FREE ENERGY PREDICTED BY IDOCK:   -6.33 KCAL/MOL
REMARK 922        TOTAL FREE ENERGY PREDICTED BY IDOCK:  -10.17 KCAL/MOL
REMARK 923 INTER-LIGAND FREE ENERGY PREDICTED BY IDOCK:   -8.78 KCAL/MOL
REMARK 924 INTRA-LIGAND FREE ENERGY PREDICTED BY IDOCK:   -1.39 KCAL/MOL
REMARK 927      BINDING AFFINITY PREDICTED BY RF-SCORE:    0.00 PKD
ROOT
HETATM    1  C   UNL     1     -11.636  15.432  72.146  1.00  0.00    -0.554 C  
HETATM    2  C   UNL     1     -12.440  14.836  70.986  1.00  0.00    -0.330 C  
ENDROOT
BRANCH   2   3
HETATM    3  C   UNL     1     -11.969  15.419  69.644  1.00  0.00    -0.343 C  
BRANCH   3   4
HETATM    4  N   UNL     1     -10.789  14.745  69.130  1.00  0.00    -0.252 NA 
HETATM    5  C   UNL     1      -9.518  15.231  69.114  1.00  0.00    -0.236 A  
HETATM    6  N   UNL     1     -10.900  13.522  68.583  1.00  0.00    -0.254 NA 
HETATM    7  C   UNL     1      -9.653  13.205  68.193  1.00  0.00    -0.227 A  
HETATM    8  C   UNL     1      -8.752  14.252  68.531  1.00  0.00    -0.175 A  
BRANCH   7   9
HETATM    9  C   UNL     1      -9.365  11.942  67.501  1.00  0.00    -0.177 A  
HETATM   10  C   UNL     1      -9.767  11.756  66.169  1.00  0.00    -0.250 A  
HETATM   11  C   UNL     1      -8.670  10.906  68.140  1.00  0.00    -0.133 A  
HETATM   12  N   UNL     1      -8.131   7.324  64.953  1.00  0.00    -0.126 NA 
HETATM   13  C   UNL     1      -8.374   9.719  67.459  1.00  0.00    -0.114 A  
HETATM   14 CL   UNL     1      -9.993  10.434  63.844  1.00  0.00    -0.345 Cl 
HETATM   15  C   UNL     1      -8.767   9.548  66.128  1.00  0.00    -0.162 A  
HETATM   16  C   UNL     1      -8.427   8.325  65.460  1.00  0.00    -0.161 C  
HETATM   17  C   UNL     1      -9.470  10.571  65.486  1.00  0.00    -0.216 A  
ENDBRANCH   7   9
ENDBRANCH   3   4
ENDBRANCH   2   3
BRANCH   2  18
HETATM   18  N   UNL     1     -12.399  13.378  71.036  1.00  0.00    -0.390 N  
HETATM   19  O   UNL     1     -14.049  13.111  72.605  1.00  0.00    -0.701 OA 
HETATM   20  H   UNL     1     -11.728  12.893  70.441  1.00  0.00     0.000 HD 
HETATM   21  C   UNL     1     -13.218  12.623  71.844  1.00  0.00    -0.403 C  
BRANCH  21  22
HETATM   22  C   UNL     1     -13.004  11.177  71.741  1.00  0.00    -0.421 A  
HETATM   23  N   UNL     1     -13.778  10.258  72.350  1.00  0.00    -0.500 NA 
HETATM   24  H   UNL     1     -14.599  10.414  72.936  1.00  0.00     0.000 HD 
HETATM   25  C   UNL     1     -11.962  10.564  71.006  1.00  0.00    -0.466 A  
HETATM   26  N   UNL     1     -13.213   9.084  72.004  1.00  0.00    -0.395 NA 
HETATM   27  C   UNL     1     -12.098   9.213  71.223  1.00  0.00    -0.323 A  
BRANCH  27  28
HETATM   28  C   UNL     1     -11.307   8.052  70.744  1.00  0.00    -0.272 C  
HETATM   29  C   UNL     1     -11.938   6.718  71.129  1.00  0.00    -0.421 C  
HETATM   30  O   UNL     1     -11.233   8.165  69.328  1.00  0.00    -0.434 OA 
HETATM   31  H   UNL     1     -10.727   7.422  69.022  1.00  0.00     0.000 HD 
ENDBRANCH  27  28
ENDBRANCH  21  22
ENDBRANCH   2  18
TORSDOF 6
ENDMDL
MODEL       47
REMARK 921   NORMALIZED FREE ENERGY PREDICTED BY IDOCK:   -6.32 KCAL/MOL
REMARK 922        TOTAL FREE ENERGY PREDICTED BY IDOCK:  -10.16 KCAL/MOL
REMARK 923 INTER-LIGAND FREE ENERGY PREDICTED BY IDOCK:   -8.97 KCAL/MOL
REMARK 924 INTRA-LIGAND FREE ENERGY PREDICTED BY IDOCK:   -1.20 KCAL/MOL
REMARK 927      BINDING AFFINITY PREDICTED BY RF-SCORE:    0.00 PKD
ROOT
HETATM    1  C   UNL     1      -8.239   7.479  72.735  1.00  0.00    -0.145 C  
HETATM    2  C   UNL     1      -9.621   6.852  72.526  1.00  0.00    -0.149 C  
ENDROOT
BRANCH   2   3
HETATM    3  C   UNL     1     -10.689   7.615  73.328  1.00  0.00    -0.350 C  
BRANCH   3   4
HETATM    4  N   UNL     1     -11.561   8.407  72.479  1.00  0.00    -0.381 NA 
HETATM    5  C   UNL     1     -12.903   8.248  72.317  1.00  0.00    -0.277 A  
HETATM    6  N   UNL     1     -11.049   9.403  71.734  1.00  0.00    -0.342 NA 
HETATM    7  C   UNL     1     -12.098   9.904  71.060  1.00  0.00    -0.358 A  
HETATM    8  C   UNL     1     -13.289   9.212  71.420  1.00  0.00    -0.362 A  
BRANCH   7   9
HETATM    9  C   UNL     1     -11.937  10.997  70.094  1.00  0.00    -0.443 A  
HETATM   10  C   UNL     1     -11.513  10.726  68.783  1.00  0.00    -0.364 A  
HETATM   11  C   UNL     1     -12.219  12.325  70.444  1.00  0.00    -0.371 A  
HETATM   12  N   UNL     1     -11.515  15.051  66.526  1.00  0.00    -0.293 NA 
HETATM   13  C   UNL     1     -12.091  13.353  69.503  1.00  0.00    -0.334 A  
HETATM   14 CL   UNL     1     -10.870  11.327  66.247  1.00  0.00    -0.318 Cl 
HETATM   15  C   UNL     1     -11.680  13.073  68.196  1.00  0.00    -0.391 A  
HETATM   16  C   UNL     1     -11.580  14.153  67.257  1.00  0.00    -0.373 C  
HETATM   17  C   UNL     1     -11.387  11.754  67.840  1.00  0.00    -0.292 A  
ENDBRANCH   7   9
ENDBRANCH   3   4
ENDBRANCH   2   3
BRANCH   2  18
HETATM   18  N   UNL     1      -9.923   6.750  71.102  1.00  0.00    -0.182 N  
HETATM   19  O   UNL     1     -10.158   4.471  71.034  1.00  0.00    -0.198 OA 
HETATM   20  H   UNL     1      -9.947   7.608  70.551  1.00  0.00     0.000 HD 
HETATM   21  C   UNL     1     -10.176   5.557  70.464  1.00  0.00    -0.242 C  
BRANCH  21  22
HETATM   22  C   UNL     1     -10.449   5.686  69.029  1.00  0.00    -0.251 A  
HETATM   23  N   UNL     1     -11.227   6.649  68.497  1.00  0.00    -0.554 NA 
HETATM   24  H   UNL     1     -11.711   7.406  68.980  1.00  0.00     0.000 HD 
HETATM   25  C   UNL     1      -9.948   4.821  68.029  1.00  0.00    -0.154 A  
HETATM   26  N   UNL     1     -11.217   6.375  67.177  1.00  0.00    -0.324 NA 
HETATM   27  C   UNL     1     -10.488   5.266  66.846  1.00  0.00    -0.254 A  
BRANCH  27  28
HETATM   28  C   UNL     1     -10.358   4.770  65.453  1.00  0.00    -0.069 C  
HETATM   29  C   UNL     1      -9.527   3.494  65.363  1.00  0.00    -0.152 C  
HETATM   30  O   UNL     1     -11.678   4.525  64.983  1.00  0.00    -1.044 OA 
HETATM   31  H   UNL     1     -11.595   4.207  64.092  1.00  0.00     0.000 HD 
ENDBRANCH  27  28
ENDBRANCH  21  22
ENDBRANCH   2  18
TORSDOF 6
ENDMDL
MODEL       48
REMARK 921   NORMALIZED FREE ENERGY PREDICTED BY IDOCK:   -6.32 KCAL/MOL
REMARK 922        TOTAL FREE ENERGY PREDICTED BY IDOCK:  -10.16 KCAL/MOL
REMARK 923 INTER-LIGAND FREE ENERGY PREDICTED BY IDOCK:   -9.26 KCAL/MOL
REMARK 924 INTRA-LIGAND FREE ENERGY PREDICTED BY IDOCK:   -0.90 KCAL/MOL
REMARK 927      BINDING AFFINITY PREDICTED BY RF-SCORE:    0.00 PKD
ROOT
HETATM    1  C   UNL     1     -11.417   7.336  69.781  1.00  0.00    -0.026 C  
HETATM    2  C   UNL     1     -10.313   8.356  70.077  1.00  0.00    -0.211 C  
ENDROOT
BRANCH   2   3
HETATM    3  C   UNL     1      -9.176   8.239  69.048  1.00  0.00    -0.147 C  
BRANCH   3   4
HETATM    4  N   UNL     1      -8.722   9.533  68.572  1.00  0.00    -0.123 NA 
HETATM    5  C   UNL     1      -7.505  10.100  68.794  1.00  0.00    -0.086 A  
HETATM    6  N   UNL     1      -9.548  10.310  67.849  1.00  0.00    -0.145 NA 
HETATM    7  C   UNL     1      -8.840  11.425  67.598  1.00  0.00    -0.139 A  
HETATM    8  C   UNL     1      -7.538  11.318  68.162  1.00  0.00    -0.105 A  
BRANCH   7   9
HETATM    9  C   UNL     1      -9.422  12.551  66.856  1.00  0.00    -0.219 A  
HETATM   10  C   UNL     1      -9.549  13.809  67.465  1.00  0.00    -0.219 A  
HETATM   11  C   UNL     1      -9.842  12.406  65.527  1.00  0.00    -0.215 A  
HETATM   12  N   UNL     1     -11.425  16.706  64.017  1.00  0.00    -1.136 NA 
HETATM   13  C   UNL     1     -10.366  13.496  64.821  1.00  0.00    -0.405 A  
HETATM   14 CL   UNL     1     -10.179  16.416  67.584  1.00  0.00    -0.265 Cl 
HETATM   15  C   UNL     1     -10.477  14.749  65.431  1.00  0.00    -0.401 A  
HETATM   16  C   UNL     1     -11.001  15.844  64.667  1.00  0.00    -0.305 C  
HETATM   17  C   UNL     1     -10.070  14.901  66.759  1.00  0.00    -0.251 A  
ENDBRANCH   7   9
ENDBRANCH   3   4
ENDBRANCH   2   3
BRANCH   2  18
HETATM   18  N   UNL     1     -10.876   9.699  70.174  1.00  0.00    -0.259 N  
HETATM   19  O   UNL     1     -12.240   9.295  71.972  1.00  0.00    -0.364 OA 
HETATM   20  H   UNL     1     -10.570  10.401  69.501  1.00  0.00     0.000 HD 
HETATM   21  C   UNL     1     -11.799  10.067  71.127  1.00  0.00    -0.393 C  
BRANCH  21  22
HETATM   22  C   UNL     1     -12.235  11.464  71.037  1.00  0.00    -0.285 A  
HETATM   23  N   UNL     1     -11.748  12.346  70.142  1.00  0.00    -0.534 NA 
HETATM   24  H   UNL     1     -11.049  12.187  69.417  1.00  0.00     0.000 HD 
HETATM   25  C   UNL     1     -13.203  12.065  71.875  1.00  0.00    -0.469 A  
HETATM   26  N   UNL     1     -12.403  13.489  70.432  1.00  0.00    -0.341 NA 
HETATM   27  C   UNL     1     -13.266  13.382  71.487  1.00  0.00    -0.312 A  
BRANCH  27  28
HETATM   28  C   UNL     1     -14.074  14.521  71.989  1.00  0.00    -0.516 C  
HETATM   29  C   UNL     1     -13.339  15.334  73.051  1.00  0.00    -0.610 C  
HETATM   30  O   UNL     1     -14.366  15.342  70.865  1.00  0.00    -0.773 OA 
HETATM   31  H   UNL     1     -14.882  16.071  71.187  1.00  0.00     0.000 HD 
ENDBRANCH  27  28
ENDBRANCH  21  22
ENDBRANCH   2  18
TORSDOF 6
ENDMDL
MODEL       49
REMARK 921   NORMALIZED FREE ENERGY PREDICTED BY IDOCK:   -6.30 KCAL/MOL
REMARK 922        TOTAL FREE ENERGY PREDICTED BY IDOCK:  -10.13 KCAL/MOL
REMARK 923 INTER-LIGAND FREE ENERGY PREDICTED BY IDOCK:   -9.32 KCAL/MOL
REMARK 924 INTRA-LIGAND FREE ENERGY PREDICTED BY IDOCK:   -0.82 KCAL/MOL
REMARK 927      BINDING AFFINITY PREDICTED BY RF-SCORE:    0.00 PKD
ROOT
HETATM    1  C   UNL     1     -12.018  16.494  73.188  1.00  0.00    -0.469 C  
HETATM    2  C   UNL     1     -11.958  15.726  71.864  1.00  0.00    -0.466 C  
ENDROOT
BRANCH   2   3
HETATM    3  C   UNL     1     -13.275  14.971  71.615  1.00  0.00    -0.377 C  
BRANCH   3   4
HETATM    4  N   UNL     1     -13.075  13.540  71.473  1.00  0.00    -0.355 NA 
HETATM    5  C   UNL     1     -13.521  12.569  72.317  1.00  0.00    -0.386 A  
HETATM    6  N   UNL     1     -12.370  13.060  70.434  1.00  0.00    -0.315 NA 
HETATM    7  C   UNL     1     -12.353  11.728  70.614  1.00  0.00    -0.328 A  
HETATM    8  C   UNL     1     -13.088  11.381  71.782  1.00  0.00    -0.523 A  
BRANCH   7   9
HETATM    9  C   UNL     1     -11.632  10.840  69.694  1.00  0.00    -0.388 A  
HETATM   10  C   UNL     1     -11.038   9.660  70.169  1.00  0.00    -0.314 A  
HETATM   11  C   UNL     1     -11.535  11.132  68.326  1.00  0.00    -0.373 A  
HETATM   12  N   UNL     1      -9.125   7.521  66.224  1.00  0.00    -0.168 NA 
HETATM   13  C   UNL     1     -10.872  10.261  67.455  1.00  0.00    -0.355 A  
HETATM   14 CL   UNL     1      -9.687   7.349  69.968  1.00  0.00    -0.175 Cl 
HETATM   15  C   UNL     1     -10.295   9.081  67.935  1.00  0.00    -0.290 A  
HETATM   16  C   UNL     1      -9.642   8.205  67.006  1.00  0.00    -0.196 C  
HETATM   17  C   UNL     1     -10.377   8.785  69.298  1.00  0.00    -0.214 A  
ENDBRANCH   7   9
ENDBRANCH   3   4
ENDBRANCH   2   3
BRANCH   2  18
HETATM   18  N   UNL     1     -11.583  16.621  70.774  1.00  0.00    -0.443 N  
HETATM   19  O   UNL     1      -9.914  15.312  69.906  1.00  0.00    -0.244 OA 
HETATM   20  H   UNL     1     -12.086  17.503  70.678  1.00  0.00     0.000 HD 
HETATM   21  C   UNL     1     -10.585  16.338  69.870  1.00  0.00    -0.280 C  
BRANCH  21  22
HETATM   22  C   UNL     1     -10.370  17.380  68.861  1.00  0.00    -0.340 A  
HETATM   23  N   UNL     1     -11.085  17.480  67.723  1.00  0.00    -0.122 NA 
HETATM   24  H   UNL     1     -11.854  16.889  67.407  1.00  0.00     0.000 HD 
HETATM   25  C   UNL     1      -9.391  18.396  68.943  1.00  0.00    -0.228 A  
HETATM   26  N   UNL     1     -10.543  18.546  67.099  1.00  0.00    -0.411 NA 
HETATM   27  C   UNL     1      -9.499  19.114  67.776  1.00  0.00    -0.303 A  
BRANCH  27  28
HETATM   28  C   UNL     1      -8.744  20.284  67.263  1.00  0.00    -0.352 C  
HETATM   29  C   UNL     1      -7.286  20.279  67.710  1.00  0.00    -0.325 C  
HETATM   30  O   UNL     1      -8.818  20.227  65.843  1.00  0.00    -0.577 OA 
HETATM   31  H   UNL     1      -8.335  20.975  65.515  1.00  0.00     0.000 HD 
ENDBRANCH  27  28
ENDBRANCH  21  22
ENDBRANCH   2  18
TORSDOF 6
ENDMDL
MODEL       50
REMARK 921   NORMALIZED FREE ENERGY PREDICTED BY IDOCK:   -6.28 KCAL/MOL
REMARK 922        TOTAL FREE ENERGY PREDICTED BY IDOCK:  -10.11 KCAL/MOL
REMARK 923 INTER-LIGAND FREE ENERGY PREDICTED BY IDOCK:   -8.53 KCAL/MOL
REMARK 924 INTRA-LIGAND FREE ENERGY PREDICTED BY IDOCK:   -1.58 KCAL/MOL
REMARK 927      BINDING AFFINITY PREDICTED BY RF-SCORE:    0.00 PKD
ROOT
HETATM    1  C   UNL     1      -9.556   5.564  72.025  1.00  0.00    -0.177 C  
HETATM    2  C   UNL     1     -10.608   6.544  71.493  1.00  0.00    -0.229 C  
ENDROOT
BRANCH   2   3
HETATM    3  C   UNL     1     -11.176   7.401  72.637  1.00  0.00    -0.332 C  
BRANCH   3   4
HETATM    4  N   UNL     1     -12.010   8.488  72.153  1.00  0.00    -0.361 NA 
HETATM    5  C   UNL     1     -13.370   8.541  72.175  1.00  0.00    -0.351 A  
HETATM    6  N   UNL     1     -11.443   9.574  71.599  1.00  0.00    -0.389 NA 
HETATM    7  C   UNL     1     -12.475  10.358  71.243  1.00  0.00    -0.415 A  
HETATM    8  C   UNL     1     -13.706   9.746  71.610  1.00  0.00    -0.282 A  
BRANCH   7   9
HETATM    9  C   UNL     1     -12.262  11.638  70.555  1.00  0.00    -0.451 A  
HETATM   10  C   UNL     1     -12.655  12.841  71.162  1.00  0.00    -0.365 A  
HETATM   11  C   UNL     1     -11.649  11.694  69.296  1.00  0.00    -0.385 A  
HETATM   12  N   UNL     1     -11.305  16.340  68.042  1.00  0.00    -0.268 NA 
HETATM   13  C   UNL     1     -11.424  12.923  68.666  1.00  0.00    -0.346 A  
HETATM   14 CL   UNL     1     -12.933  15.504  71.362  1.00  0.00    -0.515 Cl 
HETATM   15  C   UNL     1     -11.807  14.118  69.284  1.00  0.00    -0.381 A  
HETATM   16  C   UNL     1     -11.541  15.358  68.613  1.00  0.00    -0.359 C  
HETATM   17  C   UNL     1     -12.428  14.072  70.535  1.00  0.00    -0.359 A  
ENDBRANCH   7   9
ENDBRANCH   3   4
ENDBRANCH   2   3
BRANCH   2  18
HETATM   18  N   UNL     1     -10.060   7.329  70.392  1.00  0.00    -0.191 N  
HETATM   19  O   UNL     1     -11.368   6.430  68.738  1.00  0.00    -0.327 OA 
HETATM   20  H   UNL     1      -9.318   7.997  70.597  1.00  0.00     0.000 HD 
HETATM   21  C   UNL     1     -10.491   7.213  69.090  1.00  0.00    -0.211 C  
BRANCH  21  22
HETATM   22  C   UNL     1      -9.798   8.092  68.144  1.00  0.00    -0.168 A  
HETATM   23  N   UNL     1      -8.466   8.293  68.144  1.00  0.00    -0.131 NA 
HETATM   24  H   UNL     1      -7.766   7.879  68.759  1.00  0.00     0.000 HD 
HETATM   25  C   UNL     1     -10.430   8.843  67.126  1.00  0.00    -0.344 A  
HETATM   26  N   UNL     1      -8.276   9.173  67.139  1.00  0.00    -0.113 NA 
HETATM   27  C   UNL     1      -9.429   9.561  66.515  1.00  0.00    -0.182 A  
BRANCH  27  28
HETATM   28  C   UNL     1      -9.455  10.537  65.398  1.00  0.00    -0.223 C  
HETATM   29  C   UNL     1     -10.785  11.276  65.299  1.00  0.00    -0.302 C  
HETATM   30  O   UNL     1      -8.401  11.462  65.640  1.00  0.00    -0.371 OA 
HETATM   31  H   UNL     1      -8.418  12.086  64.925  1.00  0.00     0.000 HD 
ENDBRANCH  27  28
ENDBRANCH  21  22
ENDBRANCH   2  18
TORSDOF 6
ENDMDL
MODEL       51
REMARK 921   NORMALIZED FREE ENERGY PREDICTED BY IDOCK:   -6.26 KCAL/MOL
REMARK 922        TOTAL FREE ENERGY PREDICTED BY IDOCK:  -10.08 KCAL/MOL
REMARK 923 INTER-LIGAND FREE ENERGY PREDICTED BY IDOCK:   -8.94 KCAL/MOL
REMARK 924 INTRA-LIGAND FREE ENERGY PREDICTED BY IDOCK:   -1.14 KCAL/MOL
REMARK 927      BINDING AFFINITY PREDICTED BY RF-SCORE:    0.00 PKD
ROOT
HETATM    1  C   UNL     1      -7.299   9.487  64.740  1.00  0.00    -0.112 C  
HETATM    2  C   UNL     1      -8.825   9.356  64.790  1.00  0.00    -0.204 C  
ENDROOT
BRANCH   2   3
HETATM    3  C   UNL     1      -9.239   8.194  65.708  1.00  0.00    -0.034 C  
BRANCH   3   4
HETATM    4  N   UNL     1      -9.333   8.595  67.101  1.00  0.00    -0.146 NA 
HETATM    5  C   UNL     1      -8.531   8.183  68.121  1.00  0.00    -0.126 A  
HETATM    6  N   UNL     1     -10.301   9.442  67.492  1.00  0.00    -0.238 NA 
HETATM    7  C   UNL     1     -10.123   9.580  68.817  1.00  0.00    -0.188 A  
HETATM    8  C   UNL     1      -9.002   8.816  69.245  1.00  0.00    -0.144 A  
BRANCH   7   9
HETATM    9  C   UNL     1     -11.025  10.408  69.629  1.00  0.00    -0.325 A  
HETATM   10  C   UNL     1     -11.798   9.825  70.646  1.00  0.00    -0.360 A  
HETATM   11  C   UNL     1     -11.122  11.791  69.426  1.00  0.00    -0.245 A  
HETATM   12  N   UNL     1     -14.210  13.537  72.696  1.00  0.00    -0.680 NA 
HETATM   13  C   UNL     1     -11.961  12.573  70.228  1.00  0.00    -0.364 A  
HETATM   14 CL   UNL     1     -13.541   9.806  72.687  1.00  0.00    -0.240 Cl 
HETATM   15  C   UNL     1     -12.718  11.986  71.247  1.00  0.00    -0.382 A  
HETATM   16  C   UNL     1     -13.551  12.825  72.058  1.00  0.00    -0.367 C  
HETATM   17  C   UNL     1     -12.636  10.606  71.450  1.00  0.00    -0.421 A  
ENDBRANCH   7   9
ENDBRANCH   3   4
ENDBRANCH   2   3
BRANCH   2  18
HETATM   18  N   UNL     1      -9.433  10.632  65.152  1.00  0.00    -0.208 N  
HETATM   19  O   UNL     1     -10.857  10.775  63.361  1.00  0.00    -0.031 OA 
HETATM   20  H   UNL     1      -9.114  11.095  66.002  1.00  0.00     0.000 HD 
HETATM   21  C   UNL     1     -10.414  11.244  64.405  1.00  0.00    -0.345 C  
BRANCH  21  22
HETATM   22  C   UNL     1     -10.879  12.523  64.949  1.00  0.00    -0.293 A  
HETATM   23  N   UNL     1     -11.916  12.643  65.802  1.00  0.00    -0.466 NA 
HETATM   24  H   UNL     1     -12.500  11.904  66.192  1.00  0.00     0.000 HD 
HETATM   25  C   UNL     1     -10.314  13.784  64.647  1.00  0.00    -0.393 A  
HETATM   26  N   UNL     1     -11.999  13.972  66.017  1.00  0.00    -0.396 NA 
HETATM   27  C   UNL     1     -11.079  14.706  65.321  1.00  0.00    -0.360 A  
BRANCH  27  28
HETATM   28  C   UNL     1     -11.005  16.187  65.392  1.00  0.00    -0.227 C  
HETATM   29  C   UNL     1      -9.691  16.677  65.991  1.00  0.00    -0.306 C  
HETATM   30  O   UNL     1     -11.141  16.667  64.060  1.00  0.00    -1.338 OA 
HETATM   31  H   UNL     1     -11.094  17.614  64.106  1.00  0.00     0.000 HD 
ENDBRANCH  27  28
ENDBRANCH  21  22
ENDBRANCH   2  18
TORSDOF 6
ENDMDL
MODEL       52
REMARK 921   NORMALIZED FREE ENERGY PREDICTED BY IDOCK:   -6.23 KCAL/MOL
REMARK 922        TOTAL FREE ENERGY PREDICTED BY IDOCK:  -10.04 KCAL/MOL
REMARK 923 INTER-LIGAND FREE ENERGY PREDICTED BY IDOCK:   -8.89 KCAL/MOL
REMARK 924 INTRA-LIGAND FREE ENERGY PREDICTED BY IDOCK:   -1.15 KCAL/MOL
REMARK 927      BINDING AFFINITY PREDICTED BY RF-SCORE:    0.00 PKD
ROOT
HETATM    1  C   UNL     1      -8.395   7.129  70.437  1.00  0.00    -0.128 C  
HETATM    2  C   UNL     1      -9.295   6.623  69.305  1.00  0.00    -0.142 C  
ENDROOT
BRANCH   2   3
HETATM    3  C   UNL     1     -10.622   6.085  69.867  1.00  0.00    -0.279 C  
BRANCH   3   4
HETATM    4  N   UNL     1     -11.306   7.058  70.700  1.00  0.00    -0.292 NA 
HETATM    5  C   UNL     1     -12.013   6.804  71.835  1.00  0.00    -0.333 A  
HETATM    6  N   UNL     1     -11.296   8.359  70.359  1.00  0.00    -0.220 NA 
HETATM    7  C   UNL     1     -12.028   8.969  71.307  1.00  0.00    -0.312 A  
HETATM    8  C   UNL     1     -12.479   8.021  72.266  1.00  0.00    -0.302 A  
BRANCH   7   9
HETATM    9  C   UNL     1     -12.289  10.414  71.260  1.00  0.00    -0.507 A  
HETATM   10  C   UNL     1     -11.717  11.205  70.252  1.00  0.00    -0.431 A  
HETATM   11  C   UNL     1     -13.126  11.032  72.200  1.00  0.00    -0.300 A  
HETATM   12  N   UNL     1     -13.420  15.707  71.045  1.00  0.00    -0.563 NA 
HETATM   13  C   UNL     1     -13.392  12.404  72.125  1.00  0.00    -0.508 A  
HETATM   14 CL   UNL     1     -11.246  13.470  68.891  1.00  0.00    -0.297 Cl 
HETATM   15  C   UNL     1     -12.827  13.182  71.110  1.00  0.00    -0.349 A  
HETATM   16  C   UNL     1     -13.141  14.580  71.057  1.00  0.00    -0.366 C  
HETATM   17  C   UNL     1     -11.984  12.577  70.174  1.00  0.00    -0.301 A  
ENDBRANCH   7   9
ENDBRANCH   3   4
ENDBRANCH   2   3
BRANCH   2  18
HETATM   18  N   UNL     1      -9.466   7.658  68.291  1.00  0.00    -0.145 N  
HETATM   19  O   UNL     1      -9.101   6.318  66.467  1.00  0.00    -0.143 OA 
HETATM   20  H   UNL     1      -9.675   8.607  68.600  1.00  0.00     0.000 HD 
HETATM   21  C   UNL     1      -9.361   7.421  66.940  1.00  0.00    -0.157 C  
BRANCH  21  22
HETATM   22  C   UNL     1      -9.564   8.605  66.101  1.00  0.00    -0.235 A  
HETATM   23  N   UNL     1      -9.054   8.743  64.861  1.00  0.00    -0.428 NA 
HETATM   24  H   UNL     1      -8.489   8.076  64.335  1.00  0.00     0.000 HD 
HETATM   25  C   UNL     1     -10.304   9.749  66.481  1.00  0.00    -0.262 A  
HETATM   26  N   UNL     1      -9.466   9.969  64.481  1.00  0.00    -0.290 NA 
HETATM   27  C   UNL     1     -10.194  10.630  65.431  1.00  0.00    -0.273 A  
BRANCH  27  28
HETATM   28  C   UNL     1     -10.729  12.000  65.232  1.00  0.00    -0.288 C  
HETATM   29  C   UNL     1     -10.841  12.374  63.758  1.00  0.00    -0.500 C  
HETATM   30  O   UNL     1     -12.014  12.029  65.840  1.00  0.00    -0.540 OA 
HETATM   31  H   UNL     1     -12.356  12.905  65.713  1.00  0.00     0.000 HD 
ENDBRANCH  27  28
ENDBRANCH  21  22
ENDBRANCH   2  18
TORSDOF 6
ENDMDL
MODEL       53
REMARK 921   NORMALIZED FREE ENERGY PREDICTED BY IDOCK:   -6.18 KCAL/MOL
REMARK 922        TOTAL FREE ENERGY PREDICTED BY IDOCK:   -9.97 KCAL/MOL
REMARK 923 INTER-LIGAND FREE ENERGY PREDICTED BY IDOCK:   -8.73 KCAL/MOL
REMARK 924 INTRA-LIGAND FREE ENERGY PREDICTED BY IDOCK:   -1.23 KCAL/MOL
REMARK 927      BINDING AFFINITY PREDICTED BY RF-SCORE:    0.00 PKD
ROOT
HETATM    1  C   UNL     1      -5.394  10.406  64.352  1.00  0.00    -0.143 C  
HETATM    2  C   UNL     1      -6.577   9.790  65.106  1.00  0.00    -0.100 C  
ENDROOT
BRANCH   2   3
HETATM    3  C   UNL     1      -6.223   9.581  66.589  1.00  0.00    -0.065 C  
BRANCH   3   4
HETATM    4  N   UNL     1      -7.118  10.299  67.479  1.00  0.00    -0.085 NA 
HETATM    5  C   UNL     1      -7.031  11.610  67.836  1.00  0.00    -0.080 A  
HETATM    6  N   UNL     1      -8.148   9.657  68.058  1.00  0.00    -0.105 NA 
HETATM    7  C   UNL     1      -8.746  10.585  68.824  1.00  0.00    -0.154 A  
HETATM    8  C   UNL     1      -8.080  11.835  68.692  1.00  0.00    -0.104 A  
BRANCH   7   9
HETATM    9  C   UNL     1      -9.906  10.254  69.662  1.00  0.00    -0.230 A  
HETATM   10  C   UNL     1      -9.765   9.384  70.754  1.00  0.00    -0.332 A  
HETATM   11  C   UNL     1     -11.168  10.809  69.408  1.00  0.00    -0.337 A  
HETATM   12  N   UNL     1     -14.184   9.201  72.813  1.00  0.00    -0.490 NA 
HETATM   13  C   UNL     1     -12.258  10.511  70.234  1.00  0.00    -0.393 A  
HETATM   14 CL   UNL     1     -10.585   8.015  72.913  1.00  0.00    -0.423 Cl 
HETATM   15  C   UNL     1     -12.106   9.653  71.328  1.00  0.00    -0.457 A  
HETATM   16  C   UNL     1     -13.243   9.388  72.161  1.00  0.00    -0.460 C  
HETATM   17  C   UNL     1     -10.854   9.087  71.583  1.00  0.00    -0.366 A  
ENDBRANCH   7   9
ENDBRANCH   3   4
ENDBRANCH   2   3
BRANCH   2  18
HETATM   18  N   UNL     1      -7.781  10.588  64.900  1.00  0.00    -0.317 N  
HETATM   19  O   UNL     1      -8.824   9.142  63.460  1.00  0.00    -0.181 OA 
HETATM   20  H   UNL     1      -7.855  11.485  65.381  1.00  0.00     0.000 HD 
HETATM   21  C   UNL     1      -8.822  10.195  64.090  1.00  0.00    -0.222 C  
BRANCH  21  22
HETATM   22  C   UNL     1      -9.930  11.152  64.022  1.00  0.00    -0.323 A  
HETATM   23  N   UNL     1     -10.417  11.655  62.871  1.00  0.00    -0.664 NA 
HETATM   24  H   UNL     1     -10.117  11.450  61.918  1.00  0.00     0.000 HD 
HETATM   25  C   UNL     1     -10.617  11.675  65.142  1.00  0.00    -0.343 A  
HETATM   26  N   UNL     1     -11.393  12.493  63.276  1.00  0.00    -0.411 NA 
HETATM   27  C   UNL     1     -11.533  12.566  64.635  1.00  0.00    -0.327 A  
BRANCH  27  28
HETATM   28  C   UNL     1     -12.530  13.442  65.298  1.00  0.00    -0.483 C  
HETATM   29  C   UNL     1     -12.081  13.892  66.685  1.00  0.00    -0.485 C  
HETATM   30  O   UNL     1     -12.707  14.572  64.454  1.00  0.00    -0.655 OA 
HETATM   31  H   UNL     1     -13.345  15.133  64.879  1.00  0.00     0.000 HD 
ENDBRANCH  27  28
ENDBRANCH  21  22
ENDBRANCH   2  18
TORSDOF 6
ENDMDL
MODEL       54
REMARK 921   NORMALIZED FREE ENERGY PREDICTED BY IDOCK:   -6.16 KCAL/MOL
REMARK 922        TOTAL FREE ENERGY PREDICTED BY IDOCK:   -9.94 KCAL/MOL
REMARK 923 INTER-LIGAND FREE ENERGY PREDICTED BY IDOCK:   -9.07 KCAL/MOL
REMARK 924 INTRA-LIGAND FREE ENERGY PREDICTED BY IDOCK:   -0.87 KCAL/MOL
REMARK 927      BINDING AFFINITY PREDICTED BY RF-SCORE:    0.00 PKD
ROOT
HETATM    1  C   UNL     1     -10.685  15.790  65.097  1.00  0.00    -0.455 C  
HETATM    2  C   UNL     1     -10.648  14.605  66.068  1.00  0.00    -0.309 C  
ENDROOT
BRANCH   2   3
HETATM    3  C   UNL     1     -12.017  14.416  66.744  1.00  0.00    -0.399 C  
BRANCH   3   4
HETATM    4  N   UNL     1     -11.929  13.629  67.961  1.00  0.00    -0.366 NA 
HETATM    5  C   UNL     1     -12.067  14.086  69.236  1.00  0.00    -0.338 A  
HETATM    6  N   UNL     1     -11.670  12.312  67.893  1.00  0.00    -0.381 NA 
HETATM    7  C   UNL     1     -11.631  11.901  69.172  1.00  0.00    -0.312 A  
HETATM    8  C   UNL     1     -11.898  12.991  70.046  1.00  0.00    -0.355 A  
BRANCH   7   9
HETATM    9  C   UNL     1     -11.326  10.507  69.520  1.00  0.00    -0.341 A  
HETATM   10  C   UNL     1     -11.674  10.000  70.782  1.00  0.00    -0.437 A  
HETATM   11  C   UNL     1     -10.705   9.648  68.603  1.00  0.00    -0.233 A  
HETATM   12  N   UNL     1     -10.323   5.313  70.687  1.00  0.00    -0.257 NA 
HETATM   13  C   UNL     1     -10.450   8.313  68.936  1.00  0.00    -0.209 A  
HETATM   14 CL   UNL     1     -11.894   8.123  72.688  1.00  0.00    -0.440 Cl 
HETATM   15  C   UNL     1     -10.811   7.813  70.191  1.00  0.00    -0.248 A  
HETATM   16  C   UNL     1     -10.548   6.434  70.486  1.00  0.00    -0.239 C  
HETATM   17  C   UNL     1     -11.421   8.664  71.116  1.00  0.00    -0.280 A  
ENDBRANCH   7   9
ENDBRANCH   3   4
ENDBRANCH   2   3
BRANCH   2  18
HETATM   18  N   UNL     1     -10.161  13.409  65.390  1.00  0.00    -0.427 N  
HETATM   19  O   UNL     1     -11.847  13.263  63.844  1.00  0.00    -0.430 OA 
HETATM   20  H   UNL     1      -9.300  12.978  65.728  1.00  0.00     0.000 HD 
HETATM   21  C   UNL     1     -10.801  12.830  64.318  1.00  0.00    -0.390 C  
BRANCH  21  22
HETATM   22  C   UNL     1     -10.141  11.631  63.794  1.00  0.00    -0.381 A  
HETATM   23  N   UNL     1     -10.302  11.174  62.537  1.00  0.00    -0.521 NA 
HETATM   24  H   UNL     1     -10.867  11.576  61.788  1.00  0.00     0.000 HD 
HETATM   25  C   UNL     1      -9.267  10.800  64.534  1.00  0.00    -0.250 A  
HETATM   26  N   UNL     1      -9.542  10.061  62.502  1.00  0.00    -0.205 NA 
HETATM   27  C   UNL     1      -8.923   9.773  63.687  1.00  0.00    -0.240 A  
BRANCH  27  28
HETATM   28  C   UNL     1      -8.056   8.584  63.879  1.00  0.00    -0.155 C  
HETATM   29  C   UNL     1      -8.317   7.880  65.207  1.00  0.00    -0.140 C  
HETATM   30  O   UNL     1      -8.331   7.701  62.798  1.00  0.00    -0.333 OA 
HETATM   31  H   UNL     1      -7.776   6.940  62.921  1.00  0.00     0.000 HD 
ENDBRANCH  27  28
ENDBRANCH  21  22
ENDBRANCH   2  18
TORSDOF 6
ENDMDL
MODEL       55
REMARK 921   NORMALIZED FREE ENERGY PREDICTED BY IDOCK:   -6.14 KCAL/MOL
REMARK 922        TOTAL FREE ENERGY PREDICTED BY IDOCK:   -9.91 KCAL/MOL
REMARK 923 INTER-LIGAND FREE ENERGY PREDICTED BY IDOCK:   -8.61 KCAL/MOL
REMARK 924 INTRA-LIGAND FREE ENERGY PREDICTED BY IDOCK:   -1.30 KCAL/MOL
REMARK 927      BINDING AFFINITY PREDICTED BY RF-SCORE:    0.00 PKD
ROOT
HETATM    1  C   UNL     1     -14.372   7.582  71.536  1.00  0.00    -0.603 C  
HETATM    2  C   UNL     1     -13.019   8.241  71.829  1.00  0.00    -0.344 C  
ENDROOT
BRANCH   2   3
HETATM    3  C   UNL     1     -11.927   7.174  72.016  1.00  0.00    -0.295 C  
BRANCH   3   4
HETATM    4  N   UNL     1     -10.727   7.469  71.252  1.00  0.00    -0.224 NA 
HETATM    5  C   UNL     1      -9.526   7.872  71.749  1.00  0.00    -0.158 A  
HETATM    6  N   UNL     1     -10.745   7.372  69.912  1.00  0.00    -0.240 NA 
HETATM    7  C   UNL     1      -9.509   7.731  69.524  1.00  0.00    -0.160 A  
HETATM    8  C   UNL     1      -8.706   8.034  70.659  1.00  0.00    -0.131 A  
BRANCH   7   9
HETATM    9  C   UNL     1      -9.139   7.794  68.104  1.00  0.00    -0.129 A  
HETATM   10  C   UNL     1      -9.640   8.820  67.287  1.00  0.00    -0.214 A  
HETATM   11  C   UNL     1      -8.269   6.853  67.537  1.00  0.00    -0.116 A  
HETATM   12  N   UNL     1      -7.612   8.068  62.914  1.00  0.00    -0.120 NA 
HETATM   13  C   UNL     1      -7.900   6.944  66.190  1.00  0.00    -0.102 A  
HETATM   14 CL   UNL     1      -9.925  10.217  65.013  1.00  0.00    -0.402 Cl 
HETATM   15  C   UNL     1      -8.393   7.977  65.386  1.00  0.00    -0.161 A  
HETATM   16  C   UNL     1      -7.976   8.045  64.016  1.00  0.00    -0.134 C  
HETATM   17  C   UNL     1      -9.270   8.913  65.940  1.00  0.00    -0.229 A  
ENDBRANCH   7   9
ENDBRANCH   3   4
ENDBRANCH   2   3
BRANCH   2  18
HETATM   18  N   UNL     1     -12.702   9.227  70.802  1.00  0.00    -0.510 N  
HETATM   19  O   UNL     1     -13.101  11.089  72.079  1.00  0.00    -0.496 OA 
HETATM   20  H   UNL     1     -12.422   8.893  69.880  1.00  0.00     0.000 HD 
HETATM   21  C   UNL     1     -12.763  10.586  71.011  1.00  0.00    -0.408 C  
BRANCH  21  22
HETATM   22  C   UNL     1     -12.409  11.395  69.841  1.00  0.00    -0.214 A  
HETATM   23  N   UNL     1     -12.304  10.900  68.592  1.00  0.00    -0.777 NA 
HETATM   24  H   UNL     1     -12.459   9.942  68.279  1.00  0.00     0.000 HD 
HETATM   25  C   UNL     1     -12.125  12.780  69.870  1.00  0.00    -0.329 A  
HETATM   26  N   UNL     1     -11.946  11.970  67.854  1.00  0.00    -0.547 NA 
HETATM   27  C   UNL     1     -11.793  13.119  68.580  1.00  0.00    -0.342 A  
BRANCH  27  28
HETATM   28  C   UNL     1     -11.383  14.410  67.973  1.00  0.00    -0.294 C  
HETATM   29  C   UNL     1     -11.749  14.502  66.495  1.00  0.00    -0.380 C  
HETATM   30  O   UNL     1     -12.048  15.434  68.704  1.00  0.00    -0.550 OA 
HETATM   31  H   UNL     1     -11.785  16.259  68.315  1.00  0.00     0.000 HD 
ENDBRANCH  27  28
ENDBRANCH  21  22
ENDBRANCH   2  18
TORSDOF 6
ENDMDL
MODEL       56
REMARK 921   NORMALIZED FREE ENERGY PREDICTED BY IDOCK:   -6.10 KCAL/MOL
REMARK 922        TOTAL FREE ENERGY PREDICTED BY IDOCK:   -9.86 KCAL/MOL
REMARK 923 INTER-LIGAND FREE ENERGY PREDICTED BY IDOCK:   -8.70 KCAL/MOL
REMARK 924 INTRA-LIGAND FREE ENERGY PREDICTED BY IDOCK:   -1.17 KCAL/MOL
REMARK 927      BINDING AFFINITY PREDICTED BY RF-SCORE:    0.00 PKD
ROOT
HETATM    1  C   UNL     1     -13.357   9.432  71.607  1.00  0.00    -0.477 C  
HETATM    2  C   UNL     1     -12.986  10.826  71.089  1.00  0.00    -0.371 C  
ENDROOT
BRANCH   2   3
HETATM    3  C   UNL     1     -13.178  11.882  72.190  1.00  0.00    -0.261 C  
BRANCH   3   4
HETATM    4  N   UNL     1     -13.126  13.238  71.673  1.00  0.00    -0.384 NA 
HETATM    5  C   UNL     1     -13.978  14.257  71.973  1.00  0.00    -0.504 A  
HETATM    6  N   UNL     1     -12.174  13.583  70.788  1.00  0.00    -0.356 NA 
HETATM    7  C   UNL     1     -12.422  14.872  70.500  1.00  0.00    -0.363 A  
HETATM    8  C   UNL     1     -13.541  15.336  71.245  1.00  0.00    -0.584 A  
BRANCH   7   9
HETATM    9  C   UNL     1     -11.610  15.608  69.522  1.00  0.00    -0.366 A  
HETATM   10  C   UNL     1     -11.579  15.202  68.179  1.00  0.00    -0.358 A  
HETATM   11  C   UNL     1     -10.868  16.737  69.896  1.00  0.00    -0.106 A  
HETATM   12  N   UNL     1      -8.727  18.459  65.930  1.00  0.00    -0.461 NA 
HETATM   13  C   UNL     1     -10.124  17.448  68.947  1.00  0.00    -0.330 A  
HETATM   14 CL   UNL     1     -10.867  15.348  65.595  1.00  0.00    -0.349 Cl 
HETATM   15  C   UNL     1     -10.109  17.044  67.608  1.00  0.00    -0.298 A  
HETATM   16  C   UNL     1      -9.349  17.811  66.664  1.00  0.00    -0.287 C  
HETATM   17  C   UNL     1     -10.837  15.913  67.228  1.00  0.00    -0.279 A  
ENDBRANCH   7   9
ENDBRANCH   3   4
ENDBRANCH   2   3
BRANCH   2  18
HETATM   18  N   UNL     1     -11.642  10.814  70.519  1.00  0.00    -0.335 N  
HETATM   19  O   UNL     1     -12.270  11.095  68.333  1.00  0.00    -0.610 OA 
HETATM   20  H   UNL     1     -10.851  10.693  71.151  1.00  0.00     0.000 HD 
HETATM   21  C   UNL     1     -11.388  10.957  69.174  1.00  0.00    -0.283 C  
BRANCH  21  22
HETATM   22  C   UNL     1      -9.966  10.909  68.820  1.00  0.00    -0.195 A  
HETATM   23  N   UNL     1      -9.205   9.802  68.922  1.00  0.00    -0.149 NA 
HETATM   24  H   UNL     1      -9.485   8.871  69.232  1.00  0.00     0.000 HD 
HETATM   25  C   UNL     1      -9.214  12.006  68.341  1.00  0.00    -0.160 A  
HETATM   26  N   UNL     1      -7.986  10.215  68.519  1.00  0.00    -0.101 NA 
HETATM   27  C   UNL     1      -7.930  11.541  68.189  1.00  0.00    -0.136 A  
BRANCH  27  28
HETATM   28  C   UNL     1      -6.683  12.210  67.741  1.00  0.00    -0.103 C  
HETATM   29  C   UNL     1      -5.932  11.399  66.690  1.00  0.00    -0.147 C  
HETATM   30  O   UNL     1      -7.068  13.468  67.201  1.00  0.00    -0.341 OA 
HETATM   31  H   UNL     1      -6.270  13.896  66.914  1.00  0.00     0.000 HD 
ENDBRANCH  27  28
ENDBRANCH  21  22
ENDBRANCH   2  18
TORSDOF 6
ENDMDL
MODEL       57
REMARK 921   NORMALIZED FREE ENERGY PREDICTED BY IDOCK:   -6.05 KCAL/MOL
REMARK 922        TOTAL FREE ENERGY PREDICTED BY IDOCK:   -9.80 KCAL/MOL
REMARK 923 INTER-LIGAND FREE ENERGY PREDICTED BY IDOCK:   -8.53 KCAL/MOL
REMARK 924 INTRA-LIGAND FREE ENERGY PREDICTED BY IDOCK:   -1.26 KCAL/MOL
REMARK 927      BINDING AFFINITY PREDICTED BY RF-SCORE:    0.00 PKD
ROOT
HETATM    1  C   UNL     1     -11.056  12.846  64.080  1.00  0.00    -0.455 C  
HETATM    2  C   UNL     1     -10.841  13.861  65.207  1.00  0.00    -0.333 C  
ENDROOT
BRANCH   2   3
HETATM    3  C   UNL     1     -12.131  14.047  66.023  1.00  0.00    -0.439 C  
BRANCH   3   4
HETATM    4  N   UNL     1     -11.967  13.668  67.415  1.00  0.00    -0.384 NA 
HETATM    5  C   UNL     1     -11.856  14.510  68.479  1.00  0.00    -0.320 A  
HETATM    6  N   UNL     1     -11.889  12.369  67.753  1.00  0.00    -0.436 NA 
HETATM    7  C   UNL     1     -11.716  12.370  69.086  1.00  0.00    -0.322 A  
HETATM    8  C   UNL     1     -11.711  13.704  69.580  1.00  0.00    -0.383 A  
BRANCH   7   9
HETATM    9  C   UNL     1     -11.543  11.119  69.836  1.00  0.00    -0.416 A  
HETATM   10  C   UNL     1     -12.603  10.594  70.591  1.00  0.00    -0.454 A  
HETATM   11  C   UNL     1     -10.333  10.412  69.802  1.00  0.00    -0.252 A  
HETATM   12  N   UNL     1     -10.896   6.420  72.450  1.00  0.00    -0.225 NA 
HETATM   13  C   UNL     1     -10.192   9.205  70.496  1.00  0.00    -0.288 A  
HETATM   14 CL   UNL     1     -13.827   8.807  72.178  1.00  0.00    -0.472 Cl 
HETATM   15  C   UNL     1     -11.258   8.683  71.236  1.00  0.00    -0.338 A  
HETATM   16  C   UNL     1     -11.078   7.434  71.917  1.00  0.00    -0.242 C  
HETATM   17  C   UNL     1     -12.465   9.385  71.284  1.00  0.00    -0.335 A  
ENDBRANCH   7   9
ENDBRANCH   3   4
ENDBRANCH   2   3
BRANCH   2  18
HETATM   18  N   UNL     1      -9.687  13.483  66.017  1.00  0.00    -0.419 N  
HETATM   19  O   UNL     1      -9.004  15.610  66.530  1.00  0.00    -0.254 OA 
HETATM   20  H   UNL     1      -9.487  12.490  66.138  1.00  0.00     0.000 HD 
HETATM   21  C   UNL     1      -8.856  14.395  66.625  1.00  0.00    -0.159 C  
BRANCH  21  22
HETATM   22  C   UNL     1      -7.755  13.797  67.385  1.00  0.00    -0.143 A  
HETATM   23  N   UNL     1      -6.786  13.040  66.833  1.00  0.00    -0.386 NA 
HETATM   24  H   UNL     1      -6.664  12.790  65.851  1.00  0.00     0.000 HD 
HETATM   25  C   UNL     1      -7.573  13.923  68.782  1.00  0.00    -0.108 A  
HETATM   26  N   UNL     1      -6.015  12.692  67.883  1.00  0.00    -0.094 NA 
HETATM   27  C   UNL     1      -6.463  13.170  69.084  1.00  0.00    -0.107 A  
BRANCH  27  28
HETATM   28  C   UNL     1      -5.780  12.891  70.371  1.00  0.00    -0.171 C  
HETATM   29  C   UNL     1      -5.994  13.998  71.398  1.00  0.00    -0.114 C  
HETATM   30  O   UNL     1      -6.313  11.666  70.858  1.00  0.00    -0.483 OA 
HETATM   31  H   UNL     1      -5.876  11.487  71.682  1.00  0.00     0.000 HD 
ENDBRANCH  27  28
ENDBRANCH  21  22
ENDBRANCH   2  18
TORSDOF 6
ENDMDL
MODEL       58
REMARK 921   NORMALIZED FREE ENERGY PREDICTED BY IDOCK:   -6.05 KCAL/MOL
REMARK 922        TOTAL FREE ENERGY PREDICTED BY IDOCK:   -9.79 KCAL/MOL
REMARK 923 INTER-LIGAND FREE ENERGY PREDICTED BY IDOCK:   -9.82 KCAL/MOL
REMARK 924 INTRA-LIGAND FREE ENERGY PREDICTED BY IDOCK:    0.02 KCAL/MOL
REMARK 927      BINDING AFFINITY PREDICTED BY RF-SCORE:    0.00 PKD
ROOT
HETATM    1  C   UNL     1     -12.493  12.649  65.102  1.00  0.00    -0.531 C  
HETATM    2  C   UNL     1     -12.103  13.089  66.517  1.00  0.00    -0.341 C  
ENDROOT
BRANCH   2   3
HETATM    3  C   UNL     1     -11.062  12.128  67.115  1.00  0.00    -0.291 C  
BRANCH   3   4
HETATM    4  N   UNL     1     -11.419  11.686  68.451  1.00  0.00    -0.270 NA 
HETATM    5  C   UNL     1     -12.072  12.412  69.401  1.00  0.00    -0.180 A  
HETATM    6  N   UNL     1     -11.084  10.451  68.862  1.00  0.00    -0.239 NA 
HETATM    7  C   UNL     1     -11.531  10.375  70.128  1.00  0.00    -0.319 A  
HETATM    8  C   UNL     1     -12.178  11.588  70.494  1.00  0.00    -0.469 A  
BRANCH   7   9
HETATM    9  C   UNL     1     -11.314   9.175  70.946  1.00  0.00    -0.359 A  
HETATM   10  C   UNL     1     -10.125   9.022  71.676  1.00  0.00    -0.405 A  
HETATM   11  C   UNL     1     -12.287   8.170  71.036  1.00  0.00    -0.152 A  
HETATM   12  N   UNL     1     -10.640   4.805  74.074  1.00  0.00    -0.273 NA 
HETATM   13  C   UNL     1     -12.081   7.047  71.845  1.00  0.00    -0.358 A  
HETATM   14 CL   UNL     1      -8.429   7.800  73.361  1.00  0.00    -0.221 Cl 
HETATM   15  C   UNL     1     -10.899   6.908  72.579  1.00  0.00    -0.277 A  
HETATM   16  C   UNL     1     -10.735   5.752  73.411  1.00  0.00    -0.273 C  
HETATM   17  C   UNL     1      -9.918   7.900  72.488  1.00  0.00    -0.249 A  
ENDBRANCH   7   9
ENDBRANCH   3   4
ENDBRANCH   2   3
BRANCH   2  18
HETATM   18  N   UNL     1     -11.676  14.485  66.515  1.00  0.00    -0.380 N  
HETATM   19  O   UNL     1     -10.424  14.385  64.598  1.00  0.00    -0.412 OA 
HETATM   20  H   UNL     1     -11.993  15.088  67.273  1.00  0.00     0.000 HD 
HETATM   21  C   UNL     1     -10.868  15.029  65.543  1.00  0.00    -0.351 C  
BRANCH  21  22
HETATM   22  C   UNL     1     -10.557  16.448  65.740  1.00  0.00    -0.315 A  
HETATM   23  N   UNL     1     -10.986  17.430  64.923  1.00  0.00    -0.851 NA 
HETATM   24  H   UNL     1     -11.572  17.348  64.092  1.00  0.00     0.000 HD 
HETATM   25  C   UNL     1      -9.769  16.965  66.794  1.00  0.00    -0.274 A  
HETATM   26  N   UNL     1     -10.456  18.548  65.462  1.00  0.00    -0.554 NA 
HETATM   27  C   UNL     1      -9.689  18.320  66.570  1.00  0.00    -0.343 A  
BRANCH  27  28
HETATM   28  C   UNL     1      -8.995  19.403  67.309  1.00  0.00    -0.299 C  
HETATM   29  C   UNL     1      -7.717  18.920  67.987  1.00  0.00    -0.298 C  
HETATM   30  O   UNL     1      -8.688  20.414  66.358  1.00  0.00    -0.532 OA 
HETATM   31  H   UNL     1      -8.243  21.107  66.831  1.00  0.00     0.000 HD 
ENDBRANCH  27  28
ENDBRANCH  21  22
ENDBRANCH   2  18
TORSDOF 6
ENDMDL
MODEL       59
REMARK 921   NORMALIZED FREE ENERGY PREDICTED BY IDOCK:   -6.02 KCAL/MOL
REMARK 922        TOTAL FREE ENERGY PREDICTED BY IDOCK:   -9.75 KCAL/MOL
REMARK 923 INTER-LIGAND FREE ENERGY PREDICTED BY IDOCK:   -9.17 KCAL/MOL
REMARK 924 INTRA-LIGAND FREE ENERGY PREDICTED BY IDOCK:   -0.58 KCAL/MOL
REMARK 927      BINDING AFFINITY PREDICTED BY RF-SCORE:    0.00 PKD
ROOT
HETATM    1  C   UNL     1     -10.771  19.222  65.843  1.00  0.00    -0.463 C  
HETATM    2  C   UNL     1     -10.621  17.810  66.419  1.00  0.00    -0.218 C  
ENDROOT
BRANCH   2   3
HETATM    3  C   UNL     1     -10.459  16.778  65.290  1.00  0.00    -0.131 C  
BRANCH   3   4
HETATM    4  N   UNL     1     -11.083  15.506  65.607  1.00  0.00    -0.279 NA 
HETATM    5  C   UNL     1     -11.902  14.778  64.800  1.00  0.00    -0.423 A  
HETATM    6  N   UNL     1     -10.887  14.945  66.813  1.00  0.00    -0.314 NA 
HETATM    7  C   UNL     1     -11.612  13.813  66.788  1.00  0.00    -0.370 A  
HETATM    8  C   UNL     1     -12.249  13.665  65.525  1.00  0.00    -0.476 A  
BRANCH   7   9
HETATM    9  C   UNL     1     -11.690  12.928  67.957  1.00  0.00    -0.401 A  
HETATM   10  C   UNL     1     -12.067  13.440  69.209  1.00  0.00    -0.312 A  
HETATM   11  C   UNL     1     -11.415  11.557  67.852  1.00  0.00    -0.372 A  
HETATM   12  N   UNL     1     -12.121   9.586  72.198  1.00  0.00    -0.254 NA 
HETATM   13  C   UNL     1     -11.525  10.720  68.968  1.00  0.00    -0.368 A  
HETATM   14 CL   UNL     1     -12.662  13.319  71.824  1.00  0.00    -0.339 Cl 
HETATM   15  C   UNL     1     -11.913  11.237  70.208  1.00  0.00    -0.466 A  
HETATM   16  C   UNL     1     -12.033  10.341  71.322  1.00  0.00    -0.363 C  
HETATM   17  C   UNL     1     -12.180  12.603  70.326  1.00  0.00    -0.271 A  
ENDBRANCH   7   9
ENDBRANCH   3   4
ENDBRANCH   2   3
BRANCH   2  18
HETATM   18  N   UNL     1      -9.542  17.775  67.402  1.00  0.00    -0.260 N  
HETATM   19  O   UNL     1      -7.811  17.993  65.916  1.00  0.00    -0.511 OA 
HETATM   20  H   UNL     1      -9.789  17.669  68.385  1.00  0.00     0.000 HD 
HETATM   21  C   UNL     1      -8.210  17.876  67.070  1.00  0.00    -0.226 C  
BRANCH  21  22
HETATM   22  C   UNL     1      -7.296  17.810  68.213  1.00  0.00    -0.240 A  
HETATM   23  N   UNL     1      -6.849  16.658  68.751  1.00  0.00    -0.169 NA 
HETATM   24  H   UNL     1      -7.054  15.704  68.456  1.00  0.00     0.000 HD 
HETATM   25  C   UNL     1      -6.778  18.932  68.901  1.00  0.00    -0.312 A  
HETATM   26  N   UNL     1      -6.068  17.065  69.773  1.00  0.00    -0.233 NA 
HETATM   27  C   UNL     1      -6.017  18.423  69.926  1.00  0.00    -0.208 A  
BRANCH  27  28
HETATM   28  C   UNL     1      -5.235  19.086  70.999  1.00  0.00    -0.270 C  
HETATM   29  C   UNL     1      -5.877  20.388  71.468  1.00  0.00    -0.279 C  
HETATM   30  O   UNL     1      -5.160  18.164  72.079  1.00  0.00    -0.647 OA 
HETATM   31  H   UNL     1      -4.661  18.589  72.766  1.00  0.00     0.000 HD 
ENDBRANCH  27  28
ENDBRANCH  21  22
ENDBRANCH   2  18
TORSDOF 6
ENDMDL
MODEL       60
REMARK 921   NORMALIZED FREE ENERGY PREDICTED BY IDOCK:   -6.01 KCAL/MOL
REMARK 922        TOTAL FREE ENERGY PREDICTED BY IDOCK:   -9.74 KCAL/MOL
REMARK 923 INTER-LIGAND FREE ENERGY PREDICTED BY IDOCK:   -9.30 KCAL/MOL
REMARK 924 INTRA-LIGAND FREE ENERGY PREDICTED BY IDOCK:   -0.45 KCAL/MOL
REMARK 927      BINDING AFFINITY PREDICTED BY RF-SCORE:    0.00 PKD
ROOT
HETATM    1  C   UNL     1      -9.430  11.891  66.663  1.00  0.00    -0.217 C  
HETATM    2  C   UNL     1     -10.523  12.755  66.025  1.00  0.00    -0.274 C  
ENDROOT
BRANCH   2   3
HETATM    3  C   UNL     1     -11.907  12.375  66.579  1.00  0.00    -0.339 C  
BRANCH   3   4
HETATM    4  N   UNL     1     -11.861  12.013  67.984  1.00  0.00    -0.498 NA 
HETATM    5  C   UNL     1     -11.835  12.868  69.044  1.00  0.00    -0.306 A  
HETATM    6  N   UNL     1     -11.819  10.718  68.343  1.00  0.00    -0.483 NA 
HETATM    7  C   UNL     1     -11.758  10.735  69.686  1.00  0.00    -0.323 A  
HETATM    8  C   UNL     1     -11.787  12.075  70.163  1.00  0.00    -0.383 A  
BRANCH   7   9
HETATM    9  C   UNL     1     -11.656   9.493  70.463  1.00  0.00    -0.316 A  
HETATM   10  C   UNL     1     -11.247   8.302  69.843  1.00  0.00    -0.031 A  
HETATM   11  C   UNL     1     -11.940   9.468  71.835  1.00  0.00    -0.381 A  
HETATM   12  N   UNL     1     -11.139   4.980  73.414  1.00  0.00    -0.322 NA 
HETATM   13  C   UNL     1     -11.807   8.284  72.570  1.00  0.00    -0.439 A  
HETATM   14 CL   UNL     1     -10.590   5.701  69.734  1.00  0.00    -0.378 Cl 
HETATM   15  C   UNL     1     -11.387   7.105  71.947  1.00  0.00    -0.294 A  
HETATM   16  C   UNL     1     -11.245   5.918  72.740  1.00  0.00    -0.276 C  
HETATM   17  C   UNL     1     -11.111   7.117  70.577  1.00  0.00    -0.271 A  
ENDBRANCH   7   9
ENDBRANCH   3   4
ENDBRANCH   2   3
BRANCH   2  18
HETATM   18  N   UNL     1     -10.202  14.171  66.175  1.00  0.00    -0.295 N  
HETATM   19  O   UNL     1     -11.497  14.930  64.443  1.00  0.00    -0.334 OA 
HETATM   20  H   UNL     1      -9.557  14.444  66.916  1.00  0.00     0.000 HD 
HETATM   21  C   UNL     1     -10.724  15.156  65.368  1.00  0.00    -0.381 C  
BRANCH  21  22
HETATM   22  C   UNL     1     -10.262  16.509  65.691  1.00  0.00    -0.292 A  
HETATM   23  N   UNL     1     -10.872  17.632  65.262  1.00  0.00    -0.561 NA 
HETATM   24  H   UNL     1     -11.712  17.713  64.689  1.00  0.00     0.000 HD 
HETATM   25  C   UNL     1      -9.125  16.811  66.475  1.00  0.00    -0.302 A  
HETATM   26  N   UNL     1     -10.110  18.622  65.769  1.00  0.00    -0.517 NA 
HETATM   27  C   UNL     1      -9.028  18.182  66.480  1.00  0.00    -0.275 A  
BRANCH  27  28
HETATM   28  C   UNL     1      -8.045  19.099  67.107  1.00  0.00    -0.261 C  
HETATM   29  C   UNL     1      -8.551  19.689  68.420  1.00  0.00    -0.357 C  
HETATM   30  O   UNL     1      -6.866  18.338  67.339  1.00  0.00    -0.193 OA 
HETATM   31  H   UNL     1      -6.237  18.925  67.741  1.00  0.00     0.000 HD 
ENDBRANCH  27  28
ENDBRANCH  21  22
ENDBRANCH   2  18
TORSDOF 6
ENDMDL
MODEL       61
REMARK 921   NORMALIZED FREE ENERGY PREDICTED BY IDOCK:   -6.01 KCAL/MOL
REMARK 922        TOTAL FREE ENERGY PREDICTED BY IDOCK:   -9.74 KCAL/MOL
REMARK 923 INTER-LIGAND FREE ENERGY PREDICTED BY IDOCK:   -8.49 KCAL/MOL
REMARK 924 INTRA-LIGAND FREE ENERGY PREDICTED BY IDOCK:   -1.25 KCAL/MOL
REMARK 927      BINDING AFFINITY PREDICTED BY RF-SCORE:    0.00 PKD
ROOT
HETATM    1  C   UNL     1      -7.622   8.671  68.025  1.00  0.00    -0.098 C  
HETATM    2  C   UNL     1      -9.147   8.671  67.882  1.00  0.00    -0.140 C  
ENDROOT
BRANCH   2   3
HETATM    3  C   UNL     1      -9.822   8.708  69.264  1.00  0.00    -0.188 C  
BRANCH   3   4
HETATM    4  N   UNL     1     -10.575   9.931  69.481  1.00  0.00    -0.226 NA 
HETATM    5  C   UNL     1     -11.776  10.045  70.112  1.00  0.00    -0.215 A  
HETATM    6  N   UNL     1     -10.102  11.102  69.019  1.00  0.00    -0.189 NA 
HETATM    7  C   UNL     1     -11.035  12.008  69.358  1.00  0.00    -0.066 A  
HETATM    8  C   UNL     1     -12.096  11.379  70.068  1.00  0.00    -0.417 A  
BRANCH   7   9
HETATM    9  C   UNL     1     -10.900  13.422  68.985  1.00  0.00    -0.220 A  
HETATM   10  C   UNL     1      -9.790  13.856  68.244  1.00  0.00    -0.231 A  
HETATM   11  C   UNL     1     -11.877  14.363  69.338  1.00  0.00    -0.369 A  
HETATM   12  N   UNL     1     -10.539  18.619  67.500  1.00  0.00    -0.423 NA 
HETATM   13  C   UNL     1     -11.751  15.702  68.949  1.00  0.00    -0.396 A  
HETATM   14 CL   UNL     1      -8.270  15.636  66.929  1.00  0.00    -0.267 Cl 
HETATM   15  C   UNL     1     -10.648  16.123  68.199  1.00  0.00    -0.290 A  
HETATM   16  C   UNL     1     -10.568  17.499  67.804  1.00  0.00    -0.375 C  
HETATM   17  C   UNL     1      -9.664  15.194  67.851  1.00  0.00    -0.208 A  
ENDBRANCH   7   9
ENDBRANCH   3   4
ENDBRANCH   2   3
BRANCH   2  18
HETATM   18  N   UNL     1      -9.574   9.748  66.995  1.00  0.00    -0.166 N  
HETATM   19  O   UNL     1      -9.016   8.718  65.025  1.00  0.00    -0.165 OA 
HETATM   20  H   UNL     1      -9.962  10.594  67.413  1.00  0.00     0.000 HD 
HETATM   21  C   UNL     1      -9.479   9.684  65.623  1.00  0.00    -0.255 C  
BRANCH  21  22
HETATM   22  C   UNL     1      -9.960  10.881  64.927  1.00  0.00    -0.303 A  
HETATM   23  N   UNL     1      -9.456  11.322  63.758  1.00  0.00    -0.342 NA 
HETATM   24  H   UNL     1      -8.711  10.908  63.197  1.00  0.00     0.000 HD 
HETATM   25  C   UNL     1     -10.995  11.725  65.390  1.00  0.00    -0.352 A  
HETATM   26  N   UNL     1     -10.167  12.439  63.505  1.00  0.00    -0.386 NA 
HETATM   27  C   UNL     1     -11.085  12.744  64.472  1.00  0.00    -0.330 A  
BRANCH  27  28
HETATM   28  C   UNL     1     -11.960  13.941  64.407  1.00  0.00    -0.450 C  
HETATM   29  C   UNL     1     -11.188  15.240  64.615  1.00  0.00    -0.366 C  
HETATM   30  O   UNL     1     -12.565  13.935  63.120  1.00  0.00    -1.057 OA 
HETATM   31  H   UNL     1     -13.125  14.701  63.078  1.00  0.00     0.000 HD 
ENDBRANCH  27  28
ENDBRANCH  21  22
ENDBRANCH   2  18
TORSDOF 6
ENDMDL
MODEL       62
REMARK 921   NORMALIZED FREE ENERGY PREDICTED BY IDOCK:   -5.92 KCAL/MOL
REMARK 922        TOTAL FREE ENERGY PREDICTED BY IDOCK:   -9.62 KCAL/MOL
REMARK 923 INTER-LIGAND FREE ENERGY PREDICTED BY IDOCK:   -9.00 KCAL/MOL
REMARK 924 INTRA-LIGAND FREE ENERGY PREDICTED BY IDOCK:   -0.62 KCAL/MOL
REMARK 927      BINDING AFFINITY PREDICTED BY RF-SCORE:    0.00 PKD
ROOT
HETATM    1  C   UNL     1      -8.274  11.600  67.131  1.00  0.00    -0.165 C  
HETATM    2  C   UNL     1      -9.620  11.809  66.429  1.00  0.00    -0.218 C  
ENDROOT
BRANCH   2   3
HETATM    3  C   UNL     1     -10.740  11.060  67.171  1.00  0.00    -0.265 C  
BRANCH   3   4
HETATM    4  N   UNL     1     -10.431   9.654  67.367  1.00  0.00    -0.245 NA 
HETATM    5  C   UNL     1     -10.126   8.746  66.401  1.00  0.00    -0.243 A  
HETATM    6  N   UNL     1     -10.451   9.130  68.605  1.00  0.00    -0.216 NA 
HETATM    7  C   UNL     1     -10.152   7.830  68.433  1.00  0.00    -0.192 A  
HETATM    8  C   UNL     1      -9.921   7.557  67.056  1.00  0.00    -0.304 A  
BRANCH   7   9
HETATM    9  C   UNL     1     -10.117   6.896  69.566  1.00  0.00    -0.183 A  
HETATM   10  C   UNL     1     -10.386   7.350  70.866  1.00  0.00    -0.206 A  
HETATM   11  C   UNL     1      -9.837   5.536  69.378  1.00  0.00    -0.240 A  
HETATM   12  N   UNL     1     -10.131   3.374  73.681  1.00  0.00    -0.116 NA 
HETATM   13  C   UNL     1      -9.838   4.651  70.462  1.00  0.00    -0.301 A  
HETATM   14 CL   UNL     1     -10.743   7.111  73.516  1.00  0.00    -0.411 Cl 
HETATM   15  C   UNL     1     -10.119   5.109  71.753  1.00  0.00    -0.260 A  
HETATM   16  C   UNL     1     -10.129   4.167  72.833  1.00  0.00    -0.159 C  
HETATM   17  C   UNL     1     -10.389   6.466  71.952  1.00  0.00    -0.202 A  
ENDBRANCH   7   9
ENDBRANCH   3   4
ENDBRANCH   2   3
BRANCH   2  18
HETATM   18  N   UNL     1      -9.885  13.233  66.253  1.00  0.00    -0.282 N  
HETATM   19  O   UNL     1     -10.841  13.079  64.175  1.00  0.00    -0.378 OA 
HETATM   20  H   UNL     1      -9.611  13.871  67.000  1.00  0.00     0.000 HD 
HETATM   21  C   UNL     1     -10.486  13.760  65.133  1.00  0.00    -0.384 C  
BRANCH  21  22
HETATM   22  C   UNL     1     -10.651  15.216  65.164  1.00  0.00    -0.424 A  
HETATM   23  N   UNL     1     -11.347  15.912  64.243  1.00  0.00    -0.886 NA 
HETATM   24  H   UNL     1     -11.852  15.554  63.433  1.00  0.00     0.000 HD 
HETATM   25  C   UNL     1     -10.099  16.072  66.144  1.00  0.00    -0.346 A  
HETATM   26  N   UNL     1     -11.217  17.192  64.646  1.00  0.00    -0.959 NA 
HETATM   27  C   UNL     1     -10.449  17.347  65.767  1.00  0.00    -0.215 A  
BRANCH  27  28
HETATM   28  C   UNL     1     -10.157  18.670  66.371  1.00  0.00    -0.403 C  
HETATM   29  C   UNL     1      -8.666  18.991  66.382  1.00  0.00    -0.322 C  
HETATM   30  O   UNL     1     -10.856  19.636  65.595  1.00  0.00    -0.473 OA 
HETATM   31  H   UNL     1     -10.669  20.483  65.981  1.00  0.00     0.000 HD 
ENDBRANCH  27  28
ENDBRANCH  21  22
ENDBRANCH   2  18
TORSDOF 6
ENDMDL
MODEL       63
REMARK 921   NORMALIZED FREE ENERGY PREDICTED BY IDOCK:   -5.89 KCAL/MOL
REMARK 922        TOTAL FREE ENERGY PREDICTED BY IDOCK:   -9.58 KCAL/MOL
REMARK 923 INTER-LIGAND FREE ENERGY PREDICTED BY IDOCK:   -8.26 KCAL/MOL
REMARK 924 INTRA-LIGAND FREE ENERGY PREDICTED BY IDOCK:   -1.32 KCAL/MOL
REMARK 927      BINDING AFFINITY PREDICTED BY RF-SCORE:    0.00 PKD
ROOT
HETATM    1  C   UNL     1      -9.834   4.430  70.400  1.00  0.00    -0.286 C  
HETATM    2  C   UNL     1      -9.110   5.773  70.535  1.00  0.00    -0.147 C  
ENDROOT
BRANCH   2   3
HETATM    3  C   UNL     1      -8.178   6.009  69.334  1.00  0.00    -0.115 C  
BRANCH   3   4
HETATM    4  N   UNL     1      -8.150   7.400  68.919  1.00  0.00    -0.126 NA 
HETATM    5  C   UNL     1      -7.365   8.387  69.432  1.00  0.00    -0.070 A  
HETATM    6  N   UNL     1      -8.974   7.826  67.945  1.00  0.00    -0.126 NA 
HETATM    7  C   UNL     1      -8.716   9.140  67.827  1.00  0.00    -0.121 A  
HETATM    8  C   UNL     1      -7.692   9.524  68.736  1.00  0.00    -0.080 A  
BRANCH   7   9
HETATM    9  C   UNL     1      -9.457   9.984  66.879  1.00  0.00    -0.203 A  
HETATM   10  C   UNL     1     -10.078  11.164  67.318  1.00  0.00    -0.218 A  
HETATM   11  C   UNL     1      -9.545   9.647  65.521  1.00  0.00    -0.351 A  
HETATM   12  N   UNL     1     -12.036  13.136  63.309  1.00  0.00    -0.600 NA 
HETATM   13  C   UNL     1     -10.227  10.477  64.624  1.00  0.00    -0.364 A  
HETATM   14 CL   UNL     1     -11.483  13.435  67.047  1.00  0.00    -0.348 Cl 
HETATM   15  C   UNL     1     -10.832  11.657  65.067  1.00  0.00    -0.346 A  
HETATM   16  C   UNL     1     -11.505  12.489  64.112  1.00  0.00    -0.385 C  
HETATM   17  C   UNL     1     -10.759  11.996  66.421  1.00  0.00    -0.259 A  
ENDBRANCH   7   9
ENDBRANCH   3   4
ENDBRANCH   2   3
BRANCH   2  18
HETATM   18  N   UNL     1     -10.072   6.850  70.748  1.00  0.00    -0.194 N  
HETATM   19  O   UNL     1     -10.253   6.610  73.020  1.00  0.00    -0.183 OA 
HETATM   20  H   UNL     1     -10.394   7.377  69.937  1.00  0.00     0.000 HD 
HETATM   21  C   UNL     1     -10.567   7.190  71.986  1.00  0.00    -0.210 C  
BRANCH  21  22
HETATM   22  C   UNL     1     -11.527   8.298  71.969  1.00  0.00    -0.334 A  
HETATM   23  N   UNL     1     -12.747   8.242  72.539  1.00  0.00    -0.582 NA 
HETATM   24  H   UNL     1     -13.166   7.469  73.056  1.00  0.00     0.000 HD 
HETATM   25  C   UNL     1     -11.306   9.550  71.351  1.00  0.00    -0.462 A  
HETATM   26  N   UNL     1     -13.282   9.449  72.266  1.00  0.00    -0.444 NA 
HETATM   27  C   UNL     1     -12.469  10.263  71.526  1.00  0.00    -0.422 A  
BRANCH  27  28
HETATM   28  C   UNL     1     -12.866  11.626  71.094  1.00  0.00    -0.294 C  
HETATM   29  C   UNL     1     -13.376  12.479  72.251  1.00  0.00    -0.475 C  
HETATM   30  O   UNL     1     -11.711  12.225  70.520  1.00  0.00    -0.517 OA 
HETATM   31  H   UNL     1     -11.965  13.097  70.244  1.00  0.00     0.000 HD 
ENDBRANCH  27  28
ENDBRANCH  21  22
ENDBRANCH   2  18
TORSDOF 6
ENDMDL
MODEL       64
REMARK 921   NORMALIZED FREE ENERGY PREDICTED BY IDOCK:   -5.88 KCAL/MOL
REMARK 922        TOTAL FREE ENERGY PREDICTED BY IDOCK:   -9.56 KCAL/MOL
REMARK 923 INTER-LIGAND FREE ENERGY PREDICTED BY IDOCK:   -8.24 KCAL/MOL
REMARK 924 INTRA-LIGAND FREE ENERGY PREDICTED BY IDOCK:   -1.32 KCAL/MOL
REMARK 927      BINDING AFFINITY PREDICTED BY RF-SCORE:    0.00 PKD
ROOT
HETATM    1  C   UNL     1      -8.240  19.820  66.043  1.00  0.00    -0.327 C  
HETATM    2  C   UNL     1      -9.029  19.198  67.201  1.00  0.00    -0.288 C  
ENDROOT
BRANCH   2   3
HETATM    3  C   UNL     1     -10.367  18.628  66.700  1.00  0.00    -0.415 C  
BRANCH   3   4
HETATM    4  N   UNL     1     -10.428  17.181  66.807  1.00  0.00    -0.297 NA 
HETATM    5  C   UNL     1     -10.040  16.278  65.865  1.00  0.00    -0.357 A  
HETATM    6  N   UNL     1     -10.925  16.611  67.919  1.00  0.00    -0.318 NA 
HETATM    7  C   UNL     1     -10.863  15.289  67.685  1.00  0.00    -0.295 A  
HETATM    8  C   UNL     1     -10.290  15.042  66.406  1.00  0.00    -0.293 A  
BRANCH   7   9
HETATM    9  C   UNL     1     -11.362  14.314  68.663  1.00  0.00    -0.302 A  
HETATM   10  C   UNL     1     -11.782  14.738  69.934  1.00  0.00    -0.352 A  
HETATM   11  C   UNL     1     -11.452  12.950  68.351  1.00  0.00    -0.347 A  
HETATM   12  N   UNL     1     -13.346  10.695  72.171  1.00  0.00    -0.365 NA 
HETATM   13  C   UNL     1     -11.960  12.037  69.281  1.00  0.00    -0.329 A  
HETATM   14 CL   UNL     1     -12.797  14.438  72.401  1.00  0.00    -0.419 Cl 
HETATM   15  C   UNL     1     -12.387  12.470  70.541  1.00  0.00    -0.345 A  
HETATM   16  C   UNL     1     -12.919  11.504  71.458  1.00  0.00    -0.380 C  
HETATM   17  C   UNL     1     -12.292  13.825  70.866  1.00  0.00    -0.380 A  
ENDBRANCH   7   9
ENDBRANCH   3   4
ENDBRANCH   2   3
BRANCH   2  18
HETATM   18  N   UNL     1      -8.206  18.223  67.909  1.00  0.00    -0.248 N  
HETATM   19  O   UNL     1      -7.210  19.700  69.351  1.00  0.00    -0.352 OA 
HETATM   20  H   UNL     1      -8.263  17.246  67.623  1.00  0.00     0.000 HD 
HETATM   21  C   UNL     1      -7.359  18.553  68.941  1.00  0.00    -0.266 C  
BRANCH  21  22
HETATM   22  C   UNL     1      -6.623  17.417  69.506  1.00  0.00    -0.172 A  
HETATM   23  N   UNL     1      -5.591  17.544  70.363  1.00  0.00    -0.244 NA 
HETATM   24  H   UNL     1      -5.191  18.400  70.745  1.00  0.00     0.000 HD 
HETATM   25  C   UNL     1      -6.888  16.058  69.219  1.00  0.00    -0.201 A  
HETATM   26  N   UNL     1      -5.214  16.270  70.598  1.00  0.00    -0.190 NA 
HETATM   27  C   UNL     1      -5.941  15.339  69.909  1.00  0.00    -0.141 A  
BRANCH  27  28
HETATM   28  C   UNL     1      -5.682  13.881  70.001  1.00  0.00    -0.126 C  
HETATM   29  C   UNL     1      -5.143  13.470  71.367  1.00  0.00    -0.162 C  
HETATM   30  O   UNL     1      -6.921  13.230  69.750  1.00  0.00    -0.335 OA 
HETATM   31  H   UNL     1      -6.755  12.297  69.809  1.00  0.00     0.000 HD 
ENDBRANCH  27  28
ENDBRANCH  21  22
ENDBRANCH   2  18
TORSDOF 6
ENDMDL
MODEL       65
REMARK 921   NORMALIZED FREE ENERGY PREDICTED BY IDOCK:   -5.86 KCAL/MOL
REMARK 922        TOTAL FREE ENERGY PREDICTED BY IDOCK:   -9.53 KCAL/MOL
REMARK 923 INTER-LIGAND FREE ENERGY PREDICTED BY IDOCK:   -8.45 KCAL/MOL
REMARK 924 INTRA-LIGAND FREE ENERGY PREDICTED BY IDOCK:   -1.09 KCAL/MOL
REMARK 927      BINDING AFFINITY PREDICTED BY RF-SCORE:    0.00 PKD
ROOT
HETATM    1  C   UNL     1     -13.284  11.726  71.970  1.00  0.00    -0.460 C  
HETATM    2  C   UNL     1     -12.528  10.563  71.319  1.00  0.00    -0.419 C  
ENDROOT
BRANCH   2   3
HETATM    3  C   UNL     1     -13.239   9.229  71.603  1.00  0.00    -0.388 C  
BRANCH   3   4
HETATM    4  N   UNL     1     -12.313   8.113  71.683  1.00  0.00    -0.303 NA 
HETATM    5  C   UNL     1     -11.634   7.698  72.788  1.00  0.00    -0.281 A  
HETATM    6  N   UNL     1     -12.041   7.386  70.586  1.00  0.00    -0.192 NA 
HETATM    7  C   UNL     1     -11.146   6.469  70.993  1.00  0.00    -0.288 A  
HETATM    8  C   UNL     1     -10.882   6.624  72.382  1.00  0.00    -0.266 A  
BRANCH   7   9
HETATM    9  C   UNL     1     -10.563   5.499  70.057  1.00  0.00    -0.384 A  
HETATM   10  C   UNL     1     -10.731   5.663  68.672  1.00  0.00    -0.249 A  
HETATM   11  C   UNL     1      -9.814   4.407  70.514  1.00  0.00    -0.285 A  
HETATM   12  N   UNL     1      -8.252   1.982  66.647  1.00  0.00    -0.080 NA 
HETATM   13  C   UNL     1      -9.237   3.508  69.609  1.00  0.00    -0.223 A  
HETATM   14 CL   UNL     1     -10.399   5.054  66.079  1.00  0.00    -0.277 Cl 
HETATM   15  C   UNL     1      -9.398   3.686  68.232  1.00  0.00    -0.228 A  
HETATM   16  C   UNL     1      -8.774   2.754  67.338  1.00  0.00    -0.120 C  
HETATM   17  C   UNL     1     -10.152   4.767  67.766  1.00  0.00    -0.069 A  
ENDBRANCH   7   9
ENDBRANCH   3   4
ENDBRANCH   2   3
BRANCH   2  18
HETATM   18  N   UNL     1     -12.321  10.823  69.898  1.00  0.00    -0.441 N  
HETATM   19  O   UNL     1     -10.067  10.408  69.870  1.00  0.00    -0.209 OA 
HETATM   20  H   UNL     1     -13.126  11.098  69.335  1.00  0.00     0.000 HD 
HETATM   21  C   UNL     1     -11.096  10.719  69.279  1.00  0.00    -0.256 C  
BRANCH  21  22
HETATM   22  C   UNL     1     -11.115  11.032  67.847  1.00  0.00    -0.288 A  
HETATM   23  N   UNL     1     -10.618  10.218  66.895  1.00  0.00    -0.238 NA 
HETATM   24  H   UNL     1     -10.188   9.301  67.012  1.00  0.00     0.000 HD 
HETATM   25  C   UNL     1     -11.639  12.219  67.285  1.00  0.00    -0.427 A  
HETATM   26  N   UNL     1     -10.824  10.902  65.751  1.00  0.00    -0.115 NA 
HETATM   27  C   UNL     1     -11.406  12.126  65.933  1.00  0.00    -0.356 A  
BRANCH  27  28
HETATM   28  C   UNL     1     -11.704  13.054  64.814  1.00  0.00    -0.345 C  
HETATM   29  C   UNL     1     -11.502  12.405  63.449  1.00  0.00    -0.526 C  
HETATM   30  O   UNL     1     -13.060  13.455  64.967  1.00  0.00    -0.734 OA 
HETATM   31  H   UNL     1     -13.251  14.049  64.250  1.00  0.00     0.000 HD 
ENDBRANCH  27  28
ENDBRANCH  21  22
ENDBRANCH   2  18
TORSDOF 6
ENDMDL
MODEL       66
REMARK 921   NORMALIZED FREE ENERGY PREDICTED BY IDOCK:   -5.85 KCAL/MOL
REMARK 922        TOTAL FREE ENERGY PREDICTED BY IDOCK:   -9.53 KCAL/MOL
REMARK 923 INTER-LIGAND FREE ENERGY PREDICTED BY IDOCK:   -8.34 KCAL/MOL
REMARK 924 INTRA-LIGAND FREE ENERGY PREDICTED BY IDOCK:   -1.19 KCAL/MOL
REMARK 927      BINDING AFFINITY PREDICTED BY RF-SCORE:    0.00 PKD
ROOT
HETATM    1  C   UNL     1     -13.293  11.328  72.195  1.00  0.00    -0.263 C  
HETATM    2  C   UNL     1     -12.544  10.239  71.418  1.00  0.00    -0.434 C  
ENDROOT
BRANCH   2   3
HETATM    3  C   UNL     1     -13.240   8.878  71.587  1.00  0.00    -0.362 C  
BRANCH   3   4
HETATM    4  N   UNL     1     -12.338   7.762  71.361  1.00  0.00    -0.319 NA 
HETATM    5  C   UNL     1     -11.644   7.074  72.309  1.00  0.00    -0.269 A  
HETATM    6  N   UNL     1     -12.108   7.328  70.110  1.00  0.00     0.068 NA 
HETATM    7  C   UNL     1     -11.225   6.324  70.252  1.00  0.00    -0.388 A  
HETATM    8  C   UNL     1     -10.926   6.123  71.628  1.00  0.00    -0.320 A  
BRANCH   7   9
HETATM    9  C   UNL     1     -10.686   5.609  69.088  1.00  0.00    -0.325 A  
HETATM   10  C   UNL     1      -9.983   4.405  69.259  1.00  0.00    -0.144 A  
HETATM   11  C   UNL     1     -10.874   6.093  67.786  1.00  0.00    -0.413 A  
HETATM   12  N   UNL     1      -8.861   2.933  64.746  1.00  0.00    -0.110 NA 
HETATM   13  C   UNL     1     -10.382   5.384  66.683  1.00  0.00    -0.325 A  
HETATM   14 CL   UNL     1      -8.651   2.216  68.462  1.00  0.00    -0.091 Cl 
HETATM   15  C   UNL     1      -9.694   4.180  66.863  1.00  0.00    -0.232 A  
HETATM   16  C   UNL     1      -9.223   3.476  65.706  1.00  0.00    -0.160 C  
HETATM   17  C   UNL     1      -9.493   3.694  68.157  1.00  0.00    -0.156 A  
ENDBRANCH   7   9
ENDBRANCH   3   4
ENDBRANCH   2   3
BRANCH   2  18
HETATM   18  N   UNL     1     -12.370  10.638  70.025  1.00  0.00    -0.450 N  
HETATM   19  O   UNL     1     -10.102  10.322  69.932  1.00  0.00    -0.237 OA 
HETATM   20  H   UNL     1     -13.194  10.928  69.500  1.00  0.00     0.000 HD 
HETATM   21  C   UNL     1     -11.152  10.642  69.385  1.00  0.00    -0.260 C  
BRANCH  21  22
HETATM   22  C   UNL     1     -11.206  11.084  67.988  1.00  0.00    -0.309 A  
HETATM   23  N   UNL     1     -12.006  12.073  67.545  1.00  0.00    -0.578 NA 
HETATM   24  H   UNL     1     -12.655  12.647  68.083  1.00  0.00     0.000 HD 
HETATM   25  C   UNL     1     -10.442  10.531  66.934  1.00  0.00    -0.303 A  
HETATM   26  N   UNL     1     -11.748  12.124  66.222  1.00  0.00    -0.544 NA 
HETATM   27  C   UNL     1     -10.838  11.196  65.798  1.00  0.00    -0.151 A  
BRANCH  27  28
HETATM   28  C   UNL     1     -10.423  11.060  64.380  1.00  0.00    -0.354 C  
HETATM   29  C   UNL     1     -11.168  12.021  63.459  1.00  0.00    -0.526 C  
HETATM   30  O   UNL     1      -9.027  11.329  64.336  1.00  0.00    -0.382 OA 
HETATM   31  H   UNL     1      -8.761  11.243  63.428  1.00  0.00     0.000 HD 
ENDBRANCH  27  28
ENDBRANCH  21  22
ENDBRANCH   2  18
TORSDOF 6
ENDMDL
MODEL       67
REMARK 921   NORMALIZED FREE ENERGY PREDICTED BY IDOCK:   -5.85 KCAL/MOL
REMARK 922        TOTAL FREE ENERGY PREDICTED BY IDOCK:   -9.52 KCAL/MOL
REMARK 923 INTER-LIGAND FREE ENERGY PREDICTED BY IDOCK:   -7.98 KCAL/MOL
REMARK 924 INTRA-LIGAND FREE ENERGY PREDICTED BY IDOCK:   -1.54 KCAL/MOL
REMARK 927      BINDING AFFINITY PREDICTED BY RF-SCORE:    0.00 PKD
ROOT
HETATM    1  C   UNL     1      -8.025   7.690  64.663  1.00  0.00    -0.136 C  
HETATM    2  C   UNL     1      -7.810   8.414  65.996  1.00  0.00    -0.098 C  
ENDROOT
BRANCH   2   3
HETATM    3  C   UNL     1      -7.702   9.933  65.777  1.00  0.00    -0.112 C  
BRANCH   3   4
HETATM    4  N   UNL     1      -8.950  10.623  66.055  1.00  0.00    -0.166 NA 
HETATM    5  C   UNL     1      -9.850  11.075  65.140  1.00  0.00    -0.268 A  
HETATM    6  N   UNL     1      -9.301  10.889  67.325  1.00  0.00    -0.155 NA 
HETATM    7  C   UNL     1     -10.470  11.545  67.229  1.00  0.00    -0.212 A  
HETATM    8  C   UNL     1     -10.857  11.662  65.865  1.00  0.00    -0.339 A  
BRANCH   7   9
HETATM    9  C   UNL     1     -11.164  12.051  68.420  1.00  0.00    -0.313 A  
HETATM   10  C   UNL     1     -11.547  11.170  69.444  1.00  0.00    -0.388 A  
HETATM   11  C   UNL     1     -11.442  13.416  68.575  1.00  0.00    -0.345 A  
HETATM   12  N   UNL     1     -13.577  13.997  72.863  1.00  0.00    -0.662 NA 
HETATM   13  C   UNL     1     -12.076  13.889  69.730  1.00  0.00    -0.404 A  
HETATM   14 CL   UNL     1     -12.604  10.487  71.815  1.00  0.00    -0.489 Cl 
HETATM   15  C   UNL     1     -12.443  13.006  70.751  1.00  0.00    -0.384 A  
HETATM   16  C   UNL     1     -13.073  13.533  71.926  1.00  0.00    -0.384 C  
HETATM   17  C   UNL     1     -12.179  11.641  70.601  1.00  0.00    -0.366 A  
ENDBRANCH   7   9
ENDBRANCH   3   4
ENDBRANCH   2   3
BRANCH   2  18
HETATM   18  N   UNL     1      -8.844   8.034  66.953  1.00  0.00    -0.128 N  
HETATM   19  O   UNL     1      -7.475   6.900  68.400  1.00  0.00    -0.093 OA 
HETATM   20  H   UNL     1      -9.804   8.322  66.767  1.00  0.00     0.000 HD 
HETATM   21  C   UNL     1      -8.592   7.305  68.093  1.00  0.00    -0.122 C  
BRANCH  21  22
HETATM   22  C   UNL     1      -9.778   7.029  68.909  1.00  0.00    -0.144 A  
HETATM   23  N   UNL     1     -10.998   6.777  68.396  1.00  0.00    -0.447 NA 
HETATM   24  H   UNL     1     -11.272   6.727  67.415  1.00  0.00     0.000 HD 
HETATM   25  C   UNL     1      -9.799   7.003  70.322  1.00  0.00    -0.180 A  
HETATM   26  N   UNL     1     -11.773   6.606  69.487  1.00  0.00    -0.203 NA 
HETATM   27  C   UNL     1     -11.107   6.764  70.671  1.00  0.00    -0.291 A  
BRANCH  27  28
HETATM   28  C   UNL     1     -11.770   6.641  71.993  1.00  0.00    -0.313 C  
HETATM   29  C   UNL     1     -11.094   7.490  73.065  1.00  0.00    -0.413 C  
HETATM   30  O   UNL     1     -13.116   7.064  71.816  1.00  0.00    -0.425 OA 
HETATM   31  H   UNL     1     -13.540   6.986  72.662  1.00  0.00     0.000 HD 
ENDBRANCH  27  28
ENDBRANCH  21  22
ENDBRANCH   2  18
TORSDOF 6
ENDMDL
MODEL       68
REMARK 921   NORMALIZED FREE ENERGY PREDICTED BY IDOCK:   -5.82 KCAL/MOL
REMARK 922        TOTAL FREE ENERGY PREDICTED BY IDOCK:   -9.49 KCAL/MOL
REMARK 923 INTER-LIGAND FREE ENERGY PREDICTED BY IDOCK:   -7.84 KCAL/MOL
REMARK 924 INTRA-LIGAND FREE ENERGY PREDICTED BY IDOCK:   -1.65 KCAL/MOL
REMARK 927      BINDING AFFINITY PREDICTED BY RF-SCORE:    0.00 PKD
ROOT
HETATM    1  C   UNL     1      -7.811   6.906  70.328  1.00  0.00    -0.109 C  
HETATM    2  C   UNL     1      -8.915   7.792  69.740  1.00  0.00    -0.146 C  
ENDROOT
BRANCH   2   3
HETATM    3  C   UNL     1      -9.049   9.095  70.546  1.00  0.00    -0.241 C  
BRANCH   3   4
HETATM    4  N   UNL     1     -10.113   9.948  70.047  1.00  0.00    -0.254 NA 
HETATM    5  C   UNL     1     -11.402   9.981  70.485  1.00  0.00    -0.335 A  
HETATM    6  N   UNL     1      -9.871  10.803  69.037  1.00  0.00    -0.203 NA 
HETATM    7  C   UNL     1     -11.050  11.408  68.808  1.00  0.00    -0.235 A  
HETATM    8  C   UNL     1     -12.033  10.928  69.717  1.00  0.00    -0.423 A  
BRANCH   7   9
HETATM    9  C   UNL     1     -11.207  12.395  67.733  1.00  0.00    -0.327 A  
HETATM   10  C   UNL     1     -11.703  12.004  66.479  1.00  0.00    -0.330 A  
HETATM   11  C   UNL     1     -10.889  13.746  67.933  1.00  0.00    -0.257 A  
HETATM   12  N   UNL     1     -11.919  16.112  63.858  1.00  0.00    -0.864 NA 
HETATM   13  C   UNL     1     -11.074  14.682  66.910  1.00  0.00    -0.333 A  
HETATM   14 CL   UNL     1     -12.519  12.371  63.948  1.00  0.00    -0.568 Cl 
HETATM   15  C   UNL     1     -11.581  14.286  65.668  1.00  0.00    -0.346 A  
HETATM   16  C   UNL     1     -11.774  15.280  64.652  1.00  0.00    -0.308 C  
HETATM   17  C   UNL     1     -11.891  12.940  65.455  1.00  0.00    -0.403 A  
ENDBRANCH   7   9
ENDBRANCH   3   4
ENDBRANCH   2   3
BRANCH   2  18
HETATM   18  N   UNL     1      -8.689   8.007  68.315  1.00  0.00    -0.130 N  
HETATM   19  O   UNL     1     -10.771   7.360  67.607  1.00  0.00    -0.237 OA 
HETATM   20  H   UNL     1      -7.774   8.344  68.016  1.00  0.00     0.000 HD 
HETATM   21  C   UNL     1      -9.646   7.777  67.352  1.00  0.00    -0.151 C  
BRANCH  21  22
HETATM   22  C   UNL     1      -9.203   8.053  65.983  1.00  0.00    -0.120 A  
HETATM   23  N   UNL     1      -8.784   7.102  65.124  1.00  0.00    -0.359 NA 
HETATM   24  H   UNL     1      -8.724   6.096  65.279  1.00  0.00     0.000 HD 
HETATM   25  C   UNL     1      -9.149   9.337  65.393  1.00  0.00    -0.277 A  
HETATM   26  N   UNL     1      -8.461   7.795  64.013  1.00  0.00     0.119 NA 
HETATM   27  C   UNL     1      -8.631   9.147  64.133  1.00  0.00    -0.170 A  
BRANCH  27  28
HETATM   28  C   UNL     1      -8.317  10.101  63.041  1.00  0.00    -0.169 C  
HETATM   29  C   UNL     1      -9.303  11.263  62.980  1.00  0.00    -0.359 C  
HETATM   30  O   UNL     1      -7.005  10.589  63.290  1.00  0.00    -0.299 OA 
HETATM   31  H   UNL     1      -6.804  11.200  62.591  1.00  0.00     0.000 HD 
ENDBRANCH  27  28
ENDBRANCH  21  22
ENDBRANCH   2  18
TORSDOF 6
ENDMDL
MODEL       69
REMARK 921   NORMALIZED FREE ENERGY PREDICTED BY IDOCK:   -5.82 KCAL/MOL
REMARK 922        TOTAL FREE ENERGY PREDICTED BY IDOCK:   -9.49 KCAL/MOL
REMARK 923 INTER-LIGAND FREE ENERGY PREDICTED BY IDOCK:   -8.51 KCAL/MOL
REMARK 924 INTRA-LIGAND FREE ENERGY PREDICTED BY IDOCK:   -0.98 KCAL/MOL
REMARK 927      BINDING AFFINITY PREDICTED BY RF-SCORE:    0.00 PKD
ROOT
HETATM    1  C   UNL     1      -8.995  17.028  66.335  1.00  0.00    -0.308 C  
HETATM    2  C   UNL     1     -10.498  16.761  66.198  1.00  0.00    -0.277 C  
ENDROOT
BRANCH   2   3
HETATM    3  C   UNL     1     -10.854  16.404  64.745  1.00  0.00    -0.178 C  
BRANCH   3   4
HETATM    4  N   UNL     1     -11.251  15.015  64.597  1.00  0.00    -0.361 NA 
HETATM    5  C   UNL     1     -12.493  14.553  64.285  1.00  0.00    -0.264 A  
HETATM    6  N   UNL     1     -10.351  14.036  64.792  1.00  0.00    -0.427 NA 
HETATM    7  C   UNL     1     -11.038  12.895  64.605  1.00  0.00    -0.324 A  
HETATM    8  C   UNL     1     -12.388  13.185  64.264  1.00  0.00    -0.421 A  
BRANCH   7   9
HETATM    9  C   UNL     1     -10.402  11.582  64.775  1.00  0.00    -0.341 A  
HETATM   10  C   UNL     1      -9.731  10.977  63.701  1.00  0.00    -0.364 A  
HETATM   11  C   UNL     1     -10.430  10.914  66.007  1.00  0.00    -0.287 A  
HETATM   12  N   UNL     1      -7.937   6.814  65.506  1.00  0.00    -0.112 NA 
HETATM   13  C   UNL     1      -9.793   9.678  66.164  1.00  0.00    -0.334 A  
HETATM   14 CL   UNL     1      -8.277   9.076  62.484  1.00  0.00    -0.158 Cl 
HETATM   15  C   UNL     1      -9.115   9.088  65.092  1.00  0.00    -0.203 A  
HETATM   16  C   UNL     1      -8.459   7.830  65.299  1.00  0.00    -0.084 C  
HETATM   17  C   UNL     1      -9.090   9.741  63.857  1.00  0.00    -0.233 A  
ENDBRANCH   7   9
ENDBRANCH   3   4
ENDBRANCH   2   3
BRANCH   2  18
HETATM   18  N   UNL     1     -10.926  15.758  67.168  1.00  0.00    -0.288 N  
HETATM   19  O   UNL     1     -10.723  17.075  69.033  1.00  0.00    -0.322 OA 
HETATM   20  H   UNL     1     -11.174  14.830  66.825  1.00  0.00     0.000 HD 
HETATM   21  C   UNL     1     -11.011  15.998  68.520  1.00  0.00    -0.326 C  
BRANCH  21  22
HETATM   22  C   UNL     1     -11.457  14.848  69.311  1.00  0.00    -0.303 A  
HETATM   23  N   UNL     1     -11.026  13.587  69.110  1.00  0.00    -0.376 NA 
HETATM   24  H   UNL     1     -10.349  13.254  68.423  1.00  0.00     0.000 HD 
HETATM   25  C   UNL     1     -12.393  14.907  70.369  1.00  0.00    -0.401 A  
HETATM   26  N   UNL     1     -11.701  12.868  70.031  1.00  0.00    -0.261 NA 
HETATM   27  C   UNL     1     -12.561  13.610  70.793  1.00  0.00    -0.325 A  
BRANCH  27  28
HETATM   28  C   UNL     1     -13.418  13.020  71.850  1.00  0.00    -0.408 C  
HETATM   29  C   UNL     1     -13.263  11.505  71.949  1.00  0.00    -0.479 C  
HETATM   30  O   UNL     1     -13.031  13.628  73.076  1.00  0.00    -0.346 OA 
HETATM   31  H   UNL     1     -13.579  13.250  73.753  1.00  0.00     0.000 HD 
ENDBRANCH  27  28
ENDBRANCH  21  22
ENDBRANCH   2  18
TORSDOF 6
ENDMDL
MODEL       70
REMARK 921   NORMALIZED FREE ENERGY PREDICTED BY IDOCK:   -5.82 KCAL/MOL
REMARK 922        TOTAL FREE ENERGY PREDICTED BY IDOCK:   -9.48 KCAL/MOL
REMARK 923 INTER-LIGAND FREE ENERGY PREDICTED BY IDOCK:   -8.70 KCAL/MOL
REMARK 924 INTRA-LIGAND FREE ENERGY PREDICTED BY IDOCK:   -0.78 KCAL/MOL
REMARK 927      BINDING AFFINITY PREDICTED BY RF-SCORE:    0.00 PKD
ROOT
HETATM    1  C   UNL     1     -10.084  10.105  65.508  1.00  0.00    -0.338 C  
HETATM    2  C   UNL     1     -10.324  11.202  66.551  1.00  0.00    -0.243 C  
ENDROOT
BRANCH   2   3
HETATM    3  C   UNL     1     -11.382  12.201  66.053  1.00  0.00    -0.358 C  
BRANCH   3   4
HETATM    4  N   UNL     1     -11.217  13.520  66.637  1.00  0.00    -0.306 NA 
HETATM    5  C   UNL     1     -11.964  14.066  67.637  1.00  0.00    -0.368 A  
HETATM    6  N   UNL     1     -10.260  14.344  66.176  1.00  0.00    -0.295 NA 
HETATM    7  C   UNL     1     -10.395  15.468  66.900  1.00  0.00    -0.290 A  
HETATM    8  C   UNL     1     -11.448  15.321  67.846  1.00  0.00    -0.325 A  
BRANCH   7   9
HETATM    9  C   UNL     1      -9.544  16.640  66.660  1.00  0.00    -0.280 A  
HETATM   10  C   UNL     1     -10.062  17.936  66.818  1.00  0.00    -0.349 A  
HETATM   11  C   UNL     1      -8.199  16.499  66.290  1.00  0.00    -0.360 A  
HETATM   12  N   UNL     1      -6.311  20.923  65.918  1.00  0.00    -0.244 NA 
HETATM   13  C   UNL     1      -7.390  17.625  66.096  1.00  0.00    -0.344 A  
HETATM   14 CL   UNL     1      -9.971  20.619  66.854  1.00  0.00    -0.476 Cl 
HETATM   15  C   UNL     1      -7.911  18.911  66.267  1.00  0.00    -0.299 A  
HETATM   16  C   UNL     1      -7.044  20.038  66.077  1.00  0.00    -0.283 C  
HETATM   17  C   UNL     1      -9.253  19.063  66.626  1.00  0.00    -0.329 A  
ENDBRANCH   7   9
ENDBRANCH   3   4
ENDBRANCH   2   3
BRANCH   2  18
HETATM   18  N   UNL     1     -10.642  10.610  67.846  1.00  0.00    -0.210 N  
HETATM   19  O   UNL     1      -8.601  10.975  68.823  1.00  0.00    -0.152 OA 
HETATM   20  H   UNL     1     -11.575  10.221  67.984  1.00  0.00     0.000 HD 
HETATM   21  C   UNL     1      -9.749  10.548  68.892  1.00  0.00    -0.199 C  
BRANCH  21  22
HETATM   22  C   UNL     1     -10.276   9.906  70.099  1.00  0.00    -0.273 A  
HETATM   23  N   UNL     1      -9.510   9.512  71.135  1.00  0.00    -0.318 NA 
HETATM   24  H   UNL     1      -8.500   9.606  71.243  1.00  0.00     0.000 HD 
HETATM   25  C   UNL     1     -11.640   9.609  70.329  1.00  0.00    -0.255 A  
HETATM   26  N   UNL     1     -10.392   8.965  71.996  1.00  0.00    -0.340 NA 
HETATM   27  C   UNL     1     -11.683   8.968  71.544  1.00  0.00    -0.345 A  
BRANCH  27  28
HETATM   28  C   UNL     1     -12.812   8.397  72.320  1.00  0.00    -0.317 C  
HETATM   29  C   UNL     1     -14.029   9.316  72.340  1.00  0.00    -0.432 C  
HETATM   30  O   UNL     1     -13.147   7.161  71.702  1.00  0.00    -0.372 OA 
HETATM   31  H   UNL     1     -13.870   6.796  72.198  1.00  0.00     0.000 HD 
ENDBRANCH  27  28
ENDBRANCH  21  22
ENDBRANCH   2  18
TORSDOF 6
ENDMDL
MODEL       71
REMARK 921   NORMALIZED FREE ENERGY PREDICTED BY IDOCK:   -5.82 KCAL/MOL
REMARK 922        TOTAL FREE ENERGY PREDICTED BY IDOCK:   -9.48 KCAL/MOL
REMARK 923 INTER-LIGAND FREE ENERGY PREDICTED BY IDOCK:   -7.62 KCAL/MOL
REMARK 924 INTRA-LIGAND FREE ENERGY PREDICTED BY IDOCK:   -1.86 KCAL/MOL
REMARK 927      BINDING AFFINITY PREDICTED BY RF-SCORE:    0.00 PKD
ROOT
HETATM    1  C   UNL     1      -5.854   9.853  63.507  1.00  0.00    -0.116 C  
HETATM    2  C   UNL     1      -6.783   9.808  64.725  1.00  0.00    -0.114 C  
ENDROOT
BRANCH   2   3
HETATM    3  C   UNL     1      -6.030  10.233  65.997  1.00  0.00    -0.089 C  
BRANCH   3   4
HETATM    4  N   UNL     1      -6.877  10.957  66.928  1.00  0.00    -0.105 NA 
HETATM    5  C   UNL     1      -7.544  10.436  67.994  1.00  0.00    -0.091 A  
HETATM    6  N   UNL     1      -7.081  12.276  66.765  1.00  0.00     0.063 NA 
HETATM    7  C   UNL     1      -7.916  12.622  67.759  1.00  0.00    -0.158 A  
HETATM    8  C   UNL     1      -8.213  11.489  68.567  1.00  0.00    -0.148 A  
BRANCH   7   9
HETATM    9  C   UNL     1      -8.415  13.996  67.898  1.00  0.00    -0.170 A  
HETATM   10  C   UNL     1      -9.552  14.261  68.677  1.00  0.00    -0.192 A  
HETATM   11  C   UNL     1      -7.764  15.072  67.279  1.00  0.00    -0.233 A  
HETATM   12  N   UNL     1     -10.113  19.104  68.503  1.00  0.00    -0.413 NA 
HETATM   13  C   UNL     1      -8.232  16.380  67.445  1.00  0.00    -0.178 A  
HETATM   14 CL   UNL     1     -11.420  15.804  69.833  1.00  0.00    -0.320 Cl 
HETATM   15  C   UNL     1      -9.358  16.637  68.234  1.00  0.00    -0.224 A  
HETATM   16  C   UNL     1      -9.794  17.993  68.394  1.00  0.00    -0.366 C  
HETATM   17  C   UNL     1     -10.020  15.569  68.846  1.00  0.00    -0.218 A  
ENDBRANCH   7   9
ENDBRANCH   3   4
ENDBRANCH   2   3
BRANCH   2  18
HETATM   18  N   UNL     1      -7.989  10.589  64.472  1.00  0.00    -0.330 N  
HETATM   19  O   UNL     1      -9.493   9.000  65.155  1.00  0.00    -0.142 OA 
HETATM   20  H   UNL     1      -7.885  11.531  64.096  1.00  0.00     0.000 HD 
HETATM   21  C   UNL     1      -9.261  10.121  64.715  1.00  0.00    -0.242 C  
BRANCH  21  22
HETATM   22  C   UNL     1     -10.327  11.070  64.383  1.00  0.00    -0.358 A  
HETATM   23  N   UNL     1     -11.041  11.027  63.241  1.00  0.00    -0.714 NA 
HETATM   24  H   UNL     1     -10.966  10.356  62.476  1.00  0.00     0.000 HD 
HETATM   25  C   UNL     1     -10.735  12.149  65.201  1.00  0.00    -0.333 A  
HETATM   26  N   UNL     1     -11.878  12.079  63.347  1.00  0.00    -0.463 NA 
HETATM   27  C   UNL     1     -11.713  12.806  64.493  1.00  0.00    -0.366 A  
BRANCH  27  28
HETATM   28  C   UNL     1     -12.513  14.016  64.805  1.00  0.00    -0.365 C  
HETATM   29  C   UNL     1     -12.370  14.451  66.260  1.00  0.00    -0.325 C  
HETATM   30  O   UNL     1     -12.049  15.046  63.941  1.00  0.00    -0.905 OA 
HETATM   31  H   UNL     1     -12.561  15.821  64.141  1.00  0.00     0.000 HD 
ENDBRANCH  27  28
ENDBRANCH  21  22
ENDBRANCH   2  18
TORSDOF 6
ENDMDL
MODEL       72
REMARK 921   NORMALIZED FREE ENERGY PREDICTED BY IDOCK:   -5.80 KCAL/MOL
REMARK 922        TOTAL FREE ENERGY PREDICTED BY IDOCK:   -9.46 KCAL/MOL
REMARK 923 INTER-LIGAND FREE ENERGY PREDICTED BY IDOCK:   -8.27 KCAL/MOL
REMARK 924 INTRA-LIGAND FREE ENERGY PREDICTED BY IDOCK:   -1.19 KCAL/MOL
REMARK 927      BINDING AFFINITY PREDICTED BY RF-SCORE:    0.00 PKD
ROOT
HETATM    1  C   UNL     1     -13.507   6.848  71.209  1.00  0.00    -0.177 C  
HETATM    2  C   UNL     1     -12.368   7.505  71.996  1.00  0.00    -0.271 C  
ENDROOT
BRANCH   2   3
HETATM    3  C   UNL     1     -11.033   6.795  71.711  1.00  0.00    -0.235 C  
BRANCH   3   4
HETATM    4  N   UNL     1     -10.171   7.568  70.834  1.00  0.00    -0.193 NA 
HETATM    5  C   UNL     1      -8.926   8.036  71.125  1.00  0.00    -0.141 A  
HETATM    6  N   UNL     1     -10.593   7.905  69.604  1.00  0.00    -0.237 NA 
HETATM    7  C   UNL     1      -9.586   8.624  69.078  1.00  0.00    -0.163 A  
HETATM    8  C   UNL     1      -8.509   8.709  70.004  1.00  0.00    -0.130 A  
BRANCH   7   9
HETATM    9  C   UNL     1      -9.686   9.216  67.739  1.00  0.00    -0.188 A  
HETATM   10  C   UNL     1     -10.605  10.247  67.487  1.00  0.00    -0.320 A  
HETATM   11  C   UNL     1      -8.860   8.788  66.690  1.00  0.00    -0.153 A  
HETATM   12  N   UNL     1      -9.894  11.475  62.820  1.00  0.00    -0.233 NA 
HETATM   13  C   UNL     1      -8.943   9.384  65.427  1.00  0.00    -0.251 A  
HETATM   14 CL   UNL     1     -11.840  12.117  66.009  1.00  0.00    -0.406 Cl 
HETATM   15  C   UNL     1      -9.853  10.419  65.189  1.00  0.00    -0.378 A  
HETATM   16  C   UNL     1      -9.894  11.015  63.885  1.00  0.00    -0.317 C  
HETATM   17  C   UNL     1     -10.688  10.846  66.224  1.00  0.00    -0.176 A  
ENDBRANCH   7   9
ENDBRANCH   3   4
ENDBRANCH   2   3
BRANCH   2  18
HETATM   18  N   UNL     1     -12.333   8.940  71.737  1.00  0.00    -0.333 N  
HETATM   19  O   UNL     1     -14.289   9.460  72.813  1.00  0.00    -0.407 OA 
HETATM   20  H   UNL     1     -11.550   9.316  71.204  1.00  0.00     0.000 HD 
HETATM   21  C   UNL     1     -13.303   9.813  72.176  1.00  0.00    -0.431 C  
BRANCH  21  22
HETATM   22  C   UNL     1     -13.072  11.211  71.798  1.00  0.00    -0.431 A  
HETATM   23  N   UNL     1     -13.691  12.257  72.380  1.00  0.00    -0.484 NA 
HETATM   24  H   UNL     1     -14.369  12.244  73.142  1.00  0.00     0.000 HD 
HETATM   25  C   UNL     1     -12.190  11.639  70.779  1.00  0.00    -0.443 A  
HETATM   26  N   UNL     1     -13.203  13.326  71.718  1.00  0.00    -0.414 NA 
HETATM   27  C   UNL     1     -12.321  13.006  70.723  1.00  0.00    -0.310 A  
BRANCH  27  28
HETATM   28  C   UNL     1     -11.679  14.024  69.854  1.00  0.00    -0.303 C  
HETATM   29  C   UNL     1     -10.729  13.406  68.834  1.00  0.00    -0.219 C  
HETATM   30  O   UNL     1     -12.730  14.712  69.186  1.00  0.00    -0.525 OA 
HETATM   31  H   UNL     1     -12.319  15.363  68.630  1.00  0.00     0.000 HD 
ENDBRANCH  27  28
ENDBRANCH  21  22
ENDBRANCH   2  18
TORSDOF 6
ENDMDL
MODEL       73
REMARK 921   NORMALIZED FREE ENERGY PREDICTED BY IDOCK:   -5.79 KCAL/MOL
REMARK 922        TOTAL FREE ENERGY PREDICTED BY IDOCK:   -9.45 KCAL/MOL
REMARK 923 INTER-LIGAND FREE ENERGY PREDICTED BY IDOCK:   -9.09 KCAL/MOL
REMARK 924 INTRA-LIGAND FREE ENERGY PREDICTED BY IDOCK:   -0.36 KCAL/MOL
REMARK 927      BINDING AFFINITY PREDICTED BY RF-SCORE:    0.00 PKD
ROOT
HETATM    1  C   UNL     1     -11.917  13.077  70.021  1.00  0.00    -0.383 C  
HETATM    2  C   UNL     1     -11.719  11.743  69.292  1.00  0.00    -0.335 C  
ENDROOT
BRANCH   2   3
HETATM    3  C   UNL     1     -10.784  11.919  68.084  1.00  0.00    -0.215 C  
BRANCH   3   4
HETATM    4  N   UNL     1     -10.943  13.213  67.444  1.00  0.00    -0.259 NA 
HETATM    5  C   UNL     1     -11.876  13.550  66.511  1.00  0.00    -0.399 A  
HETATM    6  N   UNL     1     -10.102  14.218  67.745  1.00  0.00    -0.229 NA 
HETATM    7  C   UNL     1     -10.502  15.244  66.974  1.00  0.00    -0.292 A  
HETATM    8  C   UNL     1     -11.632  14.864  66.197  1.00  0.00    -0.228 A  
BRANCH   7   9
HETATM    9  C   UNL     1      -9.795  16.531  66.984  1.00  0.00    -0.259 A  
HETATM   10  C   UNL     1     -10.271  17.594  67.768  1.00  0.00    -0.354 A  
HETATM   11  C   UNL     1      -8.626  16.724  66.235  1.00  0.00    -0.340 A  
HETATM   12  N   UNL     1      -7.053  21.200  67.108  1.00  0.00    -0.469 NA 
HETATM   13  C   UNL     1      -7.944  17.945  66.279  1.00  0.00    -0.279 A  
HETATM   14 CL   UNL     1     -10.239  20.064  68.818  1.00  0.00    -0.503 Cl 
HETATM   15  C   UNL     1      -8.418  18.995  67.073  1.00  0.00    -0.300 A  
HETATM   16  C   UNL     1      -7.679  20.224  67.105  1.00  0.00    -0.323 C  
HETATM   17  C   UNL     1      -9.588  18.816  67.815  1.00  0.00    -0.312 A  
ENDBRANCH   7   9
ENDBRANCH   3   4
ENDBRANCH   2   3
BRANCH   2  18
HETATM   18  N   UNL     1     -11.278  10.714  70.228  1.00  0.00    -0.383 N  
HETATM   19  O   UNL     1     -13.364  10.020  70.877  1.00  0.00    -0.382 OA 
HETATM   20  H   UNL     1     -10.275  10.575  70.355  1.00  0.00     0.000 HD 
HETATM   21  C   UNL     1     -12.143   9.922  70.949  1.00  0.00    -0.341 C  
BRANCH  21  22
HETATM   22  C   UNL     1     -11.484   8.958  71.834  1.00  0.00    -0.372 A  
HETATM   23  N   UNL     1     -12.146   8.078  72.610  1.00  0.00    -0.593 NA 
HETATM   24  H   UNL     1     -13.154   7.942  72.689  1.00  0.00     0.000 HD 
HETATM   25  C   UNL     1     -10.085   8.833  71.997  1.00  0.00    -0.397 A  
HETATM   26  N   UNL     1     -11.163   7.420  73.258  1.00  0.00    -0.267 NA 
HETATM   27  C   UNL     1      -9.905   7.858  72.949  1.00  0.00    -0.282 A  
BRANCH  27  28
HETATM   28  C   UNL     1      -8.678   7.290  73.561  1.00  0.00    -0.159 C  
HETATM   29  C   UNL     1      -7.910   8.315  74.388  1.00  0.00    -0.301 C  
HETATM   30  O   UNL     1      -9.097   6.212  74.389  1.00  0.00    -0.133 OA 
HETATM   31  H   UNL     1      -8.312   5.849  74.781  1.00  0.00     0.000 HD 
ENDBRANCH  27  28
ENDBRANCH  21  22
ENDBRANCH   2  18
TORSDOF 6
ENDMDL
MODEL       74
REMARK 921   NORMALIZED FREE ENERGY PREDICTED BY IDOCK:   -5.79 KCAL/MOL
REMARK 922        TOTAL FREE ENERGY PREDICTED BY IDOCK:   -9.45 KCAL/MOL
REMARK 923 INTER-LIGAND FREE ENERGY PREDICTED BY IDOCK:   -8.02 KCAL/MOL
REMARK 924 INTRA-LIGAND FREE ENERGY PREDICTED BY IDOCK:   -1.42 KCAL/MOL
REMARK 927      BINDING AFFINITY PREDICTED BY RF-SCORE:    0.00 PKD
ROOT
HETATM    1  C   UNL     1      -9.061  15.030  68.929  1.00  0.00    -0.202 C  
HETATM    2  C   UNL     1      -9.786  13.974  68.087  1.00  0.00    -0.220 C  
ENDROOT
BRANCH   2   3
HETATM    3  C   UNL     1      -8.963  13.620  66.837  1.00  0.00    -0.218 C  
BRANCH   3   4
HETATM    4  N   UNL     1      -9.396  12.378  66.222  1.00  0.00    -0.219 NA 
HETATM    5  C   UNL     1     -10.144  12.247  65.092  1.00  0.00    -0.261 A  
HETATM    6  N   UNL     1      -9.075  11.201  66.787  1.00  0.00    -0.162 NA 
HETATM    7  C   UNL     1      -9.641  10.273  65.997  1.00  0.00    -0.206 A  
HETATM    8  C   UNL     1     -10.307  10.897  64.905  1.00  0.00    -0.371 A  
BRANCH   7   9
HETATM    9  C   UNL     1      -9.550   8.841  66.310  1.00  0.00    -0.328 A  
HETATM   10  C   UNL     1     -10.385   8.275  67.286  1.00  0.00    -0.372 A  
HETATM   11  C   UNL     1      -8.650   8.005  65.635  1.00  0.00    -0.167 A  
HETATM   12  N   UNL     1      -9.281   3.524  67.308  1.00  0.00    -0.179 NA 
HETATM   13  C   UNL     1      -8.596   6.636  65.922  1.00  0.00    -0.153 A  
HETATM   14 CL   UNL     1     -11.408   6.294  68.780  1.00  0.00    -0.361 Cl 
HETATM   15  C   UNL     1      -9.440   6.078  66.887  1.00  0.00    -0.146 A  
HETATM   16  C   UNL     1      -9.367   4.668  67.136  1.00  0.00    -0.142 C  
HETATM   17  C   UNL     1     -10.334   6.906  67.572  1.00  0.00    -0.217 A  
ENDBRANCH   7   9
ENDBRANCH   3   4
ENDBRANCH   2   3
BRANCH   2  18
HETATM   18  N   UNL     1     -10.128  12.817  68.909  1.00  0.00    -0.424 N  
HETATM   19  O   UNL     1     -12.279  12.574  68.157  1.00  0.00    -0.270 OA 
HETATM   20  H   UNL     1      -9.419  12.448  69.542  1.00  0.00     0.000 HD 
HETATM   21  C   UNL     1     -11.357  12.199  68.874  1.00  0.00    -0.283 C  
BRANCH  21  22
HETATM   22  C   UNL     1     -11.486  11.059  69.786  1.00  0.00    -0.311 A  
HETATM   23  N   UNL     1     -10.437  10.380  70.291  1.00  0.00    -0.442 NA 
HETATM   24  H   UNL     1      -9.443  10.551  70.138  1.00  0.00     0.000 HD 
HETATM   25  C   UNL     1     -12.712  10.522  70.242  1.00  0.00    -0.255 A  
HETATM   26  N   UNL     1     -11.011   9.421  71.046  1.00  0.00    -0.309 NA 
HETATM   27  C   UNL     1     -12.378   9.442  71.025  1.00  0.00    -0.258 A  
BRANCH  27  28
HETATM   28  C   UNL     1     -13.213   8.465  71.767  1.00  0.00    -0.355 C  
HETATM   29  C   UNL     1     -12.490   7.143  72.006  1.00  0.00    -0.277 C  
HETATM   30  O   UNL     1     -13.542   9.071  73.011  1.00  0.00    -0.915 OA 
HETATM   31  H   UNL     1     -14.076   8.446  73.485  1.00  0.00     0.000 HD 
ENDBRANCH  27  28
ENDBRANCH  21  22
ENDBRANCH   2  18
TORSDOF 6
ENDMDL
MODEL       75
REMARK 921   NORMALIZED FREE ENERGY PREDICTED BY IDOCK:   -5.78 KCAL/MOL
REMARK 922        TOTAL FREE ENERGY PREDICTED BY IDOCK:   -9.43 KCAL/MOL
REMARK 923 INTER-LIGAND FREE ENERGY PREDICTED BY IDOCK:   -8.62 KCAL/MOL
REMARK 924 INTRA-LIGAND FREE ENERGY PREDICTED BY IDOCK:   -0.81 KCAL/MOL
REMARK 927      BINDING AFFINITY PREDICTED BY RF-SCORE:    0.00 PKD
ROOT
HETATM    1  C   UNL     1     -10.387  10.561  65.069  1.00  0.00    -0.310 C  
HETATM    2  C   UNL     1     -10.543  11.363  66.366  1.00  0.00    -0.263 C  
ENDROOT
BRANCH   2   3
HETATM    3  C   UNL     1     -11.642  12.429  66.214  1.00  0.00    -0.393 C  
BRANCH   3   4
HETATM    4  N   UNL     1     -11.429  13.572  67.085  1.00  0.00    -0.321 NA 
HETATM    5  C   UNL     1     -12.027  13.802  68.286  1.00  0.00    -0.357 A  
HETATM    6  N   UNL     1     -10.582  14.548  66.716  1.00  0.00    -0.273 NA 
HETATM    7  C   UNL     1     -10.637  15.448  67.713  1.00  0.00    -0.274 A  
HETATM    8  C   UNL     1     -11.524  14.999  68.731  1.00  0.00    -0.337 A  
BRANCH   7   9
HETATM    9  C   UNL     1      -9.870  16.699  67.659  1.00  0.00    -0.256 A  
HETATM   10  C   UNL     1      -8.715  16.855  68.440  1.00  0.00    -0.244 A  
HETATM   11  C   UNL     1     -10.256  17.752  66.819  1.00  0.00    -0.351 A  
HETATM   12  N   UNL     1      -6.992  21.273  67.296  1.00  0.00    -0.548 NA 
HETATM   13  C   UNL     1      -9.498  18.927  66.753  1.00  0.00    -0.352 A  
HETATM   14 CL   UNL     1      -6.539  18.128  69.362  1.00  0.00    -0.239 Cl 
HETATM   15  C   UNL     1      -8.341  19.069  67.526  1.00  0.00    -0.303 A  
HETATM   16  C   UNL     1      -7.581  20.281  67.415  1.00  0.00    -0.314 C  
HETATM   17  C   UNL     1      -7.954  18.028  68.374  1.00  0.00    -0.300 A  
ENDBRANCH   7   9
ENDBRANCH   3   4
ENDBRANCH   2   3
BRANCH   2  18
HETATM   18  N   UNL     1     -10.752  10.464  67.496  1.00  0.00    -0.266 N  
HETATM   19  O   UNL     1      -9.061  11.279  68.810  1.00  0.00    -0.174 OA 
HETATM   20  H   UNL     1     -11.502   9.775  67.433  1.00  0.00     0.000 HD 
HETATM   21  C   UNL     1      -9.991  10.498  68.642  1.00  0.00    -0.181 C  
BRANCH  21  22
HETATM   22  C   UNL     1     -10.370   9.501  69.648  1.00  0.00    -0.221 A  
HETATM   23  N   UNL     1     -11.531   8.817  69.626  1.00  0.00    -0.407 NA 
HETATM   24  H   UNL     1     -12.282   8.872  68.938  1.00  0.00     0.000 HD 
HETATM   25  C   UNL     1      -9.583   9.139  70.765  1.00  0.00    -0.338 A  
HETATM   26  N   UNL     1     -11.467   8.044  70.730  1.00  0.00    -0.278 NA 
HETATM   27  C   UNL     1     -10.330   8.223  71.468  1.00  0.00    -0.214 A  
BRANCH  27  28
HETATM   28  C   UNL     1     -10.062   7.491  72.730  1.00  0.00    -0.240 C  
HETATM   29  C   UNL     1      -9.007   8.179  73.591  1.00  0.00    -0.275 C  
HETATM   30  O   UNL     1     -11.296   7.426  73.434  1.00  0.00    -0.589 OA 
HETATM   31  H   UNL     1     -11.125   6.958  74.242  1.00  0.00     0.000 HD 
ENDBRANCH  27  28
ENDBRANCH  21  22
ENDBRANCH   2  18
TORSDOF 6
ENDMDL
MODEL       76
REMARK 921   NORMALIZED FREE ENERGY PREDICTED BY IDOCK:   -5.77 KCAL/MOL
REMARK 922        TOTAL FREE ENERGY PREDICTED BY IDOCK:   -9.41 KCAL/MOL
REMARK 923 INTER-LIGAND FREE ENERGY PREDICTED BY IDOCK:   -8.40 KCAL/MOL
REMARK 924 INTRA-LIGAND FREE ENERGY PREDICTED BY IDOCK:   -1.01 KCAL/MOL
REMARK 927      BINDING AFFINITY PREDICTED BY RF-SCORE:    0.00 PKD
ROOT
HETATM    1  C   UNL     1     -13.906   9.290  72.856  1.00  0.00    -0.057 C  
HETATM    2  C   UNL     1     -12.839   8.749  71.898  1.00  0.00    -0.375 C  
ENDROOT
BRANCH   2   3
HETATM    3  C   UNL     1     -13.153   7.295  71.504  1.00  0.00    -0.384 C  
BRANCH   3   4
HETATM    4  N   UNL     1     -11.973   6.575  71.059  1.00  0.00    -0.347 NA 
HETATM    5  C   UNL     1     -10.984   6.068  71.847  1.00  0.00    -0.264 A  
HETATM    6  N   UNL     1     -11.766   6.371  69.747  1.00  0.00    -0.342 NA 
HETATM    7  C   UNL     1     -10.597   5.711  69.680  1.00  0.00    -0.331 A  
HETATM    8  C   UNL     1     -10.085   5.486  70.989  1.00  0.00    -0.271 A  
BRANCH   7   9
HETATM    9  C   UNL     1      -9.999   5.339  68.391  1.00  0.00    -0.220 A  
HETATM   10  C   UNL     1      -8.881   4.492  68.348  1.00  0.00    -0.126 A  
HETATM   11  C   UNL     1     -10.537   5.798  67.181  1.00  0.00    -0.365 A  
HETATM   12  N   UNL     1      -7.939   3.870  63.602  1.00  0.00    -0.086 NA 
HETATM   13  C   UNL     1      -9.977   5.410  65.959  1.00  0.00    -0.118 A  
HETATM   14 CL   UNL     1      -6.953   3.044  67.167  1.00  0.00    -0.049 Cl 
HETATM   15  C   UNL     1      -8.870   4.555  65.924  1.00  0.00    -0.121 A  
HETATM   16  C   UNL     1      -8.339   4.165  64.651  1.00  0.00    -0.104 C  
HETATM   17  C   UNL     1      -8.321   4.100  67.126  1.00  0.00    -0.100 A  
ENDBRANCH   7   9
ENDBRANCH   3   4
ENDBRANCH   2   3
BRANCH   2  18
HETATM   18  N   UNL     1     -12.682   9.643  70.756  1.00  0.00    -0.519 N  
HETATM   19  O   UNL     1     -10.396   9.797  70.842  1.00  0.00    -0.286 OA 
HETATM   20  H   UNL     1     -13.520   9.949  70.263  1.00  0.00     0.000 HD 
HETATM   21  C   UNL     1     -11.461  10.096  70.310  1.00  0.00    -0.306 C  
BRANCH  21  22
HETATM   22  C   UNL     1     -11.534  10.990  69.151  1.00  0.00    -0.301 A  
HETATM   23  N   UNL     1     -11.564  10.562  67.874  1.00  0.00    -0.701 NA 
HETATM   24  H   UNL     1     -11.555   9.601  67.532  1.00  0.00     0.000 HD 
HETATM   25  C   UNL     1     -11.572  12.402  69.220  1.00  0.00    -0.379 A  
HETATM   26  N   UNL     1     -11.609  11.702  67.156  1.00  0.00    -0.547 NA 
HETATM   27  C   UNL     1     -11.583  12.839  67.916  1.00  0.00    -0.351 A  
BRANCH  27  28
HETATM   28  C   UNL     1     -11.603  14.202  67.332  1.00  0.00    -0.372 C  
HETATM   29  C   UNL     1     -12.354  14.258  66.005  1.00  0.00    -0.416 C  
HETATM   30  O   UNL     1     -12.238  15.046  68.286  1.00  0.00    -0.568 OA 
HETATM   31  H   UNL     1     -12.251  15.918  67.911  1.00  0.00     0.000 HD 
ENDBRANCH  27  28
ENDBRANCH  21  22
ENDBRANCH   2  18
TORSDOF 6
ENDMDL
MODEL       77
REMARK 921   NORMALIZED FREE ENERGY PREDICTED BY IDOCK:   -5.76 KCAL/MOL
REMARK 922        TOTAL FREE ENERGY PREDICTED BY IDOCK:   -9.40 KCAL/MOL
REMARK 923 INTER-LIGAND FREE ENERGY PREDICTED BY IDOCK:   -8.29 KCAL/MOL
REMARK 924 INTRA-LIGAND FREE ENERGY PREDICTED BY IDOCK:   -1.10 KCAL/MOL
REMARK 927      BINDING AFFINITY PREDICTED BY RF-SCORE:    0.00 PKD
ROOT
HETATM    1  C   UNL     1     -11.493  15.108  71.432  1.00  0.00    -0.405 C  
HETATM    2  C   UNL     1     -12.062  14.427  70.183  1.00  0.00    -0.335 C  
ENDROOT
BRANCH   2   3
HETATM    3  C   UNL     1     -11.580  15.143  68.909  1.00  0.00    -0.341 C  
BRANCH   3   4
HETATM    4  N   UNL     1     -11.512  14.251  67.764  1.00  0.00    -0.310 NA 
HETATM    5  C   UNL     1     -12.450  14.109  66.788  1.00  0.00    -0.165 A  
HETATM    6  N   UNL     1     -10.449  13.444  67.604  1.00  0.00    -0.238 NA 
HETATM    7  C   UNL     1     -10.711  12.748  66.484  1.00  0.00    -0.258 A  
HETATM    8  C   UNL     1     -11.957  13.157  65.932  1.00  0.00    -0.479 A  
BRANCH   7   9
HETATM    9  C   UNL     1      -9.791  11.715  65.992  1.00  0.00    -0.258 A  
HETATM   10  C   UNL     1      -9.894  11.246  64.673  1.00  0.00    -0.314 A  
HETATM   11  C   UNL     1      -8.781  11.190  66.811  1.00  0.00    -0.157 A  
HETATM   12  N   UNL     1      -6.265   8.022  64.183  1.00  0.00    -0.061 NA 
HETATM   13  C   UNL     1      -7.891  10.229  66.319  1.00  0.00    -0.118 A  
HETATM   14 CL   UNL     1      -9.196   9.775  62.538  1.00  0.00    -0.301 Cl 
HETATM   15  C   UNL     1      -7.993   9.776  64.999  1.00  0.00    -0.131 A  
HETATM   16  C   UNL     1      -7.049   8.805  64.528  1.00  0.00    -0.085 C  
HETATM   17  C   UNL     1      -9.002  10.286  64.178  1.00  0.00    -0.237 A  
ENDBRANCH   7   9
ENDBRANCH   3   4
ENDBRANCH   2   3
BRANCH   2  18
HETATM   18  N   UNL     1     -11.759  12.999  70.201  1.00  0.00    -0.532 N  
HETATM   19  O   UNL     1     -13.303  12.412  71.790  1.00  0.00    -0.414 OA 
HETATM   20  H   UNL     1     -11.024  12.654  69.584  1.00  0.00     0.000 HD 
HETATM   21  C   UNL     1     -12.414  12.095  71.006  1.00  0.00    -0.269 C  
BRANCH  21  22
HETATM   22  C   UNL     1     -11.945  10.713  70.868  1.00  0.00    -0.363 A  
HETATM   23  N   UNL     1     -10.776  10.372  70.293  1.00  0.00    -0.436 NA 
HETATM   24  H   UNL     1     -10.064  10.987  69.897  1.00  0.00     0.000 HD 
HETATM   25  C   UNL     1     -12.655   9.571  71.304  1.00  0.00    -0.425 A  
HETATM   26  N   UNL     1     -10.767   9.025  70.363  1.00  0.00    -0.217 NA 
HETATM   27  C   UNL     1     -11.889   8.491  70.933  1.00  0.00    -0.217 A  
BRANCH  27  28
HETATM   28  C   UNL     1     -12.099   7.031  71.091  1.00  0.00    -0.369 C  
HETATM   29  C   UNL     1     -10.898   6.215  70.625  1.00  0.00    -0.355 C  
HETATM   30  O   UNL     1     -12.336   6.800  72.475  1.00  0.00    -0.502 OA 
HETATM   31  H   UNL     1     -12.470   5.866  72.576  1.00  0.00     0.000 HD 
ENDBRANCH  27  28
ENDBRANCH  21  22
ENDBRANCH   2  18
TORSDOF 6
ENDMDL
MODEL       78
REMARK 921   NORMALIZED FREE ENERGY PREDICTED BY IDOCK:   -5.75 KCAL/MOL
REMARK 922        TOTAL FREE ENERGY PREDICTED BY IDOCK:   -9.39 KCAL/MOL
REMARK 923 INTER-LIGAND FREE ENERGY PREDICTED BY IDOCK:   -7.83 KCAL/MOL
REMARK 924 INTRA-LIGAND FREE ENERGY PREDICTED BY IDOCK:   -1.55 KCAL/MOL
REMARK 927      BINDING AFFINITY PREDICTED BY RF-SCORE:    0.00 PKD
ROOT
HETATM    1  C   UNL     1     -10.055  17.578  66.700  1.00  0.00    -0.328 C  
HETATM    2  C   UNL     1      -9.927  16.606  67.878  1.00  0.00    -0.254 C  
ENDROOT
BRANCH   2   3
HETATM    3  C   UNL     1     -11.314  16.134  68.344  1.00  0.00    -0.345 C  
BRANCH   3   4
HETATM    4  N   UNL     1     -11.497  14.703  68.179  1.00  0.00    -0.308 NA 
HETATM    5  C   UNL     1     -11.973  14.065  67.074  1.00  0.00    -0.438 A  
HETATM    6  N   UNL     1     -11.202  13.868  69.191  1.00  0.00    -0.262 NA 
HETATM    7  C   UNL     1     -11.505  12.643  68.726  1.00  0.00    -0.306 A  
HETATM    8  C   UNL     1     -11.975  12.729  67.386  1.00  0.00    -0.335 A  
BRANCH   7   9
HETATM    9  C   UNL     1     -11.358  11.447  69.566  1.00  0.00    -0.357 A  
HETATM   10  C   UNL     1     -12.380  11.077  70.454  1.00  0.00    -0.442 A  
HETATM   11  C   UNL     1     -10.215  10.640  69.489  1.00  0.00    -0.190 A  
HETATM   12  N   UNL     1     -10.832   6.937  72.519  1.00  0.00    -0.233 NA 
HETATM   13  C   UNL     1     -10.102   9.486  70.272  1.00  0.00    -0.314 A  
HETATM   14 CL   UNL     1     -13.583   9.534  72.292  1.00  0.00    -0.515 Cl 
HETATM   15  C   UNL     1     -11.131   9.117  71.145  1.00  0.00    -0.393 A  
HETATM   16  C   UNL     1     -10.985   7.916  71.916  1.00  0.00    -0.256 C  
HETATM   17  C   UNL     1     -12.271   9.920  71.236  1.00  0.00    -0.387 A  
ENDBRANCH   7   9
ENDBRANCH   3   4
ENDBRANCH   2   3
BRANCH   2  18
HETATM   18  N   UNL     1      -9.021  15.513  67.538  1.00  0.00    -0.186 N  
HETATM   19  O   UNL     1      -7.715  15.644  69.417  1.00  0.00    -0.211 OA 
HETATM   20  H   UNL     1      -9.167  15.022  66.656  1.00  0.00     0.000 HD 
HETATM   21  C   UNL     1      -7.981  15.111  68.344  1.00  0.00    -0.136 C  
BRANCH  21  22
HETATM   22  C   UNL     1      -7.194  13.998  67.806  1.00  0.00    -0.165 A  
HETATM   23  N   UNL     1      -5.877  14.073  67.535  1.00  0.00    -0.352 NA 
HETATM   24  H   UNL     1      -5.250  14.867  67.667  1.00  0.00     0.000 HD 
HETATM   25  C   UNL     1      -7.710  12.719  67.493  1.00  0.00    -0.168 A  
HETATM   26  N   UNL     1      -5.581  12.851  67.047  1.00  0.00    -0.269 NA 
HETATM   27  C   UNL     1      -6.656  12.009  66.970  1.00  0.00    -0.108 A  
BRANCH  27  28
HETATM   28  C   UNL     1      -6.562  10.624  66.444  1.00  0.00    -0.120 C  
HETATM   29  C   UNL     1      -7.792   9.788  66.781  1.00  0.00    -0.102 C  
HETATM   30  O   UNL     1      -6.419  10.733  65.033  1.00  0.00    -0.354 OA 
HETATM   31  H   UNL     1      -6.359   9.847  64.697  1.00  0.00     0.000 HD 
ENDBRANCH  27  28
ENDBRANCH  21  22
ENDBRANCH   2  18
TORSDOF 6
ENDMDL
MODEL       79
REMARK 921   NORMALIZED FREE ENERGY PREDICTED BY IDOCK:   -5.74 KCAL/MOL
REMARK 922        TOTAL FREE ENERGY PREDICTED BY IDOCK:   -9.37 KCAL/MOL
REMARK 923 INTER-LIGAND FREE ENERGY PREDICTED BY IDOCK:   -8.26 KCAL/MOL
REMARK 924 INTRA-LIGAND FREE ENERGY PREDICTED BY IDOCK:   -1.11 KCAL/MOL
REMARK 927      BINDING AFFINITY PREDICTED BY RF-SCORE:    0.00 PKD
ROOT
HETATM    1  C   UNL     1      -7.852  10.518  67.576  1.00  0.00    -0.106 C  
HETATM    2  C   UNL     1      -8.200  11.626  66.575  1.00  0.00    -0.101 C  
ENDROOT
BRANCH   2   3
HETATM    3  C   UNL     1      -9.652  11.479  66.089  1.00  0.00    -0.225 C  
BRANCH   3   4
HETATM    4  N   UNL     1     -10.523  12.510  66.626  1.00  0.00    -0.232 NA 
HETATM    5  C   UNL     1     -11.345  13.330  65.916  1.00  0.00    -0.311 A  
HETATM    6  N   UNL     1     -10.552  12.742  67.950  1.00  0.00    -0.216 NA 
HETATM    7  C   UNL     1     -11.423  13.755  68.103  1.00  0.00    -0.313 A  
HETATM    8  C   UNL     1     -11.958  14.137  66.842  1.00  0.00    -0.479 A  
BRANCH   7   9
HETATM    9  C   UNL     1     -11.700  14.333  69.424  1.00  0.00    -0.363 A  
HETATM   10  C   UNL     1     -12.492  13.636  70.350  1.00  0.00    -0.364 A  
HETATM   11  C   UNL     1     -11.169  15.574  69.801  1.00  0.00    -0.307 A  
HETATM   12  N   UNL     1     -12.553  16.442  74.340  1.00  0.00    -0.766 NA 
HETATM   13  C   UNL     1     -11.415  16.099  71.075  1.00  0.00    -0.424 A  
HETATM   14 CL   UNL     1     -13.714  13.226  72.705  1.00  0.00    -0.591 Cl 
HETATM   15  C   UNL     1     -12.195  15.392  71.995  1.00  0.00    -0.460 A  
HETATM   16  C   UNL     1     -12.407  15.956  73.297  1.00  0.00    -0.523 C  
HETATM   17  C   UNL     1     -12.737  14.158  71.626  1.00  0.00    -0.349 A  
ENDBRANCH   7   9
ENDBRANCH   3   4
ENDBRANCH   2   3
BRANCH   2  18
HETATM   18  N   UNL     1      -7.904  12.936  67.145  1.00  0.00    -0.353 N  
HETATM   19  O   UNL     1      -5.621  12.794  66.985  1.00  0.00    -0.341 OA 
HETATM   20  H   UNL     1      -8.684  13.521  67.443  1.00  0.00     0.000 HD 
HETATM   21  C   UNL     1      -6.626  13.424  67.301  1.00  0.00     0.155 C  
BRANCH  21  22
HETATM   22  C   UNL     1      -6.558  14.760  67.899  1.00  0.00    -0.161 A  
HETATM   23  N   UNL     1      -5.690  15.104  68.871  1.00  0.00    -0.093 NA 
HETATM   24  H   UNL     1      -4.974  14.525  69.310  1.00  0.00     0.000 HD 
HETATM   25  C   UNL     1      -7.392  15.847  67.548  1.00  0.00    -0.198 A  
HETATM   26  N   UNL     1      -5.992  16.393  69.128  1.00  0.00    -0.140 NA 
HETATM   27  C   UNL     1      -7.030  16.879  68.381  1.00  0.00    -0.173 A  
BRANCH  27  28
HETATM   28  C   UNL     1      -7.542  18.265  68.516  1.00  0.00    -0.300 C  
HETATM   29  C   UNL     1      -7.337  19.088  67.248  1.00  0.00    -0.237 C  
HETATM   30  O   UNL     1      -8.930  18.161  68.809  1.00  0.00    -0.295 OA 
HETATM   31  H   UNL     1      -9.257  19.048  68.895  1.00  0.00     0.000 HD 
ENDBRANCH  27  28
ENDBRANCH  21  22
ENDBRANCH   2  18
TORSDOF 6
ENDMDL
MODEL       80
REMARK 921   NORMALIZED FREE ENERGY PREDICTED BY IDOCK:   -5.73 KCAL/MOL
REMARK 922        TOTAL FREE ENERGY PREDICTED BY IDOCK:   -9.36 KCAL/MOL
REMARK 923 INTER-LIGAND FREE ENERGY PREDICTED BY IDOCK:   -8.29 KCAL/MOL
REMARK 924 INTRA-LIGAND FREE ENERGY PREDICTED BY IDOCK:   -1.07 KCAL/MOL
REMARK 927      BINDING AFFINITY PREDICTED BY RF-SCORE:    0.00 PKD
ROOT
HETATM    1  C   UNL     1      -9.763  13.127  66.619  1.00  0.00    -0.261 C  
HETATM    2  C   UNL     1      -9.522  12.085  67.717  1.00  0.00    -0.190 C  
ENDROOT
BRANCH   2   3
HETATM    3  C   UNL     1      -8.021  11.966  68.031  1.00  0.00    -0.147 C  
BRANCH   3   4
HETATM    4  N   UNL     1      -7.749  11.006  69.086  1.00  0.00    -0.125 NA 
HETATM    5  C   UNL     1      -6.570  10.833  69.744  1.00  0.00    -0.128 A  
HETATM    6  N   UNL     1      -8.713  10.160  69.488  1.00  0.00    -0.183 NA 
HETATM    7  C   UNL     1      -8.135   9.405  70.438  1.00  0.00    -0.175 A  
HETATM    8  C   UNL     1      -6.788   9.816  70.640  1.00  0.00    -0.108 A  
BRANCH   7   9
HETATM    9  C   UNL     1      -8.866   8.318  71.102  1.00  0.00    -0.182 A  
HETATM   10  C   UNL     1     -10.232   8.122  70.844  1.00  0.00    -0.216 A  
HETATM   11  C   UNL     1      -8.221   7.442  71.986  1.00  0.00    -0.111 A  
HETATM   12  N   UNL     1     -11.468   4.191  73.455  1.00  0.00    -0.214 NA 
HETATM   13  C   UNL     1      -8.922   6.391  72.588  1.00  0.00    -0.132 A  
HETATM   14 CL   UNL     1     -12.610   6.895  71.057  1.00  0.00    -0.385 Cl 
HETATM   15  C   UNL     1     -10.279   6.195  72.315  1.00  0.00    -0.210 A  
HETATM   16  C   UNL     1     -10.956   5.094  72.936  1.00  0.00    -0.284 C  
HETATM   17  C   UNL     1     -10.934   7.068  71.442  1.00  0.00    -0.240 A  
ENDBRANCH   7   9
ENDBRANCH   3   4
ENDBRANCH   2   3
BRANCH   2  18
HETATM   18  N   UNL     1     -10.342  12.382  68.887  1.00  0.00    -0.417 N  
HETATM   19  O   UNL     1     -12.143  11.095  68.292  1.00  0.00    -0.620 OA 
HETATM   20  H   UNL     1      -9.965  13.014  69.592  1.00  0.00     0.000 HD 
HETATM   21  C   UNL     1     -11.597  11.854  69.087  1.00  0.00    -0.312 C  
BRANCH  21  22
HETATM   22  C   UNL     1     -12.245  12.291  70.326  1.00  0.00    -0.262 A  
HETATM   23  N   UNL     1     -12.782  11.447  71.230  1.00  0.00    -0.415 NA 
HETATM   24  H   UNL     1     -12.809  10.428  71.202  1.00  0.00     0.000 HD 
HETATM   25  C   UNL     1     -12.401  13.638  70.727  1.00  0.00    -0.446 A  
HETATM   26  N   UNL     1     -13.277  12.268  72.178  1.00  0.00    -0.460 NA 
HETATM   27  C   UNL     1     -13.103  13.597  71.909  1.00  0.00    -0.387 A  
BRANCH  27  28
HETATM   28  C   UNL     1     -13.588  14.675  72.806  1.00  0.00    -0.437 C  
HETATM   29  C   UNL     1     -12.487  15.220  73.711  1.00  0.00    -0.746 C  
HETATM   30  O   UNL     1     -14.086  15.710  71.968  1.00  0.00    -0.492 OA 
HETATM   31  H   UNL     1     -14.396  16.400  72.543  1.00  0.00     0.000 HD 
ENDBRANCH  27  28
ENDBRANCH  21  22
ENDBRANCH   2  18
TORSDOF 6
ENDMDL
MODEL       81
REMARK 921   NORMALIZED FREE ENERGY PREDICTED BY IDOCK:   -5.73 KCAL/MOL
REMARK 922        TOTAL FREE ENERGY PREDICTED BY IDOCK:   -9.36 KCAL/MOL
REMARK 923 INTER-LIGAND FREE ENERGY PREDICTED BY IDOCK:   -8.11 KCAL/MOL
REMARK 924 INTRA-LIGAND FREE ENERGY PREDICTED BY IDOCK:   -1.25 KCAL/MOL
REMARK 927      BINDING AFFINITY PREDICTED BY RF-SCORE:    0.00 PKD
ROOT
HETATM    1  C   UNL     1      -8.767   9.215  64.111  1.00  0.00    -0.170 C  
HETATM    2  C   UNL     1      -9.373  10.366  64.922  1.00  0.00    -0.243 C  
ENDROOT
BRANCH   2   3
HETATM    3  C   UNL     1     -10.646  10.897  64.241  1.00  0.00    -0.266 C  
BRANCH   3   4
HETATM    4  N   UNL     1     -11.095  12.156  64.809  1.00  0.00    -0.306 NA 
HETATM    5  C   UNL     1     -11.572  13.232  64.125  1.00  0.00    -0.405 A  
HETATM    6  N   UNL     1     -11.042  12.349  66.138  1.00  0.00    -0.289 NA 
HETATM    7  C   UNL     1     -11.497  13.601  66.322  1.00  0.00    -0.333 A  
HETATM    8  C   UNL     1     -11.860  14.180  65.075  1.00  0.00    -0.390 A  
BRANCH   7   9
HETATM    9  C   UNL     1     -11.552  14.206  67.659  1.00  0.00    -0.394 A  
HETATM   10  C   UNL     1     -11.011  15.482  67.881  1.00  0.00    -0.316 A  
HETATM   11  C   UNL     1     -12.160  13.542  68.734  1.00  0.00    -0.305 A  
HETATM   12  N   UNL     1     -11.932  16.456  72.572  1.00  0.00    -0.540 NA 
HETATM   13  C   UNL     1     -12.234  14.144  69.995  1.00  0.00    -0.418 A  
HETATM   14 CL   UNL     1     -10.406  17.666  69.321  1.00  0.00    -0.239 Cl 
HETATM   15  C   UNL     1     -11.704  15.421  70.204  1.00  0.00    -0.356 A  
HETATM   16  C   UNL     1     -11.818  16.011  71.507  1.00  0.00    -0.486 C  
HETATM   17  C   UNL     1     -11.087  16.087  69.142  1.00  0.00    -0.317 A  
ENDBRANCH   7   9
ENDBRANCH   3   4
ENDBRANCH   2   3
BRANCH   2  18
HETATM   18  N   UNL     1      -9.579   9.958  66.308  1.00  0.00    -0.194 N  
HETATM   19  O   UNL     1      -7.422  10.280  67.012  1.00  0.00    -0.091 OA 
HETATM   20  H   UNL     1     -10.512   9.660  66.590  1.00  0.00     0.000 HD 
HETATM   21  C   UNL     1      -8.579   9.953  67.253  1.00  0.00    -0.125 C  
BRANCH  21  22
HETATM   22  C   UNL     1      -9.005   9.500  68.581  1.00  0.00    -0.132 A  
HETATM   23  N   UNL     1      -8.249   8.733  69.390  1.00  0.00    -0.106 NA 
HETATM   24  H   UNL     1      -7.307   8.377  69.222  1.00  0.00     0.000 HD 
HETATM   25  C   UNL     1     -10.254   9.795  69.174  1.00  0.00    -0.211 A  
HETATM   26  N   UNL     1      -9.029   8.545  70.474  1.00  0.00    -0.147 NA 
HETATM   27  C   UNL     1     -10.259   9.137  70.381  1.00  0.00    -0.222 A  
BRANCH  27  28
HETATM   28  C   UNL     1     -11.284   9.041  71.449  1.00  0.00    -0.324 C  
HETATM   29  C   UNL     1     -12.359  10.116  71.324  1.00  0.00    -0.501 C  
HETATM   30  O   UNL     1     -11.872   7.750  71.336  1.00  0.00    -0.283 OA 
HETATM   31  H   UNL     1     -12.528   7.689  72.020  1.00  0.00     0.000 HD 
ENDBRANCH  27  28
ENDBRANCH  21  22
ENDBRANCH   2  18
TORSDOF 6
ENDMDL
MODEL       82
REMARK 921   NORMALIZED FREE ENERGY PREDICTED BY IDOCK:   -5.71 KCAL/MOL
REMARK 922        TOTAL FREE ENERGY PREDICTED BY IDOCK:   -9.34 KCAL/MOL
REMARK 923 INTER-LIGAND FREE ENERGY PREDICTED BY IDOCK:   -7.56 KCAL/MOL
REMARK 924 INTRA-LIGAND FREE ENERGY PREDICTED BY IDOCK:   -1.78 KCAL/MOL
REMARK 927      BINDING AFFINITY PREDICTED BY RF-SCORE:    0.00 PKD
ROOT
HETATM    1  C   UNL     1      -7.763   6.270  69.411  1.00  0.00    -0.100 C  
HETATM    2  C   UNL     1      -9.113   6.995  69.381  1.00  0.00    -0.145 C  
ENDROOT
BRANCH   2   3
HETATM    3  C   UNL     1      -9.395   7.670  70.734  1.00  0.00    -0.162 C  
BRANCH   3   4
HETATM    4  N   UNL     1     -10.360   8.750  70.624  1.00  0.00    -0.199 NA 
HETATM    5  C   UNL     1     -11.686   8.689  70.925  1.00  0.00    -0.252 A  
HETATM    6  N   UNL     1      -9.972   9.953  70.167  1.00  0.00    -0.256 NA 
HETATM    7  C   UNL     1     -11.090  10.699  70.166  1.00  0.00    -0.268 A  
HETATM    8  C   UNL     1     -12.188   9.939  70.658  1.00  0.00    -0.325 A  
BRANCH   7   9
HETATM    9  C   UNL     1     -11.085  12.086  69.684  1.00  0.00    -0.074 A  
HETATM   10  C   UNL     1     -11.924  13.044  70.277  1.00  0.00    -0.360 A  
HETATM   11  C   UNL     1     -10.237  12.492  68.645  1.00  0.00    -0.166 A  
HETATM   12  N   UNL     1     -10.906  17.223  67.976  1.00  0.00    -0.357 NA 
HETATM   13  C   UNL     1     -10.220  13.825  68.218  1.00  0.00    -0.245 A  
HETATM   14 CL   UNL     1     -12.963  15.491  70.647  1.00  0.00    -0.484 Cl 
HETATM   15  C   UNL     1     -11.049  14.775  68.822  1.00  0.00    -0.277 A  
HETATM   16  C   UNL     1     -10.987  16.134  68.368  1.00  0.00    -0.341 C  
HETATM   17  C   UNL     1     -11.906  14.378  69.852  1.00  0.00    -0.323 A  
ENDBRANCH   7   9
ENDBRANCH   3   4
ENDBRANCH   2   3
BRANCH   2  18
HETATM   18  N   UNL     1      -9.173   7.911  68.247  1.00  0.00    -0.137 N  
HETATM   19  O   UNL     1     -11.010   6.982  67.240  1.00  0.00    -0.325 OA 
HETATM   20  H   UNL     1      -8.469   8.646  68.182  1.00  0.00     0.000 HD 
HETATM   21  C   UNL     1     -10.129   7.835  67.260  1.00  0.00    -0.238 C  
BRANCH  21  22
HETATM   22  C   UNL     1      -9.998   8.852  66.212  1.00  0.00    -0.266 A  
HETATM   23  N   UNL     1      -9.158   8.744  65.164  1.00  0.00    -0.419 NA 
HETATM   24  H   UNL     1      -8.527   7.975  64.939  1.00  0.00     0.000 HD 
HETATM   25  C   UNL     1     -10.717  10.068  66.170  1.00  0.00     0.023 A  
HETATM   26  N   UNL     1      -9.349   9.892  64.482  1.00  0.00    -0.274 NA 
HETATM   27  C   UNL     1     -10.253  10.738  65.063  1.00  0.00    -0.306 A  
BRANCH  27  28
HETATM   28  C   UNL     1     -10.600  12.064  64.494  1.00  0.00    -0.313 C  
HETATM   29  C   UNL     1     -11.951  12.574  64.984  1.00  0.00    -0.478 C  
HETATM   30  O   UNL     1      -9.569  12.960  64.892  1.00  0.00    -0.496 OA 
HETATM   31  H   UNL     1      -9.791  13.809  64.528  1.00  0.00     0.000 HD 
ENDBRANCH  27  28
ENDBRANCH  21  22
ENDBRANCH   2  18
TORSDOF 6
ENDMDL
MODEL       83
REMARK 921   NORMALIZED FREE ENERGY PREDICTED BY IDOCK:   -5.70 KCAL/MOL
REMARK 922        TOTAL FREE ENERGY PREDICTED BY IDOCK:   -9.32 KCAL/MOL
REMARK 923 INTER-LIGAND FREE ENERGY PREDICTED BY IDOCK:   -8.59 KCAL/MOL
REMARK 924 INTRA-LIGAND FREE ENERGY PREDICTED BY IDOCK:   -0.73 KCAL/MOL
REMARK 927      BINDING AFFINITY PREDICTED BY RF-SCORE:    0.00 PKD
ROOT
HETATM    1  C   UNL     1     -11.925  12.951  63.361  1.00  0.00    -0.612 C  
HETATM    2  C   UNL     1     -11.226  12.929  64.725  1.00  0.00    -0.306 C  
ENDROOT
BRANCH   2   3
HETATM    3  C   UNL     1     -10.345  11.676  64.862  1.00  0.00    -0.283 C  
BRANCH   3   4
HETATM    4  N   UNL     1     -10.587  10.962  66.103  1.00  0.00    -0.237 NA 
HETATM    5  C   UNL     1     -11.091  11.481  67.256  1.00  0.00    -0.293 A  
HETATM    6  N   UNL     1     -10.285   9.655  66.195  1.00  0.00    -0.245 NA 
HETATM    7  C   UNL     1     -10.601   9.316  67.457  1.00  0.00    -0.262 A  
HETATM    8  C   UNL     1     -11.132  10.440  68.149  1.00  0.00    -0.344 A  
BRANCH   7   9
HETATM    9  C   UNL     1     -10.372   7.957  67.965  1.00  0.00    -0.264 A  
HETATM   10  C   UNL     1     -10.425   6.858  67.094  1.00  0.00    -0.373 A  
HETATM   11  C   UNL     1     -10.077   7.726  69.315  1.00  0.00    -0.199 A  
HETATM   12  N   UNL     1      -9.360   2.987  69.866  1.00  0.00    -0.155 NA 
HETATM   13  C   UNL     1      -9.830   6.429  69.780  1.00  0.00    -0.189 A  
HETATM   14 CL   UNL     1     -10.249   4.267  66.411  1.00  0.00    -0.183 Cl 
HETATM   15  C   UNL     1      -9.872   5.341  68.903  1.00  0.00    -0.230 A  
HETATM   16  C   UNL     1      -9.594   4.030  69.415  1.00  0.00    -0.187 C  
HETATM   17  C   UNL     1     -10.175   5.560  67.556  1.00  0.00    -0.199 A  
ENDBRANCH   7   9
ENDBRANCH   3   4
ENDBRANCH   2   3
BRANCH   2  18
HETATM   18  N   UNL     1     -10.505  14.178  64.945  1.00  0.00    -0.427 N  
HETATM   19  O   UNL     1     -11.727  14.886  66.751  1.00  0.00    -0.335 OA 
HETATM   20  H   UNL     1      -9.734  14.408  64.318  1.00  0.00     0.000 HD 
HETATM   21  C   UNL     1     -10.811  15.063  65.954  1.00  0.00    -0.337 C  
BRANCH  21  22
HETATM   22  C   UNL     1      -9.962  16.258  65.988  1.00  0.00    -0.345 A  
HETATM   23  N   UNL     1     -10.422  17.510  65.801  1.00  0.00    -0.565 NA 
HETATM   24  H   UNL     1     -11.382  17.810  65.629  1.00  0.00     0.000 HD 
HETATM   25  C   UNL     1      -8.565  16.252  66.208  1.00  0.00    -0.374 A  
HETATM   26  N   UNL     1      -9.314  18.274  65.894  1.00  0.00    -0.474 NA 
HETATM   27  C   UNL     1      -8.166  17.563  66.106  1.00  0.00    -0.187 A  
BRANCH  27  28
HETATM   28  C   UNL     1      -6.830  18.200  66.218  1.00  0.00    -0.245 C  
HETATM   29  C   UNL     1      -5.736  17.201  66.583  1.00  0.00    -0.221 C  
HETATM   30  O   UNL     1      -6.550  18.787  64.953  1.00  0.00    -0.516 OA 
HETATM   31  H   UNL     1      -5.695  19.194  65.026  1.00  0.00     0.000 HD 
ENDBRANCH  27  28
ENDBRANCH  21  22
ENDBRANCH   2  18
TORSDOF 6
ENDMDL
MODEL       84
REMARK 921   NORMALIZED FREE ENERGY PREDICTED BY IDOCK:   -5.66 KCAL/MOL
REMARK 922        TOTAL FREE ENERGY PREDICTED BY IDOCK:   -9.27 KCAL/MOL
REMARK 923 INTER-LIGAND FREE ENERGY PREDICTED BY IDOCK:   -8.62 KCAL/MOL
REMARK 924 INTRA-LIGAND FREE ENERGY PREDICTED BY IDOCK:   -0.65 KCAL/MOL
REMARK 927      BINDING AFFINITY PREDICTED BY RF-SCORE:    0.00 PKD
ROOT
HETATM    1  C   UNL     1     -12.884  15.589  70.845  1.00  0.00    -0.535 C  
HETATM    2  C   UNL     1     -11.734  15.103  69.957  1.00  0.00    -0.307 C  
ENDROOT
BRANCH   2   3
HETATM    3  C   UNL     1     -12.277  14.354  68.728  1.00  0.00    -0.165 C  
BRANCH   3   4
HETATM    4  N   UNL     1     -11.890  12.955  68.716  1.00  0.00    -0.319 NA 
HETATM    5  C   UNL     1     -11.678  12.178  67.618  1.00  0.00    -0.316 A  
HETATM    6  N   UNL     1     -11.725  12.294  69.876  1.00  0.00    -0.301 NA 
HETATM    7  C   UNL     1     -11.401  11.040  69.515  1.00  0.00    -0.287 A  
HETATM    8  C   UNL     1     -11.342  10.937  68.097  1.00  0.00    -0.383 A  
BRANCH   7   9
HETATM    9  C   UNL     1     -11.180   9.988  70.515  1.00  0.00    -0.408 A  
HETATM   10  C   UNL     1      -9.878   9.543  70.798  1.00  0.00    -0.309 A  
HETATM   11  C   UNL     1     -12.248   9.421  71.222  1.00  0.00    -0.425 A  
HETATM   12  N   UNL     1     -10.411   6.222  74.331  1.00  0.00    -0.311 NA 
HETATM   13  C   UNL     1     -12.020   8.441  72.196  1.00  0.00    -0.438 A  
HETATM   14 CL   UNL     1      -8.013   8.087  72.065  1.00  0.00    -0.131 Cl 
HETATM   15  C   UNL     1     -10.719   8.013  72.481  1.00  0.00    -0.407 A  
HETATM   16  C   UNL     1     -10.527   7.022  73.499  1.00  0.00    -0.375 C  
HETATM   17  C   UNL     1      -9.648   8.566  71.774  1.00  0.00    -0.267 A  
ENDBRANCH   7   9
ENDBRANCH   3   4
ENDBRANCH   2   3
BRANCH   2  18
HETATM   18  N   UNL     1     -10.849  16.214  69.620  1.00  0.00    -0.314 N  
HETATM   19  O   UNL     1      -9.105  14.948  68.839  1.00  0.00    -0.189 OA 
HETATM   20  H   UNL     1     -11.177  17.163  69.797  1.00  0.00     0.000 HD 
HETATM   21  C   UNL     1      -9.595  16.047  69.077  1.00  0.00    -0.247 C  
BRANCH  21  22
HETATM   22  C   UNL     1      -8.876  17.298  68.823  1.00  0.00    -0.233 A  
HETATM   23  N   UNL     1      -9.482  18.484  68.617  1.00  0.00    -0.345 NA 
HETATM   24  H   UNL     1     -10.481  18.689  68.619  1.00  0.00     0.000 HD 
HETATM   25  C   UNL     1      -7.469  17.423  68.751  1.00  0.00    -0.258 A  
HETATM   26  N   UNL     1      -8.457  19.335  68.407  1.00  0.00    -0.341 NA 
HETATM   27  C   UNL     1      -7.226  18.741  68.445  1.00  0.00    -0.280 A  
BRANCH  27  28
HETATM   28  C   UNL     1      -5.962  19.485  68.220  1.00  0.00    -0.217 C  
HETATM   29  C   UNL     1      -5.628  19.633  66.739  1.00  0.00    -0.169 C  
HETATM   30  O   UNL     1      -6.133  20.768  68.811  1.00  0.00    -0.343 OA 
HETATM   31  H   UNL     1      -5.324  21.244  68.666  1.00  0.00     0.000 HD 
ENDBRANCH  27  28
ENDBRANCH  21  22
ENDBRANCH   2  18
TORSDOF 6
ENDMDL
MODEL       85
REMARK 921   NORMALIZED FREE ENERGY PREDICTED BY IDOCK:   -5.65 KCAL/MOL
REMARK 922        TOTAL FREE ENERGY PREDICTED BY IDOCK:   -9.26 KCAL/MOL
REMARK 923 INTER-LIGAND FREE ENERGY PREDICTED BY IDOCK:   -8.03 KCAL/MOL
REMARK 924 INTRA-LIGAND FREE ENERGY PREDICTED BY IDOCK:   -1.23 KCAL/MOL
REMARK 927      BINDING AFFINITY PREDICTED BY RF-SCORE:    0.00 PKD
ROOT
HETATM    1  C   UNL     1     -10.633  10.080  67.059  1.00  0.00    -0.279 C  
HETATM    2  C   UNL     1     -10.201  11.134  66.034  1.00  0.00    -0.250 C  
ENDROOT
BRANCH   2   3
HETATM    3  C   UNL     1     -11.416  11.935  65.536  1.00  0.00    -0.252 C  
BRANCH   3   4
HETATM    4  N   UNL     1     -11.589  13.184  66.256  1.00  0.00    -0.339 NA 
HETATM    5  C   UNL     1     -11.578  14.437  65.726  1.00  0.00    -0.353 A  
HETATM    6  N   UNL     1     -11.765  13.171  67.589  1.00  0.00    -0.354 NA 
HETATM    7  C   UNL     1     -11.865  14.466  67.936  1.00  0.00    -0.349 A  
HETATM    8  C   UNL     1     -11.772  15.292  66.782  1.00  0.00     0.030 A  
BRANCH   7   9
HETATM    9  C   UNL     1     -12.024  14.873  69.338  1.00  0.00    -0.336 A  
HETATM   10  C   UNL     1     -12.756  14.072  70.229  1.00  0.00    -0.270 A  
HETATM   11  C   UNL     1     -11.437  16.049  69.825  1.00  0.00    -0.318 A  
HETATM   12  N   UNL     1     -12.439  16.343  74.535  1.00  0.00    -0.784 NA 
HETATM   13  C   UNL     1     -11.570  16.409  71.171  1.00  0.00    -0.250 A  
HETATM   14 CL   UNL     1     -13.797  13.377  72.604  1.00  0.00    -0.586 Cl 
HETATM   15  C   UNL     1     -12.291  15.599  72.054  1.00  0.00    -0.505 A  
HETATM   16  C   UNL     1     -12.387  15.993  73.430  1.00  0.00    -0.548 C  
HETATM   17  C   UNL     1     -12.888  14.429  71.576  1.00  0.00    -0.341 A  
ENDBRANCH   7   9
ENDBRANCH   3   4
ENDBRANCH   2   3
BRANCH   2  18
HETATM   18  N   UNL     1      -9.136  11.967  66.581  1.00  0.00    -0.203 N  
HETATM   19  O   UNL     1      -7.414  10.508  66.182  1.00  0.00    -0.125 OA 
HETATM   20  H   UNL     1      -9.385  12.879  66.965  1.00  0.00     0.000 HD 
HETATM   21  C   UNL     1      -7.813  11.588  66.607  1.00  0.00    -0.112 C  
BRANCH  21  22
HETATM   22  C   UNL     1      -6.913  12.576  67.208  1.00  0.00    -0.112 A  
HETATM   23  N   UNL     1      -5.592  12.642  66.950  1.00  0.00    -0.438 NA 
HETATM   24  H   UNL     1      -5.043  12.056  66.321  1.00  0.00     0.000 HD 
HETATM   25  C   UNL     1      -7.304  13.571  68.133  1.00  0.00    -0.121 A  
HETATM   26  N   UNL     1      -5.166  13.664  67.720  1.00  0.00    -0.269 NA 
HETATM   27  C   UNL     1      -6.152  14.236  68.477  1.00  0.00    -0.091 A  
BRANCH  27  28
HETATM   28  C   UNL     1      -5.902  15.362  69.411  1.00  0.00    -0.109 C  
HETATM   29  C   UNL     1      -6.995  16.424  69.350  1.00  0.00    -0.210 C  
HETATM   30  O   UNL     1      -5.841  14.802  70.717  1.00  0.00    -0.156 OA 
HETATM   31  H   UNL     1      -5.681  15.523  71.315  1.00  0.00     0.000 HD 
ENDBRANCH  27  28
ENDBRANCH  21  22
ENDBRANCH   2  18
TORSDOF 6
ENDMDL
MODEL       86
REMARK 921   NORMALIZED FREE ENERGY PREDICTED BY IDOCK:   -5.65 KCAL/MOL
REMARK 922        TOTAL FREE ENERGY PREDICTED BY IDOCK:   -9.26 KCAL/MOL
REMARK 923 INTER-LIGAND FREE ENERGY PREDICTED BY IDOCK:   -8.02 KCAL/MOL
REMARK 924 INTRA-LIGAND FREE ENERGY PREDICTED BY IDOCK:   -1.24 KCAL/MOL
REMARK 927      BINDING AFFINITY PREDICTED BY RF-SCORE:    0.00 PKD
ROOT
HETATM    1  C   UNL     1      -7.143  18.008  69.117  1.00  0.00    -0.189 C  
HETATM    2  C   UNL     1      -8.281  17.534  68.207  1.00  0.00    -0.263 C  
ENDROOT
BRANCH   2   3
HETATM    3  C   UNL     1      -7.722  16.779  66.989  1.00  0.00    -0.195 C  
BRANCH   3   4
HETATM    4  N   UNL     1      -7.386  15.400  67.299  1.00  0.00    -0.208 NA 
HETATM    5  C   UNL     1      -6.174  14.930  67.703  1.00  0.00    -0.100 A  
HETATM    6  N   UNL     1      -8.317  14.438  67.174  1.00  0.00    -0.206 NA 
HETATM    7  C   UNL     1      -7.683  13.300  67.506  1.00  0.00    -0.171 A  
HETATM    8  C   UNL     1      -6.334  13.576  67.865  1.00  0.00    -0.155 A  
BRANCH   7   9
HETATM    9  C   UNL     1      -8.364  12.000  67.452  1.00  0.00    -0.171 A  
HETATM   10  C   UNL     1      -9.523  11.777  68.211  1.00  0.00    -0.193 A  
HETATM   11  C   UNL     1      -7.892  10.965  66.633  1.00  0.00    -0.145 A  
HETATM   12  N   UNL     1     -10.925   7.241  67.088  1.00  0.00    -0.301 NA 
HETATM   13  C   UNL     1      -8.569   9.742  66.567  1.00  0.00    -0.135 A  
HETATM   14 CL   UNL     1     -11.630  10.372  69.105  1.00  0.00    -0.264 Cl 
HETATM   15  C   UNL     1      -9.731   9.533  67.317  1.00  0.00    -0.215 A  
HETATM   16  C   UNL     1     -10.406   8.272  67.207  1.00  0.00    -0.302 C  
HETATM   17  C   UNL     1     -10.204  10.555  68.145  1.00  0.00    -0.162 A  
ENDBRANCH   7   9
ENDBRANCH   3   4
ENDBRANCH   2   3
BRANCH   2  18
HETATM   18  N   UNL     1      -9.258  16.767  68.973  1.00  0.00    -0.237 N  
HETATM   19  O   UNL     1     -11.121  17.507  67.861  1.00  0.00    -0.241 OA 
HETATM   20  H   UNL     1      -8.919  16.167  69.725  1.00  0.00     0.000 HD 
HETATM   21  C   UNL     1     -10.612  16.809  68.733  1.00  0.00    -0.348 C  
BRANCH  21  22
HETATM   22  C   UNL     1     -11.411  15.964  69.625  1.00  0.00    -0.342 A  
HETATM   23  N   UNL     1     -12.331  15.079  69.195  1.00  0.00    -0.587 NA 
HETATM   24  H   UNL     1     -12.593  14.859  68.234  1.00  0.00     0.000 HD 
HETATM   25  C   UNL     1     -11.329  15.973  71.037  1.00  0.00    -0.423 A  
HETATM   26  N   UNL     1     -12.824  14.551  70.334  1.00  0.00    -0.322 NA 
HETATM   27  C   UNL     1     -12.278  15.078  71.472  1.00  0.00    -0.337 A  
BRANCH  27  28
HETATM   28  C   UNL     1     -12.688  14.659  72.835  1.00  0.00    -0.412 C  
HETATM   29  C   UNL     1     -12.865  15.843  73.781  1.00  0.00    -0.708 C  
HETATM   30  O   UNL     1     -13.919  13.961  72.694  1.00  0.00    -0.684 OA 
HETATM   31  H   UNL     1     -14.182  13.693  73.566  1.00  0.00     0.000 HD 
ENDBRANCH  27  28
ENDBRANCH  21  22
ENDBRANCH   2  18
TORSDOF 6
ENDMDL
MODEL       87
REMARK 921   NORMALIZED FREE ENERGY PREDICTED BY IDOCK:   -5.64 KCAL/MOL
REMARK 922        TOTAL FREE ENERGY PREDICTED BY IDOCK:   -9.24 KCAL/MOL
REMARK 923 INTER-LIGAND FREE ENERGY PREDICTED BY IDOCK:   -8.46 KCAL/MOL
REMARK 924 INTRA-LIGAND FREE ENERGY PREDICTED BY IDOCK:   -0.78 KCAL/MOL
REMARK 927      BINDING AFFINITY PREDICTED BY RF-SCORE:    0.00 PKD
ROOT
HETATM    1  C   UNL     1     -12.197  12.447  64.986  1.00  0.00    -0.465 C  
HETATM    2  C   UNL     1     -11.040  12.581  65.982  1.00  0.00    -0.294 C  
ENDROOT
BRANCH   2   3
HETATM    3  C   UNL     1      -9.799  11.824  65.476  1.00  0.00    -0.234 C  
BRANCH   3   4
HETATM    4  N   UNL     1      -9.777  10.440  65.915  1.00  0.00    -0.203 NA 
HETATM    5  C   UNL     1      -9.443   9.355  65.164  1.00  0.00    -0.185 A  
HETATM    6  N   UNL     1     -10.129  10.130  67.175  1.00  0.00    -0.199 NA 
HETATM    7  C   UNL     1     -10.025   8.791  67.241  1.00  0.00    -0.220 A  
HETATM    8  C   UNL     1      -9.574   8.271  65.996  1.00  0.00    -0.151 A  
BRANCH   7   9
HETATM    9  C   UNL     1     -10.371   8.056  68.465  1.00  0.00    -0.229 A  
HETATM   10  C   UNL     1     -10.758   8.750  69.622  1.00  0.00    -0.212 A  
HETATM   11  C   UNL     1     -10.346   6.655  68.503  1.00  0.00    -0.216 A  
HETATM   12  N   UNL     1     -11.795   5.286  72.896  1.00  0.00    -0.195 NA 
HETATM   13  C   UNL     1     -10.709   5.967  69.666  1.00  0.00    -0.415 A  
HETATM   14 CL   UNL     1     -11.599   8.999  72.159  1.00  0.00    -0.404 Cl 
HETATM   15  C   UNL     1     -11.106   6.666  70.811  1.00  0.00    -0.336 A  
HETATM   16  C   UNL     1     -11.489   5.922  71.975  1.00  0.00    -0.252 C  
HETATM   17  C   UNL     1     -11.124   8.063  70.785  1.00  0.00    -0.259 A  
ENDBRANCH   7   9
ENDBRANCH   3   4
ENDBRANCH   2   3
BRANCH   2  18
HETATM   18  N   UNL     1     -10.786  13.986  66.280  1.00  0.00    -0.286 N  
HETATM   19  O   UNL     1     -11.949  14.062  68.253  1.00  0.00    -0.357 OA 
HETATM   20  H   UNL     1     -10.228  14.527  65.619  1.00  0.00     0.000 HD 
HETATM   21  C   UNL     1     -11.260  14.620  67.406  1.00  0.00    -0.342 C  
BRANCH  21  22
HETATM   22  C   UNL     1     -10.891  16.036  67.502  1.00  0.00    -0.292 A  
HETATM   23  N   UNL     1     -10.935  16.746  68.646  1.00  0.00    -0.328 NA 
HETATM   24  H   UNL     1     -11.204  16.426  69.577  1.00  0.00     0.000 HD 
HETATM   25  C   UNL     1     -10.456  16.835  66.419  1.00  0.00    -0.269 A  
HETATM   26  N   UNL     1     -10.541  17.980  68.272  1.00  0.00    -0.334 NA 
HETATM   27  C   UNL     1     -10.272  18.095  66.936  1.00  0.00    -0.372 A  
BRANCH  27  28
HETATM   28  C   UNL     1      -9.843  19.368  66.305  1.00  0.00    -0.403 C  
HETATM   29  C   UNL     1      -9.757  20.516  67.305  1.00  0.00    -0.600 C  
HETATM   30  O   UNL     1      -8.564  19.127  65.730  1.00  0.00    -0.408 OA 
HETATM   31  H   UNL     1      -8.290  19.942  65.326  1.00  0.00     0.000 HD 
ENDBRANCH  27  28
ENDBRANCH  21  22
ENDBRANCH   2  18
TORSDOF 6
ENDMDL
MODEL       88
REMARK 921   NORMALIZED FREE ENERGY PREDICTED BY IDOCK:   -5.61 KCAL/MOL
REMARK 922        TOTAL FREE ENERGY PREDICTED BY IDOCK:   -9.21 KCAL/MOL
REMARK 923 INTER-LIGAND FREE ENERGY PREDICTED BY IDOCK:   -7.83 KCAL/MOL
REMARK 924 INTRA-LIGAND FREE ENERGY PREDICTED BY IDOCK:   -1.38 KCAL/MOL
REMARK 927      BINDING AFFINITY PREDICTED BY RF-SCORE:    0.00 PKD
ROOT
HETATM    1  C   UNL     1      -6.240   7.550  65.358  1.00  0.00    -0.038 C  
HETATM    2  C   UNL     1      -7.708   7.313  64.990  1.00  0.00    -0.115 C  
ENDROOT
BRANCH   2   3
HETATM    3  C   UNL     1      -8.326   6.234  65.897  1.00  0.00    -0.142 C  
BRANCH   3   4
HETATM    4  N   UNL     1      -8.530   6.703  67.256  1.00  0.00    -0.119 NA 
HETATM    5  C   UNL     1      -7.878   6.274  68.371  1.00  0.00    -0.105 A  
HETATM    6  N   UNL     1      -9.458   7.643  67.510  1.00  0.00    -0.138 NA 
HETATM    7  C   UNL     1      -9.408   7.826  68.840  1.00  0.00    -0.146 A  
HETATM    8  C   UNL     1      -8.408   6.992  69.414  1.00  0.00    -0.133 A  
BRANCH   7   9
HETATM    9  C   UNL     1     -10.316   8.760  69.519  1.00  0.00    -0.213 A  
HETATM   10  C   UNL     1     -11.090   8.329  70.608  1.00  0.00    -0.269 A  
HETATM   11  C   UNL     1     -10.416  10.099  69.116  1.00  0.00    -0.242 A  
HETATM   12  N   UNL     1     -13.522  12.291  72.086  1.00  0.00    -0.461 NA 
HETATM   13  C   UNL     1     -11.261  10.986  69.793  1.00  0.00    -0.339 A  
HETATM   14 CL   UNL     1     -12.841   8.602  72.625  1.00  0.00    -0.358 Cl 
HETATM   15  C   UNL     1     -12.020  10.551  70.884  1.00  0.00    -0.481 A  
HETATM   16  C   UNL     1     -12.858  11.497  71.562  1.00  0.00    -0.380 C  
HETATM   17  C   UNL     1     -11.934   9.216  71.287  1.00  0.00    -0.325 A  
ENDBRANCH   7   9
ENDBRANCH   3   4
ENDBRANCH   2   3
BRANCH   2  18
HETATM   18  N   UNL     1      -8.444   8.573  64.997  1.00  0.00    -0.228 N  
HETATM   19  O   UNL     1      -8.571   8.828  62.723  1.00  0.00    -0.199 OA 
HETATM   20  H   UNL     1      -8.687   8.985  65.898  1.00  0.00     0.000 HD 
HETATM   21  C   UNL     1      -8.826   9.234  63.852  1.00  0.00    -0.126 C  
BRANCH  21  22
HETATM   22  C   UNL     1      -9.550  10.486  64.091  1.00  0.00    -0.313 A  
HETATM   23  N   UNL     1      -9.398  11.595  63.340  1.00  0.00    -0.539 NA 
HETATM   24  H   UNL     1      -8.799  11.727  62.525  1.00  0.00     0.000 HD 
HETATM   25  C   UNL     1     -10.483  10.696  65.133  1.00  0.00    -0.271 A  
HETATM   26  N   UNL     1     -10.224  12.489  63.921  1.00  0.00    -0.403 NA 
HETATM   27  C   UNL     1     -10.876  12.009  65.023  1.00  0.00    -0.304 A  
BRANCH  27  28
HETATM   28  C   UNL     1     -11.816  12.828  65.827  1.00  0.00    -0.434 C  
HETATM   29  C   UNL     1     -11.161  14.088  66.385  1.00  0.00    -0.316 C  
HETATM   30  O   UNL     1     -12.891  13.180  64.965  1.00  0.00    -0.692 OA 
HETATM   31  H   UNL     1     -13.492  13.704  65.480  1.00  0.00     0.000 HD 
ENDBRANCH  27  28
ENDBRANCH  21  22
ENDBRANCH   2  18
TORSDOF 6
ENDMDL
MODEL       89
REMARK 921   NORMALIZED FREE ENERGY PREDICTED BY IDOCK:   -5.59 KCAL/MOL
REMARK 922        TOTAL FREE ENERGY PREDICTED BY IDOCK:   -9.18 KCAL/MOL
REMARK 923 INTER-LIGAND FREE ENERGY PREDICTED BY IDOCK:   -8.28 KCAL/MOL
REMARK 924 INTRA-LIGAND FREE ENERGY PREDICTED BY IDOCK:   -0.90 KCAL/MOL
REMARK 927      BINDING AFFINITY PREDICTED BY RF-SCORE:    0.00 PKD
ROOT
HETATM    1  C   UNL     1     -10.360   8.316  72.599  1.00  0.00    -0.374 C  
HETATM    2  C   UNL     1     -11.648   7.731  72.008  1.00  0.00    -0.300 C  
ENDROOT
BRANCH   2   3
HETATM    3  C   UNL     1     -12.794   8.753  72.091  1.00  0.00    -0.400 C  
BRANCH   3   4
HETATM    4  N   UNL     1     -12.559   9.919  71.257  1.00  0.00    -0.352 NA 
HETATM    5  C   UNL     1     -12.835  11.214  71.574  1.00  0.00    -0.437 A  
HETATM    6  N   UNL     1     -12.033   9.771  70.029  1.00  0.00    -0.031 NA 
HETATM    7  C   UNL     1     -11.973  11.017  69.528  1.00  0.00    -0.342 A  
HETATM    8  C   UNL     1     -12.452  11.955  70.484  1.00  0.00    -0.301 A  
BRANCH   7   9
HETATM    9  C   UNL     1     -11.486  11.272  68.166  1.00  0.00    -0.376 A  
HETATM   10  C   UNL     1     -10.723  10.304  67.494  1.00  0.00    -0.348 A  
HETATM   11  C   UNL     1     -11.786  12.467  67.498  1.00  0.00    -0.439 A  
HETATM   12  N   UNL     1      -9.858  12.201  63.084  1.00  0.00    -0.345 NA 
HETATM   13  C   UNL     1     -11.342  12.684  66.189  1.00  0.00    -0.375 A  
HETATM   14 CL   UNL     1      -9.357   9.266  65.429  1.00  0.00    -0.305 Cl 
HETATM   15  C   UNL     1     -10.593  11.709  65.522  1.00  0.00    -0.329 A  
HETATM   16  C   UNL     1     -10.175  11.962  64.174  1.00  0.00    -0.330 C  
HETATM   17  C   UNL     1     -10.281  10.518  66.183  1.00  0.00    -0.236 A  
ENDBRANCH   7   9
ENDBRANCH   3   4
ENDBRANCH   2   3
BRANCH   2  18
HETATM   18  N   UNL     1     -11.406   7.232  70.659  1.00  0.00    -0.277 N  
HETATM   19  O   UNL     1     -10.444   5.243  71.270  1.00  0.00    -0.226 OA 
HETATM   20  H   UNL     1     -11.682   7.817  69.870  1.00  0.00     0.000 HD 
HETATM   21  C   UNL     1     -10.823   6.013  70.394  1.00  0.00    -0.318 C  
BRANCH  21  22
HETATM   22  C   UNL     1     -10.670   5.715  68.967  1.00  0.00    -0.237 A  
HETATM   23  N   UNL     1     -11.304   6.388  67.987  1.00  0.00    -0.599 NA 
HETATM   24  H   UNL     1     -11.945   7.176  68.077  1.00  0.00     0.000 HD 
HETATM   25  C   UNL     1      -9.854   4.687  68.438  1.00  0.00    -0.169 A  
HETATM   26  N   UNL     1     -10.893   5.773  66.859  1.00  0.00    -0.292 NA 
HETATM   27  C   UNL     1     -10.045   4.722  67.077  1.00  0.00    -0.189 A  
BRANCH  27  28
HETATM   28  C   UNL     1      -9.487   3.893  65.981  1.00  0.00    -0.180 C  
HETATM   29  C   UNL     1      -9.923   4.379  64.602  1.00  0.00    -0.076 C  
HETATM   30  O   UNL     1      -8.071   3.962  66.096  1.00  0.00    -0.099 OA 
HETATM   31  H   UNL     1      -7.715   3.431  65.394  1.00  0.00     0.000 HD 
ENDBRANCH  27  28
ENDBRANCH  21  22
ENDBRANCH   2  18
TORSDOF 6
ENDMDL
MODEL       90
REMARK 921   NORMALIZED FREE ENERGY PREDICTED BY IDOCK:   -5.59 KCAL/MOL
REMARK 922        TOTAL FREE ENERGY PREDICTED BY IDOCK:   -9.17 KCAL/MOL
REMARK 923 INTER-LIGAND FREE ENERGY PREDICTED BY IDOCK:   -8.15 KCAL/MOL
REMARK 924 INTRA-LIGAND FREE ENERGY PREDICTED BY IDOCK:   -1.02 KCAL/MOL
REMARK 927      BINDING AFFINITY PREDICTED BY RF-SCORE:    0.00 PKD
ROOT
HETATM    1  C   UNL     1     -14.121   8.741  72.355  1.00  0.00    -0.485 C  
HETATM    2  C   UNL     1     -12.963   9.508  71.709  1.00  0.00    -0.412 C  
ENDROOT
BRANCH   2   3
HETATM    3  C   UNL     1     -13.132  11.023  71.919  1.00  0.00    -0.419 C  
BRANCH   3   4
HETATM    4  N   UNL     1     -12.609  11.798  70.808  1.00  0.00    -0.293 NA 
HETATM    5  C   UNL     1     -12.469  13.152  70.756  1.00  0.00    -0.308 A  
HETATM    6  N   UNL     1     -12.225  11.179  69.678  1.00  0.00    -0.314 NA 
HETATM    7  C   UNL     1     -11.825  12.168  68.861  1.00  0.00    -0.304 A  
HETATM    8  C   UNL     1     -11.946  13.425  69.516  1.00  0.00    -0.377 A  
BRANCH   7   9
HETATM    9  C   UNL     1     -11.365  11.894  67.494  1.00  0.00    -0.381 A  
HETATM   10  C   UNL     1     -11.830  12.671  66.421  1.00  0.00    -0.466 A  
HETATM   11  C   UNL     1     -10.444  10.872  67.228  1.00  0.00    -0.275 A  
HETATM   12  N   UNL     1      -9.510  10.939  62.495  1.00  0.00    -0.270 NA 
HETATM   13  C   UNL     1      -9.990  10.642  65.924  1.00  0.00    -0.312 A  
HETATM   14 CL   UNL     1     -11.992  13.458  63.860  1.00  0.00    -0.516 Cl 
HETATM   15  C   UNL     1     -10.448  11.430  64.863  1.00  0.00    -0.363 A  
HETATM   16  C   UNL     1      -9.944  11.174  63.545  1.00  0.00    -0.379 C  
HETATM   17  C   UNL     1     -11.375  12.444  65.117  1.00  0.00    -0.323 A  
ENDBRANCH   7   9
ENDBRANCH   3   4
ENDBRANCH   2   3
BRANCH   2  18
HETATM   18  N   UNL     1     -11.684   8.992  72.184  1.00  0.00    -0.341 N  
HETATM   19  O   UNL     1     -11.085   7.920  70.249  1.00  0.00    -0.257 OA 
HETATM   20  H   UNL     1     -11.405   9.202  73.142  1.00  0.00     0.000 HD 
HETATM   21  C   UNL     1     -10.835   8.236  71.408  1.00  0.00    -0.239 C  
BRANCH  21  22
HETATM   22  C   UNL     1      -9.606   7.817  72.088  1.00  0.00    -0.176 A  
HETATM   23  N   UNL     1      -8.523   8.605  72.234  1.00  0.00    -0.372 NA 
HETATM   24  H   UNL     1      -8.399   9.569  71.923  1.00  0.00     0.000 HD 
HETATM   25  C   UNL     1      -9.395   6.543  72.664  1.00  0.00    -0.145 A  
HETATM   26  N   UNL     1      -7.642   7.820  72.886  1.00  0.00    -0.098 NA 
HETATM   27  C   UNL     1      -8.105   6.558  73.141  1.00  0.00    -0.106 A  
BRANCH  27  28
HETATM   28  C   UNL     1      -7.295   5.523  73.829  1.00  0.00    -0.087 C  
HETATM   29  C   UNL     1      -6.948   4.351  72.916  1.00  0.00    -0.066 C  
HETATM   30  O   UNL     1      -6.104   6.164  74.270  1.00  0.00    -0.062 OA 
HETATM   31  H   UNL     1      -5.585   5.501  74.710  1.00  0.00     0.000 HD 
ENDBRANCH  27  28
ENDBRANCH  21  22
ENDBRANCH   2  18
TORSDOF 6
ENDMDL
MODEL       91
REMARK 921   NORMALIZED FREE ENERGY PREDICTED BY IDOCK:   -5.57 KCAL/MOL
REMARK 922        TOTAL FREE ENERGY PREDICTED BY IDOCK:   -9.14 KCAL/MOL
REMARK 923 INTER-LIGAND FREE ENERGY PREDICTED BY IDOCK:   -7.17 KCAL/MOL
REMARK 924 INTRA-LIGAND FREE ENERGY PREDICTED BY IDOCK:   -1.97 KCAL/MOL
REMARK 927      BINDING AFFINITY PREDICTED BY RF-SCORE:    0.00 PKD
ROOT
HETATM    1  C   UNL     1     -10.870   7.760  71.289  1.00  0.00    -0.255 C  
HETATM    2  C   UNL     1      -9.954   7.777  70.061  1.00  0.00    -0.187 C  
ENDROOT
BRANCH   2   3
HETATM    3  C   UNL     1     -10.755   7.474  68.783  1.00  0.00    -0.095 C  
BRANCH   3   4
HETATM    4  N   UNL     1     -10.347   8.303  67.663  1.00  0.00    -0.237 NA 
HETATM    5  C   UNL     1      -9.460   7.971  66.686  1.00  0.00    -0.212 A  
HETATM    6  N   UNL     1     -10.846   9.545  67.531  1.00  0.00    -0.243 NA 
HETATM    7  C   UNL     1     -10.255  10.038  66.429  1.00  0.00    -0.221 A  
HETATM    8  C   UNL     1      -9.389   9.064  65.858  1.00  0.00    -0.306 A  
BRANCH   7   9
HETATM    9  C   UNL     1     -10.514  11.409  65.970  1.00  0.00    -0.305 A  
HETATM   10  C   UNL     1     -11.085  12.351  66.840  1.00  0.00    -0.335 A  
HETATM   11  C   UNL     1     -10.181  11.815  64.670  1.00  0.00    -0.326 A  
HETATM   12  N   UNL     1     -11.292  16.493  64.271  1.00  0.00    -1.032 NA 
HETATM   13  C   UNL     1     -10.403  13.134  64.256  1.00  0.00    -0.361 A  
HETATM   14 CL   UNL     1     -12.001  14.766  67.570  1.00  0.00    -0.324 Cl 
HETATM   15  C   UNL     1     -10.961  14.069  65.133  1.00  0.00    -0.357 A  
HETATM   16  C   UNL     1     -11.154  15.414  64.676  1.00  0.00    -0.347 C  
HETATM   17  C   UNL     1     -11.305  13.671  66.428  1.00  0.00    -0.316 A  
ENDBRANCH   7   9
ENDBRANCH   3   4
ENDBRANCH   2   3
BRANCH   2  18
HETATM   18  N   UNL     1      -9.210   9.031  70.000  1.00  0.00    -0.168 N  
HETATM   19  O   UNL     1      -7.127   8.103  69.765  1.00  0.00    -0.057 OA 
HETATM   20  H   UNL     1      -9.730   9.905  70.073  1.00  0.00     0.000 HD 
HETATM   21  C   UNL     1      -7.843   9.096  69.850  1.00  0.00    -0.091 C  
BRANCH  21  22
HETATM   22  C   UNL     1      -7.303  10.458  69.820  1.00  0.00    -0.154 A  
HETATM   23  N   UNL     1      -6.417  10.933  70.717  1.00  0.00    -0.450 NA 
HETATM   24  H   UNL     1      -5.996  10.443  71.506  1.00  0.00     0.000 HD 
HETATM   25  C   UNL     1      -7.643  11.443  68.864  1.00  0.00    -0.114 A  
HETATM   26  N   UNL     1      -6.219  12.208  70.325  1.00  0.00    -0.140 NA 
HETATM   27  C   UNL     1      -6.957  12.575  69.234  1.00  0.00     0.032 A  
BRANCH  27  28
HETATM   28  C   UNL     1      -6.911  13.937  68.648  1.00  0.00    -0.101 C  
HETATM   29  C   UNL     1      -7.695  14.038  67.344  1.00  0.00    -0.177 C  
HETATM   30  O   UNL     1      -7.464  14.818  69.618  1.00  0.00    -0.290 OA 
HETATM   31  H   UNL     1      -7.435  15.690  69.242  1.00  0.00     0.000 HD 
ENDBRANCH  27  28
ENDBRANCH  21  22
ENDBRANCH   2  18
TORSDOF 6
ENDMDL
MODEL       92
REMARK 921   NORMALIZED FREE ENERGY PREDICTED BY IDOCK:   -5.54 KCAL/MOL
REMARK 922        TOTAL FREE ENERGY PREDICTED BY IDOCK:   -9.11 KCAL/MOL
REMARK 923 INTER-LIGAND FREE ENERGY PREDICTED BY IDOCK:   -7.69 KCAL/MOL
REMARK 924 INTRA-LIGAND FREE ENERGY PREDICTED BY IDOCK:   -1.42 KCAL/MOL
REMARK 927      BINDING AFFINITY PREDICTED BY RF-SCORE:    0.00 PKD
ROOT
HETATM    1  C   UNL     1     -13.471  13.390  72.164  1.00  0.00    -0.646 C  
HETATM    2  C   UNL     1     -12.899  12.626  70.965  1.00  0.00    -0.166 C  
ENDROOT
BRANCH   2   3
HETATM    3  C   UNL     1     -12.050  13.558  70.084  1.00  0.00    -0.354 C  
BRANCH   3   4
HETATM    4  N   UNL     1     -11.712  12.957  68.806  1.00  0.00    -0.305 NA 
HETATM    5  C   UNL     1     -12.023  13.441  67.572  1.00  0.00    -0.339 A  
HETATM    6  N   UNL     1     -11.040  11.793  68.768  1.00  0.00    -0.224 NA 
HETATM    7  C   UNL     1     -10.916  11.509  67.461  1.00  0.00    -0.255 A  
HETATM    8  C   UNL     1     -11.507  12.538  66.676  1.00  0.00    -0.417 A  
BRANCH   7   9
HETATM    9  C   UNL     1     -10.265  10.274  67.004  1.00  0.00    -0.282 A  
HETATM   10  C   UNL     1     -10.801   9.023  67.347  1.00  0.00    -0.116 A  
HETATM   11  C   UNL     1      -9.115  10.311  66.203  1.00  0.00    -0.181 A  
HETATM   12  N   UNL     1      -7.915   5.758  65.154  1.00  0.00    -0.112 NA 
HETATM   13  C   UNL     1      -8.524   9.127  65.748  1.00  0.00    -0.152 A  
HETATM   14 CL   UNL     1     -10.948   6.342  67.352  1.00  0.00    -0.442 Cl 
HETATM   15  C   UNL     1      -9.072   7.885  66.085  1.00  0.00    -0.210 A  
HETATM   16  C   UNL     1      -8.447   6.696  65.582  1.00  0.00    -0.144 C  
HETATM   17  C   UNL     1     -10.212   7.837  66.891  1.00  0.00    -0.303 A  
ENDBRANCH   7   9
ENDBRANCH   3   4
ENDBRANCH   2   3
BRANCH   2  18
HETATM   18  N   UNL     1     -12.184  11.437  71.415  1.00  0.00    -0.142 N  
HETATM   19  O   UNL     1     -13.884   9.942  71.056  1.00  0.00    -0.183 OA 
HETATM   20  H   UNL     1     -11.225  11.545  71.744  1.00  0.00     0.000 HD 
HETATM   21  C   UNL     1     -12.736  10.176  71.419  1.00  0.00    -0.425 C  
BRANCH  21  22
HETATM   22  C   UNL     1     -11.842   9.127  71.918  1.00  0.00    -0.369 A  
HETATM   23  N   UNL     1     -12.172   8.265  72.900  1.00  0.00    -0.610 NA 
HETATM   24  H   UNL     1     -13.052   8.200  73.413  1.00  0.00     0.000 HD 
HETATM   25  C   UNL     1     -10.530   8.891  71.449  1.00  0.00    -0.375 A  
HETATM   26  N   UNL     1     -11.066   7.507  73.045  1.00  0.00    -0.375 NA 
HETATM   27  C   UNL     1     -10.037   7.863  72.218  1.00  0.00    -0.236 A  
BRANCH  27  28
HETATM   28  C   UNL     1      -8.721   7.178  72.224  1.00  0.00    -0.120 C  
HETATM   29  C   UNL     1      -7.916   7.450  70.957  1.00  0.00    -0.097 C  
HETATM   30  O   UNL     1      -8.015   7.660  73.361  1.00  0.00    -0.112 OA 
HETATM   31  H   UNL     1      -7.173   7.222  73.365  1.00  0.00     0.000 HD 
ENDBRANCH  27  28
ENDBRANCH  21  22
ENDBRANCH   2  18
TORSDOF 6
ENDMDL
MODEL       93
REMARK 921   NORMALIZED FREE ENERGY PREDICTED BY IDOCK:   -5.52 KCAL/MOL
REMARK 922        TOTAL FREE ENERGY PREDICTED BY IDOCK:   -9.08 KCAL/MOL
REMARK 923 INTER-LIGAND FREE ENERGY PREDICTED BY IDOCK:   -8.16 KCAL/MOL
REMARK 924 INTRA-LIGAND FREE ENERGY PREDICTED BY IDOCK:   -0.92 KCAL/MOL
REMARK 927      BINDING AFFINITY PREDICTED BY RF-SCORE:    0.00 PKD
ROOT
HETATM    1  C   UNL     1     -10.347   7.964  72.351  1.00  0.00    -0.333 C  
HETATM    2  C   UNL     1     -11.545   7.210  71.764  1.00  0.00    -0.280 C  
ENDROOT
BRANCH   2   3
HETATM    3  C   UNL     1     -12.849   7.986  72.017  1.00  0.00    -0.287 C  
BRANCH   3   4
HETATM    4  N   UNL     1     -12.761   9.372  71.592  1.00  0.00    -0.348 NA 
HETATM    5  C   UNL     1     -13.137  10.467  72.308  1.00  0.00    -0.140 A  
HETATM    6  N   UNL     1     -12.286   9.671  70.371  1.00  0.00    -0.082 NA 
HETATM    7  C   UNL     1     -12.362  11.011  70.289  1.00  0.00    -0.328 A  
HETATM    8  C   UNL     1     -12.876  11.548  71.502  1.00  0.00    -0.485 A  
BRANCH   7   9
HETATM    9  C   UNL     1     -11.969  11.728  69.070  1.00  0.00    -0.341 A  
HETATM   10  C   UNL     1     -11.874  13.128  69.072  1.00  0.00    -0.358 A  
HETATM   11  C   UNL     1     -11.660  11.039  67.889  1.00  0.00    -0.306 A  
HETATM   12  N   UNL     1     -10.354  14.306  64.588  1.00  0.00    -0.356 NA 
HETATM   13  C   UNL     1     -11.255  11.733  66.743  1.00  0.00    -0.388 A  
HETATM   14 CL   UNL     1     -11.366  15.547  68.024  1.00  0.00    -0.339 Cl 
HETATM   15  C   UNL     1     -11.151  13.128  66.757  1.00  0.00    -0.314 A  
HETATM   16  C   UNL     1     -10.714  13.799  65.568  1.00  0.00    -0.302 C  
HETATM   17  C   UNL     1     -11.467  13.824  67.927  1.00  0.00    -0.314 A  
ENDBRANCH   7   9
ENDBRANCH   3   4
ENDBRANCH   2   3
BRANCH   2  18
HETATM   18  N   UNL     1     -11.312   6.903  70.357  1.00  0.00    -0.309 N  
HETATM   19  O   UNL     1     -10.365   4.841  70.681  1.00  0.00    -0.208 OA 
HETATM   20  H   UNL     1     -11.586   7.594  69.659  1.00  0.00     0.000 HD 
HETATM   21  C   UNL     1     -10.740   5.729  69.922  1.00  0.00    -0.342 C  
BRANCH  21  22
HETATM   22  C   UNL     1     -10.594   5.631  68.467  1.00  0.00    -0.189 A  
HETATM   23  N   UNL     1     -11.288   6.383  67.591  1.00  0.00    -0.676 NA 
HETATM   24  H   UNL     1     -11.976   7.109  67.791  1.00  0.00     0.000 HD 
HETATM   25  C   UNL     1      -9.724   4.737  67.799  1.00  0.00    -0.202 A  
HETATM   26  N   UNL     1     -10.858   5.951  66.388  1.00  0.00    -0.145 NA 
HETATM   27  C   UNL     1      -9.941   4.939  66.457  1.00  0.00    -0.232 A  
BRANCH  27  28
HETATM   28  C   UNL     1      -9.352   4.299  65.255  1.00  0.00    -0.165 C  
HETATM   29  C   UNL     1     -10.413   3.807  64.276  1.00  0.00    -0.252 C  
HETATM   30  O   UNL     1      -8.532   5.279  64.631  1.00  0.00    -0.141 OA 
HETATM   31  H   UNL     1      -8.155   4.870  63.861  1.00  0.00     0.000 HD 
ENDBRANCH  27  28
ENDBRANCH  21  22
ENDBRANCH   2  18
TORSDOF 6
ENDMDL
MODEL       94
REMARK 921   NORMALIZED FREE ENERGY PREDICTED BY IDOCK:   -5.52 KCAL/MOL
REMARK 922        TOTAL FREE ENERGY PREDICTED BY IDOCK:   -9.08 KCAL/MOL
REMARK 923 INTER-LIGAND FREE ENERGY PREDICTED BY IDOCK:   -7.60 KCAL/MOL
REMARK 924 INTRA-LIGAND FREE ENERGY PREDICTED BY IDOCK:   -1.48 KCAL/MOL
REMARK 927      BINDING AFFINITY PREDICTED BY RF-SCORE:    0.00 PKD
ROOT
HETATM    1  C   UNL     1      -9.441  15.533  69.625  1.00  0.00    -0.244 C  
HETATM    2  C   UNL     1     -10.313  14.696  68.684  1.00  0.00    -0.246 C  
ENDROOT
BRANCH   2   3
HETATM    3  C   UNL     1      -9.550  14.365  67.390  1.00  0.00    -0.216 C  
BRANCH   3   4
HETATM    4  N   UNL     1      -8.899  13.068  67.446  1.00  0.00    -0.193 NA 
HETATM    5  C   UNL     1      -7.597  12.826  67.760  1.00  0.00    -0.141 A  
HETATM    6  N   UNL     1      -9.592  11.955  67.150  1.00  0.00    -0.184 NA 
HETATM    7  C   UNL     1      -8.704  10.954  67.271  1.00  0.00    -0.131 A  
HETATM    8  C   UNL     1      -7.439  11.465  67.675  1.00  0.00    -0.103 A  
BRANCH   7   9
HETATM    9  C   UNL     1      -9.075   9.562  66.984  1.00  0.00    -0.154 A  
HETATM   10  C   UNL     1      -8.194   8.726  66.281  1.00  0.00    -0.115 A  
HETATM   11  C   UNL     1     -10.297   9.031  67.418  1.00  0.00    -0.335 A  
HETATM   12  N   UNL     1     -10.429   4.393  66.096  1.00  0.00    -0.164 NA 
HETATM   13  C   UNL     1     -10.624   7.694  67.165  1.00  0.00    -0.410 A  
HETATM   14 CL   UNL     1      -7.368   6.427  65.167  1.00  0.00    -0.074 Cl 
HETATM   15  C   UNL     1      -9.735   6.864  66.475  1.00  0.00    -0.185 A  
HETATM   16  C   UNL     1     -10.100   5.495  66.253  1.00  0.00    -0.145 C  
HETATM   17  C   UNL     1      -8.518   7.387  66.029  1.00  0.00    -0.148 A  
ENDBRANCH   7   9
ENDBRANCH   3   4
ENDBRANCH   2   3
BRANCH   2  18
HETATM   18  N   UNL     1     -10.824  13.518  69.378  1.00  0.00    -0.450 N  
HETATM   19  O   UNL     1     -12.770  14.466  70.130  1.00  0.00    -0.334 OA 
HETATM   20  H   UNL     1     -10.260  12.669  69.367  1.00  0.00     0.000 HD 
HETATM   21  C   UNL     1     -12.026  13.494  70.048  1.00  0.00    -0.340 C  
BRANCH  21  22
HETATM   22  C   UNL     1     -12.340  12.210  70.679  1.00  0.00    -0.295 A  
HETATM   23  N   UNL     1     -13.150  12.078  71.748  1.00  0.00    -0.426 NA 
HETATM   24  H   UNL     1     -13.655  12.808  72.250  1.00  0.00     0.000 HD 
HETATM   25  C   UNL     1     -11.833  10.957  70.263  1.00  0.00    -0.450 A  
HETATM   26  N   UNL     1     -13.135  10.752  71.998  1.00  0.00    -0.464 NA 
HETATM   27  C   UNL     1     -12.332  10.037  71.154  1.00  0.00    -0.377 A  
BRANCH  27  28
HETATM   28  C   UNL     1     -12.151   8.568  71.261  1.00  0.00    -0.286 C  
HETATM   29  C   UNL     1     -11.534   8.153  72.593  1.00  0.00    -0.454 C  
HETATM   30  O   UNL     1     -13.442   7.986  71.121  1.00  0.00    -0.533 OA 
HETATM   31  H   UNL     1     -13.326   7.047  71.191  1.00  0.00     0.000 HD 
ENDBRANCH  27  28
ENDBRANCH  21  22
ENDBRANCH   2  18
TORSDOF 6
ENDMDL
MODEL       95
REMARK 921   NORMALIZED FREE ENERGY PREDICTED BY IDOCK:   -5.51 KCAL/MOL
REMARK 922        TOTAL FREE ENERGY PREDICTED BY IDOCK:   -9.07 KCAL/MOL
REMARK 923 INTER-LIGAND FREE ENERGY PREDICTED BY IDOCK:   -7.65 KCAL/MOL
REMARK 924 INTRA-LIGAND FREE ENERGY PREDICTED BY IDOCK:   -1.41 KCAL/MOL
REMARK 927      BINDING AFFINITY PREDICTED BY RF-SCORE:    0.00 PKD
ROOT
HETATM    1  C   UNL     1     -13.507   9.684  70.976  1.00  0.00    -0.225 C  
HETATM    2  C   UNL     1     -12.177  10.412  70.756  1.00  0.00    -0.359 C  
ENDROOT
BRANCH   2   3
HETATM    3  C   UNL     1     -11.005   9.575  71.296  1.00  0.00    -0.370 C  
BRANCH   3   4
HETATM    4  N   UNL     1     -10.154   9.063  70.236  1.00  0.00    -0.187 NA 
HETATM    5  C   UNL     1      -8.929   9.536  69.877  1.00  0.00    -0.212 A  
HETATM    6  N   UNL     1     -10.568   8.031  69.481  1.00  0.00    -0.227 NA 
HETATM    7  C   UNL     1      -9.576   7.831  68.596  1.00  0.00    -0.154 A  
HETATM    8  C   UNL     1      -8.516   8.750  68.830  1.00  0.00    -0.131 A  
BRANCH   7   9
HETATM    9  C   UNL     1      -9.675   6.798  67.556  1.00  0.00    -0.154 A  
HETATM   10  C   UNL     1      -8.513   6.217  67.024  1.00  0.00    -0.105 A  
HETATM   11  C   UNL     1     -10.919   6.355  67.087  1.00  0.00    -0.476 A  
HETATM   12  N   UNL     1     -10.103   2.880  63.841  1.00  0.00    -0.162 NA 
HETATM   13  C   UNL     1     -10.998   5.348  66.118  1.00  0.00     0.002 A  
HETATM   14 CL   UNL     1      -7.109   4.540  65.468  1.00  0.00    -0.066 Cl 
HETATM   15  C   UNL     1      -9.836   4.765  65.603  1.00  0.00    -0.193 A  
HETATM   16  C   UNL     1      -9.961   3.722  64.626  1.00  0.00    -0.199 C  
HETATM   17  C   UNL     1      -8.591   5.207  66.057  1.00  0.00    -0.124 A  
ENDBRANCH   7   9
ENDBRANCH   3   4
ENDBRANCH   2   3
BRANCH   2  18
HETATM   18  N   UNL     1     -12.030  10.786  69.353  1.00  0.00    -0.452 N  
HETATM   19  O   UNL     1     -11.560  13.001  69.709  1.00  0.00    -0.275 OA 
HETATM   20  H   UNL     1     -12.161  10.065  68.644  1.00  0.00     0.000 HD 
HETATM   21  C   UNL     1     -11.724  12.062  68.937  1.00  0.00    -0.326 C  
BRANCH  21  22
HETATM   22  C   UNL     1     -11.631  12.217  67.482  1.00  0.00    -0.353 A  
HETATM   23  N   UNL     1     -12.340  13.120  66.777  1.00  0.00    -0.328 NA 
HETATM   24  H   UNL     1     -13.006  13.809  67.126  1.00  0.00     0.000 HD 
HETATM   25  C   UNL     1     -10.803  11.442  66.637  1.00  0.00    -0.339 A  
HETATM   26  N   UNL     1     -11.962  12.898  65.502  1.00  0.00    -0.410 NA 
HETATM   27  C   UNL     1     -11.063  11.877  65.359  1.00  0.00    -0.306 A  
BRANCH  27  28
HETATM   28  C   UNL     1     -10.529  11.448  64.043  1.00  0.00    -0.378 C  
HETATM   29  C   UNL     1      -9.772  10.126  64.123  1.00  0.00    -0.301 C  
HETATM   30  O   UNL     1     -11.646  11.317  63.173  1.00  0.00    -0.847 OA 
HETATM   31  H   UNL     1     -11.304  11.042  62.330  1.00  0.00     0.000 HD 
ENDBRANCH  27  28
ENDBRANCH  21  22
ENDBRANCH   2  18
TORSDOF 6
ENDMDL
MODEL       96
REMARK 921   NORMALIZED FREE ENERGY PREDICTED BY IDOCK:   -5.46 KCAL/MOL
REMARK 922        TOTAL FREE ENERGY PREDICTED BY IDOCK:   -9.00 KCAL/MOL
REMARK 923 INTER-LIGAND FREE ENERGY PREDICTED BY IDOCK:   -7.61 KCAL/MOL
REMARK 924 INTRA-LIGAND FREE ENERGY PREDICTED BY IDOCK:   -1.38 KCAL/MOL
REMARK 927      BINDING AFFINITY PREDICTED BY RF-SCORE:    0.00 PKD
ROOT
HETATM    1  C   UNL     1      -9.555  14.503  68.718  1.00  0.00    -0.193 C  
HETATM    2  C   UNL     1      -9.941  13.202  68.007  1.00  0.00    -0.233 C  
ENDROOT
BRANCH   2   3
HETATM    3  C   UNL     1      -8.824  12.758  67.046  1.00  0.00    -0.213 C  
BRANCH   3   4
HETATM    4  N   UNL     1      -9.169  11.553  66.314  1.00  0.00    -0.207 NA 
HETATM    5  C   UNL     1      -9.679  11.485  65.053  1.00  0.00    -0.238 A  
HETATM    6  N   UNL     1      -9.011  10.349  66.890  1.00  0.00    -0.139 NA 
HETATM    7  C   UNL     1      -9.440   9.467  65.970  1.00  0.00    -0.233 A  
HETATM    8  C   UNL     1      -9.850  10.149  64.790  1.00  0.00    -0.382 A  
BRANCH   7   9
HETATM    9  C   UNL     1      -9.466   8.025  66.245  1.00  0.00    -0.241 A  
HETATM   10  C   UNL     1      -8.606   7.157  65.553  1.00  0.00    -0.093 A  
HETATM   11  C   UNL     1     -10.326   7.484  67.210  1.00  0.00    -0.366 A  
HETATM   12  N   UNL     1      -9.491   2.737  67.416  1.00  0.00    -0.141 NA 
HETATM   13  C   UNL     1     -10.317   6.111  67.484  1.00  0.00    -0.259 A  
HETATM   14 CL   UNL     1      -7.493   4.793  64.937  1.00  0.00    -0.074 Cl 
HETATM   15  C   UNL     1      -9.448   5.256  66.799  1.00  0.00    -0.142 A  
HETATM   16  C   UNL     1      -9.457   3.859  67.124  1.00  0.00    -0.201 C  
HETATM   17  C   UNL     1      -8.594   5.784  65.828  1.00  0.00    -0.149 A  
ENDBRANCH   7   9
ENDBRANCH   3   4
ENDBRANCH   2   3
BRANCH   2  18
HETATM   18  N   UNL     1     -10.312  12.181  68.982  1.00  0.00    -0.421 N  
HETATM   19  O   UNL     1     -12.265  11.534  67.971  1.00  0.00    -0.582 OA 
HETATM   20  H   UNL     1      -9.694  12.027  69.778  1.00  0.00     0.000 HD 
HETATM   21  C   UNL     1     -11.452  11.417  68.883  1.00  0.00    -0.298 C  
BRANCH  21  22
HETATM   22  C   UNL     1     -11.632  10.457  69.975  1.00  0.00    -0.301 A  
HETATM   23  N   UNL     1     -12.834  10.104  70.473  1.00  0.00    -0.555 NA 
HETATM   24  H   UNL     1     -13.757  10.421  70.176  1.00  0.00     0.000 HD 
HETATM   25  C   UNL     1     -10.582   9.791  70.649  1.00  0.00    -0.382 A  
HETATM   26  N   UNL     1     -12.528   9.233  71.457  1.00  0.00    -0.336 NA 
HETATM   27  C   UNL     1     -11.186   9.034  71.625  1.00  0.00    -0.361 A  
BRANCH  27  28
HETATM   28  C   UNL     1     -10.626   8.134  72.664  1.00  0.00    -0.344 C  
HETATM   29  C   UNL     1     -11.038   6.680  72.458  1.00  0.00    -0.296 C  
HETATM   30  O   UNL     1      -9.211   8.254  72.588  1.00  0.00    -0.232 OA 
HETATM   31  H   UNL     1      -8.853   7.677  73.252  1.00  0.00     0.000 HD 
ENDBRANCH  27  28
ENDBRANCH  21  22
ENDBRANCH   2  18
TORSDOF 6
ENDMDL
MODEL       97
REMARK 921   NORMALIZED FREE ENERGY PREDICTED BY IDOCK:   -5.46 KCAL/MOL
REMARK 922        TOTAL FREE ENERGY PREDICTED BY IDOCK:   -9.00 KCAL/MOL
REMARK 923 INTER-LIGAND FREE ENERGY PREDICTED BY IDOCK:   -7.94 KCAL/MOL
REMARK 924 INTRA-LIGAND FREE ENERGY PREDICTED BY IDOCK:   -1.05 KCAL/MOL
REMARK 927      BINDING AFFINITY PREDICTED BY RF-SCORE:    0.00 PKD
ROOT
HETATM    1  C   UNL     1     -12.987  11.473  63.565  1.00  0.00     0.159 C  
HETATM    2  C   UNL     1     -11.695  12.291  63.663  1.00  0.00    -0.504 C  
ENDROOT
BRANCH   2   3
HETATM    3  C   UNL     1     -12.013  13.782  63.868  1.00  0.00    -0.371 C  
BRANCH   3   4
HETATM    4  N   UNL     1     -11.398  14.320  65.068  1.00  0.00    -0.348 NA 
HETATM    5  C   UNL     1     -10.175  14.912  65.161  1.00  0.00    -0.375 A  
HETATM    6  N   UNL     1     -12.042  14.240  66.246  1.00  0.00    -0.424 NA 
HETATM    7  C   UNL     1     -11.203  14.796  67.136  1.00  0.00    -0.343 A  
HETATM    8  C   UNL     1     -10.023  15.249  66.483  1.00  0.00    -0.278 A  
BRANCH   7   9
HETATM    9  C   UNL     1     -11.535  14.860  68.565  1.00  0.00    -0.336 A  
HETATM   10  C   UNL     1     -12.032  13.726  69.228  1.00  0.00    -0.399 A  
HETATM   11  C   UNL     1     -11.346  16.036  69.304  1.00  0.00    -0.356 A  
HETATM   12  N   UNL     1     -12.587  15.110  73.873  1.00  0.00    -0.562 NA 
HETATM   13  C   UNL     1     -11.637  16.074  70.672  1.00  0.00    -0.409 A  
HETATM   14 CL   UNL     1     -12.917  12.315  71.333  1.00  0.00    -0.422 Cl 
HETATM   15  C   UNL     1     -12.120  14.936  71.327  1.00  0.00    -0.385 A  
HETATM   16  C   UNL     1     -12.387  15.011  72.734  1.00  0.00    -0.360 C  
HETATM   17  C   UNL     1     -12.321  13.761  70.598  1.00  0.00    -0.375 A  
ENDBRANCH   7   9
ENDBRANCH   3   4
ENDBRANCH   2   3
BRANCH   2  18
HETATM   18  N   UNL     1     -10.817  11.735  64.687  1.00  0.00    -0.295 N  
HETATM   19  O   UNL     1      -9.562  10.422  63.288  1.00  0.00    -0.302 OA 
HETATM   20  H   UNL     1     -10.960  12.023  65.654  1.00  0.00     0.000 HD 
HETATM   21  C   UNL     1      -9.807  10.841  64.415  1.00  0.00    -0.315 C  
BRANCH  21  22
HETATM   22  C   UNL     1      -9.052  10.406  65.594  1.00  0.00    -0.176 A  
HETATM   23  N   UNL     1      -8.815  11.190  66.664  1.00  0.00    -0.161 NA 
HETATM   24  H   UNL     1      -9.119  12.151  66.821  1.00  0.00     0.000 HD 
HETATM   25  C   UNL     1      -8.471   9.127  65.757  1.00  0.00    -0.152 A  
HETATM   26  N   UNL     1      -8.083  10.404  67.480  1.00  0.00    -0.107 NA 
HETATM   27  C   UNL     1      -7.820   9.164  66.967  1.00  0.00    -0.102 A  
BRANCH  27  28
HETATM   28  C   UNL     1      -7.013   8.147  67.685  1.00  0.00    -0.078 C  
HETATM   29  C   UNL     1      -6.058   8.769  68.699  1.00  0.00    -0.045 C  
HETATM   30  O   UNL     1      -7.935   7.289  68.348  1.00  0.00    -0.120 OA 
HETATM   31  H   UNL     1      -7.418   6.638  68.808  1.00  0.00     0.000 HD 
ENDBRANCH  27  28
ENDBRANCH  21  22
ENDBRANCH   2  18
TORSDOF 6
ENDMDL
MODEL       98
REMARK 921   NORMALIZED FREE ENERGY PREDICTED BY IDOCK:   -5.45 KCAL/MOL
REMARK 922        TOTAL FREE ENERGY PREDICTED BY IDOCK:   -8.99 KCAL/MOL
REMARK 923 INTER-LIGAND FREE ENERGY PREDICTED BY IDOCK:   -8.24 KCAL/MOL
REMARK 924 INTRA-LIGAND FREE ENERGY PREDICTED BY IDOCK:   -0.75 KCAL/MOL
REMARK 927      BINDING AFFINITY PREDICTED BY RF-SCORE:    0.00 PKD
ROOT
HETATM    1  C   UNL     1     -14.174   8.124  71.849  1.00  0.00    -0.530 C  
HETATM    2  C   UNL     1     -12.747   8.216  71.297  1.00  0.00    -0.206 C  
ENDROOT
BRANCH   2   3
HETATM    3  C   UNL     1     -12.136   9.594  71.604  1.00  0.00    -0.402 C  
BRANCH   3   4
HETATM    4  N   UNL     1     -11.372  10.123  70.488  1.00  0.00    -0.316 NA 
HETATM    5  C   UNL     1     -10.078   9.834  70.180  1.00  0.00    -0.265 A  
HETATM    6  N   UNL     1     -11.936  11.007  69.647  1.00  0.00    -0.328 NA 
HETATM    7  C   UNL     1     -10.969  11.307  68.763  1.00  0.00    -0.220 A  
HETATM    8  C   UNL     1      -9.788  10.569  69.057  1.00  0.00    -0.224 A  
BRANCH   7   9
HETATM    9  C   UNL     1     -11.187  12.288  67.693  1.00  0.00    -0.346 A  
HETATM   10  C   UNL     1     -11.657  11.872  66.437  1.00  0.00    -0.315 A  
HETATM   11  C   UNL     1     -10.955  13.655  67.900  1.00  0.00    -0.277 A  
HETATM   12  N   UNL     1     -12.129  15.972  63.834  1.00  0.00    -0.819 NA 
HETATM   13  C   UNL     1     -11.198  14.583  66.881  1.00  0.00    -0.340 A  
HETATM   14 CL   UNL     1     -12.492  12.199  63.906  1.00  0.00    -0.590 Cl 
HETATM   15  C   UNL     1     -11.678  14.161  65.637  1.00  0.00    -0.357 A  
HETATM   16  C   UNL     1     -11.932  15.146  64.625  1.00  0.00    -0.298 C  
HETATM   17  C   UNL     1     -11.903  12.799  65.417  1.00  0.00    -0.415 A  
ENDBRANCH   7   9
ENDBRANCH   3   4
ENDBRANCH   2   3
BRANCH   2  18
HETATM   18  N   UNL     1     -11.942   7.100  71.781  1.00  0.00    -0.297 N  
HETATM   19  O   UNL     1     -11.448   6.208  69.728  1.00  0.00    -0.433 OA 
HETATM   20  H   UNL     1     -11.816   6.996  72.788  1.00  0.00     0.000 HD 
HETATM   21  C   UNL     1     -11.346   6.179  70.951  1.00  0.00    -0.287 C  
BRANCH  21  22
HETATM   22  C   UNL     1     -10.589   5.136  71.649  1.00  0.00    -0.156 A  
HETATM   23  N   UNL     1     -10.771   4.818  72.946  1.00  0.00    -0.219 NA 
HETATM   24  H   UNL     1     -11.437   5.220  73.606  1.00  0.00     0.000 HD 
HETATM   25  C   UNL     1      -9.573   4.344  71.065  1.00  0.00    -0.249 A  
HETATM   26  N   UNL     1      -9.866   3.843  73.166  1.00  0.00    -0.123 NA 
HETATM   27  C   UNL     1      -9.098   3.542  72.075  1.00  0.00    -0.108 A  
BRANCH  27  28
HETATM   28  C   UNL     1      -8.026   2.516  72.099  1.00  0.00    -0.054 C  
HETATM   29  C   UNL     1      -7.336   2.361  70.748  1.00  0.00    -0.033 C  
HETATM   30  O   UNL     1      -7.085   2.931  73.082  1.00  0.00    -0.037 OA 
HETATM   31  H   UNL     1      -6.399   2.275  73.097  1.00  0.00     0.000 HD 
ENDBRANCH  27  28
ENDBRANCH  21  22
ENDBRANCH   2  18
TORSDOF 6
ENDMDL
MODEL       99
REMARK 921   NORMALIZED FREE ENERGY PREDICTED BY IDOCK:   -5.44 KCAL/MOL
REMARK 922        TOTAL FREE ENERGY PREDICTED BY IDOCK:   -8.98 KCAL/MOL
REMARK 923 INTER-LIGAND FREE ENERGY PREDICTED BY IDOCK:   -8.29 KCAL/MOL
REMARK 924 INTRA-LIGAND FREE ENERGY PREDICTED BY IDOCK:   -0.69 KCAL/MOL
REMARK 927      BINDING AFFINITY PREDICTED BY RF-SCORE:    0.00 PKD
ROOT
HETATM    1  C   UNL     1     -10.013  10.373  66.483  1.00  0.00    -0.271 C  
HETATM    2  C   UNL     1     -10.385  11.124  67.766  1.00  0.00    -0.187 C  
ENDROOT
BRANCH   2   3
HETATM    3  C   UNL     1     -11.645  11.980  67.546  1.00  0.00    -0.330 C  
BRANCH   3   4
HETATM    4  N   UNL     1     -11.527  13.301  68.137  1.00  0.00    -0.291 NA 
HETATM    5  C   UNL     1     -12.263  13.799  69.168  1.00  0.00    -0.250 A  
HETATM    6  N   UNL     1     -10.632  14.177  67.649  1.00  0.00    -0.251 NA 
HETATM    7  C   UNL     1     -10.798  15.288  68.388  1.00  0.00    -0.257 A  
HETATM    8  C   UNL     1     -11.806  15.077  69.371  1.00  0.00    -0.358 A  
BRANCH   7   9
HETATM    9  C   UNL     1     -10.018  16.504  68.129  1.00  0.00    -0.248 A  
HETATM   10  C   UNL     1     -10.532  17.510  67.294  1.00  0.00    -0.327 A  
HETATM   11  C   UNL     1      -8.762  16.703  68.718  1.00  0.00    -0.260 A  
HETATM   12  N   UNL     1      -7.167  21.042  67.338  1.00  0.00    -0.408 NA 
HETATM   13  C   UNL     1      -8.044  17.881  68.487  1.00  0.00    -0.305 A  
HETATM   14 CL   UNL     1     -10.531  19.880  66.033  1.00  0.00    -0.598 Cl 
HETATM   15  C   UNL     1      -8.568  18.883  67.664  1.00  0.00    -0.304 A  
HETATM   16  C   UNL     1      -7.809  20.084  67.469  1.00  0.00    -0.301 C  
HETATM   17  C   UNL     1      -9.816  18.691  67.064  1.00  0.00    -0.327 A  
ENDBRANCH   7   9
ENDBRANCH   3   4
ENDBRANCH   2   3
BRANCH   2  18
HETATM   18  N   UNL     1     -10.498  10.194  68.884  1.00  0.00    -0.198 N  
HETATM   19  O   UNL     1      -8.291  10.240  69.501  1.00  0.00    -0.164 OA 
HETATM   20  H   UNL     1     -11.414   9.796  69.091  1.00  0.00     0.000 HD 
HETATM   21  C   UNL     1      -9.433   9.827  69.675  1.00  0.00    -0.219 C  
BRANCH  21  22
HETATM   22  C   UNL     1      -9.770   8.876  70.739  1.00  0.00    -0.227 A  
HETATM   23  N   UNL     1      -9.236   8.914  71.975  1.00  0.00    -0.386 NA 
HETATM   24  H   UNL     1      -8.561   9.581  72.350  1.00  0.00     0.000 HD 
HETATM   25  C   UNL     1     -10.680   7.802  70.606  1.00  0.00    -0.233 A  
HETATM   26  N   UNL     1      -9.804   7.862  72.600  1.00  0.00    -0.226 NA 
HETATM   27  C   UNL     1     -10.656   7.141  71.811  1.00  0.00    -0.206 A  
BRANCH  27  28
HETATM   28  C   UNL     1     -11.373   5.932  72.288  1.00  0.00    -0.298 C  
HETATM   29  C   UNL     1     -10.811   5.403  73.604  1.00  0.00    -0.321 C  
HETATM   30  O   UNL     1     -12.735   6.305  72.455  1.00  0.00    -0.537 OA 
HETATM   31  H   UNL     1     -13.193   5.532  72.761  1.00  0.00     0.000 HD 
ENDBRANCH  27  28
ENDBRANCH  21  22
ENDBRANCH   2  18
TORSDOF 6
ENDMDL
MODEL      100
REMARK 921   NORMALIZED FREE ENERGY PREDICTED BY IDOCK:   -5.44 KCAL/MOL
REMARK 922        TOTAL FREE ENERGY PREDICTED BY IDOCK:   -8.97 KCAL/MOL
REMARK 923 INTER-LIGAND FREE ENERGY PREDICTED BY IDOCK:   -7.48 KCAL/MOL
REMARK 924 INTRA-LIGAND FREE ENERGY PREDICTED BY IDOCK:   -1.49 KCAL/MOL
REMARK 927      BINDING AFFINITY PREDICTED BY RF-SCORE:    0.00 PKD
ROOT
HETATM    1  C   UNL     1      -8.419   6.951  66.266  1.00  0.00    -0.131 C  
HETATM    2  C   UNL     1      -8.046   7.558  67.622  1.00  0.00    -0.118 C  
ENDROOT
BRANCH   2   3
HETATM    3  C   UNL     1      -7.501   8.986  67.445  1.00  0.00    -0.085 C  
BRANCH   3   4
HETATM    4  N   UNL     1      -8.557   9.958  67.223  1.00  0.00    -0.125 NA 
HETATM    5  C   UNL     1      -9.062  10.350  66.021  1.00  0.00    -0.162 A  
HETATM    6  N   UNL     1      -9.123  10.586  68.269  1.00  0.00    -0.141 NA 
HETATM    7  C   UNL     1     -10.024  11.420  67.724  1.00  0.00    -0.178 A  
HETATM    8  C   UNL     1     -10.028  11.283  66.308  1.00  0.00    -0.260 A  
BRANCH   7   9
HETATM    9  C   UNL     1     -10.830  12.325  68.553  1.00  0.00    -0.267 A  
HETATM   10  C   UNL     1     -10.846  13.704  68.288  1.00  0.00    -0.268 A  
HETATM   11  C   UNL     1     -11.615  11.839  69.609  1.00  0.00    -0.393 A  
HETATM   12  N   UNL     1     -13.949  15.592  71.544  1.00  0.00    -0.526 NA 
HETATM   13  C   UNL     1     -12.403  12.709  70.371  1.00  0.00    -0.315 A  
HETATM   14 CL   UNL     1     -11.602  16.255  68.643  1.00  0.00    -0.304 Cl 
HETATM   15  C   UNL     1     -12.422  14.079  70.092  1.00  0.00    -0.380 A  
HETATM   16  C   UNL     1     -13.258  14.934  70.884  1.00  0.00    -0.368 C  
HETATM   17  C   UNL     1     -11.636  14.575  69.048  1.00  0.00    -0.298 A  
ENDBRANCH   7   9
ENDBRANCH   3   4
ENDBRANCH   2   3
BRANCH   2  18
HETATM   18  N   UNL     1      -9.173   7.473  68.545  1.00  0.00    -0.143 N  
HETATM   19  O   UNL     1      -7.989   6.713  70.355  1.00  0.00    -0.111 OA 
HETATM   20  H   UNL     1     -10.098   7.733  68.203  1.00  0.00     0.000 HD 
HETATM   21  C   UNL     1      -9.054   7.059  69.852  1.00  0.00    -0.141 C  
BRANCH  21  22
HETATM   22  C   UNL     1     -10.315   7.043  70.598  1.00  0.00    -0.207 A  
HETATM   23  N   UNL     1     -10.831   5.940  71.176  1.00  0.00    -0.268 NA 
HETATM   24  H   UNL     1     -10.441   4.998  71.195  1.00  0.00     0.000 HD 
HETATM   25  C   UNL     1     -11.151   8.166  70.799  1.00  0.00    -0.275 A  
HETATM   26  N   UNL     1     -11.985   6.375  71.721  1.00  0.00    -0.333 NA 
HETATM   27  C   UNL     1     -12.241   7.700  71.495  1.00  0.00    -0.324 A  
BRANCH  27  28
HETATM   28  C   UNL     1     -13.464   8.382  71.986  1.00  0.00    -0.350 C  
HETATM   29  C   UNL     1     -13.192   9.812  72.439  1.00  0.00    -0.363 C  
HETATM   30  O   UNL     1     -14.392   8.381  70.908  1.00  0.00    -0.643 OA 
HETATM   31  H   UNL     1     -15.174   8.818  71.222  1.00  0.00     0.000 HD 
ENDBRANCH  27  28
ENDBRANCH  21  22
ENDBRANCH   2  18
TORSDOF 6
ENDMDL
MODEL      101
REMARK 921   NORMALIZED FREE ENERGY PREDICTED BY IDOCK:   -5.42 KCAL/MOL
REMARK 922        TOTAL FREE ENERGY PREDICTED BY IDOCK:   -8.95 KCAL/MOL
REMARK 923 INTER-LIGAND FREE ENERGY PREDICTED BY IDOCK:   -7.99 KCAL/MOL
REMARK 924 INTRA-LIGAND FREE ENERGY PREDICTED BY IDOCK:   -0.96 KCAL/MOL
REMARK 927      BINDING AFFINITY PREDICTED BY RF-SCORE:    0.00 PKD
ROOT
HETATM    1  C   UNL     1     -13.614   9.293  71.655  1.00  0.00    -0.448 C  
HETATM    2  C   UNL     1     -13.081  10.634  71.138  1.00  0.00    -0.322 C  
ENDROOT
BRANCH   2   3
HETATM    3  C   UNL     1     -13.310  11.744  72.177  1.00  0.00    -0.228 C  
BRANCH   3   4
HETATM    4  N   UNL     1     -13.192  13.073  71.604  1.00  0.00    -0.373 NA 
HETATM    5  C   UNL     1     -13.994  14.144  71.859  1.00  0.00    -0.470 A  
HETATM    6  N   UNL     1     -12.224  13.334  70.708  1.00  0.00    -0.353 NA 
HETATM    7  C   UNL     1     -12.410  14.620  70.365  1.00  0.00    -0.339 A  
HETATM    8  C   UNL     1     -13.505  15.169  71.088  1.00  0.00    -0.533 A  
BRANCH   7   9
HETATM    9  C   UNL     1     -11.563  15.274  69.359  1.00  0.00    -0.347 A  
HETATM   10  C   UNL     1     -11.235  16.634  69.485  1.00  0.00    -0.060 A  
HETATM   11  C   UNL     1     -11.047  14.562  68.268  1.00  0.00    -0.275 A  
HETATM   12  N   UNL     1      -8.303  17.592  65.706  1.00  0.00    -0.513 NA 
HETATM   13  C   UNL     1     -10.215  15.190  67.334  1.00  0.00    -0.235 A  
HETATM   14 CL   UNL     1     -10.041  18.936  68.794  1.00  0.00    -0.443 Cl 
HETATM   15  C   UNL     1      -9.883  16.541  67.474  1.00  0.00    -0.248 A  
HETATM   16  C   UNL     1      -9.013  17.142  66.506  1.00  0.00    -0.272 C  
HETATM   17  C   UNL     1     -10.401  17.263  68.553  1.00  0.00    -0.371 A  
ENDBRANCH   7   9
ENDBRANCH   3   4
ENDBRANCH   2   3
BRANCH   2  18
HETATM   18  N   UNL     1     -11.689  10.501  70.723  1.00  0.00    -0.348 N  
HETATM   19  O   UNL     1     -12.039  10.834  68.482  1.00  0.00    -0.493 OA 
HETATM   20  H   UNL     1     -10.988  10.310  71.438  1.00  0.00     0.000 HD 
HETATM   21  C   UNL     1     -11.273  10.618  69.416  1.00  0.00    -0.270 C  
BRANCH  21  22
HETATM   22  C   UNL     1      -9.831  10.442  69.223  1.00  0.00    -0.225 A  
HETATM   23  N   UNL     1      -9.001  11.428  68.826  1.00  0.00    -0.334 NA 
HETATM   24  H   UNL     1      -9.231  12.400  68.622  1.00  0.00     0.000 HD 
HETATM   25  C   UNL     1      -9.131   9.229  69.415  1.00  0.00    -0.152 A  
HETATM   26  N   UNL     1      -7.797  10.824  68.762  1.00  0.00    -0.120 NA 
HETATM   27  C   UNL     1      -7.825   9.493  69.075  1.00  0.00    -0.077 A  
BRANCH  27  28
HETATM   28  C   UNL     1      -6.618   8.631  69.049  1.00  0.00    -0.048 C  
HETATM   29  C   UNL     1      -6.407   7.964  67.693  1.00  0.00    -0.052 C  
HETATM   30  O   UNL     1      -5.510   9.470  69.355  1.00  0.00    -0.035 OA 
HETATM   31  H   UNL     1      -4.738   8.918  69.338  1.00  0.00     0.000 HD 
ENDBRANCH  27  28
ENDBRANCH  21  22
ENDBRANCH   2  18
TORSDOF 6
ENDMDL
MODEL      102
REMARK 921   NORMALIZED FREE ENERGY PREDICTED BY IDOCK:   -5.42 KCAL/MOL
REMARK 922        TOTAL FREE ENERGY PREDICTED BY IDOCK:   -8.94 KCAL/MOL
REMARK 923 INTER-LIGAND FREE ENERGY PREDICTED BY IDOCK:   -8.32 KCAL/MOL
REMARK 924 INTRA-LIGAND FREE ENERGY PREDICTED BY IDOCK:   -0.62 KCAL/MOL
REMARK 927      BINDING AFFINITY PREDICTED BY RF-SCORE:    0.00 PKD
ROOT
HETATM    1  C   UNL     1     -12.534   6.459  71.827  1.00  0.00    -0.199 C  
HETATM    2  C   UNL     1     -12.000   7.387  70.731  1.00  0.00    -0.230 C  
ENDROOT
BRANCH   2   3
HETATM    3  C   UNL     1     -11.036   8.428  71.324  1.00  0.00    -0.255 C  
BRANCH   3   4
HETATM    4  N   UNL     1     -10.398   9.239  70.302  1.00  0.00    -0.211 NA 
HETATM    5  C   UNL     1      -9.062   9.339  70.060  1.00  0.00    -0.210 A  
HETATM    6  N   UNL     1     -11.146  10.007  69.491  1.00  0.00    -0.240 NA 
HETATM    7  C   UNL     1     -10.260  10.634  68.697  1.00  0.00    -0.182 A  
HETATM    8  C   UNL     1      -8.937  10.220  69.015  1.00  0.00    -0.175 A  
BRANCH   7   9
HETATM    9  C   UNL     1     -10.693  11.609  67.688  1.00  0.00    -0.249 A  
HETATM   10  C   UNL     1     -10.390  11.405  66.332  1.00  0.00    -0.284 A  
HETATM   11  C   UNL     1     -11.429  12.746  68.044  1.00  0.00    -0.364 A  
HETATM   12  N   UNL     1     -12.454  15.155  63.992  1.00  0.00    -0.738 NA 
HETATM   13  C   UNL     1     -11.863  13.651  67.068  1.00  0.00    -0.448 A  
HETATM   14 CL   UNL     1     -10.418  11.970  63.708  1.00  0.00    -0.416 Cl 
HETATM   15  C   UNL     1     -11.568  13.434  65.718  1.00  0.00    -0.358 A  
HETATM   16  C   UNL     1     -12.047  14.374  64.747  1.00  0.00    -0.452 C  
HETATM   17  C   UNL     1     -10.825  12.307  65.354  1.00  0.00    -0.286 A  
ENDBRANCH   7   9
ENDBRANCH   3   4
ENDBRANCH   2   3
BRANCH   2  18
HETATM   18  N   UNL     1     -11.419   6.605  69.644  1.00  0.00    -0.584 N  
HETATM   19  O   UNL     1      -9.655   5.752  70.832  1.00  0.00    -0.162 OA 
HETATM   20  H   UNL     1     -11.877   6.630  68.733  1.00  0.00     0.000 HD 
HETATM   21  C   UNL     1     -10.285   5.838  69.783  1.00  0.00    -0.236 C  
BRANCH  21  22
HETATM   22  C   UNL     1      -9.873   5.141  68.561  1.00  0.00    -0.155 A  
HETATM   23  N   UNL     1      -8.802   4.327  68.487  1.00  0.00    -0.098 NA 
HETATM   24  H   UNL     1      -8.153   4.071  69.230  1.00  0.00     0.000 HD 
HETATM   25  C   UNL     1     -10.531   5.239  67.313  1.00  0.00    -0.236 A  
HETATM   26  N   UNL     1      -8.790   3.932  67.197  1.00  0.00    -0.115 NA 
HETATM   27  C   UNL     1      -9.790   4.477  66.440  1.00  0.00    -0.229 A  
BRANCH  27  28
HETATM   28  C   UNL     1      -9.953   4.196  64.992  1.00  0.00    -0.208 C  
HETATM   29  C   UNL     1      -9.510   2.785  64.619  1.00  0.00    -0.142 C  
HETATM   30  O   UNL     1     -11.334   4.367  64.696  1.00  0.00    -0.856 OA 
HETATM   31  H   UNL     1     -11.438   4.187  63.770  1.00  0.00     0.000 HD 
ENDBRANCH  27  28
ENDBRANCH  21  22
ENDBRANCH   2  18
TORSDOF 6
ENDMDL
MODEL      103
REMARK 921   NORMALIZED FREE ENERGY PREDICTED BY IDOCK:   -5.40 KCAL/MOL
REMARK 922        TOTAL FREE ENERGY PREDICTED BY IDOCK:   -8.92 KCAL/MOL
REMARK 923 INTER-LIGAND FREE ENERGY PREDICTED BY IDOCK:   -7.41 KCAL/MOL
REMARK 924 INTRA-LIGAND FREE ENERGY PREDICTED BY IDOCK:   -1.51 KCAL/MOL
REMARK 927      BINDING AFFINITY PREDICTED BY RF-SCORE:    0.00 PKD
ROOT
HETATM    1  C   UNL     1      -7.530  18.404  67.659  1.00  0.00    -0.228 C  
HETATM    2  C   UNL     1      -8.233  17.262  68.401  1.00  0.00    -0.260 C  
ENDROOT
BRANCH   2   3
HETATM    3  C   UNL     1      -9.760  17.439  68.345  1.00  0.00    -0.304 C  
BRANCH   3   4
HETATM    4  N   UNL     1     -10.456  16.185  68.117  1.00  0.00    -0.268 NA 
HETATM    5  C   UNL     1     -11.031  15.774  66.954  1.00  0.00    -0.207 A  
HETATM    6  N   UNL     1     -10.598  15.304  69.122  1.00  0.00    -0.239 NA 
HETATM    7  C   UNL     1     -11.296  14.285  68.592  1.00  0.00    -0.275 A  
HETATM    8  C   UNL     1     -11.569  14.540  67.219  1.00  0.00    -0.405 A  
BRANCH   7   9
HETATM    9  C   UNL     1     -11.695  13.126  69.401  1.00  0.00    -0.386 A  
HETATM   10  C   UNL     1     -11.227  11.843  69.078  1.00  0.00    -0.316 A  
HETATM   11  C   UNL     1     -12.529  13.272  70.518  1.00  0.00    -0.332 A  
HETATM   12  N   UNL     1     -13.069   8.914  72.517  1.00  0.00    -0.410 NA 
HETATM   13  C   UNL     1     -12.875  12.163  71.299  1.00  0.00    -0.349 A  
HETATM   14 CL   UNL     1     -10.937   9.193  69.395  1.00  0.00    -0.165 Cl 
HETATM   15  C   UNL     1     -12.394  10.890  70.977  1.00  0.00    -0.498 A  
HETATM   16  C   UNL     1     -12.757   9.783  71.815  1.00  0.00    -0.426 C  
HETATM   17  C   UNL     1     -11.570  10.733  69.859  1.00  0.00    -0.331 A  
ENDBRANCH   7   9
ENDBRANCH   3   4
ENDBRANCH   2   3
BRANCH   2  18
HETATM   18  N   UNL     1      -7.776  15.972  67.896  1.00  0.00    -0.134 N  
HETATM   19  O   UNL     1      -7.112  15.109  69.913  1.00  0.00    -0.183 OA 
HETATM   20  H   UNL     1      -7.848  15.792  66.895  1.00  0.00     0.000 HD 
HETATM   21  C   UNL     1      -7.252  14.985  68.700  1.00  0.00    -0.115 C  
BRANCH  21  22
HETATM   22  C   UNL     1      -6.851  13.771  67.984  1.00  0.00    -0.140 A  
HETATM   23  N   UNL     1      -5.605  13.553  67.518  1.00  0.00    -0.349 NA 
HETATM   24  H   UNL     1      -4.788  14.157  67.598  1.00  0.00     0.000 HD 
HETATM   25  C   UNL     1      -7.709  12.689  67.681  1.00  0.00    -0.155 A  
HETATM   26  N   UNL     1      -5.695  12.347  66.921  1.00  0.00    -0.301 NA 
HETATM   27  C   UNL     1      -6.947  11.798  66.963  1.00  0.00    -0.135 A  
BRANCH  27  28
HETATM   28  C   UNL     1      -7.276  10.488  66.350  1.00  0.00    -0.129 C  
HETATM   29  C   UNL     1      -7.844   9.497  67.361  1.00  0.00    -0.102 C  
HETATM   30  O   UNL     1      -8.233  10.743  65.329  1.00  0.00    -0.268 OA 
HETATM   31  H   UNL     1      -8.444   9.904  64.937  1.00  0.00     0.000 HD 
ENDBRANCH  27  28
ENDBRANCH  21  22
ENDBRANCH   2  18
TORSDOF 6
ENDMDL
MODEL      104
REMARK 921   NORMALIZED FREE ENERGY PREDICTED BY IDOCK:   -5.38 KCAL/MOL
REMARK 922        TOTAL FREE ENERGY PREDICTED BY IDOCK:   -8.90 KCAL/MOL
REMARK 923 INTER-LIGAND FREE ENERGY PREDICTED BY IDOCK:   -7.32 KCAL/MOL
REMARK 924 INTRA-LIGAND FREE ENERGY PREDICTED BY IDOCK:   -1.58 KCAL/MOL
REMARK 927      BINDING AFFINITY PREDICTED BY RF-SCORE:    0.00 PKD
ROOT
HETATM    1  C   UNL     1      -8.619  15.144  69.077  1.00  0.00    -0.219 C  
HETATM    2  C   UNL     1      -9.567  14.223  68.303  1.00  0.00    -0.221 C  
ENDROOT
BRANCH   2   3
HETATM    3  C   UNL     1      -8.796  13.422  67.240  1.00  0.00    -0.220 C  
BRANCH   3   4
HETATM    4  N   UNL     1      -8.144  12.249  67.793  1.00  0.00    -0.143 NA 
HETATM    5  C   UNL     1      -6.803  12.043  67.908  1.00  0.00    -0.087 A  
HETATM    6  N   UNL     1      -8.882  11.218  68.239  1.00  0.00    -0.152 NA 
HETATM    7  C   UNL     1      -7.986  10.306  68.653  1.00  0.00    -0.111 A  
HETATM    8  C   UNL     1      -6.664  10.801  68.478  1.00  0.00    -0.057 A  
BRANCH   7   9
HETATM    9  C   UNL     1      -8.408   9.000  69.176  1.00  0.00    -0.123 A  
HETATM   10  C   UNL     1      -9.398   8.258  68.513  1.00  0.00    -0.138 A  
HETATM   11  C   UNL     1      -7.825   8.456  70.329  1.00  0.00    -0.096 A  
HETATM   12  N   UNL     1      -9.807   4.119  71.062  1.00  0.00    -0.190 NA 
HETATM   13  C   UNL     1      -8.214   7.196  70.798  1.00  0.00    -0.120 A  
HETATM   14 CL   UNL     1     -11.004   6.148  68.093  1.00  0.00    -0.404 Cl 
HETATM   15  C   UNL     1      -9.192   6.458  70.124  1.00  0.00    -0.160 A  
HETATM   16  C   UNL     1      -9.548   5.163  70.627  1.00  0.00    -0.180 C  
HETATM   17  C   UNL     1      -9.786   6.996  68.980  1.00  0.00    -0.154 A  
ENDBRANCH   7   9
ENDBRANCH   3   4
ENDBRANCH   2   3
BRANCH   2  18
HETATM   18  N   UNL     1     -10.328  13.387  69.226  1.00  0.00    -0.419 N  
HETATM   19  O   UNL     1     -12.346  13.563  68.153  1.00  0.00    -0.213 OA 
HETATM   20  H   UNL     1      -9.841  12.983  70.025  1.00  0.00     0.000 HD 
HETATM   21  C   UNL     1     -11.669  13.116  69.073  1.00  0.00    -0.321 C  
BRANCH  21  22
HETATM   22  C   UNL     1     -12.235  12.259  70.119  1.00  0.00    -0.226 A  
HETATM   23  N   UNL     1     -12.848  12.728  71.223  1.00  0.00    -0.327 NA 
HETATM   24  H   UNL     1     -13.019  13.699  71.484  1.00  0.00     0.000 HD 
HETATM   25  C   UNL     1     -12.202  10.845  70.113  1.00  0.00    -0.423 A  
HETATM   26  N   UNL     1     -13.184  11.612  71.901  1.00  0.00    -0.454 NA 
HETATM   27  C   UNL     1     -12.789  10.453  71.292  1.00  0.00    -0.433 A  
BRANCH  27  28
HETATM   28  C   UNL     1     -13.035   9.110  71.874  1.00  0.00    -0.404 C  
HETATM   29  C   UNL     1     -11.766   8.475  72.434  1.00  0.00    -0.429 C  
HETATM   30  O   UNL     1     -13.991   9.284  72.912  1.00  0.00    -0.893 OA 
HETATM   31  H   UNL     1     -14.149   8.424  73.284  1.00  0.00     0.000 HD 
ENDBRANCH  27  28
ENDBRANCH  21  22
ENDBRANCH   2  18
TORSDOF 6
ENDMDL
MODEL      105
REMARK 921   NORMALIZED FREE ENERGY PREDICTED BY IDOCK:   -5.36 KCAL/MOL
REMARK 922        TOTAL FREE ENERGY PREDICTED BY IDOCK:   -8.86 KCAL/MOL
REMARK 923 INTER-LIGAND FREE ENERGY PREDICTED BY IDOCK:   -8.04 KCAL/MOL
REMARK 924 INTRA-LIGAND FREE ENERGY PREDICTED BY IDOCK:   -0.82 KCAL/MOL
REMARK 927      BINDING AFFINITY PREDICTED BY RF-SCORE:    0.00 PKD
ROOT
HETATM    1  C   UNL     1      -7.314   9.685  66.535  1.00  0.00    -0.090 C  
HETATM    2  C   UNL     1      -8.823   9.875  66.722  1.00  0.00    -0.135 C  
ENDROOT
BRANCH   2   3
HETATM    3  C   UNL     1      -9.543   9.858  65.363  1.00  0.00    -0.285 C  
BRANCH   3   4
HETATM    4  N   UNL     1     -10.089  11.157  65.009  1.00  0.00    -0.264 NA 
HETATM    5  C   UNL     1     -10.746  11.477  63.860  1.00  0.00    -0.395 A  
HETATM    6  N   UNL     1      -9.948  12.196  65.850  1.00  0.00    -0.241 NA 
HETATM    7  C   UNL     1     -10.530  13.231  65.220  1.00  0.00    -0.313 A  
HETATM    8  C   UNL     1     -11.063  12.808  63.970  1.00  0.00    -0.458 A  
BRANCH   7   9
HETATM    9  C   UNL     1     -10.545  14.576  65.808  1.00  0.00    -0.326 A  
HETATM   10  C   UNL     1     -10.564  14.739  67.202  1.00  0.00    -0.285 A  
HETATM   11  C   UNL     1     -10.520  15.723  65.002  1.00  0.00    -0.331 A  
HETATM   12  N   UNL     1     -10.434  19.562  67.923  1.00  0.00    -0.434 NA 
HETATM   13  C   UNL     1     -10.502  16.999  65.577  1.00  0.00    -0.181 A  
HETATM   14 CL   UNL     1     -10.555  16.119  69.505  1.00  0.00    -0.283 Cl 
HETATM   15  C   UNL     1     -10.508  17.151  66.967  1.00  0.00    -0.282 A  
HETATM   16  C   UNL     1     -10.469  18.476  67.516  1.00  0.00    -0.418 C  
HETATM   17  C   UNL     1     -10.543  16.014  67.779  1.00  0.00    -0.309 A  
ENDBRANCH   7   9
ENDBRANCH   3   4
ENDBRANCH   2   3
BRANCH   2  18
HETATM   18  N   UNL     1      -9.344   8.897  67.672  1.00  0.00    -0.136 N  
HETATM   19  O   UNL     1     -10.582  10.365  68.924  1.00  0.00    -0.190 OA 
HETATM   20  H   UNL     1      -9.063   7.923  67.566  1.00  0.00     0.000 HD 
HETATM   21  C   UNL     1     -10.195   9.221  68.704  1.00  0.00    -0.199 C  
BRANCH  21  22
HETATM   22  C   UNL     1     -10.590   8.085  69.541  1.00  0.00    -0.214 A  
HETATM   23  N   UNL     1     -11.350   7.061  69.106  1.00  0.00    -0.510 NA 
HETATM   24  H   UNL     1     -11.738   6.916  68.173  1.00  0.00     0.000 HD 
HETATM   25  C   UNL     1     -10.239   7.921  70.901  1.00  0.00    -0.213 A  
HETATM   26  N   UNL     1     -11.478   6.273  70.193  1.00  0.00    -0.412 NA 
HETATM   27  C   UNL     1     -10.856   6.761  71.308  1.00  0.00    -0.232 A  
BRANCH  27  28
HETATM   28  C   UNL     1     -10.886   6.068  72.620  1.00  0.00    -0.244 C  
HETATM   29  C   UNL     1      -9.546   5.431  72.974  1.00  0.00    -0.159 C  
HETATM   30  O   UNL     1     -11.231   7.047  73.592  1.00  0.00    -0.504 OA 
HETATM   31  H   UNL     1     -11.250   6.603  74.431  1.00  0.00     0.000 HD 
ENDBRANCH  27  28
ENDBRANCH  21  22
ENDBRANCH   2  18
TORSDOF 6
ENDMDL
MODEL      106
REMARK 921   NORMALIZED FREE ENERGY PREDICTED BY IDOCK:   -5.36 KCAL/MOL
REMARK 922        TOTAL FREE ENERGY PREDICTED BY IDOCK:   -8.86 KCAL/MOL
REMARK 923 INTER-LIGAND FREE ENERGY PREDICTED BY IDOCK:   -7.90 KCAL/MOL
REMARK 924 INTRA-LIGAND FREE ENERGY PREDICTED BY IDOCK:   -0.95 KCAL/MOL
REMARK 927      BINDING AFFINITY PREDICTED BY RF-SCORE:    0.00 PKD
ROOT
HETATM    1  C   UNL     1     -14.316   8.171  71.872  1.00  0.00    -0.566 C  
HETATM    2  C   UNL     1     -12.983   8.767  71.405  1.00  0.00    -0.268 C  
ENDROOT
BRANCH   2   3
HETATM    3  C   UNL     1     -12.881  10.248  71.810  1.00  0.00    -0.460 C  
BRANCH   3   4
HETATM    4  N   UNL     1     -12.403  11.087  70.725  1.00  0.00    -0.368 NA 
HETATM    5  C   UNL     1     -12.333  12.447  70.719  1.00  0.00    -0.286 A  
HETATM    6  N   UNL     1     -11.990  10.527  69.575  1.00  0.00    -0.230 NA 
HETATM    7  C   UNL     1     -11.645  11.563  68.791  1.00  0.00    -0.316 A  
HETATM    8  C   UNL     1     -11.829  12.789  69.489  1.00  0.00    -0.379 A  
BRANCH   7   9
HETATM    9  C   UNL     1     -11.176  11.360  67.415  1.00  0.00    -0.370 A  
HETATM   10  C   UNL     1     -11.599  12.220  66.389  1.00  0.00    -0.445 A  
HETATM   11  C   UNL     1     -10.287  10.325  67.095  1.00  0.00    -0.292 A  
HETATM   12  N   UNL     1      -9.286  10.659  62.387  1.00  0.00    -0.269 NA 
HETATM   13  C   UNL     1      -9.823  10.162  65.784  1.00  0.00    -0.331 A  
HETATM   14 CL   UNL     1     -11.697  13.173  63.881  1.00  0.00    -0.492 Cl 
HETATM   15  C   UNL     1     -10.239  11.031  64.771  1.00  0.00    -0.381 A  
HETATM   16  C   UNL     1      -9.726  10.841  63.445  1.00  0.00    -0.351 C  
HETATM   17  C   UNL     1     -11.134  12.060  65.078  1.00  0.00    -0.316 A  
ENDBRANCH   7   9
ENDBRANCH   3   4
ENDBRANCH   2   3
BRANCH   2  18
HETATM   18  N   UNL     1     -11.869   7.954  71.881  1.00  0.00    -0.287 N  
HETATM   19  O   UNL     1     -11.176   7.211  69.826  1.00  0.00    -0.243 OA 
HETATM   20  H   UNL     1     -11.694   7.913  72.885  1.00  0.00     0.000 HD 
HETATM   21  C   UNL     1     -11.042   7.238  71.045  1.00  0.00    -0.258 C  
BRANCH  21  22
HETATM   22  C   UNL     1      -9.990   6.485  71.736  1.00  0.00    -0.176 A  
HETATM   23  N   UNL     1      -8.786   6.999  72.054  1.00  0.00    -0.128 NA 
HETATM   24  H   UNL     1      -8.440   7.944  71.887  1.00  0.00     0.000 HD 
HETATM   25  C   UNL     1     -10.096   5.136  72.144  1.00  0.00    -0.247 A  
HETATM   26  N   UNL     1      -8.146   5.970  72.646  1.00  0.00    -0.104 NA 
HETATM   27  C   UNL     1      -8.879   4.816  72.696  1.00  0.00    -0.114 A  
BRANCH  27  28
HETATM   28  C   UNL     1      -8.362   3.555  73.284  1.00  0.00    -0.079 C  
HETATM   29  C   UNL     1      -7.441   3.802  74.474  1.00  0.00    -0.062 C  
HETATM   30  O   UNL     1      -9.496   2.801  73.694  1.00  0.00    -0.086 OA 
HETATM   31  H   UNL     1      -9.165   1.995  74.070  1.00  0.00     0.000 HD 
ENDBRANCH  27  28
ENDBRANCH  21  22
ENDBRANCH   2  18
TORSDOF 6
ENDMDL
MODEL      107
REMARK 921   NORMALIZED FREE ENERGY PREDICTED BY IDOCK:   -5.34 KCAL/MOL
REMARK 922        TOTAL FREE ENERGY PREDICTED BY IDOCK:   -8.83 KCAL/MOL
REMARK 923 INTER-LIGAND FREE ENERGY PREDICTED BY IDOCK:   -8.45 KCAL/MOL
REMARK 924 INTRA-LIGAND FREE ENERGY PREDICTED BY IDOCK:   -0.38 KCAL/MOL
REMARK 927      BINDING AFFINITY PREDICTED BY RF-SCORE:    0.00 PKD
ROOT
HETATM    1  C   UNL     1     -11.904  11.917  68.224  1.00  0.00    -0.343 C  
HETATM    2  C   UNL     1     -11.150  10.847  67.427  1.00  0.00    -0.307 C  
ENDROOT
BRANCH   2   3
HETATM    3  C   UNL     1      -9.809  11.398  66.913  1.00  0.00    -0.193 C  
BRANCH   3   4
HETATM    4  N   UNL     1      -9.952  12.692  66.269  1.00  0.00    -0.254 NA 
HETATM    5  C   UNL     1     -10.602  12.951  65.101  1.00  0.00    -0.302 A  
HETATM    6  N   UNL     1      -9.393  13.783  66.821  1.00  0.00    -0.262 NA 
HETATM    7  C   UNL     1      -9.686  14.786  65.976  1.00  0.00    -0.321 A  
HETATM    8  C   UNL     1     -10.466  14.300  64.889  1.00  0.00    -0.454 A  
BRANCH   7   9
HETATM    9  C   UNL     1      -9.206  16.153  66.213  1.00  0.00    -0.366 A  
HETATM   10  C   UNL     1     -10.118  17.214  66.325  1.00  0.00    -0.329 A  
HETATM   11  C   UNL     1      -7.839  16.429  66.354  1.00  0.00    -0.297 A  
HETATM   12  N   UNL     1      -7.384  21.147  67.252  1.00  0.00    -0.443 NA 
HETATM   13  C   UNL     1      -7.397  17.732  66.612  1.00  0.00    -0.262 A  
HETATM   14 CL   UNL     1     -10.872  19.760  66.721  1.00  0.00    -0.535 Cl 
HETATM   15  C   UNL     1      -8.313  18.781  66.735  1.00  0.00    -0.288 A  
HETATM   16  C   UNL     1      -7.821  20.098  67.019  1.00  0.00    -0.319 C  
HETATM   17  C   UNL     1      -9.677  18.518  66.586  1.00  0.00    -0.341 A  
ENDBRANCH   7   9
ENDBRANCH   3   4
ENDBRANCH   2   3
BRANCH   2  18
HETATM   18  N   UNL     1     -11.015   9.627  68.217  1.00  0.00    -0.458 N  
HETATM   19  O   UNL     1     -10.274   8.280  66.516  1.00  0.00    -0.288 OA 
HETATM   20  H   UNL     1     -11.258   9.663  69.207  1.00  0.00     0.000 HD 
HETATM   21  C   UNL     1     -10.578   8.430  67.696  1.00  0.00    -0.195 C  
BRANCH  21  22
HETATM   22  C   UNL     1     -10.525   7.332  68.665  1.00  0.00    -0.194 A  
HETATM   23  N   UNL     1     -11.610   6.659  69.096  1.00  0.00    -0.628 NA 
HETATM   24  H   UNL     1     -12.583   6.790  68.820  1.00  0.00     0.000 HD 
HETATM   25  C   UNL     1      -9.345   6.849  69.276  1.00  0.00    -0.144 A  
HETATM   26  N   UNL     1     -11.106   5.771  69.977  1.00  0.00    -0.328 NA 
HETATM   27  C   UNL     1      -9.752   5.865  70.147  1.00  0.00    -0.168 A  
BRANCH  27  28
HETATM   28  C   UNL     1      -8.993   5.000  71.083  1.00  0.00    -0.137 C  
HETATM   29  C   UNL     1      -8.204   5.805  72.111  1.00  0.00    -0.112 C  
HETATM   30  O   UNL     1      -9.946   4.175  71.740  1.00  0.00    -0.177 OA 
HETATM   31  H   UNL     1      -9.460   3.622  72.340  1.00  0.00     0.000 HD 
ENDBRANCH  27  28
ENDBRANCH  21  22
ENDBRANCH   2  18
TORSDOF 6
ENDMDL
MODEL      108
REMARK 921   NORMALIZED FREE ENERGY PREDICTED BY IDOCK:   -5.33 KCAL/MOL
REMARK 922        TOTAL FREE ENERGY PREDICTED BY IDOCK:   -8.82 KCAL/MOL
REMARK 923 INTER-LIGAND FREE ENERGY PREDICTED BY IDOCK:   -8.24 KCAL/MOL
REMARK 924 INTRA-LIGAND FREE ENERGY PREDICTED BY IDOCK:   -0.58 KCAL/MOL
REMARK 927      BINDING AFFINITY PREDICTED BY RF-SCORE:    0.00 PKD
ROOT
HETATM    1  C   UNL     1     -12.194  10.994  69.756  1.00  0.00    -0.388 C  
HETATM    2  C   UNL     1     -11.406  10.873  68.447  1.00  0.00    -0.304 C  
ENDROOT
BRANCH   2   3
HETATM    3  C   UNL     1     -10.155  11.767  68.484  1.00  0.00    -0.207 C  
BRANCH   3   4
HETATM    4  N   UNL     1     -10.327  12.993  67.725  1.00  0.00    -0.222 NA 
HETATM    5  C   UNL     1     -11.159  13.182  66.664  1.00  0.00    -0.292 A  
HETATM    6  N   UNL     1      -9.606  14.084  68.039  1.00  0.00    -0.210 NA 
HETATM    7  C   UNL     1      -9.982  15.014  67.144  1.00  0.00    -0.237 A  
HETATM    8  C   UNL     1     -10.976  14.485  66.274  1.00  0.00    -0.323 A  
BRANCH   7   9
HETATM    9  C   UNL     1      -9.377  16.352  67.131  1.00  0.00    -0.228 A  
HETATM   10  C   UNL     1      -9.963  17.400  67.858  1.00  0.00    -0.301 A  
HETATM   11  C   UNL     1      -8.199  16.611  66.416  1.00  0.00    -0.353 A  
HETATM   12  N   UNL     1      -7.012  21.225  67.177  1.00  0.00    -0.527 NA 
HETATM   13  C   UNL     1      -7.617  17.883  66.439  1.00  0.00    -0.308 A  
HETATM   14 CL   UNL     1     -10.163  19.900  68.816  1.00  0.00    -0.531 Cl 
HETATM   15  C   UNL     1      -8.200  18.919  67.177  1.00  0.00    -0.283 A  
HETATM   16  C   UNL     1      -7.560  20.202  67.189  1.00  0.00    -0.299 C  
HETATM   17  C   UNL     1      -9.380  18.673  67.884  1.00  0.00    -0.298 A  
ENDBRANCH   7   9
ENDBRANCH   3   4
ENDBRANCH   2   3
BRANCH   2  18
HETATM   18  N   UNL     1     -11.116   9.473  68.157  1.00  0.00    -0.503 N  
HETATM   19  O   UNL     1     -10.405   9.782  66.000  1.00  0.00    -0.221 OA 
HETATM   20  H   UNL     1     -11.283   8.783  68.889  1.00  0.00     0.000 HD 
HETATM   21  C   UNL     1     -10.628   9.034  66.947  1.00  0.00    -0.173 C  
BRANCH  21  22
HETATM   22  C   UNL     1     -10.414   7.586  66.871  1.00  0.00    -0.315 A  
HETATM   23  N   UNL     1     -11.356   6.672  67.173  1.00  0.00    -0.779 NA 
HETATM   24  H   UNL     1     -12.318   6.833  67.472  1.00  0.00     0.000 HD 
HETATM   25  C   UNL     1      -9.202   6.966  66.487  1.00  0.00    -0.195 A  
HETATM   26  N   UNL     1     -10.728   5.493  66.987  1.00  0.00    -0.253 NA 
HETATM   27  C   UNL     1      -9.421   5.614  66.605  1.00  0.00    -0.147 A  
BRANCH  27  28
HETATM   28  C   UNL     1      -8.537   4.447  66.366  1.00  0.00    -0.112 C  
HETATM   29  C   UNL     1      -7.154   4.626  66.984  1.00  0.00    -0.072 C  
HETATM   30  O   UNL     1      -9.184   3.320  66.943  1.00  0.00    -0.162 OA 
HETATM   31  H   UNL     1      -8.618   2.573  66.790  1.00  0.00     0.000 HD 
ENDBRANCH  27  28
ENDBRANCH  21  22
ENDBRANCH   2  18
TORSDOF 6
ENDMDL
MODEL      109
REMARK 921   NORMALIZED FREE ENERGY PREDICTED BY IDOCK:   -5.31 KCAL/MOL
REMARK 922        TOTAL FREE ENERGY PREDICTED BY IDOCK:   -8.80 KCAL/MOL
REMARK 923 INTER-LIGAND FREE ENERGY PREDICTED BY IDOCK:   -7.74 KCAL/MOL
REMARK 924 INTRA-LIGAND FREE ENERGY PREDICTED BY IDOCK:   -1.06 KCAL/MOL
REMARK 927      BINDING AFFINITY PREDICTED BY RF-SCORE:    0.00 PKD
ROOT
HETATM    1  C   UNL     1      -7.945   8.974  65.135  1.00  0.00    -0.119 C  
HETATM    2  C   UNL     1      -8.884  10.084  65.616  1.00  0.00    -0.160 C  
ENDROOT
BRANCH   2   3
HETATM    3  C   UNL     1     -10.028  10.300  64.610  1.00  0.00    -0.307 C  
BRANCH   3   4
HETATM    4  N   UNL     1     -10.576  11.644  64.674  1.00  0.00    -0.295 NA 
HETATM    5  C   UNL     1     -11.511  12.180  63.842  1.00  0.00    -0.440 A  
HETATM    6  N   UNL     1     -10.144  12.501  65.614  1.00  0.00    -0.268 NA 
HETATM    7  C   UNL     1     -10.821  13.639  65.380  1.00  0.00    -0.301 A  
HETATM    8  C   UNL     1     -11.708  13.466  64.282  1.00  0.00    -0.455 A  
BRANCH   7   9
HETATM    9  C   UNL     1     -10.591  14.846  66.185  1.00  0.00    -0.322 A  
HETATM   10  C   UNL     1      -9.569  15.743  65.840  1.00  0.00    -0.382 A  
HETATM   11  C   UNL     1     -11.393  15.142  67.297  1.00  0.00    -0.305 A  
HETATM   12  N   UNL     1      -9.899  19.362  69.095  1.00  0.00    -0.413 NA 
HETATM   13  C   UNL     1     -11.184  16.311  68.036  1.00  0.00    -0.260 A  
HETATM   14 CL   UNL     1      -8.086  17.969  66.072  1.00  0.00    -0.189 Cl 
HETATM   15  C   UNL     1     -10.171  17.207  67.677  1.00  0.00    -0.329 A  
HETATM   16  C   UNL     1     -10.002  18.403  68.449  1.00  0.00    -0.379 C  
HETATM   17  C   UNL     1      -9.360  16.915  66.577  1.00  0.00    -0.270 A  
ENDBRANCH   7   9
ENDBRANCH   3   4
ENDBRANCH   2   3
BRANCH   2  18
HETATM   18  N   UNL     1      -9.345   9.808  66.973  1.00  0.00    -0.145 N  
HETATM   19  O   UNL     1      -7.936  11.266  68.042  1.00  0.00    -0.109 OA 
HETATM   20  H   UNL     1     -10.083   9.117  67.101  1.00  0.00     0.000 HD 
HETATM   21  C   UNL     1      -8.833  10.431  68.089  1.00  0.00    -0.132 C  
BRANCH  21  22
HETATM   22  C   UNL     1      -9.437   9.998  69.352  1.00  0.00    -0.223 A  
HETATM   23  N   UNL     1     -10.618  10.452  69.814  1.00  0.00    -0.285 NA 
HETATM   24  H   UNL     1     -11.251  11.121  69.376  1.00  0.00     0.000 HD 
HETATM   25  C   UNL     1      -8.861   9.066  70.247  1.00  0.00    -0.210 A  
HETATM   26  N   UNL     1     -10.767   9.814  70.993  1.00  0.00    -0.317 NA 
HETATM   27  C   UNL     1      -9.723   8.992  71.315  1.00  0.00    -0.301 A  
BRANCH  27  28
HETATM   28  C   UNL     1      -9.668   8.210  72.575  1.00  0.00    -0.287 C  
HETATM   29  C   UNL     1      -9.841   6.713  72.340  1.00  0.00    -0.169 C  
HETATM   30  O   UNL     1      -8.398   8.468  73.161  1.00  0.00    -0.369 OA 
HETATM   31  H   UNL     1      -8.363   7.967  73.967  1.00  0.00     0.000 HD 
ENDBRANCH  27  28
ENDBRANCH  21  22
ENDBRANCH   2  18
TORSDOF 6
ENDMDL
MODEL      110
REMARK 921   NORMALIZED FREE ENERGY PREDICTED BY IDOCK:   -5.31 KCAL/MOL
REMARK 922        TOTAL FREE ENERGY PREDICTED BY IDOCK:   -8.80 KCAL/MOL
REMARK 923 INTER-LIGAND FREE ENERGY PREDICTED BY IDOCK:   -7.14 KCAL/MOL
REMARK 924 INTRA-LIGAND FREE ENERGY PREDICTED BY IDOCK:   -1.66 KCAL/MOL
REMARK 927      BINDING AFFINITY PREDICTED BY RF-SCORE:    0.00 PKD
ROOT
HETATM    1  C   UNL     1     -11.146  19.655  66.456  1.00  0.00    -0.148 C  
HETATM    2  C   UNL     1      -9.980  18.707  66.158  1.00  0.00    -0.330 C  
ENDROOT
BRANCH   2   3
HETATM    3  C   UNL     1      -8.721  19.136  66.930  1.00  0.00    -0.301 C  
BRANCH   3   4
HETATM    4  N   UNL     1      -7.718  18.087  66.983  1.00  0.00    -0.210 NA 
HETATM    5  C   UNL     1      -6.623  17.968  66.182  1.00  0.00    -0.258 A  
HETATM    6  N   UNL     1      -7.833  17.092  67.879  1.00  0.00    -0.189 NA 
HETATM    7  C   UNL     1      -6.777  16.294  67.646  1.00  0.00    -0.145 A  
HETATM    8  C   UNL     1      -5.980  16.828  66.595  1.00  0.00    -0.079 A  
BRANCH   7   9
HETATM    9  C   UNL     1      -6.571  15.055  68.406  1.00  0.00    -0.102 A  
HETATM   10  C   UNL     1      -6.803  13.808  67.804  1.00  0.00    -0.182 A  
HETATM   11  C   UNL     1      -6.121  15.082  69.733  1.00  0.00    -0.135 A  
HETATM   12  N   UNL     1      -5.637  10.514  71.208  1.00  0.00    -0.271 NA 
HETATM   13  C   UNL     1      -5.898  13.892  70.436  1.00  0.00    -0.161 A  
HETATM   14 CL   UNL     1      -6.878  11.127  67.680  1.00  0.00    -0.073 Cl 
HETATM   15  C   UNL     1      -6.120  12.654  69.824  1.00  0.00    -0.134 A  
HETATM   16  C   UNL     1      -5.861  11.459  70.572  1.00  0.00    -0.131 C  
HETATM   17  C   UNL     1      -6.578  12.617  68.504  1.00  0.00    -0.081 A  
ENDBRANCH   7   9
ENDBRANCH   3   4
ENDBRANCH   2   3
BRANCH   2  18
HETATM   18  N   UNL     1     -10.374  17.324  66.406  1.00  0.00    -0.333 N  
HETATM   19  O   UNL     1     -11.092  16.858  64.279  1.00  0.00    -1.135 OA 
HETATM   20  H   UNL     1     -10.255  16.949  67.347  1.00  0.00     0.000 HD 
HETATM   21  C   UNL     1     -10.898  16.499  65.437  1.00  0.00    -0.206 C  
BRANCH  21  22
HETATM   22  C   UNL     1     -11.230  15.151  65.905  1.00  0.00    -0.280 A  
HETATM   23  N   UNL     1     -12.302  14.453  65.483  1.00  0.00    -0.376 NA 
HETATM   24  H   UNL     1     -13.005  14.731  64.798  1.00  0.00     0.000 HD 
HETATM   25  C   UNL     1     -10.486  14.419  66.859  1.00  0.00    -0.269 A  
HETATM   26  N   UNL     1     -12.228  13.300  66.179  1.00  0.00    -0.420 NA 
HETATM   27  C   UNL     1     -11.171  13.242  67.045  1.00  0.00    -0.292 A  
BRANCH  27  28
HETATM   28  C   UNL     1     -10.910  12.076  67.924  1.00  0.00    -0.215 C  
HETATM   29  C   UNL     1     -10.398  10.865  67.151  1.00  0.00    -0.262 C  
HETATM   30  O   UNL     1      -9.938  12.492  68.876  1.00  0.00    -0.417 OA 
HETATM   31  H   UNL     1      -9.771  11.745  69.439  1.00  0.00     0.000 HD 
ENDBRANCH  27  28
ENDBRANCH  21  22
ENDBRANCH   2  18
TORSDOF 6
ENDMDL
MODEL      111
REMARK 921   NORMALIZED FREE ENERGY PREDICTED BY IDOCK:   -5.31 KCAL/MOL
REMARK 922        TOTAL FREE ENERGY PREDICTED BY IDOCK:   -8.80 KCAL/MOL
REMARK 923 INTER-LIGAND FREE ENERGY PREDICTED BY IDOCK:   -8.75 KCAL/MOL
REMARK 924 INTRA-LIGAND FREE ENERGY PREDICTED BY IDOCK:   -0.05 KCAL/MOL
REMARK 927      BINDING AFFINITY PREDICTED BY RF-SCORE:    0.00 PKD
ROOT
HETATM    1  C   UNL     1     -11.383  11.185  66.838  1.00  0.00    -0.168 C  
HETATM    2  C   UNL     1     -11.874  12.278  67.794  1.00  0.00    -0.273 C  
ENDROOT
BRANCH   2   3
HETATM    3  C   UNL     1     -11.163  12.168  69.153  1.00  0.00    -0.244 C  
BRANCH   3   4
HETATM    4  N   UNL     1     -11.641  11.045  69.940  1.00  0.00    -0.307 NA 
HETATM    5  C   UNL     1     -12.900  10.873  70.430  1.00  0.00    -0.184 A  
HETATM    6  N   UNL     1     -10.801  10.049  70.269  1.00  0.00    -0.294 NA 
HETATM    7  C   UNL     1     -11.541   9.202  71.005  1.00  0.00    -0.306 A  
HETATM    8  C   UNL     1     -12.877   9.681  71.109  1.00  0.00    -0.400 A  
BRANCH   7   9
HETATM    9  C   UNL     1     -10.959   7.990  71.595  1.00  0.00    -0.288 A  
HETATM   10  C   UNL     1     -10.305   7.050  70.781  1.00  0.00    -0.222 A  
HETATM   11  C   UNL     1     -11.021   7.750  72.974  1.00  0.00    -0.442 A  
HETATM   12  N   UNL     1      -8.688   3.619  73.849  1.00  0.00    -0.089 NA 
HETATM   13  C   UNL     1     -10.433   6.607  73.527  1.00  0.00    -0.335 A  
HETATM   14 CL   UNL     1      -8.920   4.811  70.258  1.00  0.00    -0.137 Cl 
HETATM   15  C   UNL     1      -9.773   5.683  72.711  1.00  0.00    -0.171 A  
HETATM   16  C   UNL     1      -9.168   4.534  73.320  1.00  0.00    -0.114 C  
HETATM   17  C   UNL     1      -9.715   5.907  71.333  1.00  0.00    -0.166 A  
ENDBRANCH   7   9
ENDBRANCH   3   4
ENDBRANCH   2   3
BRANCH   2  18
HETATM   18  N   UNL     1     -11.745  13.591  67.171  1.00  0.00    -0.356 N  
HETATM   19  O   UNL     1      -9.649  13.275  66.297  1.00  0.00    -0.273 OA 
HETATM   20  H   UNL     1     -12.517  14.250  67.268  1.00  0.00     0.000 HD 
HETATM   21  C   UNL     1     -10.635  13.988  66.461  1.00  0.00    -0.279 C  
BRANCH  21  22
HETATM   22  C   UNL     1     -10.714  15.351  65.927  1.00  0.00    -0.336 A  
HETATM   23  N   UNL     1     -11.047  15.639  64.653  1.00  0.00    -0.672 NA 
HETATM   24  H   UNL     1     -11.296  14.992  63.905  1.00  0.00     0.000 HD 
HETATM   25  C   UNL     1     -10.445  16.526  66.665  1.00  0.00    -0.266 A  
HETATM   26  N   UNL     1     -10.974  16.985  64.601  1.00  0.00    -0.964 NA 
HETATM   27  C   UNL     1     -10.584  17.566  65.776  1.00  0.00    -0.174 A  
BRANCH  27  28
HETATM   28  C   UNL     1     -10.417  19.031  65.937  1.00  0.00    -0.399 C  
HETATM   29  C   UNL     1     -11.023  19.548  67.238  1.00  0.00    -0.460 C  
HETATM   30  O   UNL     1      -9.018  19.287  65.917  1.00  0.00    -0.434 OA 
HETATM   31  H   UNL     1      -8.912  20.225  66.020  1.00  0.00     0.000 HD 
ENDBRANCH  27  28
ENDBRANCH  21  22
ENDBRANCH   2  18
TORSDOF 6
ENDMDL
MODEL      112
REMARK 921   NORMALIZED FREE ENERGY PREDICTED BY IDOCK:   -5.30 KCAL/MOL
REMARK 922        TOTAL FREE ENERGY PREDICTED BY IDOCK:   -8.79 KCAL/MOL
REMARK 923 INTER-LIGAND FREE ENERGY PREDICTED BY IDOCK:   -8.18 KCAL/MOL
REMARK 924 INTRA-LIGAND FREE ENERGY PREDICTED BY IDOCK:   -0.61 KCAL/MOL
REMARK 927      BINDING AFFINITY PREDICTED BY RF-SCORE:    0.00 PKD
ROOT
HETATM    1  C   UNL     1     -11.832  10.941  69.177  1.00  0.00    -0.389 C  
HETATM    2  C   UNL     1     -11.909  12.131  68.214  1.00  0.00    -0.301 C  
ENDROOT
BRANCH   2   3
HETATM    3  C   UNL     1     -11.460  13.424  68.913  1.00  0.00    -0.304 C  
BRANCH   3   4
HETATM    4  N   UNL     1     -10.180  13.905  68.422  1.00  0.00    -0.239 NA 
HETATM    5  C   UNL     1      -8.993  13.239  68.460  1.00  0.00    -0.058 A  
HETATM    6  N   UNL     1     -10.087  15.131  67.879  1.00  0.00    -0.222 NA 
HETATM    7  C   UNL     1      -8.788  15.268  67.559  1.00  0.00    -0.179 A  
HETATM    8  C   UNL     1      -8.072  14.085  67.893  1.00  0.00    -0.156 A  
BRANCH   7   9
HETATM    9  C   UNL     1      -8.272  16.511  66.972  1.00  0.00    -0.227 A  
HETATM   10  C   UNL     1      -9.101  17.638  66.858  1.00  0.00    -0.262 A  
HETATM   11  C   UNL     1      -6.944  16.611  66.532  1.00  0.00    -0.176 A  
HETATM   12  N   UNL     1      -6.263  21.116  64.946  1.00  0.00    -0.194 NA 
HETATM   13  C   UNL     1      -6.456  17.811  66.004  1.00  0.00    -0.294 A  
HETATM   14 CL   UNL     1      -9.700  20.181  66.242  1.00  0.00    -0.526 Cl 
HETATM   15  C   UNL     1      -7.285  18.933  65.906  1.00  0.00    -0.277 A  
HETATM   16  C   UNL     1      -6.740  20.149  65.376  1.00  0.00    -0.298 C  
HETATM   17  C   UNL     1      -8.613  18.841  66.332  1.00  0.00    -0.284 A  
ENDBRANCH   7   9
ENDBRANCH   3   4
ENDBRANCH   2   3
BRANCH   2  18
HETATM   18  N   UNL     1     -11.170  11.841  66.989  1.00  0.00    -0.307 N  
HETATM   19  O   UNL     1     -12.647  12.823  65.538  1.00  0.00    -0.611 OA 
HETATM   20  H   UNL     1     -10.290  11.332  67.066  1.00  0.00     0.000 HD 
HETATM   21  C   UNL     1     -11.598  12.219  65.737  1.00  0.00    -0.388 C  
BRANCH  21  22
HETATM   22  C   UNL     1     -10.704  11.819  64.647  1.00  0.00    -0.310 A  
HETATM   23  N   UNL     1     -10.320  12.643  63.652  1.00  0.00    -0.474 NA 
HETATM   24  H   UNL     1     -10.566  13.623  63.515  1.00  0.00     0.000 HD 
HETATM   25  C   UNL     1     -10.142  10.531  64.491  1.00  0.00    -0.402 A  
HETATM   26  N   UNL     1      -9.534  11.865  62.879  1.00  0.00    -0.260 NA 
HETATM   27  C   UNL     1      -9.420  10.577  63.322  1.00  0.00    -0.325 A  
BRANCH  27  28
HETATM   28  C   UNL     1      -8.622   9.546  62.614  1.00  0.00    -0.210 C  
HETATM   29  C   UNL     1      -7.136   9.885  62.572  1.00  0.00    -0.120 C  
HETATM   30  O   UNL     1      -8.822   8.323  63.313  1.00  0.00    -0.386 OA 
HETATM   31  H   UNL     1      -8.311   7.664  62.859  1.00  0.00     0.000 HD 
ENDBRANCH  27  28
ENDBRANCH  21  22
ENDBRANCH   2  18
TORSDOF 6
ENDMDL
MODEL      113
REMARK 921   NORMALIZED FREE ENERGY PREDICTED BY IDOCK:   -5.27 KCAL/MOL
REMARK 922        TOTAL FREE ENERGY PREDICTED BY IDOCK:   -8.75 KCAL/MOL
REMARK 923 INTER-LIGAND FREE ENERGY PREDICTED BY IDOCK:   -8.55 KCAL/MOL
REMARK 924 INTRA-LIGAND FREE ENERGY PREDICTED BY IDOCK:   -0.19 KCAL/MOL
REMARK 927      BINDING AFFINITY PREDICTED BY RF-SCORE:    0.00 PKD
ROOT
HETATM    1  C   UNL     1     -12.392  13.408  67.023  1.00  0.00    -0.231 C  
HETATM    2  C   UNL     1     -11.928  13.798  68.430  1.00  0.00    -0.360 C  
ENDROOT
BRANCH   2   3
HETATM    3  C   UNL     1     -10.887  12.795  68.955  1.00  0.00    -0.148 C  
BRANCH   3   4
HETATM    4  N   UNL     1     -11.465  11.822  69.866  1.00  0.00    -0.248 NA 
HETATM    5  C   UNL     1     -12.499  12.029  70.728  1.00  0.00    -0.279 A  
HETATM    6  N   UNL     1     -10.962  10.577  69.926  1.00  0.00    -0.288 NA 
HETATM    7  C   UNL     1     -11.693   9.955  70.867  1.00  0.00    -0.364 A  
HETATM    8  C   UNL     1     -12.686  10.836  71.380  1.00  0.00    -0.544 A  
BRANCH   7   9
HETATM    9  C   UNL     1     -11.416   8.567  71.259  1.00  0.00    -0.329 A  
HETATM   10  C   UNL     1     -11.037   7.622  70.294  1.00  0.00    -0.256 A  
HETATM   11  C   UNL     1     -11.502   8.158  72.597  1.00  0.00    -0.454 A  
HETATM   12  N   UNL     1     -10.249   3.503  72.788  1.00  0.00    -0.163 NA 
HETATM   13  C   UNL     1     -11.204   6.840  72.961  1.00  0.00    -0.193 A  
HETATM   14 CL   UNL     1     -10.265   5.209  69.403  1.00  0.00    -0.303 Cl 
HETATM   15  C   UNL     1     -10.814   5.908  71.995  1.00  0.00    -0.303 A  
HETATM   16  C   UNL     1     -10.499   4.572  72.412  1.00  0.00    -0.168 C  
HETATM   17  C   UNL     1     -10.736   6.303  70.657  1.00  0.00    -0.264 A  
ENDBRANCH   7   9
ENDBRANCH   3   4
ENDBRANCH   2   3
BRANCH   2  18
HETATM   18  N   UNL     1     -11.465  15.182  68.447  1.00  0.00    -0.319 N  
HETATM   19  O   UNL     1      -9.535  14.840  67.259  1.00  0.00    -0.206 OA 
HETATM   20  H   UNL     1     -12.037  15.877  68.927  1.00  0.00     0.000 HD 
HETATM   21  C   UNL     1     -10.297  15.598  67.849  1.00  0.00    -0.259 C  
BRANCH  21  22
HETATM   22  C   UNL     1     -10.022  17.031  67.993  1.00  0.00    -0.283 A  
HETATM   23  N   UNL     1     -10.524  17.795  68.983  1.00  0.00    -0.415 NA 
HETATM   24  H   UNL     1     -11.130  17.511  69.753  1.00  0.00     0.000 HD 
HETATM   25  C   UNL     1      -9.213  17.792  67.118  1.00  0.00    -0.253 A  
HETATM   26  N   UNL     1     -10.037  19.024  68.716  1.00  0.00    -0.397 NA 
HETATM   27  C   UNL     1      -9.269  19.083  67.586  1.00  0.00    -0.294 A  
BRANCH  27  28
HETATM   28  C   UNL     1      -8.651  20.339  67.094  1.00  0.00    -0.338 C  
HETATM   29  C   UNL     1      -7.141  20.369  67.307  1.00  0.00    -0.343 C  
HETATM   30  O   UNL     1      -8.948  20.423  65.705  1.00  0.00    -0.554 OA 
HETATM   31  H   UNL     1      -8.552  21.227  65.390  1.00  0.00     0.000 HD 
ENDBRANCH  27  28
ENDBRANCH  21  22
ENDBRANCH   2  18
TORSDOF 6
ENDMDL
MODEL      114
REMARK 921   NORMALIZED FREE ENERGY PREDICTED BY IDOCK:   -5.25 KCAL/MOL
REMARK 922        TOTAL FREE ENERGY PREDICTED BY IDOCK:   -8.72 KCAL/MOL
REMARK 923 INTER-LIGAND FREE ENERGY PREDICTED BY IDOCK:   -7.98 KCAL/MOL
REMARK 924 INTRA-LIGAND FREE ENERGY PREDICTED BY IDOCK:   -0.73 KCAL/MOL
REMARK 927      BINDING AFFINITY PREDICTED BY RF-SCORE:    0.00 PKD
ROOT
HETATM    1  C   UNL     1     -14.395   8.559  71.990  1.00  0.00    -0.537 C  
HETATM    2  C   UNL     1     -13.006   9.095  71.629  1.00  0.00    -0.365 C  
ENDROOT
BRANCH   2   3
HETATM    3  C   UNL     1     -12.950  10.621  71.812  1.00  0.00    -0.472 C  
BRANCH   3   4
HETATM    4  N   UNL     1     -12.503  11.308  70.612  1.00  0.00    -0.352 NA 
HETATM    5  C   UNL     1     -12.253  10.744  69.398  1.00  0.00    -0.171 A  
HETATM    6  N   UNL     1     -12.276  12.632  70.642  1.00  0.00    -0.358 NA 
HETATM    7  C   UNL     1     -11.858  12.938  69.401  1.00  0.00    -0.312 A  
HETATM    8  C   UNL     1     -11.851  11.773  68.584  1.00  0.00    -0.369 A  
BRANCH   7   9
HETATM    9  C   UNL     1     -11.464  14.306  69.041  1.00  0.00    -0.318 A  
HETATM   10  C   UNL     1     -11.192  14.635  67.704  1.00  0.00    -0.332 A  
HETATM   11  C   UNL     1     -11.371  15.315  70.010  1.00  0.00    -0.311 A  
HETATM   12  N   UNL     1     -10.174  19.406  67.751  1.00  0.00    -0.393 NA 
HETATM   13  C   UNL     1     -11.025  16.622  69.648  1.00  0.00    -0.222 A  
HETATM   14 CL   UNL     1     -10.542  16.260  65.668  1.00  0.00    -0.375 Cl 
HETATM   15  C   UNL     1     -10.768  16.944  68.311  1.00  0.00    -0.377 A  
HETATM   16  C   UNL     1     -10.436  18.299  67.980  1.00  0.00    -0.367 C  
HETATM   17  C   UNL     1     -10.848  15.943  67.340  1.00  0.00    -0.291 A  
ENDBRANCH   7   9
ENDBRANCH   3   4
ENDBRANCH   2   3
BRANCH   2  18
HETATM   18  N   UNL     1     -11.976   8.379  72.375  1.00  0.00    -0.389 N  
HETATM   19  O   UNL     1     -10.542   8.052  70.617  1.00  0.00    -0.212 OA 
HETATM   20  H   UNL     1     -12.127   8.214  73.370  1.00  0.00     0.000 HD 
HETATM   21  C   UNL     1     -10.812   7.915  71.806  1.00  0.00    -0.237 C  
BRANCH  21  22
HETATM   22  C   UNL     1      -9.920   7.218  72.737  1.00  0.00    -0.194 A  
HETATM   23  N   UNL     1      -9.954   7.383  74.074  1.00  0.00    -0.417 NA 
HETATM   24  H   UNL     1     -10.580   7.976  74.620  1.00  0.00     0.000 HD 
HETATM   25  C   UNL     1      -8.912   6.301  72.360  1.00  0.00    -0.138 A  
HETATM   26  N   UNL     1      -8.966   6.581  74.521  1.00  0.00    -0.166 NA 
HETATM   27  C   UNL     1      -8.287   5.932  73.527  1.00  0.00    -0.113 A  
BRANCH  27  28
HETATM   28  C   UNL     1      -7.149   5.017  73.791  1.00  0.00    -0.082 C  
HETATM   29  C   UNL     1      -7.044   3.903  72.754  1.00  0.00    -0.053 C  
HETATM   30  O   UNL     1      -5.971   5.814  73.769  1.00  0.00    -0.056 OA 
HETATM   31  H   UNL     1      -5.243   5.228  73.938  1.00  0.00     0.000 HD 
ENDBRANCH  27  28
ENDBRANCH  21  22
ENDBRANCH   2  18
TORSDOF 6
ENDMDL
MODEL      115
REMARK 921   NORMALIZED FREE ENERGY PREDICTED BY IDOCK:   -5.25 KCAL/MOL
REMARK 922        TOTAL FREE ENERGY PREDICTED BY IDOCK:   -8.71 KCAL/MOL
REMARK 923 INTER-LIGAND FREE ENERGY PREDICTED BY IDOCK:   -7.82 KCAL/MOL
REMARK 924 INTRA-LIGAND FREE ENERGY PREDICTED BY IDOCK:   -0.89 KCAL/MOL
REMARK 927      BINDING AFFINITY PREDICTED BY RF-SCORE:    0.00 PKD
ROOT
HETATM    1  C   UNL     1     -10.658   4.827  72.372  1.00  0.00    -0.246 C  
HETATM    2  C   UNL     1     -10.804   5.962  71.353  1.00  0.00    -0.271 C  
ENDROOT
BRANCH   2   3
HETATM    3  C   UNL     1     -10.256   7.279  71.928  1.00  0.00    -0.187 C  
BRANCH   3   4
HETATM    4  N   UNL     1     -11.049   8.429  71.531  1.00  0.00    -0.252 NA 
HETATM    5  C   UNL     1     -12.179   8.886  72.138  1.00  0.00    -0.367 A  
HETATM    6  N   UNL     1     -10.696   9.148  70.451  1.00  0.00    -0.223 NA 
HETATM    7  C   UNL     1     -11.636  10.104  70.351  1.00  0.00    -0.316 A  
HETATM    8  C   UNL     1     -12.577   9.981  71.412  1.00  0.00    -0.518 A  
BRANCH   7   9
HETATM    9  C   UNL     1     -11.623  11.079  69.253  1.00  0.00    -0.384 A  
HETATM   10  C   UNL     1     -11.812  12.445  69.518  1.00  0.00    -0.368 A  
HETATM   11  C   UNL     1     -11.403  10.680  67.928  1.00  0.00    -0.342 A  
HETATM   12  N   UNL     1     -11.401  14.648  65.184  1.00  0.00    -0.359 NA 
HETATM   13  C   UNL     1     -11.361  11.624  66.896  1.00  0.00    -0.364 A  
HETATM   14 CL   UNL     1     -11.998  15.052  68.906  1.00  0.00    -0.315 Cl 
HETATM   15  C   UNL     1     -11.537  12.984  67.170  1.00  0.00    -0.411 A  
HETATM   16  C   UNL     1     -11.468  13.921  66.086  1.00  0.00    -0.345 C  
HETATM   17  C   UNL     1     -11.768  13.391  68.486  1.00  0.00    -0.357 A  
ENDBRANCH   7   9
ENDBRANCH   3   4
ENDBRANCH   2   3
BRANCH   2  18
HETATM   18  N   UNL     1     -10.199   5.583  70.081  1.00  0.00    -0.240 N  
HETATM   19  O   UNL     1     -11.779   6.546  68.728  1.00  0.00    -0.020 OA 
HETATM   20  H   UNL     1      -9.333   5.045  70.099  1.00  0.00     0.000 HD 
HETATM   21  C   UNL     1     -10.736   5.913  68.857  1.00  0.00    -0.300 C  
BRANCH  21  22
HETATM   22  C   UNL     1      -9.967   5.426  67.709  1.00  0.00    -0.161 A  
HETATM   23  N   UNL     1      -8.624   5.320  67.695  1.00  0.00    -0.105 NA 
HETATM   24  H   UNL     1      -7.967   5.538  68.445  1.00  0.00     0.000 HD 
HETATM   25  C   UNL     1     -10.526   5.017  66.475  1.00  0.00    -0.325 A  
HETATM   26  N   UNL     1      -8.352   4.860  66.457  1.00  0.00    -0.107 NA 
HETATM   27  C   UNL     1      -9.459   4.691  65.672  1.00  0.00    -0.174 A  
BRANCH  27  28
HETATM   28  C   UNL     1      -9.389   4.214  64.269  1.00  0.00    -0.159 C  
HETATM   29  C   UNL     1     -10.678   3.533  63.819  1.00  0.00    -0.263 C  
HETATM   30  O   UNL     1      -9.137   5.358  63.461  1.00  0.00    -0.343 OA 
HETATM   31  H   UNL     1      -9.093   5.052  62.563  1.00  0.00     0.000 HD 
ENDBRANCH  27  28
ENDBRANCH  21  22
ENDBRANCH   2  18
TORSDOF 6
ENDMDL
MODEL      116
REMARK 921   NORMALIZED FREE ENERGY PREDICTED BY IDOCK:   -5.24 KCAL/MOL
REMARK 922        TOTAL FREE ENERGY PREDICTED BY IDOCK:   -8.71 KCAL/MOL
REMARK 923 INTER-LIGAND FREE ENERGY PREDICTED BY IDOCK:   -7.59 KCAL/MOL
REMARK 924 INTRA-LIGAND FREE ENERGY PREDICTED BY IDOCK:   -1.12 KCAL/MOL
REMARK 927      BINDING AFFINITY PREDICTED BY RF-SCORE:    0.00 PKD
ROOT
HETATM    1  C   UNL     1     -12.127  13.407  63.628  1.00  0.00    -0.513 C  
HETATM    2  C   UNL     1     -10.923  13.916  64.428  1.00  0.00    -0.308 C  
ENDROOT
BRANCH   2   3
HETATM    3  C   UNL     1     -11.350  15.024  65.405  1.00  0.00    -0.328 C  
BRANCH   3   4
HETATM    4  N   UNL     1     -11.114  14.663  66.791  1.00  0.00    -0.328 NA 
HETATM    5  C   UNL     1     -10.251  15.268  67.653  1.00  0.00    -0.242 A  
HETATM    6  N   UNL     1     -11.769  13.623  67.335  1.00  0.00    -0.358 NA 
HETATM    7  C   UNL     1     -11.308  13.546  68.596  1.00  0.00    -0.288 A  
HETATM    8  C   UNL     1     -10.364  14.582  68.837  1.00  0.00    -0.237 A  
BRANCH   7   9
HETATM    9  C   UNL     1     -11.760  12.492  69.513  1.00  0.00    -0.375 A  
HETATM   10  C   UNL     1     -11.346  11.164  69.323  1.00  0.00    -0.349 A  
HETATM   11  C   UNL     1     -12.590  12.784  70.604  1.00  0.00    -0.248 A  
HETATM   12  N   UNL     1     -13.324   8.676  73.024  1.00  0.00    -0.128 NA 
HETATM   13  C   UNL     1     -12.986  11.775  71.489  1.00  0.00    -0.446 A  
HETATM   14 CL   UNL     1     -11.173   8.549  69.906  1.00  0.00    -0.110 Cl 
HETATM   15  C   UNL     1     -12.559  10.457  71.300  1.00  0.00    -0.525 A  
HETATM   16  C   UNL     1     -12.973   9.456  72.241  1.00  0.00    -0.400 C  
HETATM   17  C   UNL     1     -11.740  10.154  70.209  1.00  0.00    -0.282 A  
ENDBRANCH   7   9
ENDBRANCH   3   4
ENDBRANCH   2   3
BRANCH   2  18
HETATM   18  N   UNL     1     -10.235  12.802  65.073  1.00  0.00    -0.367 N  
HETATM   19  O   UNL     1      -9.946  11.530  63.189  1.00  0.00    -0.367 OA 
HETATM   20  H   UNL     1     -10.075  12.851  66.079  1.00  0.00     0.000 HD 
HETATM   21  C   UNL     1      -9.792  11.690  64.395  1.00  0.00    -0.223 C  
BRANCH  21  22
HETATM   22  C   UNL     1      -9.132  10.690  65.240  1.00  0.00    -0.195 A  
HETATM   23  N   UNL     1      -8.790   9.458  64.816  1.00  0.00    -0.201 NA 
HETATM   24  H   UNL     1      -8.915   9.053  63.888  1.00  0.00     0.000 HD 
HETATM   25  C   UNL     1      -8.784  10.881  66.597  1.00  0.00    -0.156 A  
HETATM   26  N   UNL     1      -8.242   8.885  65.908  1.00  0.00    -0.115 NA 
HETATM   27  C   UNL     1      -8.243   9.688  67.015  1.00  0.00    -0.117 A  
BRANCH  27  28
HETATM   28  C   UNL     1      -7.710   9.252  68.329  1.00  0.00    -0.087 C  
HETATM   29  C   UNL     1      -8.135  10.175  69.467  1.00  0.00    -0.176 C  
HETATM   30  O   UNL     1      -8.207   7.939  68.557  1.00  0.00    -0.124 OA 
HETATM   31  H   UNL     1      -7.865   7.661  69.398  1.00  0.00     0.000 HD 
ENDBRANCH  27  28
ENDBRANCH  21  22
ENDBRANCH   2  18
TORSDOF 6
ENDMDL
MODEL      117
REMARK 921   NORMALIZED FREE ENERGY PREDICTED BY IDOCK:   -5.23 KCAL/MOL
REMARK 922        TOTAL FREE ENERGY PREDICTED BY IDOCK:   -8.69 KCAL/MOL
REMARK 923 INTER-LIGAND FREE ENERGY PREDICTED BY IDOCK:   -6.86 KCAL/MOL
REMARK 924 INTRA-LIGAND FREE ENERGY PREDICTED BY IDOCK:   -1.82 KCAL/MOL
REMARK 927      BINDING AFFINITY PREDICTED BY RF-SCORE:    0.00 PKD
ROOT
HETATM    1  C   UNL     1      -8.061  17.754  68.693  1.00  0.00    -0.277 C  
HETATM    2  C   UNL     1      -8.815  16.756  67.808  1.00  0.00    -0.208 C  
ENDROOT
BRANCH   2   3
HETATM    3  C   UNL     1      -7.842  16.021  66.870  1.00  0.00    -0.249 C  
BRANCH   3   4
HETATM    4  N   UNL     1      -7.584  14.657  67.297  1.00  0.00    -0.187 NA 
HETATM    5  C   UNL     1      -6.479  14.205  67.951  1.00  0.00    -0.165 A  
HETATM    6  N   UNL     1      -8.480  13.690  67.033  1.00  0.00    -0.170 NA 
HETATM    7  C   UNL     1      -7.932  12.568  67.529  1.00  0.00    -0.175 A  
HETATM    8  C   UNL     1      -6.677  12.860  68.134  1.00  0.00    -0.096 A  
BRANCH   7   9
HETATM    9  C   UNL     1      -8.599  11.266  67.398  1.00  0.00    -0.136 A  
HETATM   10  C   UNL     1      -8.303  10.225  68.292  1.00  0.00    -0.116 A  
HETATM   11  C   UNL     1      -9.555  11.037  66.398  1.00  0.00    -0.227 A  
HETATM   12  N   UNL     1     -11.211   6.541  66.963  1.00  0.00    -0.349 NA 
HETATM   13  C   UNL     1     -10.206   9.802  66.304  1.00  0.00    -0.282 A  
HETATM   14 CL   UNL     1      -8.538   7.770  69.352  1.00  0.00    -0.134 Cl 
HETATM   15  C   UNL     1      -9.915   8.774  67.207  1.00  0.00    -0.281 A  
HETATM   16  C   UNL     1     -10.619   7.531  67.088  1.00  0.00    -0.345 C  
HETATM   17  C   UNL     1      -8.956   8.990  68.201  1.00  0.00    -0.133 A  
ENDBRANCH   7   9
ENDBRANCH   3   4
ENDBRANCH   2   3
BRANCH   2  18
HETATM   18  N   UNL     1      -9.624  15.860  68.628  1.00  0.00    -0.201 N  
HETATM   19  O   UNL     1     -11.647  16.373  67.679  1.00  0.00     0.035 OA 
HETATM   20  H   UNL     1      -9.155  15.299  69.338  1.00  0.00     0.000 HD 
HETATM   21  C   UNL     1     -10.988  15.734  68.493  1.00  0.00    -0.312 C  
BRANCH  21  22
HETATM   22  C   UNL     1     -11.602  14.782  69.424  1.00  0.00    -0.310 A  
HETATM   23  N   UNL     1     -12.149  15.133  70.604  1.00  0.00    -0.302 NA 
HETATM   24  H   UNL     1     -12.231  16.067  71.007  1.00  0.00     0.000 HD 
HETATM   25  C   UNL     1     -11.689  13.386  69.213  1.00  0.00    -0.383 A  
HETATM   26  N   UNL     1     -12.563  13.961  71.126  1.00  0.00    -0.353 NA 
HETATM   27  C   UNL     1     -12.281  12.875  70.344  1.00  0.00    -0.304 A  
BRANCH  27  28
HETATM   28  C   UNL     1     -12.628  11.486  70.734  1.00  0.00    -0.298 C  
HETATM   29  C   UNL     1     -11.434  10.540  70.647  1.00  0.00    -0.418 C  
HETATM   30  O   UNL     1     -13.104  11.545  72.073  1.00  0.00    -0.486 OA 
HETATM   31  H   UNL     1     -13.325  10.656  72.323  1.00  0.00     0.000 HD 
ENDBRANCH  27  28
ENDBRANCH  21  22
ENDBRANCH   2  18
TORSDOF 6
ENDMDL
MODEL      118
REMARK 921   NORMALIZED FREE ENERGY PREDICTED BY IDOCK:   -5.22 KCAL/MOL
REMARK 922        TOTAL FREE ENERGY PREDICTED BY IDOCK:   -8.67 KCAL/MOL
REMARK 923 INTER-LIGAND FREE ENERGY PREDICTED BY IDOCK:   -7.90 KCAL/MOL
REMARK 924 INTRA-LIGAND FREE ENERGY PREDICTED BY IDOCK:   -0.77 KCAL/MOL
REMARK 927      BINDING AFFINITY PREDICTED BY RF-SCORE:    0.00 PKD
ROOT
HETATM    1  C   UNL     1     -12.743  11.773  63.290  1.00  0.00    -0.314 C  
HETATM    2  C   UNL     1     -11.720  12.819  63.748  1.00  0.00    -0.493 C  
ENDROOT
BRANCH   2   3
HETATM    3  C   UNL     1     -12.389  13.872  64.648  1.00  0.00    -0.388 C  
BRANCH   3   4
HETATM    4  N   UNL     1     -12.006  13.734  66.042  1.00  0.00    -0.390 NA 
HETATM    5  C   UNL     1     -11.484  14.704  66.842  1.00  0.00    -0.363 A  
HETATM    6  N   UNL     1     -12.138  12.547  66.659  1.00  0.00    -0.568 NA 
HETATM    7  C   UNL     1     -11.678  12.754  67.905  1.00  0.00    -0.357 A  
HETATM    8  C   UNL     1     -11.276  14.110  68.062  1.00  0.00    -0.302 A  
BRANCH   7   9
HETATM    9  C   UNL     1     -11.617  11.666  68.890  1.00  0.00    -0.377 A  
HETATM   10  C   UNL     1     -10.762  10.572  68.684  1.00  0.00    -0.247 A  
HETATM   11  C   UNL     1     -12.388  11.700  70.060  1.00  0.00    -0.261 A  
HETATM   12  N   UNL     1     -11.316   7.764  72.634  1.00  0.00    -0.376 NA 
HETATM   13  C   UNL     1     -12.297  10.672  71.005  1.00  0.00    -0.507 A  
HETATM   14 CL   UNL     1      -9.579   8.242  69.300  1.00  0.00    -0.163 Cl 
HETATM   15  C   UNL     1     -11.433   9.592  70.798  1.00  0.00    -0.399 A  
HETATM   16  C   UNL     1     -11.354   8.569  71.800  1.00  0.00    -0.307 C  
HETATM   17  C   UNL     1     -10.667   9.544  69.630  1.00  0.00    -0.238 A  
ENDBRANCH   7   9
ENDBRANCH   3   4
ENDBRANCH   2   3
BRANCH   2  18
HETATM   18  N   UNL     1     -10.570  12.168  64.365  1.00  0.00    -0.301 N  
HETATM   19  O   UNL     1     -10.025  10.829  62.587  1.00  0.00    -0.217 OA 
HETATM   20  H   UNL     1     -10.322  12.429  65.320  1.00  0.00     0.000 HD 
HETATM   21  C   UNL     1      -9.802  11.220  63.728  1.00  0.00    -0.322 C  
BRANCH  21  22
HETATM   22  C   UNL     1      -8.699  10.693  64.536  1.00  0.00    -0.145 A  
HETATM   23  N   UNL     1      -8.202  11.314  65.624  1.00  0.00    -0.369 NA 
HETATM   24  H   UNL     1      -8.507  12.194  66.041  1.00  0.00     0.000 HD 
HETATM   25  C   UNL     1      -8.013   9.484  64.279  1.00  0.00    -0.136 A  
HETATM   26  N   UNL     1      -7.207  10.500  66.030  1.00  0.00    -0.133 NA 
HETATM   27  C   UNL     1      -7.030   9.400  65.236  1.00  0.00    -0.091 A  
BRANCH  27  28
HETATM   28  C   UNL     1      -5.979   8.384  65.487  1.00  0.00    -0.045 C  
HETATM   29  C   UNL     1      -6.542   7.095  66.078  1.00  0.00    -0.052 C  
HETATM   30  O   UNL     1      -5.364   8.115  64.232  1.00  0.00    -0.040 OA 
HETATM   31  H   UNL     1      -4.692   7.464  64.393  1.00  0.00     0.000 HD 
ENDBRANCH  27  28
ENDBRANCH  21  22
ENDBRANCH   2  18
TORSDOF 6
ENDMDL
MODEL      119
REMARK 921   NORMALIZED FREE ENERGY PREDICTED BY IDOCK:   -5.22 KCAL/MOL
REMARK 922        TOTAL FREE ENERGY PREDICTED BY IDOCK:   -8.67 KCAL/MOL
REMARK 923 INTER-LIGAND FREE ENERGY PREDICTED BY IDOCK:   -7.15 KCAL/MOL
REMARK 924 INTRA-LIGAND FREE ENERGY PREDICTED BY IDOCK:   -1.52 KCAL/MOL
REMARK 927      BINDING AFFINITY PREDICTED BY RF-SCORE:    0.00 PKD
ROOT
HETATM    1  C   UNL     1      -9.734   5.472  72.615  1.00  0.00    -0.170 C  
HETATM    2  C   UNL     1     -10.377   6.601  71.804  1.00  0.00    -0.196 C  
ENDROOT
BRANCH   2   3
HETATM    3  C   UNL     1     -10.800   7.757  72.726  1.00  0.00    -0.379 C  
BRANCH   3   4
HETATM    4  N   UNL     1     -11.605   8.751  72.037  1.00  0.00    -0.355 NA 
HETATM    5  C   UNL     1     -12.933   8.988  72.217  1.00  0.00    -0.424 A  
HETATM    6  N   UNL     1     -11.045   9.535  71.100  1.00  0.00    -0.352 NA 
HETATM    7  C   UNL     1     -12.050  10.307  70.651  1.00  0.00    -0.338 A  
HETATM    8  C   UNL     1     -13.252  10.002  71.349  1.00  0.00    -0.486 A  
BRANCH   7   9
HETATM    9  C   UNL     1     -11.844  11.283  69.574  1.00  0.00    -0.427 A  
HETATM   10  C   UNL     1     -11.511  10.849  68.281  1.00  0.00    -0.376 A  
HETATM   11  C   UNL     1     -11.993  12.658  69.799  1.00  0.00    -0.365 A  
HETATM   12  N   UNL     1     -11.256  14.919  65.602  1.00  0.00    -0.346 NA 
HETATM   13  C   UNL     1     -11.825  13.575  68.756  1.00  0.00    -0.390 A  
HETATM   14 CL   UNL     1     -10.947  11.142  65.672  1.00  0.00    -0.210 Cl 
HETATM   15  C   UNL     1     -11.506  13.134  67.467  1.00  0.00    -0.371 A  
HETATM   16  C   UNL     1     -11.361  14.104  66.422  1.00  0.00    -0.338 C  
HETATM   17  C   UNL     1     -11.344  11.765  67.234  1.00  0.00    -0.315 A  
ENDBRANCH   7   9
ENDBRANCH   3   4
ENDBRANCH   2   3
BRANCH   2  18
HETATM   18  N   UNL     1      -9.494   7.013  70.718  1.00  0.00    -0.162 N  
HETATM   19  O   UNL     1     -10.560   5.862  69.047  1.00  0.00    -0.233 OA 
HETATM   20  H   UNL     1      -8.713   7.630  70.939  1.00  0.00     0.000 HD 
HETATM   21  C   UNL     1      -9.660   6.612  69.412  1.00  0.00    -0.145 C  
BRANCH  21  22
HETATM   22  C   UNL     1      -8.655   7.140  68.486  1.00  0.00    -0.124 A  
HETATM   23  N   UNL     1      -8.062   6.405  67.524  1.00  0.00    -0.116 NA 
HETATM   24  H   UNL     1      -8.220   5.424  67.293  1.00  0.00     0.000 HD 
HETATM   25  C   UNL     1      -8.173   8.469  68.486  1.00  0.00    -0.123 A  
HETATM   26  N   UNL     1      -7.209   7.272  66.940  1.00  0.00    -0.085 NA 
HETATM   27  C   UNL     1      -7.214   8.519  67.502  1.00  0.00    -0.084 A  
BRANCH  27  28
HETATM   28  C   UNL     1      -6.339   9.621  67.030  1.00  0.00    -0.065 C  
HETATM   29  C   UNL     1      -7.130  10.863  66.633  1.00  0.00    -0.135 C  
HETATM   30  O   UNL     1      -5.456   9.928  68.102  1.00  0.00    -0.039 OA 
HETATM   31  H   UNL     1      -4.897  10.634  67.800  1.00  0.00     0.000 HD 
ENDBRANCH  27  28
ENDBRANCH  21  22
ENDBRANCH   2  18
TORSDOF 6
ENDMDL
MODEL      120
REMARK 921   NORMALIZED FREE ENERGY PREDICTED BY IDOCK:   -5.22 KCAL/MOL
REMARK 922        TOTAL FREE ENERGY PREDICTED BY IDOCK:   -8.67 KCAL/MOL
REMARK 923 INTER-LIGAND FREE ENERGY PREDICTED BY IDOCK:   -7.76 KCAL/MOL
REMARK 924 INTRA-LIGAND FREE ENERGY PREDICTED BY IDOCK:   -0.91 KCAL/MOL
REMARK 927      BINDING AFFINITY PREDICTED BY RF-SCORE:    0.00 PKD
ROOT
HETATM    1  C   UNL     1     -11.766  14.240  66.638  1.00  0.00    -0.417 C  
HETATM    2  C   UNL     1     -11.583  12.719  66.597  1.00  0.00    -0.370 C  
ENDROOT
BRANCH   2   3
HETATM    3  C   UNL     1     -10.135  12.356  66.226  1.00  0.00    -0.240 C  
BRANCH   3   4
HETATM    4  N   UNL     1      -9.910  10.922  66.209  1.00  0.00    -0.209 NA 
HETATM    5  C   UNL     1      -9.680  10.148  65.112  1.00  0.00    -0.304 A  
HETATM    6  N   UNL     1      -9.936  10.224  67.357  1.00  0.00    -0.182 NA 
HETATM    7  C   UNL     1      -9.721   8.949  66.991  1.00  0.00    -0.190 A  
HETATM    8  C   UNL     1      -9.535   8.867  65.583  1.00  0.00    -0.230 A  
BRANCH   7   9
HETATM    9  C   UNL     1      -9.720   7.859  67.975  1.00  0.00    -0.182 A  
HETATM   10  C   UNL     1      -9.024   8.000  69.186  1.00  0.00    -0.145 A  
HETATM   11  C   UNL     1     -10.423   6.669  67.744  1.00  0.00    -0.275 A  
HETATM   12  N   UNL     1      -9.885   3.870  71.636  1.00  0.00    -0.180 NA 
HETATM   13  C   UNL     1     -10.440   5.651  68.704  1.00  0.00    -0.277 A  
HETATM   14 CL   UNL     1      -8.167   7.249  71.617  1.00  0.00    -0.104 Cl 
HETATM   15  C   UNL     1      -9.754   5.805  69.913  1.00  0.00    -0.212 A  
HETATM   16  C   UNL     1      -9.812   4.746  70.879  1.00  0.00    -0.209 C  
HETATM   17  C   UNL     1      -9.041   6.984  70.149  1.00  0.00    -0.149 A  
ENDBRANCH   7   9
ENDBRANCH   3   4
ENDBRANCH   2   3
BRANCH   2  18
HETATM   18  N   UNL     1     -12.033  12.120  67.850  1.00  0.00    -0.260 N  
HETATM   19  O   UNL     1     -10.985  13.600  69.252  1.00  0.00    -0.228 OA 
HETATM   20  H   UNL     1     -12.624  11.290  67.804  1.00  0.00     0.000 HD 
HETATM   21  C   UNL     1     -11.700  12.616  69.090  1.00  0.00    -0.321 C  
BRANCH  21  22
HETATM   22  C   UNL     1     -12.254  11.856  70.214  1.00  0.00    -0.271 A  
HETATM   23  N   UNL     1     -12.894  12.419  71.258  1.00  0.00    -0.313 NA 
HETATM   24  H   UNL     1     -13.094  13.407  71.415  1.00  0.00     0.000 HD 
HETATM   25  C   UNL     1     -12.183  10.450  70.354  1.00  0.00    -0.389 A  
HETATM   26  N   UNL     1     -13.206  11.369  72.045  1.00  0.00    -0.455 NA 
HETATM   27  C   UNL     1     -12.773  10.165  71.562  1.00  0.00    -0.436 A  
BRANCH  27  28
HETATM   28  C   UNL     1     -12.989   8.883  72.277  1.00  0.00    -0.419 C  
HETATM   29  C   UNL     1     -13.967   7.967  71.549  1.00  0.00    -0.433 C  
HETATM   30  O   UNL     1     -11.718   8.253  72.380  1.00  0.00    -0.362 OA 
HETATM   31  H   UNL     1     -11.857   7.433  72.837  1.00  0.00     0.000 HD 
ENDBRANCH  27  28
ENDBRANCH  21  22
ENDBRANCH   2  18
TORSDOF 6
ENDMDL
MODEL      121
REMARK 921   NORMALIZED FREE ENERGY PREDICTED BY IDOCK:   -5.22 KCAL/MOL
REMARK 922        TOTAL FREE ENERGY PREDICTED BY IDOCK:   -8.67 KCAL/MOL
REMARK 923 INTER-LIGAND FREE ENERGY PREDICTED BY IDOCK:   -7.45 KCAL/MOL
REMARK 924 INTRA-LIGAND FREE ENERGY PREDICTED BY IDOCK:   -1.21 KCAL/MOL
REMARK 927      BINDING AFFINITY PREDICTED BY RF-SCORE:    0.00 PKD
ROOT
HETATM    1  C   UNL     1     -14.238   8.100  71.499  1.00  0.00    -0.502 C  
HETATM    2  C   UNL     1     -13.187   9.035  72.106  1.00  0.00    -0.446 C  
ENDROOT
BRANCH   2   3
HETATM    3  C   UNL     1     -12.014   8.227  72.688  1.00  0.00    -0.295 C  
BRANCH   3   4
HETATM    4  N   UNL     1     -10.819   8.316  71.868  1.00  0.00    -0.262 NA 
HETATM    5  C   UNL     1      -9.530   8.227  72.298  1.00  0.00    -0.271 A  
HETATM    6  N   UNL     1     -10.927   8.526  70.545  1.00  0.00    -0.239 NA 
HETATM    7  C   UNL     1      -9.659   8.581  70.100  1.00  0.00    -0.169 A  
HETATM    8  C   UNL     1      -8.752   8.376  71.177  1.00  0.00    -0.194 A  
BRANCH   7   9
HETATM    9  C   UNL     1      -9.353   8.843  68.688  1.00  0.00    -0.140 A  
HETATM   10  C   UNL     1      -8.397   9.810  68.339  1.00  0.00    -0.110 A  
HETATM   11  C   UNL     1      -9.987   8.129  67.662  1.00  0.00    -0.240 A  
HETATM   12  N   UNL     1      -8.150   9.652  63.469  1.00  0.00    -0.139 NA 
HETATM   13  C   UNL     1      -9.663   8.367  66.322  1.00  0.00    -0.278 A  
HETATM   14 CL   UNL     1      -6.871  11.246  66.661  1.00  0.00    -0.141 Cl 
HETATM   15  C   UNL     1      -8.699   9.322  65.983  1.00  0.00    -0.175 A  
HETATM   16  C   UNL     1      -8.382   9.522  64.599  1.00  0.00    -0.157 C  
HETATM   17  C   UNL     1      -8.069  10.047  66.998  1.00  0.00    -0.117 A  
ENDBRANCH   7   9
ENDBRANCH   3   4
ENDBRANCH   2   3
BRANCH   2  18
HETATM   18  N   UNL     1     -12.777  10.039  71.130  1.00  0.00    -0.360 N  
HETATM   19  O   UNL     1     -13.169  11.875  72.445  1.00  0.00    -0.329 OA 
HETATM   20  H   UNL     1     -12.461   9.722  70.214  1.00  0.00     0.000 HD 
HETATM   21  C   UNL     1     -12.795  11.392  71.381  1.00  0.00    -0.397 C  
BRANCH  21  22
HETATM   22  C   UNL     1     -12.348  12.221  70.257  1.00  0.00    -0.189 A  
HETATM   23  N   UNL     1     -12.206  13.559  70.322  1.00  0.00    -0.350 NA 
HETATM   24  H   UNL     1     -12.364  14.172  71.123  1.00  0.00     0.000 HD 
HETATM   25  C   UNL     1     -12.021  11.733  68.971  1.00  0.00    -0.341 A  
HETATM   26  N   UNL     1     -11.804  13.899  69.080  1.00  0.00    -0.337 NA 
HETATM   27  C   UNL     1     -11.709  12.840  68.219  1.00  0.00    -0.344 A  
BRANCH  27  28
HETATM   28  C   UNL     1     -11.306  12.988  66.799  1.00  0.00    -0.324 C  
HETATM   29  C   UNL     1      -9.858  13.443  66.648  1.00  0.00    -0.278 C  
HETATM   30  O   UNL     1     -11.481  11.714  66.190  1.00  0.00    -0.330 OA 
HETATM   31  H   UNL     1     -11.223  11.809  65.282  1.00  0.00     0.000 HD 
ENDBRANCH  27  28
ENDBRANCH  21  22
ENDBRANCH   2  18
TORSDOF 6
ENDMDL
MODEL      122
REMARK 921   NORMALIZED FREE ENERGY PREDICTED BY IDOCK:   -5.21 KCAL/MOL
REMARK 922        TOTAL FREE ENERGY PREDICTED BY IDOCK:   -8.67 KCAL/MOL
REMARK 923 INTER-LIGAND FREE ENERGY PREDICTED BY IDOCK:   -7.18 KCAL/MOL
REMARK 924 INTRA-LIGAND FREE ENERGY PREDICTED BY IDOCK:   -1.48 KCAL/MOL
REMARK 927      BINDING AFFINITY PREDICTED BY RF-SCORE:    0.00 PKD
ROOT
HETATM    1  C   UNL     1      -5.993  13.872  71.134  1.00  0.00    -0.137 C  
HETATM    2  C   UNL     1      -5.832  13.245  69.745  1.00  0.00    -0.122 C  
ENDROOT
BRANCH   2   3
HETATM    3  C   UNL     1      -5.330  11.795  69.860  1.00  0.00    -0.085 C  
BRANCH   3   4
HETATM    4  N   UNL     1      -6.325  10.828  69.432  1.00  0.00    -0.059 NA 
HETATM    5  C   UNL     1      -6.331  10.131  68.262  1.00  0.00    -0.049 A  
HETATM    6  N   UNL     1      -7.384  10.562  70.216  1.00  0.00    -0.171 NA 
HETATM    7  C   UNL     1      -8.107   9.663  69.526  1.00  0.00    -0.129 A  
HETATM    8  C   UNL     1      -7.461   9.353  68.297  1.00  0.00    -0.078 A  
BRANCH   7   9
HETATM    9  C   UNL     1      -9.382   9.148  70.041  1.00  0.00    -0.218 A  
HETATM   10  C   UNL     1     -10.446  10.026  70.302  1.00  0.00    -0.331 A  
HETATM   11  C   UNL     1      -9.577   7.778  70.264  1.00  0.00    -0.175 A  
HETATM   12  N   UNL     1     -14.115   7.172  71.784  1.00  0.00    -0.357 NA 
HETATM   13  C   UNL     1     -10.808   7.297  70.724  1.00  0.00    -0.260 A  
HETATM   14 CL   UNL     1     -12.938  10.698  71.042  1.00  0.00    -0.467 Cl 
HETATM   15  C   UNL     1     -11.867   8.178  70.969  1.00  0.00    -0.279 A  
HETATM   16  C   UNL     1     -13.118   7.643  71.422  1.00  0.00    -0.296 C  
HETATM   17  C   UNL     1     -11.679   9.546  70.760  1.00  0.00    -0.298 A  
ENDBRANCH   7   9
ENDBRANCH   3   4
ENDBRANCH   2   3
BRANCH   2  18
HETATM   18  N   UNL     1      -7.070  13.375  68.983  1.00  0.00    -0.212 N  
HETATM   19  O   UNL     1      -6.204  14.626  67.268  1.00  0.00    -0.305 OA 
HETATM   20  H   UNL     1      -7.914  12.939  69.353  1.00  0.00     0.000 HD 
HETATM   21  C   UNL     1      -7.158  14.057  67.790  1.00  0.00    -0.173 C  
BRANCH  21  22
HETATM   22  C   UNL     1      -8.498  14.068  67.198  1.00  0.00    -0.190 A  
HETATM   23  N   UNL     1      -8.892  14.941  66.251  1.00  0.00    -0.479 NA 
HETATM   24  H   UNL     1      -8.347  15.682  65.810  1.00  0.00     0.000 HD 
HETATM   25  C   UNL     1      -9.544  13.183  67.547  1.00  0.00    -0.208 A  
HETATM   26  N   UNL     1     -10.178  14.606  66.022  1.00  0.00    -0.295 NA 
HETATM   27  C   UNL     1     -10.630  13.574  66.799  1.00  0.00    -0.272 A  
BRANCH  27  28
HETATM   28  C   UNL     1     -12.018  13.056  66.728  1.00  0.00    -0.369 C  
HETATM   29  C   UNL     1     -12.525  12.941  65.294  1.00  0.00    -0.552 C  
HETATM   30  O   UNL     1     -12.007  11.774  67.344  1.00  0.00    -0.617 OA 
HETATM   31  H   UNL     1     -12.896  11.443  67.298  1.00  0.00     0.000 HD 
ENDBRANCH  27  28
ENDBRANCH  21  22
ENDBRANCH   2  18
TORSDOF 6
ENDMDL
MODEL      123
REMARK 921   NORMALIZED FREE ENERGY PREDICTED BY IDOCK:   -5.20 KCAL/MOL
REMARK 922        TOTAL FREE ENERGY PREDICTED BY IDOCK:   -8.65 KCAL/MOL
REMARK 923 INTER-LIGAND FREE ENERGY PREDICTED BY IDOCK:   -7.67 KCAL/MOL
REMARK 924 INTRA-LIGAND FREE ENERGY PREDICTED BY IDOCK:   -0.98 KCAL/MOL
REMARK 927      BINDING AFFINITY PREDICTED BY RF-SCORE:    0.00 PKD
ROOT
HETATM    1  C   UNL     1      -9.764  18.033  68.062  1.00  0.00    -0.309 C  
HETATM    2  C   UNL     1     -10.035  16.813  68.949  1.00  0.00    -0.271 C  
ENDROOT
BRANCH   2   3
HETATM    3  C   UNL     1     -11.464  16.290  68.729  1.00  0.00    -0.289 C  
BRANCH   3   4
HETATM    4  N   UNL     1     -11.844  15.286  69.707  1.00  0.00    -0.311 NA 
HETATM    5  C   UNL     1     -12.341  15.512  70.954  1.00  0.00    -0.422 A  
HETATM    6  N   UNL     1     -11.696  13.980  69.421  1.00  0.00    -0.293 NA 
HETATM    7  C   UNL     1     -12.107  13.337  70.527  1.00  0.00    -0.314 A  
HETATM    8  C   UNL     1     -12.541  14.272  71.508  1.00  0.00    -0.432 A  
BRANCH   7   9
HETATM    9  C   UNL     1     -12.058  11.872  70.625  1.00  0.00    -0.389 A  
HETATM   10  C   UNL     1     -11.179  11.138  69.812  1.00  0.00    -0.318 A  
HETATM   11  C   UNL     1     -12.864  11.176  71.536  1.00  0.00    -0.542 A  
HETATM   12  N   UNL     1     -11.802   6.486  71.143  1.00  0.00    -0.343 NA 
HETATM   13  C   UNL     1     -12.783   9.783  71.641  1.00  0.00    -0.517 A  
HETATM   14 CL   UNL     1      -9.976   8.924  68.887  1.00  0.00    -0.190 Cl 
HETATM   15  C   UNL     1     -11.895   9.061  70.837  1.00  0.00    -0.302 A  
HETATM   16  C   UNL     1     -11.830   7.636  70.988  1.00  0.00    -0.285 C  
HETATM   17  C   UNL     1     -11.095   9.745  69.918  1.00  0.00    -0.254 A  
ENDBRANCH   7   9
ENDBRANCH   3   4
ENDBRANCH   2   3
BRANCH   2  18
HETATM   18  N   UNL     1      -9.004  15.800  68.747  1.00  0.00    -0.199 N  
HETATM   19  O   UNL     1      -9.559  15.270  66.588  1.00  0.00    -0.231 OA 
HETATM   20  H   UNL     1      -8.371  15.595  69.520  1.00  0.00     0.000 HD 
HETATM   21  C   UNL     1      -8.842  15.106  67.570  1.00  0.00    -0.182 C  
BRANCH  21  22
HETATM   22  C   UNL     1      -7.748  14.131  67.589  1.00  0.00    -0.174 A  
HETATM   23  N   UNL     1      -6.455  14.450  67.388  1.00  0.00    -0.338 NA 
HETATM   24  H   UNL     1      -6.053  15.372  67.215  1.00  0.00     0.000 HD 
HETATM   25  C   UNL     1      -7.906  12.742  67.806  1.00  0.00    -0.156 A  
HETATM   26  N   UNL     1      -5.817  13.265  67.470  1.00  0.00    -0.319 NA 
HETATM   27  C   UNL     1      -6.648  12.201  67.688  1.00  0.00    -0.116 A  
BRANCH  27  28
HETATM   28  C   UNL     1      -6.161  10.803  67.790  1.00  0.00    -0.047 C  
HETATM   29  C   UNL     1      -6.690  10.091  69.031  1.00  0.00    -0.053 C  
HETATM   30  O   UNL     1      -6.603  10.130  66.617  1.00  0.00    -0.070 OA 
HETATM   31  H   UNL     1      -6.291   9.235  66.684  1.00  0.00     0.000 HD 
ENDBRANCH  27  28
ENDBRANCH  21  22
ENDBRANCH   2  18
TORSDOF 6
ENDMDL
MODEL      124
REMARK 921   NORMALIZED FREE ENERGY PREDICTED BY IDOCK:   -5.20 KCAL/MOL
REMARK 922        TOTAL FREE ENERGY PREDICTED BY IDOCK:   -8.64 KCAL/MOL
REMARK 923 INTER-LIGAND FREE ENERGY PREDICTED BY IDOCK:   -7.10 KCAL/MOL
REMARK 924 INTRA-LIGAND FREE ENERGY PREDICTED BY IDOCK:   -1.54 KCAL/MOL
REMARK 927      BINDING AFFINITY PREDICTED BY RF-SCORE:    0.00 PKD
ROOT
HETATM    1  C   UNL     1      -5.395  10.556  64.928  1.00  0.00    -0.147 C  
HETATM    2  C   UNL     1      -6.626  10.004  65.655  1.00  0.00    -0.104 C  
ENDROOT
BRANCH   2   3
HETATM    3  C   UNL     1      -6.203   9.101  66.826  1.00  0.00    -0.065 C  
BRANCH   3   4
HETATM    4  N   UNL     1      -6.809   9.503  68.083  1.00  0.00    -0.069 NA 
HETATM    5  C   UNL     1      -6.208  10.192  69.091  1.00  0.00    -0.040 A  
HETATM    6  N   UNL     1      -8.086   9.176  68.347  1.00  0.00    -0.103 NA 
HETATM    7  C   UNL     1      -8.319   9.667  69.577  1.00  0.00    -0.152 A  
HETATM    8  C   UNL     1      -7.162  10.332  70.068  1.00  0.00    -0.164 A  
BRANCH   7   9
HETATM    9  C   UNL     1      -9.612   9.472  70.246  1.00  0.00    -0.314 A  
HETATM   10  C   UNL     1      -9.705   8.653  71.382  1.00  0.00    -0.314 A  
HETATM   11  C   UNL     1     -10.772  10.110  69.786  1.00  0.00    -0.317 A  
HETATM   12  N   UNL     1     -14.375   8.924  72.767  1.00  0.00    -0.538 NA 
HETATM   13  C   UNL     1     -11.992   9.942  70.452  1.00  0.00    -0.271 A  
HETATM   14 CL   UNL     1     -10.943   7.468  73.448  1.00  0.00    -0.376 Cl 
HETATM   15  C   UNL     1     -12.073   9.134  71.590  1.00  0.00    -0.432 A  
HETATM   16  C   UNL     1     -13.337   9.003  72.255  1.00  0.00    -0.467 C  
HETATM   17  C   UNL     1     -10.924   8.485  72.051  1.00  0.00    -0.340 A  
ENDBRANCH   7   9
ENDBRANCH   3   4
ENDBRANCH   2   3
BRANCH   2  18
HETATM   18  N   UNL     1      -7.514  11.092  66.047  1.00  0.00    -0.351 N  
HETATM   19  O   UNL     1      -9.256  10.535  64.665  1.00  0.00    -0.201 OA 
HETATM   20  H   UNL     1      -7.185  11.756  66.748  1.00  0.00     0.000 HD 
HETATM   21  C   UNL     1      -8.774  11.270  65.521  1.00  0.00    -0.036 C  
BRANCH  21  22
HETATM   22  C   UNL     1      -9.492  12.432  66.053  1.00  0.00    -0.166 A  
HETATM   23  N   UNL     1     -10.140  13.329  65.285  1.00  0.00    -0.448 NA 
HETATM   24  H   UNL     1     -10.239  13.335  64.270  1.00  0.00     0.000 HD 
HETATM   25  C   UNL     1      -9.589  12.765  67.424  1.00  0.00    -0.199 A  
HETATM   26  N   UNL     1     -10.626  14.219  66.175  1.00  0.00    -0.288 NA 
HETATM   27  C   UNL     1     -10.296  13.943  67.473  1.00  0.00    -0.245 A  
BRANCH  27  28
HETATM   28  C   UNL     1     -10.707  14.801  68.612  1.00  0.00    -0.253 C  
HETATM   29  C   UNL     1     -12.122  14.494  69.092  1.00  0.00    -0.299 C  
HETATM   30  O   UNL     1      -9.775  14.563  69.659  1.00  0.00    -0.403 OA 
HETATM   31  H   UNL     1     -10.039  15.112  70.388  1.00  0.00     0.000 HD 
ENDBRANCH  27  28
ENDBRANCH  21  22
ENDBRANCH   2  18
TORSDOF 6
ENDMDL
MODEL      125
REMARK 921   NORMALIZED FREE ENERGY PREDICTED BY IDOCK:   -5.19 KCAL/MOL
REMARK 922        TOTAL FREE ENERGY PREDICTED BY IDOCK:   -8.63 KCAL/MOL
REMARK 923 INTER-LIGAND FREE ENERGY PREDICTED BY IDOCK:   -7.27 KCAL/MOL
REMARK 924 INTRA-LIGAND FREE ENERGY PREDICTED BY IDOCK:   -1.37 KCAL/MOL
REMARK 927      BINDING AFFINITY PREDICTED BY RF-SCORE:    0.00 PKD
ROOT
HETATM    1  C   UNL     1     -10.304  17.943  67.371  1.00  0.00    -0.383 C  
HETATM    2  C   UNL     1     -10.521  16.524  66.835  1.00  0.00    -0.282 C  
ENDROOT
BRANCH   2   3
HETATM    3  C   UNL     1      -9.278  16.037  66.071  1.00  0.00    -0.340 C  
BRANCH   3   4
HETATM    4  N   UNL     1      -8.499  15.077  66.833  1.00  0.00    -0.237 NA 
HETATM    5  C   UNL     1      -7.303  15.301  67.444  1.00  0.00    -0.210 A  
HETATM    6  N   UNL     1      -8.940  13.814  66.972  1.00  0.00    -0.237 NA 
HETATM    7  C   UNL     1      -7.991  13.195  67.695  1.00  0.00    -0.174 A  
HETATM    8  C   UNL     1      -6.952  14.109  68.027  1.00  0.00    -0.149 A  
BRANCH   7   9
HETATM    9  C   UNL     1      -8.089  11.768  68.025  1.00  0.00    -0.145 A  
HETATM   10  C   UNL     1      -8.977  10.938  67.323  1.00  0.00    -0.139 A  
HETATM   11  C   UNL     1      -7.291  11.197  69.027  1.00  0.00    -0.120 A  
HETATM   12  N   UNL     1      -8.290   6.479  69.179  1.00  0.00    -0.118 NA 
HETATM   13  C   UNL     1      -7.372   9.829  69.310  1.00  0.00    -0.082 A  
HETATM   14 CL   UNL     1     -10.171   8.621  66.681  1.00  0.00    -0.360 Cl 
HETATM   15  C   UNL     1      -8.251   9.007  68.597  1.00  0.00    -0.118 A  
HETATM   16  C   UNL     1      -8.290   7.607  68.904  1.00  0.00    -0.129 C  
HETATM   17  C   UNL     1      -9.058   9.569  67.604  1.00  0.00    -0.120 A  
ENDBRANCH   7   9
ENDBRANCH   3   4
ENDBRANCH   2   3
BRANCH   2  18
HETATM   18  N   UNL     1     -10.930  15.630  67.914  1.00  0.00    -0.310 N  
HETATM   19  O   UNL     1     -12.339  14.321  66.667  1.00  0.00    -0.446 OA 
HETATM   20  H   UNL     1     -10.544  15.788  68.844  1.00  0.00     0.000 HD 
HETATM   21  C   UNL     1     -11.810  14.586  67.742  1.00  0.00    -0.357 C  
BRANCH  21  22
HETATM   22  C   UNL     1     -12.086  13.822  68.961  1.00  0.00    -0.322 A  
HETATM   23  N   UNL     1     -12.670  14.343  70.058  1.00  0.00    -0.511 NA 
HETATM   24  H   UNL     1     -13.005  15.296  70.200  1.00  0.00     0.000 HD 
HETATM   25  C   UNL     1     -11.771  12.456  69.149  1.00  0.00    -0.376 A  
HETATM   26  N   UNL     1     -12.705  13.309  70.923  1.00  0.00    -0.293 NA 
HETATM   27  C   UNL     1     -12.147  12.159  70.437  1.00  0.00    -0.309 A  
BRANCH  27  28
HETATM   28  C   UNL     1     -12.060  10.906  71.228  1.00  0.00    -0.217 C  
HETATM   29  C   UNL     1     -13.256   9.988  70.999  1.00  0.00    -0.399 C  
HETATM   30  O   UNL     1     -10.862  10.253  70.827  1.00  0.00    -0.385 OA 
HETATM   31  H   UNL     1     -10.807   9.452  71.332  1.00  0.00     0.000 HD 
ENDBRANCH  27  28
ENDBRANCH  21  22
ENDBRANCH   2  18
TORSDOF 6
ENDMDL
MODEL      126
REMARK 921   NORMALIZED FREE ENERGY PREDICTED BY IDOCK:   -5.13 KCAL/MOL
REMARK 922        TOTAL FREE ENERGY PREDICTED BY IDOCK:   -8.55 KCAL/MOL
REMARK 923 INTER-LIGAND FREE ENERGY PREDICTED BY IDOCK:   -7.87 KCAL/MOL
REMARK 924 INTRA-LIGAND FREE ENERGY PREDICTED BY IDOCK:   -0.69 KCAL/MOL
REMARK 927      BINDING AFFINITY PREDICTED BY RF-SCORE:    0.00 PKD
ROOT
HETATM    1  C   UNL     1     -13.135  11.115  71.498  1.00  0.00    -0.489 C  
HETATM    2  C   UNL     1     -12.368  11.814  70.371  1.00  0.00    -0.277 C  
ENDROOT
BRANCH   2   3
HETATM    3  C   UNL     1     -12.181  13.308  70.688  1.00  0.00    -0.338 C  
BRANCH   3   4
HETATM    4  N   UNL     1     -11.818  14.083  69.515  1.00  0.00    -0.304 NA 
HETATM    5  C   UNL     1     -12.156  13.811  68.224  1.00  0.00    -0.279 A  
HETATM    6  N   UNL     1     -11.055  15.182  69.646  1.00  0.00    -0.255 NA 
HETATM    7  C   UNL     1     -10.887  15.636  68.392  1.00  0.00    -0.290 A  
HETATM    8  C   UNL     1     -11.586  14.807  67.471  1.00  0.00    -0.379 A  
BRANCH   7   9
HETATM    9  C   UNL     1     -10.063  16.818  68.109  1.00  0.00    -0.282 A  
HETATM   10  C   UNL     1     -10.497  17.779  67.183  1.00  0.00    -0.338 A  
HETATM   11  C   UNL     1      -8.842  17.028  68.766  1.00  0.00    -0.244 A  
HETATM   12  N   UNL     1      -7.057  21.238  67.230  1.00  0.00    -0.536 NA 
HETATM   13  C   UNL     1      -8.082  18.175  68.511  1.00  0.00    -0.314 A  
HETATM   14 CL   UNL     1     -10.357  20.065  65.781  1.00  0.00    -0.546 Cl 
HETATM   15  C   UNL     1      -8.529  19.133  67.595  1.00  0.00    -0.323 A  
HETATM   16  C   UNL     1      -7.729  20.304  67.377  1.00  0.00    -0.317 C  
HETATM   17  C   UNL     1      -9.739  18.929  66.928  1.00  0.00    -0.318 A  
ENDBRANCH   7   9
ENDBRANCH   3   4
ENDBRANCH   2   3
BRANCH   2  18
HETATM   18  N   UNL     1     -11.117  11.114  70.099  1.00  0.00    -0.479 N  
HETATM   19  O   UNL     1     -11.616  10.487  67.951  1.00  0.00    -0.461 OA 
HETATM   20  H   UNL     1     -10.415  11.074  70.837  1.00  0.00     0.000 HD 
HETATM   21  C   UNL     1     -10.835  10.505  68.897  1.00  0.00    -0.235 C  
BRANCH  21  22
HETATM   22  C   UNL     1      -9.522   9.855  68.843  1.00  0.00    -0.170 A  
HETATM   23  N   UNL     1      -8.666   9.806  69.882  1.00  0.00    -0.209 NA 
HETATM   24  H   UNL     1      -8.794  10.181  70.822  1.00  0.00     0.000 HD 
HETATM   25  C   UNL     1      -8.985   9.210  67.704  1.00  0.00    -0.130 A  
HETATM   26  N   UNL     1      -7.600   9.145  69.386  1.00  0.00    -0.076 NA 
HETATM   27  C   UNL     1      -7.727   8.793  68.071  1.00  0.00    -0.101 A  
BRANCH  27  28
HETATM   28  C   UNL     1      -6.666   8.078  67.319  1.00  0.00    -0.065 C  
HETATM   29  C   UNL     1      -5.304   8.174  67.999  1.00  0.00    -0.034 C  
HETATM   30  O   UNL     1      -7.073   6.717  67.234  1.00  0.00    -0.075 OA 
HETATM   31  H   UNL     1      -6.393   6.260  66.753  1.00  0.00     0.000 HD 
ENDBRANCH  27  28
ENDBRANCH  21  22
ENDBRANCH   2  18
TORSDOF 6
ENDMDL
MODEL      127
REMARK 921   NORMALIZED FREE ENERGY PREDICTED BY IDOCK:   -5.12 KCAL/MOL
REMARK 922        TOTAL FREE ENERGY PREDICTED BY IDOCK:   -8.54 KCAL/MOL
REMARK 923 INTER-LIGAND FREE ENERGY PREDICTED BY IDOCK:   -7.50 KCAL/MOL
REMARK 924 INTRA-LIGAND FREE ENERGY PREDICTED BY IDOCK:   -1.04 KCAL/MOL
REMARK 927      BINDING AFFINITY PREDICTED BY RF-SCORE:    0.00 PKD
ROOT
HETATM    1  C   UNL     1     -12.210  12.986  63.330  1.00  0.00    -0.552 C  
HETATM    2  C   UNL     1     -11.025  12.658  64.245  1.00  0.00    -0.366 C  
ENDROOT
BRANCH   2   3
HETATM    3  C   UNL     1     -10.029  11.730  63.528  1.00  0.00    -0.408 C  
BRANCH   3   4
HETATM    4  N   UNL     1      -9.516  10.688  64.400  1.00  0.00    -0.244 NA 
HETATM    5  C   UNL     1      -8.908   9.532  64.015  1.00  0.00    -0.212 A  
HETATM    6  N   UNL     1      -9.640  10.807  65.733  1.00  0.00    -0.197 NA 
HETATM    7  C   UNL     1      -9.097   9.682  66.232  1.00  0.00    -0.160 A  
HETATM    8  C   UNL     1      -8.607   8.864  65.176  1.00  0.00    -0.208 A  
BRANCH   7   9
HETATM    9  C   UNL     1      -9.080   9.415  67.676  1.00  0.00    -0.131 A  
HETATM   10  C   UNL     1      -8.498   8.237  68.170  1.00  0.00    -0.132 A  
HETATM   11  C   UNL     1      -9.619  10.329  68.591  1.00  0.00    -0.169 A  
HETATM   12  N   UNL     1      -8.900   8.560  73.021  1.00  0.00    -0.348 NA 
HETATM   13  C   UNL     1      -9.567  10.076  69.967  1.00  0.00    -0.205 A  
HETATM   14 CL   UNL     1      -7.697   6.514  70.066  1.00  0.00    -0.100 Cl 
HETATM   15  C   UNL     1      -8.974   8.906  70.451  1.00  0.00    -0.207 A  
HETATM   16  C   UNL     1      -8.924   8.694  71.869  1.00  0.00    -0.231 C  
HETATM   17  C   UNL     1      -8.443   7.984  69.546  1.00  0.00    -0.131 A  
ENDBRANCH   7   9
ENDBRANCH   3   4
ENDBRANCH   2   3
BRANCH   2  18
HETATM   18  N   UNL     1     -10.419  13.885  64.752  1.00  0.00    -0.428 N  
HETATM   19  O   UNL     1     -11.249  13.739  66.884  1.00  0.00    -0.300 OA 
HETATM   20  H   UNL     1      -9.851  14.442  64.115  1.00  0.00     0.000 HD 
HETATM   21  C   UNL     1     -10.576  14.329  66.045  1.00  0.00    -0.300 C  
BRANCH  21  22
HETATM   22  C   UNL     1      -9.886  15.589  66.339  1.00  0.00    -0.278 A  
HETATM   23  N   UNL     1      -8.762  15.674  67.077  1.00  0.00    -0.211 NA 
HETATM   24  H   UNL     1      -8.235  14.916  67.513  1.00  0.00     0.000 HD 
HETATM   25  C   UNL     1     -10.309  16.865  65.900  1.00  0.00    -0.327 A  
HETATM   26  N   UNL     1      -8.497  16.996  67.105  1.00  0.00    -0.196 NA 
HETATM   27  C   UNL     1      -9.416  17.760  66.440  1.00  0.00    -0.264 A  
BRANCH  27  28
HETATM   28  C   UNL     1      -9.331  19.239  66.361  1.00  0.00    -0.360 C  
HETATM   29  C   UNL     1     -10.430  19.930  67.163  1.00  0.00    -0.566 C  
HETATM   30  O   UNL     1      -8.055  19.603  66.872  1.00  0.00    -0.266 OA 
HETATM   31  H   UNL     1      -8.001  20.550  66.822  1.00  0.00     0.000 HD 
ENDBRANCH  27  28
ENDBRANCH  21  22
ENDBRANCH   2  18
TORSDOF 6
ENDMDL
MODEL      128
REMARK 921   NORMALIZED FREE ENERGY PREDICTED BY IDOCK:   -5.09 KCAL/MOL
REMARK 922        TOTAL FREE ENERGY PREDICTED BY IDOCK:   -8.50 KCAL/MOL
REMARK 923 INTER-LIGAND FREE ENERGY PREDICTED BY IDOCK:   -7.52 KCAL/MOL
REMARK 924 INTRA-LIGAND FREE ENERGY PREDICTED BY IDOCK:   -0.99 KCAL/MOL
REMARK 927      BINDING AFFINITY PREDICTED BY RF-SCORE:    0.00 PKD
ROOT
HETATM    1  C   UNL     1      -8.327  11.841  66.076  1.00  0.00     0.186 C  
HETATM    2  C   UNL     1      -9.843  11.975  65.899  1.00  0.00    -0.238 C  
ENDROOT
BRANCH   2   3
HETATM    3  C   UNL     1     -10.433  10.691  65.291  1.00  0.00    -0.194 C  
BRANCH   3   4
HETATM    4  N   UNL     1      -9.973   9.493  65.972  1.00  0.00    -0.289 NA 
HETATM    5  C   UNL     1      -9.168   8.523  65.457  1.00  0.00    -0.041 A  
HETATM    6  N   UNL     1     -10.362   9.248  67.236  1.00  0.00    -0.250 NA 
HETATM    7  C   UNL     1      -9.792   8.072  67.550  1.00  0.00    -0.172 A  
HETATM    8  C   UNL     1      -9.014   7.596  66.457  1.00  0.00    -0.187 A  
BRANCH   7   9
HETATM    9  C   UNL     1     -10.017   7.436  68.854  1.00  0.00    -0.169 A  
HETATM   10  C   UNL     1      -9.277   7.841  69.976  1.00  0.00    -0.153 A  
HETATM   11  C   UNL     1     -10.981   6.432  69.016  1.00  0.00    -0.410 A  
HETATM   12  N   UNL     1     -11.005   5.167  73.672  1.00  0.00    -0.306 NA 
HETATM   13  C   UNL     1     -11.208   5.856  70.272  1.00  0.00    -0.317 A  
HETATM   14 CL   UNL     1      -8.556   7.838  72.562  1.00  0.00    -0.165 Cl 
HETATM   15  C   UNL     1     -10.475   6.275  71.387  1.00  0.00    -0.264 A  
HETATM   16  C   UNL     1     -10.751   5.674  72.660  1.00  0.00    -0.242 C  
HETATM   17  C   UNL     1      -9.504   7.268  71.234  1.00  0.00    -0.155 A  
ENDBRANCH   7   9
ENDBRANCH   3   4
ENDBRANCH   2   3
BRANCH   2  18
HETATM   18  N   UNL     1     -10.468  12.366  67.158  1.00  0.00    -0.219 N  
HETATM   19  O   UNL     1     -11.168  14.442  66.482  1.00  0.00    -0.324 OA 
HETATM   20  H   UNL     1     -10.441  11.708  67.936  1.00  0.00     0.000 HD 
HETATM   21  C   UNL     1     -11.092  13.578  67.350  1.00  0.00    -0.281 C  
BRANCH  21  22
HETATM   22  C   UNL     1     -11.647  13.765  68.694  1.00  0.00    -0.334 A  
HETATM   23  N   UNL     1     -11.910  12.754  69.544  1.00  0.00    -0.320 NA 
HETATM   24  H   UNL     1     -11.761  11.755  69.401  1.00  0.00     0.000 HD 
HETATM   25  C   UNL     1     -11.984  15.015  69.263  1.00  0.00    -0.322 A  
HETATM   26  N   UNL     1     -12.418  13.373  70.629  1.00  0.00    -0.334 NA 
HETATM   27  C   UNL     1     -12.514  14.731  70.499  1.00  0.00    -0.352 A  
BRANCH  27  28
HETATM   28  C   UNL     1     -13.064  15.608  71.562  1.00  0.00    -0.485 C  
HETATM   29  C   UNL     1     -13.567  14.819  72.767  1.00  0.00    -0.542 C  
HETATM   30  O   UNL     1     -12.011  16.480  71.957  1.00  0.00    -0.638 OA 
HETATM   31  H   UNL     1     -12.363  17.041  72.638  1.00  0.00     0.000 HD 
ENDBRANCH  27  28
ENDBRANCH  21  22
ENDBRANCH   2  18
TORSDOF 6
ENDMDL
MODEL      129
REMARK 921   NORMALIZED FREE ENERGY PREDICTED BY IDOCK:   -5.09 KCAL/MOL
REMARK 922        TOTAL FREE ENERGY PREDICTED BY IDOCK:   -8.50 KCAL/MOL
REMARK 923 INTER-LIGAND FREE ENERGY PREDICTED BY IDOCK:   -7.24 KCAL/MOL
REMARK 924 INTRA-LIGAND FREE ENERGY PREDICTED BY IDOCK:   -1.26 KCAL/MOL
REMARK 927      BINDING AFFINITY PREDICTED BY RF-SCORE:    0.00 PKD
ROOT
HETATM    1  C   UNL     1     -13.778   9.497  71.479  1.00  0.00    -0.341 C  
HETATM    2  C   UNL     1     -12.289   9.825  71.637  1.00  0.00    -0.408 C  
ENDROOT
BRANCH   2   3
HETATM    3  C   UNL     1     -11.506   8.581  72.091  1.00  0.00    -0.376 C  
BRANCH   3   4
HETATM    4  N   UNL     1     -10.316   8.352  71.290  1.00  0.00    -0.204 NA 
HETATM    5  C   UNL     1      -9.037   8.681  71.622  1.00  0.00    -0.247 A  
HETATM    6  N   UNL     1     -10.422   7.778  70.079  1.00  0.00    -0.225 NA 
HETATM    7  C   UNL     1      -9.165   7.738  69.605  1.00  0.00    -0.153 A  
HETATM    8  C   UNL     1      -8.262   8.281  70.561  1.00  0.00    -0.114 A  
BRANCH   7   9
HETATM    9  C   UNL     1      -8.867   7.211  68.267  1.00  0.00    -0.127 A  
HETATM   10  C   UNL     1      -9.732   6.285  67.663  1.00  0.00    -0.126 A  
HETATM   11  C   UNL     1      -7.735   7.630  67.556  1.00  0.00    -0.118 A  
HETATM   12  N   UNL     1      -7.803   5.425  63.266  1.00  0.00    -0.085 NA 
HETATM   13  C   UNL     1      -7.480   7.144  66.269  1.00  0.00    -0.087 A  
HETATM   14 CL   UNL     1     -10.605   4.670  65.704  1.00  0.00    -0.297 Cl 
HETATM   15  C   UNL     1      -8.353   6.230  65.669  1.00  0.00    -0.147 A  
HETATM   16  C   UNL     1      -8.066   5.771  64.341  1.00  0.00    -0.133 C  
HETATM   17  C   UNL     1      -9.480   5.799  66.374  1.00  0.00    -0.156 A  
ENDBRANCH   7   9
ENDBRANCH   3   4
ENDBRANCH   2   3
BRANCH   2  18
HETATM   18  N   UNL     1     -11.769  10.428  70.415  1.00  0.00    -0.305 N  
HETATM   19  O   UNL     1     -12.332  12.593  70.918  1.00  0.00    -0.374 OA 
HETATM   20  H   UNL     1     -11.341   9.818  69.719  1.00  0.00     0.000 HD 
HETATM   21  C   UNL     1     -11.827  11.778  70.152  1.00  0.00    -0.324 C  
BRANCH  21  22
HETATM   22  C   UNL     1     -11.251  12.167  68.862  1.00  0.00    -0.269 A  
HETATM   23  N   UNL     1     -10.191  12.989  68.731  1.00  0.00    -0.413 NA 
HETATM   24  H   UNL     1      -9.645  13.435  69.468  1.00  0.00     0.000 HD 
HETATM   25  C   UNL     1     -11.732  11.746  67.600  1.00  0.00    -0.320 A  
HETATM   26  N   UNL     1     -10.024  13.085  67.396  1.00  0.00    -0.225 NA 
HETATM   27  C   UNL     1     -10.945  12.381  66.669  1.00  0.00    -0.268 A  
BRANCH  27  28
HETATM   28  C   UNL     1     -10.961  12.363  65.186  1.00  0.00    -0.302 C  
HETATM   29  C   UNL     1     -12.361  12.563  64.615  1.00  0.00    -0.547 C  
HETATM   30  O   UNL     1     -10.105  13.414  64.755  1.00  0.00    -0.544 OA 
HETATM   31  H   UNL     1     -10.115  13.402  63.806  1.00  0.00     0.000 HD 
ENDBRANCH  27  28
ENDBRANCH  21  22
ENDBRANCH   2  18
TORSDOF 6
ENDMDL
MODEL      130
REMARK 921   NORMALIZED FREE ENERGY PREDICTED BY IDOCK:   -5.08 KCAL/MOL
REMARK 922        TOTAL FREE ENERGY PREDICTED BY IDOCK:   -8.49 KCAL/MOL
REMARK 923 INTER-LIGAND FREE ENERGY PREDICTED BY IDOCK:   -6.73 KCAL/MOL
REMARK 924 INTRA-LIGAND FREE ENERGY PREDICTED BY IDOCK:   -1.76 KCAL/MOL
REMARK 927      BINDING AFFINITY PREDICTED BY RF-SCORE:    0.00 PKD
ROOT
HETATM    1  C   UNL     1     -12.212   7.224  71.377  1.00  0.00    -0.384 C  
HETATM    2  C   UNL     1     -10.943   6.678  70.712  1.00  0.00    -0.270 C  
ENDROOT
BRANCH   2   3
HETATM    3  C   UNL     1     -11.271   6.069  69.338  1.00  0.00    -0.327 C  
BRANCH   3   4
HETATM    4  N   UNL     1     -10.677   6.818  68.245  1.00  0.00    -0.230 NA 
HETATM    5  C   UNL     1      -9.753   6.362  67.354  1.00  0.00    -0.121 A  
HETATM    6  N   UNL     1     -11.016   8.104  68.049  1.00  0.00     0.081 NA 
HETATM    7  C   UNL     1     -10.281   8.498  66.995  1.00  0.00    -0.301 A  
HETATM    8  C   UNL     1      -9.487   7.418  66.518  1.00  0.00    -0.229 A  
BRANCH   7   9
HETATM    9  C   UNL     1     -10.339   9.877  66.493  1.00  0.00    -0.259 A  
HETATM   10  C   UNL     1     -10.008  10.159  65.158  1.00  0.00    -0.379 A  
HETATM   11  C   UNL     1     -10.744  10.935  67.319  1.00  0.00    -0.317 A  
HETATM   12  N   UNL     1     -10.731  14.957  64.654  1.00  0.00    -0.321 NA 
HETATM   13  C   UNL     1     -10.826  12.240  66.818  1.00  0.00    -0.291 A  
HETATM   14 CL   UNL     1      -9.677  11.716  62.996  1.00  0.00    -0.400 Cl 
HETATM   15  C   UNL     1     -10.506  12.510  65.484  1.00  0.00    -0.305 A  
HETATM   16  C   UNL     1     -10.622  13.857  65.005  1.00  0.00    -0.404 C  
HETATM   17  C   UNL     1     -10.092  11.463  64.655  1.00  0.00    -0.280 A  
ENDBRANCH   7   9
ENDBRANCH   3   4
ENDBRANCH   2   3
BRANCH   2  18
HETATM   18  N   UNL     1      -9.912   7.708  70.664  1.00  0.00    -0.183 N  
HETATM   19  O   UNL     1      -8.225   6.450  71.573  1.00  0.00    -0.115 OA 
HETATM   20  H   UNL     1     -10.161   8.624  70.291  1.00  0.00     0.000 HD 
HETATM   21  C   UNL     1      -8.620   7.510  71.097  1.00  0.00    -0.121 C  
BRANCH  21  22
HETATM   22  C   UNL     1      -7.751   8.682  70.963  1.00  0.00    -0.108 A  
HETATM   23  N   UNL     1      -6.860   9.066  71.898  1.00  0.00    -0.291 NA 
HETATM   24  H   UNL     1      -6.652   8.619  72.791  1.00  0.00     0.000 HD 
HETATM   25  C   UNL     1      -7.740   9.559  69.854  1.00  0.00    -0.129 A  
HETATM   26  N   UNL     1      -6.309  10.181  71.376  1.00  0.00    -0.307 NA 
HETATM   27  C   UNL     1      -6.826  10.539  70.162  1.00  0.00    -0.141 A  
BRANCH  27  28
HETATM   28  C   UNL     1      -6.381  11.743  69.417  1.00  0.00    -0.114 C  
HETATM   29  C   UNL     1      -7.341  12.122  68.293  1.00  0.00    -0.100 C  
HETATM   30  O   UNL     1      -6.299  12.801  70.364  1.00  0.00    -0.381 OA 
HETATM   31  H   UNL     1      -6.015  13.571  69.887  1.00  0.00     0.000 HD 
ENDBRANCH  27  28
ENDBRANCH  21  22
ENDBRANCH   2  18
TORSDOF 6
ENDMDL
MODEL      131
REMARK 921   NORMALIZED FREE ENERGY PREDICTED BY IDOCK:   -5.06 KCAL/MOL
REMARK 922        TOTAL FREE ENERGY PREDICTED BY IDOCK:   -8.46 KCAL/MOL
REMARK 923 INTER-LIGAND FREE ENERGY PREDICTED BY IDOCK:   -7.38 KCAL/MOL
REMARK 924 INTRA-LIGAND FREE ENERGY PREDICTED BY IDOCK:   -1.08 KCAL/MOL
REMARK 927      BINDING AFFINITY PREDICTED BY RF-SCORE:    0.00 PKD
ROOT
HETATM    1  C   UNL     1      -6.543   8.325  67.777  1.00  0.00    -0.061 C  
HETATM    2  C   UNL     1      -7.532   9.480  67.587  1.00  0.00    -0.091 C  
ENDROOT
BRANCH   2   3
HETATM    3  C   UNL     1      -7.802   9.721  66.092  1.00  0.00    -0.107 C  
BRANCH   3   4
HETATM    4  N   UNL     1      -8.819  10.734  65.868  1.00  0.00    -0.174 NA 
HETATM    5  C   UNL     1      -9.935  10.609  65.098  1.00  0.00    -0.303 A  
HETATM    6  N   UNL     1      -8.694  11.946  66.435  1.00  0.00    -0.161 NA 
HETATM    7  C   UNL     1      -9.768  12.636  66.012  1.00  0.00    -0.229 A  
HETATM    8  C   UNL     1     -10.583  11.816  65.183  1.00  0.00    -0.332 A  
BRANCH   7   9
HETATM    9  C   UNL     1      -9.972  14.041  66.389  1.00  0.00    -0.301 A  
HETATM   10  C   UNL     1      -8.939  14.976  66.220  1.00  0.00    -0.233 A  
HETATM   11  C   UNL     1     -11.199  14.485  66.902  1.00  0.00    -0.340 A  
HETATM   12  N   UNL     1     -10.839  19.239  67.642  1.00  0.00    -0.434 NA 
HETATM   13  C   UNL     1     -11.390  15.833  67.226  1.00  0.00    -0.059 A  
HETATM   14 CL   UNL     1      -7.807  17.409  66.289  1.00  0.00    -0.329 Cl 
HETATM   15  C   UNL     1     -10.360  16.761  67.043  1.00  0.00    -0.300 A  
HETATM   16  C   UNL     1     -10.603  18.136  67.369  1.00  0.00    -0.388 C  
HETATM   17  C   UNL     1      -9.130  16.326  66.542  1.00  0.00    -0.269 A  
ENDBRANCH   7   9
ENDBRANCH   3   4
ENDBRANCH   2   3
BRANCH   2  18
HETATM   18  N   UNL     1      -8.742   9.246  68.368  1.00  0.00    -0.128 N  
HETATM   19  O   UNL     1      -7.957  10.094  70.348  1.00  0.00    -0.181 OA 
HETATM   20  H   UNL     1      -9.540   8.811  67.905  1.00  0.00     0.000 HD 
HETATM   21  C   UNL     1      -8.862   9.580  69.698  1.00  0.00    -0.187 C  
BRANCH  21  22
HETATM   22  C   UNL     1     -10.162   9.250  70.289  1.00  0.00    -0.227 A  
HETATM   23  N   UNL     1     -10.570   7.993  70.551  1.00  0.00    -0.216 NA 
HETATM   24  H   UNL     1     -10.061   7.121  70.401  1.00  0.00     0.000 HD 
HETATM   25  C   UNL     1     -11.152  10.195  70.647  1.00  0.00    -0.397 A  
HETATM   26  N   UNL     1     -11.809   8.158  71.058  1.00  0.00    -0.284 NA 
HETATM   27  C   UNL     1     -12.220   9.461  71.107  1.00  0.00    -0.323 A  
BRANCH  27  28
HETATM   28  C   UNL     1     -13.555   9.870  71.608  1.00  0.00    -0.259 C  
HETATM   29  C   UNL     1     -14.223   8.781  72.442  1.00  0.00    -0.464 C  
HETATM   30  O   UNL     1     -13.355  11.035  72.400  1.00  0.00    -0.600 OA 
HETATM   31  H   UNL     1     -14.210  11.295  72.721  1.00  0.00     0.000 HD 
ENDBRANCH  27  28
ENDBRANCH  21  22
ENDBRANCH   2  18
TORSDOF 6
ENDMDL
MODEL      132
REMARK 921   NORMALIZED FREE ENERGY PREDICTED BY IDOCK:   -5.05 KCAL/MOL
REMARK 922        TOTAL FREE ENERGY PREDICTED BY IDOCK:   -8.45 KCAL/MOL
REMARK 923 INTER-LIGAND FREE ENERGY PREDICTED BY IDOCK:   -7.79 KCAL/MOL
REMARK 924 INTRA-LIGAND FREE ENERGY PREDICTED BY IDOCK:   -0.65 KCAL/MOL
REMARK 927      BINDING AFFINITY PREDICTED BY RF-SCORE:    0.00 PKD
ROOT
HETATM    1  C   UNL     1      -9.937  19.528  68.369  1.00  0.00    -0.540 C  
HETATM    2  C   UNL     1      -8.932  18.531  67.781  1.00  0.00    -0.275 C  
ENDROOT
BRANCH   2   3
HETATM    3  C   UNL     1      -7.910  18.100  68.846  1.00  0.00    -0.190 C  
BRANCH   3   4
HETATM    4  N   UNL     1      -7.325  16.802  68.560  1.00  0.00    -0.194 NA 
HETATM    5  C   UNL     1      -6.146  16.564  67.922  1.00  0.00    -0.129 A  
HETATM    6  N   UNL     1      -7.973  15.679  68.919  1.00  0.00    -0.176 NA 
HETATM    7  C   UNL     1      -7.186  14.676  68.492  1.00  0.00    -0.118 A  
HETATM    8  C   UNL     1      -6.015  15.199  67.876  1.00  0.00    -0.165 A  
BRANCH   7   9
HETATM    9  C   UNL     1      -7.577  13.271  68.662  1.00  0.00    -0.094 A  
HETATM   10  C   UNL     1      -8.758  12.789  68.075  1.00  0.00    -0.194 A  
HETATM   11  C   UNL     1      -6.779  12.377  69.390  1.00  0.00    -0.032 A  
HETATM   12  N   UNL     1      -8.883   8.041  69.188  1.00  0.00    -0.144 NA 
HETATM   13  C   UNL     1      -7.148  11.033  69.517  1.00  0.00    -0.113 A  
HETATM   14 CL   UNL     1     -10.590  10.935  67.433  1.00  0.00    -0.266 Cl 
HETATM   15  C   UNL     1      -8.319  10.558  68.918  1.00  0.00    -0.147 A  
HETATM   16  C   UNL     1      -8.651   9.170  69.057  1.00  0.00    -0.133 C  
HETATM   17  C   UNL     1      -9.126  11.444  68.199  1.00  0.00    -0.174 A  
ENDBRANCH   7   9
ENDBRANCH   3   4
ENDBRANCH   2   3
BRANCH   2  18
HETATM   18  N   UNL     1      -9.632  17.413  67.157  1.00  0.00    -0.258 N  
HETATM   19  O   UNL     1     -10.888  16.823  68.981  1.00  0.00    -0.319 OA 
HETATM   20  H   UNL     1      -9.417  17.190  66.185  1.00  0.00     0.000 HD 
HETATM   21  C   UNL     1     -10.568  16.644  67.810  1.00  0.00    -0.342 C  
BRANCH  21  22
HETATM   22  C   UNL     1     -11.142  15.569  66.996  1.00  0.00    -0.238 A  
HETATM   23  N   UNL     1     -12.030  14.669  67.461  1.00  0.00    -0.534 NA 
HETATM   24  H   UNL     1     -12.431  14.604  68.397  1.00  0.00     0.000 HD 
HETATM   25  C   UNL     1     -10.837  15.333  65.636  1.00  0.00    -0.371 A  
HETATM   26  N   UNL     1     -12.264  13.872  66.398  1.00  0.00    -0.451 NA 
HETATM   27  C   UNL     1     -11.546  14.209  65.283  1.00  0.00    -0.341 A  
BRANCH  27  28
HETATM   28  C   UNL     1     -11.632  13.456  64.008  1.00  0.00    -0.385 C  
HETATM   29  C   UNL     1     -12.043  12.002  64.216  1.00  0.00    -0.414 C  
HETATM   30  O   UNL     1     -12.597  14.124  63.204  1.00  0.00    -1.058 OA 
HETATM   31  H   UNL     1     -12.653  13.641  62.388  1.00  0.00     0.000 HD 
ENDBRANCH  27  28
ENDBRANCH  21  22
ENDBRANCH   2  18
TORSDOF 6
ENDMDL
MODEL      133
REMARK 921   NORMALIZED FREE ENERGY PREDICTED BY IDOCK:   -5.05 KCAL/MOL
REMARK 922        TOTAL FREE ENERGY PREDICTED BY IDOCK:   -8.44 KCAL/MOL
REMARK 923 INTER-LIGAND FREE ENERGY PREDICTED BY IDOCK:   -7.39 KCAL/MOL
REMARK 924 INTRA-LIGAND FREE ENERGY PREDICTED BY IDOCK:   -1.05 KCAL/MOL
REMARK 927      BINDING AFFINITY PREDICTED BY RF-SCORE:    0.00 PKD
ROOT
HETATM    1  C   UNL     1      -7.334   9.126  66.418  1.00  0.00    -0.092 C  
HETATM    2  C   UNL     1      -7.578  10.405  65.611  1.00  0.00    -0.150 C  
ENDROOT
BRANCH   2   3
HETATM    3  C   UNL     1      -8.882  10.295  64.803  1.00  0.00    -0.196 C  
BRANCH   3   4
HETATM    4  N   UNL     1      -9.922  11.175  65.307  1.00  0.00    -0.245 NA 
HETATM    5  C   UNL     1     -10.730  11.986  64.569  1.00  0.00    -0.312 A  
HETATM    6  N   UNL     1     -10.150  11.258  66.629  1.00  0.00    -0.208 NA 
HETATM    7  C   UNL     1     -11.137  12.161  66.753  1.00  0.00    -0.300 A  
HETATM    8  C   UNL     1     -11.542  12.626  65.471  1.00  0.00    -0.409 A  
BRANCH   7   9
HETATM    9  C   UNL     1     -11.646  12.564  68.071  1.00  0.00    -0.395 A  
HETATM   10  C   UNL     1     -11.817  11.609  69.086  1.00  0.00    -0.390 A  
HETATM   11  C   UNL     1     -11.951  13.902  68.355  1.00  0.00    -0.391 A  
HETATM   12  N   UNL     1     -13.370  14.134  72.960  1.00  0.00    -0.636 NA 
HETATM   13  C   UNL     1     -12.405  14.276  69.625  1.00  0.00    -0.312 A  
HETATM   14 CL   UNL     1     -12.437  10.741  71.549  1.00  0.00    -0.469 Cl 
HETATM   15  C   UNL     1     -12.560  13.320  70.634  1.00  0.00    -0.305 A  
HETATM   16  C   UNL     1     -13.009  13.749  71.927  1.00  0.00    -0.350 C  
HETATM   17  C   UNL     1     -12.268  11.982  70.357  1.00  0.00    -0.294 A  
ENDBRANCH   7   9
ENDBRANCH   3   4
ENDBRANCH   2   3
BRANCH   2  18
HETATM   18  N   UNL     1      -7.529  11.573  66.485  1.00  0.00    -0.327 N  
HETATM   19  O   UNL     1      -5.251  11.830  66.470  1.00  0.00    -0.261 OA 
HETATM   20  H   UNL     1      -8.407  11.942  66.848  1.00  0.00     0.000 HD 
HETATM   21  C   UNL     1      -6.359  12.203  66.844  1.00  0.00    -0.007 C  
BRANCH  21  22
HETATM   22  C   UNL     1      -6.540  13.353  67.734  1.00  0.00    -0.164 A  
HETATM   23  N   UNL     1      -5.990  13.446  68.961  1.00  0.00    -0.078 NA 
HETATM   24  H   UNL     1      -5.384  12.774  69.432  1.00  0.00     0.000 HD 
HETATM   25  C   UNL     1      -7.315  14.497  67.431  1.00  0.00    -0.183 A  
HETATM   26  N   UNL     1      -6.431  14.635  69.419  1.00  0.00    -0.121 NA 
HETATM   27  C   UNL     1      -7.258  15.293  68.550  1.00  0.00    -0.114 A  
BRANCH  27  28
HETATM   28  C   UNL     1      -7.873  16.607  68.859  1.00  0.00    -0.240 C  
HETATM   29  C   UNL     1      -7.110  17.771  68.235  1.00  0.00    -0.230 C  
HETATM   30  O   UNL     1      -9.200  16.566  68.349  1.00  0.00    -0.208 OA 
HETATM   31  H   UNL     1      -9.594  17.408  68.546  1.00  0.00     0.000 HD 
ENDBRANCH  27  28
ENDBRANCH  21  22
ENDBRANCH   2  18
TORSDOF 6
ENDMDL
MODEL      134
REMARK 921   NORMALIZED FREE ENERGY PREDICTED BY IDOCK:   -5.02 KCAL/MOL
REMARK 922        TOTAL FREE ENERGY PREDICTED BY IDOCK:   -8.40 KCAL/MOL
REMARK 923 INTER-LIGAND FREE ENERGY PREDICTED BY IDOCK:   -7.99 KCAL/MOL
REMARK 924 INTRA-LIGAND FREE ENERGY PREDICTED BY IDOCK:   -0.42 KCAL/MOL
REMARK 927      BINDING AFFINITY PREDICTED BY RF-SCORE:    0.00 PKD
ROOT
HETATM    1  C   UNL     1      -8.554   9.910  66.474  1.00  0.00    -0.131 C  
HETATM    2  C   UNL     1     -10.004  10.405  66.453  1.00  0.00    -0.221 C  
ENDROOT
BRANCH   2   3
HETATM    3  C   UNL     1     -10.763   9.909  67.696  1.00  0.00    -0.281 C  
BRANCH   3   4
HETATM    4  N   UNL     1     -10.590   8.485  67.920  1.00  0.00    -0.196 NA 
HETATM    5  C   UNL     1     -10.615   7.504  66.976  1.00  0.00    -0.339 A  
HETATM    6  N   UNL     1     -10.399   8.020  69.167  1.00  0.00    -0.218 NA 
HETATM    7  C   UNL     1     -10.303   6.687  69.027  1.00  0.00    -0.192 A  
HETATM    8  C   UNL     1     -10.415   6.328  67.655  1.00  0.00    -0.288 A  
BRANCH   7   9
HETATM    9  C   UNL     1     -10.131   5.805  70.189  1.00  0.00    -0.274 A  
HETATM   10  C   UNL     1     -10.221   6.324  71.490  1.00  0.00    -0.233 A  
HETATM   11  C   UNL     1      -9.896   4.432  70.031  1.00  0.00    -0.294 A  
HETATM   12  N   UNL     1      -9.650   2.476  74.434  1.00  0.00    -0.086 NA 
HETATM   13  C   UNL     1      -9.766   3.598  71.147  1.00  0.00    -0.245 A  
HETATM   14 CL   UNL     1     -10.230   6.212  74.172  1.00  0.00    -0.294 Cl 
HETATM   15  C   UNL     1      -9.869   4.121  72.440  1.00  0.00    -0.220 A  
HETATM   16  C   UNL     1      -9.749   3.229  73.557  1.00  0.00    -0.107 C  
HETATM   17  C   UNL     1     -10.093   5.490  72.608  1.00  0.00    -0.181 A  
ENDBRANCH   7   9
ENDBRANCH   3   4
ENDBRANCH   2   3
BRANCH   2  18
HETATM   18  N   UNL     1     -10.043  11.854  66.284  1.00  0.00    -0.215 N  
HETATM   19  O   UNL     1     -11.268  11.870  64.346  1.00  0.00    -0.317 OA 
HETATM   20  H   UNL     1      -9.572  12.434  66.977  1.00  0.00     0.000 HD 
HETATM   21  C   UNL     1     -10.683  12.478  65.237  1.00  0.00    -0.286 C  
BRANCH  21  22
HETATM   22  C   UNL     1     -10.592  13.940  65.259  1.00  0.00    -0.361 A  
HETATM   23  N   UNL     1     -11.188  14.743  64.356  1.00  0.00    -0.640 NA 
HETATM   24  H   UNL     1     -11.776  14.475  63.566  1.00  0.00     0.000 HD 
HETATM   25  C   UNL     1      -9.866  14.692  66.212  1.00  0.00    -0.320 A  
HETATM   26  N   UNL     1     -10.825  15.983  64.741  1.00  0.00    -0.629 NA 
HETATM   27  C   UNL     1     -10.003  16.006  65.834  1.00  0.00    -0.352 A  
BRANCH  27  28
HETATM   28  C   UNL     1      -9.465  17.262  66.414  1.00  0.00    -0.263 C  
HETATM   29  C   UNL     1      -9.427  17.230  67.939  1.00  0.00    -0.266 C  
HETATM   30  O   UNL     1      -8.149  17.420  65.898  1.00  0.00    -0.537 OA 
HETATM   31  H   UNL     1      -7.806  18.223  66.270  1.00  0.00     0.000 HD 
ENDBRANCH  27  28
ENDBRANCH  21  22
ENDBRANCH   2  18
TORSDOF 6
ENDMDL
MODEL      135
REMARK 921   NORMALIZED FREE ENERGY PREDICTED BY IDOCK:   -4.99 KCAL/MOL
REMARK 922        TOTAL FREE ENERGY PREDICTED BY IDOCK:   -8.36 KCAL/MOL
REMARK 923 INTER-LIGAND FREE ENERGY PREDICTED BY IDOCK:   -8.15 KCAL/MOL
REMARK 924 INTRA-LIGAND FREE ENERGY PREDICTED BY IDOCK:   -0.21 KCAL/MOL
REMARK 927      BINDING AFFINITY PREDICTED BY RF-SCORE:    0.00 PKD
ROOT
HETATM    1  C   UNL     1      -8.117  11.227  66.106  1.00  0.00    -0.065 C  
HETATM    2  C   UNL     1      -9.200  11.940  66.924  1.00  0.00    -0.193 C  
ENDROOT
BRANCH   2   3
HETATM    3  C   UNL     1     -10.311  12.473  66.004  1.00  0.00    -0.256 C  
BRANCH   3   4
HETATM    4  N   UNL     1     -10.268  13.918  65.863  1.00  0.00    -0.306 NA 
HETATM    5  C   UNL     1     -11.040  14.677  65.038  1.00  0.00    -0.394 A  
HETATM    6  N   UNL     1      -9.386  14.636  66.579  1.00  0.00    -0.279 NA 
HETATM    7  C   UNL     1      -9.590  15.909  66.199  1.00  0.00    -0.333 A  
HETATM    8  C   UNL     1     -10.641  15.975  65.242  1.00  0.00    -0.424 A  
BRANCH   7   9
HETATM    9  C   UNL     1      -8.776  17.008  66.735  1.00  0.00    -0.272 A  
HETATM   10  C   UNL     1      -7.560  17.352  66.124  1.00  0.00    -0.321 A  
HETATM   11  C   UNL     1      -9.198  17.750  67.848  1.00  0.00    -0.265 A  
HETATM   12  N   UNL     1      -5.898  21.174  68.659  1.00  0.00    -0.293 NA 
HETATM   13  C   UNL     1      -8.428  18.815  68.329  1.00  0.00    -0.357 A  
HETATM   14 CL   UNL     1      -5.312  18.779  65.781  1.00  0.00    -0.180 Cl 
HETATM   15  C   UNL     1      -7.224  19.158  67.706  1.00  0.00    -0.266 A  
HETATM   16  C   UNL     1      -6.474  20.269  68.218  1.00  0.00    -0.305 C  
HETATM   17  C   UNL     1      -6.790  18.419  66.603  1.00  0.00    -0.198 A  
ENDBRANCH   7   9
ENDBRANCH   3   4
ENDBRANCH   2   3
BRANCH   2  18
HETATM   18  N   UNL     1      -9.690  11.067  67.986  1.00  0.00    -0.168 N  
HETATM   19  O   UNL     1     -10.349   9.336  66.637  1.00  0.00    -0.259 OA 
HETATM   20  H   UNL     1      -9.633  11.399  68.949  1.00  0.00     0.000 HD 
HETATM   21  C   UNL     1     -10.225   9.820  67.757  1.00  0.00    -0.208 C  
BRANCH  21  22
HETATM   22  C   UNL     1     -10.660   9.118  68.968  1.00  0.00    -0.199 A  
HETATM   23  N   UNL     1     -10.675   7.776  69.092  1.00  0.00    -0.367 NA 
HETATM   24  H   UNL     1     -10.390   7.077  68.407  1.00  0.00     0.000 HD 
HETATM   25  C   UNL     1     -11.126   9.747  70.145  1.00  0.00    -0.335 A  
HETATM   26  N   UNL     1     -11.158   7.576  70.335  1.00  0.00    -0.262 NA 
HETATM   27  C   UNL     1     -11.475   8.728  71.000  1.00  0.00    -0.285 A  
BRANCH  27  28
HETATM   28  C   UNL     1     -12.041   8.741  72.372  1.00  0.00    -0.309 C  
HETATM   29  C   UNL     1     -13.442   9.342  72.420  1.00  0.00    -0.506 C  
HETATM   30  O   UNL     1     -12.077   7.388  72.810  1.00  0.00    -0.543 OA 
HETATM   31  H   UNL     1     -12.440   7.396  73.688  1.00  0.00     0.000 HD 
ENDBRANCH  27  28
ENDBRANCH  21  22
ENDBRANCH   2  18
TORSDOF 6
ENDMDL
MODEL      136
REMARK 921   NORMALIZED FREE ENERGY PREDICTED BY IDOCK:   -4.96 KCAL/MOL
REMARK 922        TOTAL FREE ENERGY PREDICTED BY IDOCK:   -8.33 KCAL/MOL
REMARK 923 INTER-LIGAND FREE ENERGY PREDICTED BY IDOCK:   -7.36 KCAL/MOL
REMARK 924 INTRA-LIGAND FREE ENERGY PREDICTED BY IDOCK:   -0.97 KCAL/MOL
REMARK 927      BINDING AFFINITY PREDICTED BY RF-SCORE:    0.00 PKD
ROOT
HETATM    1  C   UNL     1     -12.257  14.639  64.814  1.00  0.00    -0.403 C  
HETATM    2  C   UNL     1     -11.881  13.162  64.976  1.00  0.00    -0.354 C  
ENDROOT
BRANCH   2   3
HETATM    3  C   UNL     1     -10.450  12.909  64.471  1.00  0.00    -0.377 C  
BRANCH   3   4
HETATM    4  N   UNL     1      -9.944  11.607  64.868  1.00  0.00    -0.249 NA 
HETATM    5  C   UNL     1      -9.808  10.510  64.073  1.00  0.00    -0.324 A  
HETATM    6  N   UNL     1      -9.573  11.391  66.142  1.00  0.00    -0.210 NA 
HETATM    7  C   UNL     1      -9.187  10.103  66.175  1.00  0.00    -0.159 A  
HETATM    8  C   UNL     1      -9.303   9.522  64.881  1.00  0.00    -0.264 A  
BRANCH   7   9
HETATM    9  C   UNL     1      -8.745   9.468  67.423  1.00  0.00    -0.128 A  
HETATM   10  C   UNL     1      -8.625   8.072  67.502  1.00  0.00    -0.126 A  
HETATM   11  C   UNL     1      -8.413  10.232  68.550  1.00  0.00    -0.121 A  
HETATM   12  N   UNL     1      -6.953   7.193  72.000  1.00  0.00    -0.060 NA 
HETATM   13  C   UNL     1      -7.963   9.616  69.723  1.00  0.00    -0.154 A  
HETATM   14 CL   UNL     1      -8.043   5.730  68.678  1.00  0.00    -0.101 Cl 
HETATM   15  C   UNL     1      -7.834   8.225  69.789  1.00  0.00    -0.100 A  
HETATM   16  C   UNL     1      -7.351   7.634  71.003  1.00  0.00    -0.070 C  
HETATM   17  C   UNL     1      -8.172   7.453  68.674  1.00  0.00    -0.125 A  
ENDBRANCH   7   9
ENDBRANCH   3   4
ENDBRANCH   2   3
BRANCH   2  18
HETATM   18  N   UNL     1     -12.099  12.731  66.353  1.00  0.00    -0.370 N  
HETATM   19  O   UNL     1     -10.877  14.390  67.357  1.00  0.00    -0.282 OA 
HETATM   20  H   UNL     1     -12.665  11.898  66.514  1.00  0.00     0.000 HD 
HETATM   21  C   UNL     1     -11.580  13.388  67.445  1.00  0.00    -0.354 C  
BRANCH  21  22
HETATM   22  C   UNL     1     -11.919  12.779  68.734  1.00  0.00    -0.240 A  
HETATM   23  N   UNL     1     -12.152  13.483  69.859  1.00  0.00    -0.344 NA 
HETATM   24  H   UNL     1     -12.143  14.496  69.981  1.00  0.00     0.000 HD 
HETATM   25  C   UNL     1     -12.033  11.389  68.967  1.00  0.00    -0.387 A  
HETATM   26  N   UNL     1     -12.398  12.535  70.785  1.00  0.00    -0.357 NA 
HETATM   27  C   UNL     1     -12.308  11.256  70.308  1.00  0.00    -0.307 A  
BRANCH  27  28
HETATM   28  C   UNL     1     -12.519  10.059  71.159  1.00  0.00    -0.379 C  
HETATM   29  C   UNL     1     -11.208   9.407  71.585  1.00  0.00    -0.431 C  
HETATM   30  O   UNL     1     -13.241  10.495  72.304  1.00  0.00    -0.584 OA 
HETATM   31  H   UNL     1     -13.376   9.729  72.849  1.00  0.00     0.000 HD 
ENDBRANCH  27  28
ENDBRANCH  21  22
ENDBRANCH   2  18
TORSDOF 6
ENDMDL
MODEL      137
REMARK 921   NORMALIZED FREE ENERGY PREDICTED BY IDOCK:   -4.96 KCAL/MOL
REMARK 922        TOTAL FREE ENERGY PREDICTED BY IDOCK:   -8.32 KCAL/MOL
REMARK 923 INTER-LIGAND FREE ENERGY PREDICTED BY IDOCK:   -7.95 KCAL/MOL
REMARK 924 INTRA-LIGAND FREE ENERGY PREDICTED BY IDOCK:   -0.37 KCAL/MOL
REMARK 927      BINDING AFFINITY PREDICTED BY RF-SCORE:    0.00 PKD
ROOT
HETATM    1  C   UNL     1     -11.768  13.897  64.265  1.00  0.00    -0.406 C  
HETATM    2  C   UNL     1     -12.156  14.710  65.505  1.00  0.00    -0.222 C  
ENDROOT
BRANCH   2   3
HETATM    3  C   UNL     1     -12.709  13.789  66.606  1.00  0.00     0.066 C  
BRANCH   3   4
HETATM    4  N   UNL     1     -11.691  12.915  67.160  1.00  0.00    -0.365 NA 
HETATM    5  C   UNL     1     -10.846  13.200  68.189  1.00  0.00    -0.251 A  
HETATM    6  N   UNL     1     -11.498  11.691  66.637  1.00  0.00    -0.467 NA 
HETATM    7  C   UNL     1     -10.487  11.166  67.349  1.00  0.00    -0.220 A  
HETATM    8  C   UNL     1     -10.064  12.084  68.352  1.00  0.00    -0.211 A  
BRANCH   7   9
HETATM    9  C   UNL     1      -9.947   9.835  67.047  1.00  0.00    -0.259 A  
HETATM   10  C   UNL     1     -10.473   8.697  67.680  1.00  0.00    -0.311 A  
HETATM   11  C   UNL     1      -8.918   9.662  66.111  1.00  0.00    -0.186 A  
HETATM   12  N   UNL     1      -8.027   4.933  65.770  1.00  0.00    -0.105 NA 
HETATM   13  C   UNL     1      -8.435   8.384  65.809  1.00  0.00    -0.169 A  
HETATM   14 CL   UNL     1     -10.707   6.073  68.197  1.00  0.00    -0.329 Cl 
HETATM   15  C   UNL     1      -8.973   7.255  66.436  1.00  0.00    -0.184 A  
HETATM   16  C   UNL     1      -8.463   5.962  66.083  1.00  0.00    -0.132 C  
HETATM   17  C   UNL     1      -9.992   7.417  67.377  1.00  0.00    -0.183 A  
ENDBRANCH   7   9
ENDBRANCH   3   4
ENDBRANCH   2   3
BRANCH   2  18
HETATM   18  N   UNL     1     -11.034  15.535  65.943  1.00  0.00    -0.300 N  
HETATM   19  O   UNL     1     -11.380  17.266  64.480  1.00  0.00    -1.007 OA 
HETATM   20  H   UNL     1     -10.440  15.184  66.693  1.00  0.00     0.000 HD 
HETATM   21  C   UNL     1     -10.736  16.762  65.394  1.00  0.00    -0.189 C  
BRANCH  21  22
HETATM   22  C   UNL     1      -9.562  17.416  65.980  1.00  0.00    -0.118 A  
HETATM   23  N   UNL     1      -8.343  16.847  66.051  1.00  0.00    -0.494 NA 
HETATM   24  H   UNL     1      -8.057  15.928  65.714  1.00  0.00     0.000 HD 
HETATM   25  C   UNL     1      -9.558  18.710  66.551  1.00  0.00    -0.351 A  
HETATM   26  N   UNL     1      -7.591  17.778  66.672  1.00  0.00    -0.218 NA 
HETATM   27  C   UNL     1      -8.282  18.905  67.023  1.00  0.00    -0.270 A  
BRANCH  27  28
HETATM   28  C   UNL     1      -7.656  20.047  67.734  1.00  0.00    -0.293 C  
HETATM   29  C   UNL     1      -6.508  19.613  68.640  1.00  0.00    -0.308 C  
HETATM   30  O   UNL     1      -7.176  20.937  66.734  1.00  0.00    -0.464 OA 
HETATM   31  H   UNL     1      -6.776  21.668  67.189  1.00  0.00     0.000 HD 
ENDBRANCH  27  28
ENDBRANCH  21  22
ENDBRANCH   2  18
TORSDOF 6
ENDMDL
MODEL      138
REMARK 921   NORMALIZED FREE ENERGY PREDICTED BY IDOCK:   -4.95 KCAL/MOL
REMARK 922        TOTAL FREE ENERGY PREDICTED BY IDOCK:   -8.31 KCAL/MOL
REMARK 923 INTER-LIGAND FREE ENERGY PREDICTED BY IDOCK:   -7.30 KCAL/MOL
REMARK 924 INTRA-LIGAND FREE ENERGY PREDICTED BY IDOCK:   -1.01 KCAL/MOL
REMARK 927      BINDING AFFINITY PREDICTED BY RF-SCORE:    0.00 PKD
ROOT
HETATM    1  C   UNL     1      -9.282  18.951  67.962  1.00  0.00    -0.346 C  
HETATM    2  C   UNL     1      -9.725  17.671  68.680  1.00  0.00    -0.332 C  
ENDROOT
BRANCH   2   3
HETATM    3  C   UNL     1     -11.105  17.216  68.174  1.00  0.00    -0.118 C  
BRANCH   3   4
HETATM    4  N   UNL     1     -11.463  15.894  68.656  1.00  0.00    -0.382 NA 
HETATM    5  C   UNL     1     -12.156  15.603  69.791  1.00  0.00    -0.326 A  
HETATM    6  N   UNL     1     -11.086  14.803  67.966  1.00  0.00    -0.275 NA 
HETATM    7  C   UNL     1     -11.547  13.765  68.685  1.00  0.00    -0.334 A  
HETATM    8  C   UNL     1     -12.245  14.233  69.833  1.00  0.00    -0.407 A  
BRANCH   7   9
HETATM    9  C   UNL     1     -11.296  12.378  68.275  1.00  0.00    -0.332 A  
HETATM   10  C   UNL     1     -10.927  12.087  66.951  1.00  0.00    -0.328 A  
HETATM   11  C   UNL     1     -11.396  11.319  69.188  1.00  0.00    -0.349 A  
HETATM   12  N   UNL     1     -10.223   7.261  66.859  1.00  0.00    -0.261 NA 
HETATM   13  C   UNL     1     -11.122  10.006  68.791  1.00  0.00    -0.219 A  
HETATM   14 CL   UNL     1     -10.192  10.510  64.907  1.00  0.00    -0.401 Cl 
HETATM   15  C   UNL     1     -10.743   9.726  67.474  1.00  0.00    -0.327 A  
HETATM   16  C   UNL     1     -10.453   8.369  67.112  1.00  0.00    -0.310 C  
HETATM   17  C   UNL     1     -10.651  10.773  66.553  1.00  0.00    -0.218 A  
ENDBRANCH   7   9
ENDBRANCH   3   4
ENDBRANCH   2   3
BRANCH   2  18
HETATM   18  N   UNL     1      -8.695  16.644  68.569  1.00  0.00    -0.232 N  
HETATM   19  O   UNL     1      -8.423  16.773  66.297  1.00  0.00    -0.280 OA 
HETATM   20  H   UNL     1      -8.388  16.174  69.421  1.00  0.00     0.000 HD 
HETATM   21  C   UNL     1      -8.115  16.277  67.376  1.00  0.00    -0.155 C  
BRANCH  21  22
HETATM   22  C   UNL     1      -7.106  15.220  67.495  1.00  0.00    -0.196 A  
HETATM   23  N   UNL     1      -5.778  15.448  67.500  1.00  0.00    -0.327 NA 
HETATM   24  H   UNL     1      -5.292  16.343  67.440  1.00  0.00     0.000 HD 
HETATM   25  C   UNL     1      -7.390  13.839  67.607  1.00  0.00    -0.182 A  
HETATM   26  N   UNL     1      -5.243  14.215  67.604  1.00  0.00    -0.330 NA 
HETATM   27  C   UNL     1      -6.168  13.209  67.639  1.00  0.00    -0.153 A  
BRANCH  27  28
HETATM   28  C   UNL     1      -5.800  11.774  67.729  1.00  0.00    -0.057 C  
HETATM   29  C   UNL     1      -5.604  11.312  69.170  1.00  0.00    -0.040 C  
HETATM   30  O   UNL     1      -6.859  11.042  67.124  1.00  0.00    -0.084 OA 
HETATM   31  H   UNL     1      -6.623  10.124  67.182  1.00  0.00     0.000 HD 
ENDBRANCH  27  28
ENDBRANCH  21  22
ENDBRANCH   2  18
TORSDOF 6
ENDMDL
MODEL      139
REMARK 921   NORMALIZED FREE ENERGY PREDICTED BY IDOCK:   -4.94 KCAL/MOL
REMARK 922        TOTAL FREE ENERGY PREDICTED BY IDOCK:   -8.30 KCAL/MOL
REMARK 923 INTER-LIGAND FREE ENERGY PREDICTED BY IDOCK:   -7.98 KCAL/MOL
REMARK 924 INTRA-LIGAND FREE ENERGY PREDICTED BY IDOCK:   -0.32 KCAL/MOL
REMARK 927      BINDING AFFINITY PREDICTED BY RF-SCORE:    0.00 PKD
ROOT
HETATM    1  C   UNL     1     -12.320  13.054  65.267  1.00  0.00    -0.537 C  
HETATM    2  C   UNL     1     -12.135  13.777  66.605  1.00  0.00    -0.429 C  
ENDROOT
BRANCH   2   3
HETATM    3  C   UNL     1     -11.762  12.778  67.714  1.00  0.00    -0.359 C  
BRANCH   3   4
HETATM    4  N   UNL     1     -10.735  11.841  67.293  1.00  0.00    -0.227 NA 
HETATM    5  C   UNL     1      -9.478  12.150  66.871  1.00  0.00    -0.210 A  
HETATM    6  N   UNL     1     -10.994  10.522  67.279  1.00  0.00    -0.285 NA 
HETATM    7  C   UNL     1      -9.863   9.954  66.824  1.00  0.00    -0.201 A  
HETATM    8  C   UNL     1      -8.878  10.951  66.576  1.00  0.00    -0.169 A  
BRANCH   7   9
HETATM    9  C   UNL     1      -9.762   8.503  66.623  1.00  0.00    -0.318 A  
HETATM   10  C   UNL     1      -8.677   7.960  65.918  1.00  0.00    -0.180 A  
HETATM   11  C   UNL     1     -10.727   7.628  67.142  1.00  0.00    -0.361 A  
HETATM   12  N   UNL     1      -9.360   3.132  66.054  1.00  0.00    -0.133 NA 
HETATM   13  C   UNL     1     -10.601   6.245  66.971  1.00  0.00    -0.386 A  
HETATM   14 CL   UNL     1      -7.173   5.995  64.876  1.00  0.00    -0.064 Cl 
HETATM   15  C   UNL     1      -9.510   5.712  66.278  1.00  0.00    -0.171 A  
HETATM   16  C   UNL     1      -9.409   4.288  66.141  1.00  0.00    -0.164 C  
HETATM   17  C   UNL     1      -8.549   6.576  65.747  1.00  0.00    -0.144 A  
ENDBRANCH   7   9
ENDBRANCH   3   4
ENDBRANCH   2   3
BRANCH   2  18
HETATM   18  N   UNL     1     -11.183  14.873  66.463  1.00  0.00    -0.343 N  
HETATM   19  O   UNL     1     -11.754  15.984  68.385  1.00  0.00    -0.346 OA 
HETATM   20  H   UNL     1     -10.575  14.882  65.644  1.00  0.00     0.000 HD 
HETATM   21  C   UNL     1     -11.063  15.896  67.375  1.00  0.00    -0.207 C  
BRANCH  21  22
HETATM   22  C   UNL     1     -10.047  16.896  67.032  1.00  0.00    -0.289 A  
HETATM   23  N   UNL     1      -9.696  17.205  65.768  1.00  0.00    -0.547 NA 
HETATM   24  H   UNL     1     -10.071  16.824  64.899  1.00  0.00     0.000 HD 
HETATM   25  C   UNL     1      -9.304  17.650  67.970  1.00  0.00    -0.274 A  
HETATM   26  N   UNL     1      -8.734  18.137  65.923  1.00  0.00    -0.482 NA 
HETATM   27  C   UNL     1      -8.437  18.417  67.228  1.00  0.00    -0.254 A  
BRANCH  27  28
HETATM   28  C   UNL     1      -7.395  19.395  67.628  1.00  0.00    -0.245 C  
HETATM   29  C   UNL     1      -7.632  20.778  67.031  1.00  0.00    -0.298 C  
HETATM   30  O   UNL     1      -7.426  19.467  69.049  1.00  0.00    -0.358 OA 
HETATM   31  H   UNL     1      -6.760  20.093  69.304  1.00  0.00     0.000 HD 
ENDBRANCH  27  28
ENDBRANCH  21  22
ENDBRANCH   2  18
TORSDOF 6
ENDMDL
MODEL      140
REMARK 921   NORMALIZED FREE ENERGY PREDICTED BY IDOCK:   -4.94 KCAL/MOL
REMARK 922        TOTAL FREE ENERGY PREDICTED BY IDOCK:   -8.30 KCAL/MOL
REMARK 923 INTER-LIGAND FREE ENERGY PREDICTED BY IDOCK:   -7.54 KCAL/MOL
REMARK 924 INTRA-LIGAND FREE ENERGY PREDICTED BY IDOCK:   -0.75 KCAL/MOL
REMARK 927      BINDING AFFINITY PREDICTED BY RF-SCORE:    0.00 PKD
ROOT
HETATM    1  C   UNL     1      -8.423   8.695  68.640  1.00  0.00    -0.130 C  
HETATM    2  C   UNL     1      -9.636   8.932  69.546  1.00  0.00    -0.171 C  
ENDROOT
BRANCH   2   3
HETATM    3  C   UNL     1     -10.809   9.515  68.738  1.00  0.00    -0.142 C  
BRANCH   3   4
HETATM    4  N   UNL     1     -11.153  10.863  69.154  1.00  0.00    -0.224 NA 
HETATM    5  C   UNL     1     -11.969  11.212  70.186  1.00  0.00    -0.365 A  
HETATM    6  N   UNL     1     -10.663  11.919  68.481  1.00  0.00    -0.216 NA 
HETATM    7  C   UNL     1     -11.186  12.993  69.097  1.00  0.00    -0.241 A  
HETATM    8  C   UNL     1     -12.000  12.584  70.190  1.00  0.00    -0.377 A  
BRANCH   7   9
HETATM    9  C   UNL     1     -10.917  14.355  68.620  1.00  0.00    -0.264 A  
HETATM   10  C   UNL     1     -10.954  14.645  67.247  1.00  0.00    -0.317 A  
HETATM   11  C   UNL     1     -10.639  15.397  69.516  1.00  0.00    -0.270 A  
HETATM   12  N   UNL     1     -10.075  19.434  66.935  1.00  0.00    -0.357 NA 
HETATM   13  C   UNL     1     -10.415  16.698  69.050  1.00  0.00    -0.328 A  
HETATM   14 CL   UNL     1     -10.810  16.215  65.074  1.00  0.00    -0.430 Cl 
HETATM   15  C   UNL     1     -10.466  16.981  67.681  1.00  0.00    -0.343 A  
HETATM   16  C   UNL     1     -10.251  18.330  67.247  1.00  0.00    -0.373 C  
HETATM   17  C   UNL     1     -10.733  15.947  66.780  1.00  0.00    -0.281 A  
ENDBRANCH   7   9
ENDBRANCH   3   4
ENDBRANCH   2   3
BRANCH   2  18
HETATM   18  N   UNL     1      -9.975   7.712  70.271  1.00  0.00    -0.188 N  
HETATM   19  O   UNL     1     -10.763   8.730  72.167  1.00  0.00    -0.339 OA 
HETATM   20  H   UNL     1      -9.796   6.816  69.818  1.00  0.00     0.000 HD 
HETATM   21  C   UNL     1     -10.522   7.708  71.534  1.00  0.00    -0.204 C  
BRANCH  21  22
HETATM   22  C   UNL     1     -10.777   6.370  72.077  1.00  0.00    -0.227 A  
HETATM   23  N   UNL     1     -11.869   6.050  72.799  1.00  0.00    -0.527 NA 
HETATM   24  H   UNL     1     -12.653   6.650  73.055  1.00  0.00     0.000 HD 
HETATM   25  C   UNL     1      -9.918   5.258  71.926  1.00  0.00    -0.240 A  
HETATM   26  N   UNL     1     -11.681   4.749  73.102  1.00  0.00    -0.235 NA 
HETATM   27  C   UNL     1     -10.506   4.233  72.628  1.00  0.00    -0.171 A  
BRANCH  27  28
HETATM   28  C   UNL     1     -10.087   2.829  72.864  1.00  0.00    -0.142 C  
HETATM   29  C   UNL     1     -11.053   2.077  73.774  1.00  0.00    -0.286 C  
HETATM   30  O   UNL     1     -10.031   2.201  71.589  1.00  0.00    -0.154 OA 
HETATM   31  H   UNL     1      -9.763   1.302  71.740  1.00  0.00     0.000 HD 
ENDBRANCH  27  28
ENDBRANCH  21  22
ENDBRANCH   2  18
TORSDOF 6
ENDMDL
MODEL      141
REMARK 921   NORMALIZED FREE ENERGY PREDICTED BY IDOCK:   -4.93 KCAL/MOL
REMARK 922        TOTAL FREE ENERGY PREDICTED BY IDOCK:   -8.28 KCAL/MOL
REMARK 923 INTER-LIGAND FREE ENERGY PREDICTED BY IDOCK:   -7.59 KCAL/MOL
REMARK 924 INTRA-LIGAND FREE ENERGY PREDICTED BY IDOCK:   -0.69 KCAL/MOL
REMARK 927      BINDING AFFINITY PREDICTED BY RF-SCORE:    0.00 PKD
ROOT
HETATM    1  C   UNL     1     -12.183  15.030  70.698  1.00  0.00    -0.381 C  
HETATM    2  C   UNL     1     -11.485  14.840  69.347  1.00  0.00    -0.301 C  
ENDROOT
BRANCH   2   3
HETATM    3  C   UNL     1     -12.401  14.089  68.365  1.00  0.00     0.022 C  
BRANCH   3   4
HETATM    4  N   UNL     1     -11.653  13.363  67.354  1.00  0.00    -0.333 NA 
HETATM    5  C   UNL     1     -11.265  13.831  66.136  1.00  0.00    -0.300 A  
HETATM    6  N   UNL     1     -11.293  12.086  67.574  1.00  0.00    -0.296 NA 
HETATM    7  C   UNL     1     -10.652  11.711  66.453  1.00  0.00    -0.258 A  
HETATM    8  C   UNL     1     -10.598  12.795  65.532  1.00  0.00    -0.303 A  
BRANCH   7   9
HETATM    9  C   UNL     1     -10.135  10.347  66.286  1.00  0.00    -0.292 A  
HETATM   10  C   UNL     1      -9.046  10.102  65.436  1.00  0.00    -0.227 A  
HETATM   11  C   UNL     1     -10.696   9.267  66.981  1.00  0.00    -0.199 A  
HETATM   12  N   UNL     1      -8.169   5.320  65.837  1.00  0.00    -0.114 NA 
HETATM   13  C   UNL     1     -10.173   7.977  66.837  1.00  0.00    -0.385 A  
HETATM   14 CL   UNL     1      -7.169   8.605  64.233  1.00  0.00    -0.092 Cl 
HETATM   15  C   UNL     1      -9.079   7.743  65.997  1.00  0.00    -0.169 A  
HETATM   16  C   UNL     1      -8.561   6.410  65.893  1.00  0.00    -0.148 C  
HETATM   17  C   UNL     1      -8.519   8.812  65.293  1.00  0.00    -0.174 A  
ENDBRANCH   7   9
ENDBRANCH   3   4
ENDBRANCH   2   3
BRANCH   2  18
HETATM   18  N   UNL     1     -11.008  16.121  68.837  1.00  0.00    -0.302 N  
HETATM   19  O   UNL     1      -8.789  15.794  69.308  1.00  0.00    -0.240 OA 
HETATM   20  H   UNL     1     -11.691  16.771  68.449  1.00  0.00     0.000 HD 
HETATM   21  C   UNL     1      -9.684  16.498  68.853  1.00  0.00    -0.257 C  
BRANCH  21  22
HETATM   22  C   UNL     1      -9.428  17.829  68.296  1.00  0.00    -0.290 A  
HETATM   23  N   UNL     1     -10.337  18.537  67.596  1.00  0.00    -0.390 NA 
HETATM   24  H   UNL     1     -11.296  18.278  67.367  1.00  0.00     0.000 HD 
HETATM   25  C   UNL     1      -8.207  18.534  68.411  1.00  0.00    -0.351 A  
HETATM   26  N   UNL     1      -9.678  19.667  67.269  1.00  0.00    -0.337 NA 
HETATM   27  C   UNL     1      -8.383  19.702  67.707  1.00  0.00    -0.310 A  
BRANCH  27  28
HETATM   28  C   UNL     1      -7.469  20.840  67.441  1.00  0.00    -0.324 C  
HETATM   29  C   UNL     1      -6.105  20.660  68.098  1.00  0.00    -0.345 C  
HETATM   30  O   UNL     1      -7.322  20.924  66.029  1.00  0.00    -0.496 OA 
HETATM   31  H   UNL     1      -6.737  21.653  65.859  1.00  0.00     0.000 HD 
ENDBRANCH  27  28
ENDBRANCH  21  22
ENDBRANCH   2  18
TORSDOF 6
ENDMDL
MODEL      142
REMARK 921   NORMALIZED FREE ENERGY PREDICTED BY IDOCK:   -4.92 KCAL/MOL
REMARK 922        TOTAL FREE ENERGY PREDICTED BY IDOCK:   -8.26 KCAL/MOL
REMARK 923 INTER-LIGAND FREE ENERGY PREDICTED BY IDOCK:   -7.52 KCAL/MOL
REMARK 924 INTRA-LIGAND FREE ENERGY PREDICTED BY IDOCK:   -0.74 KCAL/MOL
REMARK 927      BINDING AFFINITY PREDICTED BY RF-SCORE:    0.00 PKD
ROOT
HETATM    1  C   UNL     1     -12.105  13.418  63.522  1.00  0.00    -0.497 C  
HETATM    2  C   UNL     1     -10.865  13.979  64.226  1.00  0.00    -0.104 C  
ENDROOT
BRANCH   2   3
HETATM    3  C   UNL     1     -11.245  15.162  65.133  1.00  0.00    -0.389 C  
BRANCH   3   4
HETATM    4  N   UNL     1     -11.044  14.868  66.541  1.00  0.00    -0.339 NA 
HETATM    5  C   UNL     1     -10.193  15.506  67.391  1.00  0.00    -0.255 A  
HETATM    6  N   UNL     1     -11.722  13.862  67.120  1.00  0.00    -0.366 NA 
HETATM    7  C   UNL     1     -11.290  13.844  68.393  1.00  0.00    -0.285 A  
HETATM    8  C   UNL     1     -10.340  14.881  68.604  1.00  0.00    -0.237 A  
BRANCH   7   9
HETATM    9  C   UNL     1     -11.774  12.841  69.351  1.00  0.00    -0.380 A  
HETATM   10  C   UNL     1     -12.484  13.240  70.495  1.00  0.00    -0.332 A  
HETATM   11  C   UNL     1     -11.559  11.472  69.142  1.00  0.00    -0.382 A  
HETATM   12  N   UNL     1     -13.672   9.089  72.765  1.00  0.00    -0.362 NA 
HETATM   13  C   UNL     1     -12.053  10.526  70.047  1.00  0.00    -0.351 A  
HETATM   14 CL   UNL     1     -13.856  12.875  72.773  1.00  0.00    -0.151 Cl 
HETATM   15  C   UNL     1     -12.771  10.931  71.177  1.00  0.00    -0.530 A  
HETATM   16  C   UNL     1     -13.276   9.929  72.069  1.00  0.00    -0.456 C  
HETATM   17  C   UNL     1     -12.981  12.294  71.400  1.00  0.00    -0.256 A  
ENDBRANCH   7   9
ENDBRANCH   3   4
ENDBRANCH   2   3
BRANCH   2  18
HETATM   18  N   UNL     1     -10.151  12.914  64.922  1.00  0.00    -0.473 N  
HETATM   19  O   UNL     1      -9.930  11.510  63.124  1.00  0.00    -0.367 OA 
HETATM   20  H   UNL     1      -9.954  13.035  65.916  1.00  0.00     0.000 HD 
HETATM   21  C   UNL     1      -9.731  11.756  64.310  1.00  0.00    -0.146 C  
BRANCH  21  22
HETATM   22  C   UNL     1      -9.038  10.819  65.199  1.00  0.00    -0.203 A  
HETATM   23  N   UNL     1      -9.294  10.708  66.517  1.00  0.00    -0.164 NA 
HETATM   24  H   UNL     1      -9.980  11.220  67.071  1.00  0.00     0.000 HD 
HETATM   25  C   UNL     1      -8.017   9.927  64.798  1.00  0.00    -0.143 A  
HETATM   26  N   UNL     1      -8.427   9.761  66.932  1.00  0.00    -0.120 NA 
HETATM   27  C   UNL     1      -7.614   9.282  65.942  1.00  0.00    -0.098 A  
BRANCH  27  28
HETATM   28  C   UNL     1      -6.573   8.251  66.180  1.00  0.00    -0.050 C  
HETATM   29  C   UNL     1      -5.585   8.142  65.024  1.00  0.00    -0.044 C  
HETATM   30  O   UNL     1      -5.891   8.627  67.370  1.00  0.00    -0.042 OA 
HETATM   31  H   UNL     1      -5.225   7.968  67.522  1.00  0.00     0.000 HD 
ENDBRANCH  27  28
ENDBRANCH  21  22
ENDBRANCH   2  18
TORSDOF 6
ENDMDL
MODEL      143
REMARK 921   NORMALIZED FREE ENERGY PREDICTED BY IDOCK:   -4.89 KCAL/MOL
REMARK 922        TOTAL FREE ENERGY PREDICTED BY IDOCK:   -8.22 KCAL/MOL
REMARK 923 INTER-LIGAND FREE ENERGY PREDICTED BY IDOCK:   -7.53 KCAL/MOL
REMARK 924 INTRA-LIGAND FREE ENERGY PREDICTED BY IDOCK:   -0.69 KCAL/MOL
REMARK 927      BINDING AFFINITY PREDICTED BY RF-SCORE:    0.00 PKD
ROOT
HETATM    1  C   UNL     1     -11.666  15.050  64.729  1.00  0.00    -0.370 C  
HETATM    2  C   UNL     1     -10.963  14.514  65.981  1.00  0.00    -0.324 C  
ENDROOT
BRANCH   2   3
HETATM    3  C   UNL     1     -10.226  13.201  65.668  1.00  0.00    -0.286 C  
BRANCH   3   4
HETATM    4  N   UNL     1     -10.623  12.118  66.552  1.00  0.00    -0.231 NA 
HETATM    5  C   UNL     1     -11.461  12.207  67.621  1.00  0.00    -0.331 A  
HETATM    6  N   UNL     1     -10.133  10.881  66.360  1.00  0.00    -0.224 NA 
HETATM    7  C   UNL     1     -10.669  10.142  67.346  1.00  0.00    -0.277 A  
HETATM    8  C   UNL     1     -11.529  10.942  68.149  1.00  0.00    -0.368 A  
BRANCH   7   9
HETATM    9  C   UNL     1     -10.336   8.720  67.505  1.00  0.00    -0.334 A  
HETATM   10  C   UNL     1     -10.674   8.042  68.686  1.00  0.00    -0.066 A  
HETATM   11  C   UNL     1      -9.697   8.004  66.483  1.00  0.00    -0.297 A  
HETATM   12  N   UNL     1      -9.229   3.438  67.967  1.00  0.00    -0.170 NA 
HETATM   13  C   UNL     1      -9.415   6.642  66.635  1.00  0.00    -0.201 A  
HETATM   14 CL   UNL     1     -10.858   5.921  70.323  1.00  0.00    -0.379 Cl 
HETATM   15  C   UNL     1      -9.767   5.971  67.810  1.00  0.00    -0.119 A  
HETATM   16  C   UNL     1      -9.477   4.570  67.919  1.00  0.00    -0.155 C  
HETATM   17  C   UNL     1     -10.395   6.678  68.839  1.00  0.00    -0.193 A  
ENDBRANCH   7   9
ENDBRANCH   3   4
ENDBRANCH   2   3
BRANCH   2  18
HETATM   18  N   UNL     1     -10.105  15.542  66.560  1.00  0.00    -0.268 N  
HETATM   19  O   UNL     1     -11.475  16.085  68.316  1.00  0.00    -0.355 OA 
HETATM   20  H   UNL     1      -9.219  15.748  66.099  1.00  0.00     0.000 HD 
HETATM   21  C   UNL     1     -10.429  16.249  67.696  1.00  0.00    -0.295 C  
BRANCH  21  22
HETATM   22  C   UNL     1      -9.425  17.238  68.099  1.00  0.00    -0.278 A  
HETATM   23  N   UNL     1      -9.618  18.570  68.036  1.00  0.00    -0.301 NA 
HETATM   24  H   UNL     1     -10.451  19.073  67.729  1.00  0.00     0.000 HD 
HETATM   25  C   UNL     1      -8.135  16.929  68.589  1.00  0.00    -0.253 A  
HETATM   26  N   UNL     1      -8.450  19.083  68.475  1.00  0.00    -0.342 NA 
HETATM   27  C   UNL     1      -7.512  18.138  68.790  1.00  0.00    -0.274 A  
BRANCH  27  28
HETATM   28  C   UNL     1      -6.151  18.479  69.272  1.00  0.00    -0.252 C  
HETATM   29  C   UNL     1      -6.102  19.836  69.967  1.00  0.00    -0.351 C  
HETATM   30  O   UNL     1      -5.771  17.453  70.180  1.00  0.00    -0.240 OA 
HETATM   31  H   UNL     1      -4.900  17.672  70.489  1.00  0.00     0.000 HD 
ENDBRANCH  27  28
ENDBRANCH  21  22
ENDBRANCH   2  18
TORSDOF 6
ENDMDL
MODEL      144
REMARK 921   NORMALIZED FREE ENERGY PREDICTED BY IDOCK:   -4.88 KCAL/MOL
REMARK 922        TOTAL FREE ENERGY PREDICTED BY IDOCK:   -8.22 KCAL/MOL
REMARK 923 INTER-LIGAND FREE ENERGY PREDICTED BY IDOCK:   -7.58 KCAL/MOL
REMARK 924 INTRA-LIGAND FREE ENERGY PREDICTED BY IDOCK:   -0.64 KCAL/MOL
REMARK 927      BINDING AFFINITY PREDICTED BY RF-SCORE:    0.00 PKD
ROOT
HETATM    1  C   UNL     1     -12.893   7.691  71.876  1.00  0.00    -0.308 C  
HETATM    2  C   UNL     1     -11.849   8.768  72.187  1.00  0.00    -0.366 C  
ENDROOT
BRANCH   2   3
HETATM    3  C   UNL     1     -10.532   8.126  72.657  1.00  0.00    -0.330 C  
BRANCH   3   4
HETATM    4  N   UNL     1     -10.294   6.834  72.039  1.00  0.00    -0.196 NA 
HETATM    5  C   UNL     1     -10.102   5.649  72.681  1.00  0.00    -0.180 A  
HETATM    6  N   UNL     1     -10.224   6.733  70.700  1.00  0.00    -0.195 NA 
HETATM    7  C   UNL     1      -9.972   5.433  70.466  1.00  0.00    -0.221 A  
HETATM    8  C   UNL     1      -9.909   4.716  71.693  1.00  0.00    -0.253 A  
BRANCH   7   9
HETATM    9  C   UNL     1      -9.782   4.924  69.101  1.00  0.00    -0.252 A  
HETATM   10  C   UNL     1      -9.091   3.721  68.885  1.00  0.00    -0.201 A  
HETATM   11  C   UNL     1     -10.297   5.608  67.992  1.00  0.00    -0.258 A  
HETATM   12  N   UNL     1      -9.251   3.013  64.061  1.00  0.00    -0.108 NA 
HETATM   13  C   UNL     1     -10.135   5.095  66.700  1.00  0.00    -0.267 A  
HETATM   14 CL   UNL     1      -8.078   1.711  67.422  1.00  0.00    -0.064 Cl 
HETATM   15  C   UNL     1      -9.457   3.889  66.494  1.00  0.00    -0.211 A  
HETATM   16  C   UNL     1      -9.330   3.388  65.156  1.00  0.00    -0.155 C  
HETATM   17  C   UNL     1      -8.931   3.205  67.593  1.00  0.00    -0.154 A  
ENDBRANCH   7   9
ENDBRANCH   3   4
ENDBRANCH   2   3
BRANCH   2  18
HETATM   18  N   UNL     1     -11.688   9.663  71.046  1.00  0.00    -0.325 N  
HETATM   19  O   UNL     1     -13.156  11.275  71.752  1.00  0.00    -0.472 OA 
HETATM   20  H   UNL     1     -11.047   9.387  70.302  1.00  0.00     0.000 HD 
HETATM   21  C   UNL     1     -12.355  10.860  70.920  1.00  0.00    -0.400 C  
BRANCH  21  22
HETATM   22  C   UNL     1     -12.049  11.597  69.691  1.00  0.00    -0.280 A  
HETATM   23  N   UNL     1     -11.583  11.020  68.566  1.00  0.00    -0.370 NA 
HETATM   24  H   UNL     1     -11.394  10.032  68.397  1.00  0.00     0.000 HD 
HETATM   25  C   UNL     1     -12.188  12.995  69.530  1.00  0.00    -0.198 A  
HETATM   26  N   UNL     1     -11.425  12.055  67.717  1.00  0.00    -0.305 NA 
HETATM   27  C   UNL     1     -11.744  13.270  68.258  1.00  0.00    -0.353 A  
BRANCH  27  28
HETATM   28  C   UNL     1     -11.625  14.545  67.509  1.00  0.00    -0.381 C  
HETATM   29  C   UNL     1     -12.126  14.427  66.073  1.00  0.00    -0.370 C  
HETATM   30  O   UNL     1     -12.398  15.508  68.215  1.00  0.00    -0.410 OA 
HETATM   31  H   UNL     1     -12.321  16.324  67.735  1.00  0.00     0.000 HD 
ENDBRANCH  27  28
ENDBRANCH  21  22
ENDBRANCH   2  18
TORSDOF 6
ENDMDL
MODEL      145
REMARK 921   NORMALIZED FREE ENERGY PREDICTED BY IDOCK:   -4.86 KCAL/MOL
REMARK 922        TOTAL FREE ENERGY PREDICTED BY IDOCK:   -8.19 KCAL/MOL
REMARK 923 INTER-LIGAND FREE ENERGY PREDICTED BY IDOCK:   -8.19 KCAL/MOL
REMARK 924 INTRA-LIGAND FREE ENERGY PREDICTED BY IDOCK:   -0.00 KCAL/MOL
REMARK 927      BINDING AFFINITY PREDICTED BY RF-SCORE:    0.00 PKD
ROOT
HETATM    1  C   UNL     1      -9.927   9.456  71.417  1.00  0.00    -0.230 C  
HETATM    2  C   UNL     1     -11.196   8.933  70.735  1.00  0.00    -0.272 C  
ENDROOT
BRANCH   2   3
HETATM    3  C   UNL     1     -12.126  10.097  70.354  1.00  0.00    -0.246 C  
BRANCH   3   4
HETATM    4  N   UNL     1     -11.697  10.776  69.144  1.00  0.00    -0.302 NA 
HETATM    5  C   UNL     1     -11.273  10.191  67.990  1.00  0.00    -0.179 A  
HETATM    6  N   UNL     1     -11.675  12.119  69.100  1.00  0.00    -0.311 NA 
HETATM    7  C   UNL     1     -11.214  12.417  67.873  1.00  0.00    -0.266 A  
HETATM    8  C   UNL     1     -10.969  11.223  67.137  1.00  0.00    -0.348 A  
BRANCH   7   9
HETATM    9  C   UNL     1     -11.003  13.807  67.450  1.00  0.00    -0.296 A  
HETATM   10  C   UNL     1     -10.870  14.826  68.406  1.00  0.00    -0.248 A  
HETATM   11  C   UNL     1     -10.910  14.148  66.093  1.00  0.00    -0.296 A  
HETATM   12  N   UNL     1     -10.066  18.891  65.833  1.00  0.00    -0.536 NA 
HETATM   13  C   UNL     1     -10.678  15.473  65.705  1.00  0.00    -0.362 A  
HETATM   14 CL   UNL     1     -10.470  17.337  69.266  1.00  0.00    -0.305 Cl 
HETATM   15  C   UNL     1     -10.533  16.479  66.665  1.00  0.00    -0.266 A  
HETATM   16  C   UNL     1     -10.277  17.820  66.226  1.00  0.00    -0.364 C  
HETATM   17  C   UNL     1     -10.634  16.151  68.020  1.00  0.00    -0.304 A  
ENDBRANCH   7   9
ENDBRANCH   3   4
ENDBRANCH   2   3
BRANCH   2  18
HETATM   18  N   UNL     1     -10.848   8.071  69.610  1.00  0.00    -0.375 N  
HETATM   19  O   UNL     1     -11.561   6.102  70.542  1.00  0.00    -0.333 OA 
HETATM   20  H   UNL     1     -10.420   8.498  68.788  1.00  0.00     0.000 HD 
HETATM   21  C   UNL     1     -11.065   6.712  69.600  1.00  0.00    -0.334 C  
BRANCH  21  22
HETATM   22  C   UNL     1     -10.634   6.040  68.371  1.00  0.00    -0.261 A  
HETATM   23  N   UNL     1     -11.090   6.356  67.143  1.00  0.00    -0.578 NA 
HETATM   24  H   UNL     1     -11.760   7.082  66.888  1.00  0.00     0.000 HD 
HETATM   25  C   UNL     1      -9.703   4.977  68.314  1.00  0.00    -0.200 A  
HETATM   26  N   UNL     1     -10.453   5.487  66.332  1.00  0.00    -0.249 NA 
HETATM   27  C   UNL     1      -9.632   4.614  66.990  1.00  0.00    -0.180 A  
BRANCH  27  28
HETATM   28  C   UNL     1      -8.851   3.560  66.296  1.00  0.00    -0.131 C  
HETATM   29  C   UNL     1      -7.356   3.660  66.578  1.00  0.00    -0.072 C  
HETATM   30  O   UNL     1      -9.350   2.311  66.758  1.00  0.00    -0.342 OA 
HETATM   31  H   UNL     1      -8.851   1.637  66.314  1.00  0.00     0.000 HD 
ENDBRANCH  27  28
ENDBRANCH  21  22
ENDBRANCH   2  18
TORSDOF 6
ENDMDL
MODEL      146
REMARK 921   NORMALIZED FREE ENERGY PREDICTED BY IDOCK:   -4.85 KCAL/MOL
REMARK 922        TOTAL FREE ENERGY PREDICTED BY IDOCK:   -8.18 KCAL/MOL
REMARK 923 INTER-LIGAND FREE ENERGY PREDICTED BY IDOCK:   -7.17 KCAL/MOL
REMARK 924 INTRA-LIGAND FREE ENERGY PREDICTED BY IDOCK:   -1.01 KCAL/MOL
REMARK 927      BINDING AFFINITY PREDICTED BY RF-SCORE:    0.00 PKD
ROOT
HETATM    1  C   UNL     1      -7.943  17.125  68.102  1.00  0.00    -0.216 C  
HETATM    2  C   UNL     1      -9.092  16.263  67.567  1.00  0.00    -0.192 C  
ENDROOT
BRANCH   2   3
HETATM    3  C   UNL     1      -8.563  15.211  66.576  1.00  0.00    -0.191 C  
BRANCH   3   4
HETATM    4  N   UNL     1      -8.068  14.020  67.244  1.00  0.00    -0.179 NA 
HETATM    5  C   UNL     1      -6.785  13.778  67.630  1.00  0.00    -0.176 A  
HETATM    6  N   UNL     1      -8.908  13.008  67.520  1.00  0.00    -0.184 NA 
HETATM    7  C   UNL     1      -8.139  12.071  68.103  1.00  0.00    -0.160 A  
HETATM    8  C   UNL     1      -6.798  12.533  68.207  1.00  0.00    -0.082 A  
BRANCH   7   9
HETATM    9  C   UNL     1      -8.693  10.776  68.519  1.00  0.00    -0.149 A  
HETATM   10  C   UNL     1      -9.499  10.036  67.640  1.00  0.00    -0.163 A  
HETATM   11  C   UNL     1      -8.417  10.240  69.784  1.00  0.00    -0.082 A  
HETATM   12  N   UNL     1     -10.571   5.932  70.049  1.00  0.00    -0.266 NA 
HETATM   13  C   UNL     1      -8.925   8.990  70.156  1.00  0.00    -0.200 A  
HETATM   14 CL   UNL     1     -10.978   7.936  66.858  1.00  0.00    -0.085 Cl 
HETATM   15  C   UNL     1      -9.716   8.253  69.269  1.00  0.00    -0.177 A  
HETATM   16  C   UNL     1     -10.201   6.968  69.681  1.00  0.00    -0.202 C  
HETATM   17  C   UNL     1     -10.005   8.784  68.009  1.00  0.00    -0.182 A  
ENDBRANCH   7   9
ENDBRANCH   3   4
ENDBRANCH   2   3
BRANCH   2  18
HETATM   18  N   UNL     1      -9.856  15.693  68.671  1.00  0.00    -0.204 N  
HETATM   19  O   UNL     1     -11.717  15.132  67.456  1.00  0.00    -0.322 OA 
HETATM   20  H   UNL     1      -9.433  15.688  69.599  1.00  0.00     0.000 HD 
HETATM   21  C   UNL     1     -11.118  15.162  68.526  1.00  0.00    -0.276 C  
BRANCH  21  22
HETATM   22  C   UNL     1     -11.704  14.650  69.768  1.00  0.00    -0.313 A  
HETATM   23  N   UNL     1     -11.938  13.344  70.004  1.00  0.00    -0.369 NA 
HETATM   24  H   UNL     1     -11.742  12.549  69.396  1.00  0.00     0.000 HD 
HETATM   25  C   UNL     1     -12.106  15.449  70.863  1.00  0.00    -0.413 A  
HETATM   26  N   UNL     1     -12.492  13.336  71.234  1.00  0.00    -0.314 NA 
HETATM   27  C   UNL     1     -12.645  14.580  71.782  1.00  0.00    -0.346 A  
BRANCH  27  28
HETATM   28  C   UNL     1     -13.252  14.806  73.117  1.00  0.00    -0.436 C  
HETATM   29  C   UNL     1     -12.222  15.218  74.164  1.00  0.00    -0.742 C  
HETATM   30  O   UNL     1     -14.220  15.835  72.956  1.00  0.00    -0.549 OA 
HETATM   31  H   UNL     1     -14.608  15.980  73.811  1.00  0.00     0.000 HD 
ENDBRANCH  27  28
ENDBRANCH  21  22
ENDBRANCH   2  18
TORSDOF 6
ENDMDL
MODEL      147
REMARK 921   NORMALIZED FREE ENERGY PREDICTED BY IDOCK:   -4.84 KCAL/MOL
REMARK 922        TOTAL FREE ENERGY PREDICTED BY IDOCK:   -8.16 KCAL/MOL
REMARK 923 INTER-LIGAND FREE ENERGY PREDICTED BY IDOCK:   -7.78 KCAL/MOL
REMARK 924 INTRA-LIGAND FREE ENERGY PREDICTED BY IDOCK:   -0.37 KCAL/MOL
REMARK 927      BINDING AFFINITY PREDICTED BY RF-SCORE:    0.00 PKD
ROOT
HETATM    1  C   UNL     1     -12.116  11.286  70.863  1.00  0.00    -0.406 C  
HETATM    2  C   UNL     1     -11.453  10.146  70.083  1.00  0.00    -0.296 C  
ENDROOT
BRANCH   2   3
HETATM    3  C   UNL     1     -10.312  10.683  69.202  1.00  0.00    -0.221 C  
BRANCH   3   4
HETATM    4  N   UNL     1     -10.715  11.836  68.416  1.00  0.00    -0.209 NA 
HETATM    5  C   UNL     1     -11.801  11.923  67.598  1.00  0.00    -0.195 A  
HETATM    6  N   UNL     1      -9.973  12.956  68.438  1.00  0.00    -0.228 NA 
HETATM    7  C   UNL     1     -10.598  13.800  67.598  1.00  0.00    -0.242 A  
HETATM    8  C   UNL     1     -11.767  13.188  67.066  1.00  0.00    -0.431 A  
BRANCH   7   9
HETATM    9  C   UNL     1     -10.061  15.137  67.316  1.00  0.00    -0.235 A  
HETATM   10  C   UNL     1     -10.351  16.212  68.172  1.00  0.00    -0.269 A  
HETATM   11  C   UNL     1      -9.236  15.371  66.207  1.00  0.00    -0.354 A  
HETATM   12  N   UNL     1      -7.919  20.010  66.313  1.00  0.00    -0.313 NA 
HETATM   13  C   UNL     1      -8.705  16.643  65.968  1.00  0.00    -0.239 A  
HETATM   14 CL   UNL     1     -10.218  18.745  69.048  1.00  0.00    -0.309 Cl 
HETATM   15  C   UNL     1      -8.989  17.705  66.833  1.00  0.00    -0.258 A  
HETATM   16  C   UNL     1      -8.409  18.989  66.563  1.00  0.00    -0.305 C  
HETATM   17  C   UNL     1      -9.819  17.485  67.935  1.00  0.00    -0.293 A  
ENDBRANCH   7   9
ENDBRANCH   3   4
ENDBRANCH   2   3
BRANCH   2  18
HETATM   18  N   UNL     1     -11.038   9.083  70.993  1.00  0.00    -0.266 N  
HETATM   19  O   UNL     1     -13.112   8.156  71.296  1.00  0.00    -0.255 OA 
HETATM   20  H   UNL     1     -10.052   9.022  71.246  1.00  0.00     0.000 HD 
HETATM   21  C   UNL     1     -11.907   8.160  71.528  1.00  0.00    -0.294 C  
BRANCH  21  22
HETATM   22  C   UNL     1     -11.277   7.185  72.422  1.00  0.00    -0.272 A  
HETATM   23  N   UNL     1     -10.917   7.455  73.693  1.00  0.00    -0.555 NA 
HETATM   24  H   UNL     1     -11.032   8.327  74.208  1.00  0.00     0.000 HD 
HETATM   25  C   UNL     1     -10.958   5.852  72.071  1.00  0.00    -0.319 A  
HETATM   26  N   UNL     1     -10.369   6.300  74.122  1.00  0.00    -0.315 NA 
HETATM   27  C   UNL     1     -10.339   5.314  73.175  1.00  0.00    -0.197 A  
BRANCH  27  28
HETATM   28  C   UNL     1      -9.761   3.970  73.424  1.00  0.00    -0.114 C  
HETATM   29  C   UNL     1     -10.799   2.974  73.933  1.00  0.00    -0.293 C  
HETATM   30  O   UNL     1      -9.221   3.521  72.187  1.00  0.00    -0.103 OA 
HETATM   31  H   UNL     1      -8.852   2.661  72.347  1.00  0.00     0.000 HD 
ENDBRANCH  27  28
ENDBRANCH  21  22
ENDBRANCH   2  18
TORSDOF 6
ENDMDL
MODEL      148
REMARK 921   NORMALIZED FREE ENERGY PREDICTED BY IDOCK:   -4.82 KCAL/MOL
REMARK 922        TOTAL FREE ENERGY PREDICTED BY IDOCK:   -8.13 KCAL/MOL
REMARK 923 INTER-LIGAND FREE ENERGY PREDICTED BY IDOCK:   -6.67 KCAL/MOL
REMARK 924 INTRA-LIGAND FREE ENERGY PREDICTED BY IDOCK:   -1.46 KCAL/MOL
REMARK 927      BINDING AFFINITY PREDICTED BY RF-SCORE:    0.00 PKD
ROOT
HETATM    1  C   UNL     1     -10.950  18.849  67.950  1.00  0.00    -0.139 C  
HETATM    2  C   UNL     1     -10.320  17.452  67.926  1.00  0.00    -0.369 C  
ENDROOT
BRANCH   2   3
HETATM    3  C   UNL     1     -10.377  16.808  69.322  1.00  0.00    -0.309 C  
BRANCH   3   4
HETATM    4  N   UNL     1     -10.417  15.358  69.262  1.00  0.00    -0.236 NA 
HETATM    5  C   UNL     1     -11.395  14.550  69.757  1.00  0.00    -0.260 A  
HETATM    6  N   UNL     1      -9.406  14.682  68.689  1.00  0.00    -0.204 NA 
HETATM    7  C   UNL     1      -9.738  13.386  68.823  1.00  0.00     0.010 A  
HETATM    8  C   UNL     1     -10.997  13.267  69.475  1.00  0.00     0.009 A  
BRANCH   7   9
HETATM    9  C   UNL     1      -8.851  12.315  68.352  1.00  0.00    -0.137 A  
HETATM   10  C   UNL     1      -8.124  11.543  69.271  1.00  0.00     0.243 A  
HETATM   11  C   UNL     1      -8.723  12.025  66.987  1.00  0.00    -0.188 A  
HETATM   12  N   UNL     1      -5.720   8.273  66.564  1.00  0.00    -0.042 NA 
HETATM   13  C   UNL     1      -7.899  10.980  66.553  1.00  0.00    -0.155 A  
HETATM   14 CL   UNL     1      -6.452   9.589  70.042  1.00  0.00    -0.054 Cl 
HETATM   15  C   UNL     1      -7.187  10.207  67.477  1.00  0.00    -0.088 A  
HETATM   16  C   UNL     1      -6.368   9.134  66.993  1.00  0.00    -0.063 C  
HETATM   17  C   UNL     1      -7.300  10.496  68.840  1.00  0.00    -0.098 A  
ENDBRANCH   7   9
ENDBRANCH   3   4
ENDBRANCH   2   3
BRANCH   2  18
HETATM   18  N   UNL     1     -10.930  16.637  66.881  1.00  0.00    -0.048 N  
HETATM   19  O   UNL     1      -9.152  16.670  65.434  1.00  0.00    -0.267 OA 
HETATM   20  H   UNL     1     -11.881  16.299  67.026  1.00  0.00     0.000 HD 
HETATM   21  C   UNL     1     -10.290  16.302  65.709  1.00  0.00    -0.374 C  
BRANCH  21  22
HETATM   22  C   UNL     1     -11.091  15.481  64.797  1.00  0.00    -0.407 A  
HETATM   23  N   UNL     1     -12.014  15.982  63.952  1.00  0.00    -1.309 NA 
HETATM   24  H   UNL     1     -12.277  16.957  63.812  1.00  0.00     0.000 HD 
HETATM   25  C   UNL     1     -11.009  14.074  64.692  1.00  0.00    -0.401 A  
HETATM   26  N   UNL     1     -12.509  14.889  63.336  1.00  0.00    -0.107 NA 
HETATM   27  C   UNL     1     -11.961  13.712  63.768  1.00  0.00    -0.377 A  
BRANCH  27  28
HETATM   28  C   UNL     1     -12.373  12.388  63.241  1.00  0.00    -0.391 C  
HETATM   29  C   UNL     1     -11.264  11.346  63.352  1.00  0.00    -0.252 C  
HETATM   30  O   UNL     1     -13.503  11.979  64.002  1.00  0.00    -0.655 OA 
HETATM   31  H   UNL     1     -13.766  11.131  63.665  1.00  0.00     0.000 HD 
ENDBRANCH  27  28
ENDBRANCH  21  22
ENDBRANCH   2  18
TORSDOF 6
ENDMDL
MODEL      149
REMARK 921   NORMALIZED FREE ENERGY PREDICTED BY IDOCK:   -4.78 KCAL/MOL
REMARK 922        TOTAL FREE ENERGY PREDICTED BY IDOCK:   -8.08 KCAL/MOL
REMARK 923 INTER-LIGAND FREE ENERGY PREDICTED BY IDOCK:   -6.71 KCAL/MOL
REMARK 924 INTRA-LIGAND FREE ENERGY PREDICTED BY IDOCK:   -1.37 KCAL/MOL
REMARK 927      BINDING AFFINITY PREDICTED BY RF-SCORE:    0.00 PKD
ROOT
HETATM    1  C   UNL     1     -10.065   5.478  65.855  1.00  0.00     0.011 C  
HETATM    2  C   UNL     1      -8.884   5.794  66.779  1.00  0.00    -0.117 C  
ENDROOT
BRANCH   2   3
HETATM    3  C   UNL     1      -8.202   7.107  66.358  1.00  0.00    -0.120 C  
BRANCH   3   4
HETATM    4  N   UNL     1      -9.076   8.257  66.506  1.00  0.00    -0.167 NA 
HETATM    5  C   UNL     1      -9.482   9.102  65.519  1.00  0.00    -0.206 A  
HETATM    6  N   UNL     1      -9.552   8.587  67.719  1.00  0.00    -0.152 NA 
HETATM    7  C   UNL     1     -10.290   9.691  67.511  1.00  0.00    -0.241 A  
HETATM    8  C   UNL     1     -10.284  10.033  66.130  1.00  0.00    -0.283 A  
BRANCH   7   9
HETATM    9  C   UNL     1     -10.952  10.390  68.620  1.00  0.00    -0.288 A  
HETATM   10  C   UNL     1     -11.186  11.772  68.547  1.00  0.00    -0.306 A  
HETATM   11  C   UNL     1     -11.384   9.699  69.761  1.00  0.00    -0.159 A  
HETATM   12  N   UNL     1     -13.545  12.883  72.670  1.00  0.00    -0.516 NA 
HETATM   13  C   UNL     1     -12.042  10.372  70.796  1.00  0.00    -0.463 A  
HETATM   14 CL   UNL     1     -12.102  14.147  69.400  1.00  0.00    -0.371 Cl 
HETATM   15  C   UNL     1     -12.282  11.747  70.709  1.00  0.00    -0.424 A  
HETATM   16  C   UNL     1     -12.977  12.395  71.783  1.00  0.00    -0.316 C  
HETATM   17  C   UNL     1     -11.847  12.447  69.581  1.00  0.00    -0.311 A  
ENDBRANCH   7   9
ENDBRANCH   3   4
ENDBRANCH   2   3
BRANCH   2  18
HETATM   18  N   UNL     1      -9.312   5.779  68.174  1.00  0.00    -0.109 N  
HETATM   19  O   UNL     1      -7.890   4.127  68.881  1.00  0.00    -0.061 OA 
HETATM   20  H   UNL     1     -10.051   6.422  68.459  1.00  0.00     0.000 HD 
HETATM   21  C   UNL     1      -8.772   4.944  69.125  1.00  0.00    -0.087 C  
BRANCH  21  22
HETATM   22  C   UNL     1      -9.356   5.092  70.461  1.00  0.00    -0.156 A  
HETATM   23  N   UNL     1      -9.926   4.082  71.147  1.00  0.00    -0.167 NA 
HETATM   24  H   UNL     1     -10.024   3.106  70.867  1.00  0.00     0.000 HD 
HETATM   25  C   UNL     1      -9.406   6.301  71.192  1.00  0.00    -0.169 A  
HETATM   26  N   UNL     1     -10.337   4.665  72.292  1.00  0.00    -0.192 NA 
HETATM   27  C   UNL     1     -10.077   6.006  72.356  1.00  0.00    -0.175 A  
BRANCH  27  28
HETATM   28  C   UNL     1     -10.462   6.850  73.514  1.00  0.00    -0.352 C  
HETATM   29  C   UNL     1      -9.369   7.839  73.905  1.00  0.00    -0.203 C  
HETATM   30  O   UNL     1     -11.640   7.552  73.135  1.00  0.00    -0.612 OA 
HETATM   31  H   UNL     1     -11.885   8.092  73.876  1.00  0.00     0.000 HD 
ENDBRANCH  27  28
ENDBRANCH  21  22
ENDBRANCH   2  18
TORSDOF 6
ENDMDL
MODEL      150
REMARK 921   NORMALIZED FREE ENERGY PREDICTED BY IDOCK:   -4.76 KCAL/MOL
REMARK 922        TOTAL FREE ENERGY PREDICTED BY IDOCK:   -8.05 KCAL/MOL
REMARK 923 INTER-LIGAND FREE ENERGY PREDICTED BY IDOCK:   -7.13 KCAL/MOL
REMARK 924 INTRA-LIGAND FREE ENERGY PREDICTED BY IDOCK:   -0.92 KCAL/MOL
REMARK 927      BINDING AFFINITY PREDICTED BY RF-SCORE:    0.00 PKD
ROOT
HETATM    1  C   UNL     1      -9.515   9.041  66.130  1.00  0.00    -0.318 C  
HETATM    2  C   UNL     1      -9.048  10.095  65.121  1.00  0.00    -0.201 C  
ENDROOT
BRANCH   2   3
HETATM    3  C   UNL     1     -10.232  10.598  64.277  1.00  0.00    -0.320 C  
BRANCH   3   4
HETATM    4  N   UNL     1     -10.805  11.825  64.802  1.00  0.00    -0.292 NA 
HETATM    5  C   UNL     1     -11.419  12.807  64.086  1.00  0.00    -0.393 A  
HETATM    6  N   UNL     1     -10.740  12.086  66.119  1.00  0.00    -0.265 NA 
HETATM    7  C   UNL     1     -11.328  13.286  66.262  1.00  0.00    -0.309 A  
HETATM    8  C   UNL     1     -11.787  13.761  65.001  1.00  0.00    -0.381 A  
BRANCH   7   9
HETATM    9  C   UNL     1     -11.417  13.945  67.571  1.00  0.00    -0.368 A  
HETATM   10  C   UNL     1     -11.163  15.321  67.690  1.00  0.00    -0.320 A  
HETATM   11  C   UNL     1     -11.775  13.230  68.722  1.00  0.00    -0.366 A  
HETATM   12  N   UNL     1     -11.920  16.351  72.398  1.00  0.00    -0.529 NA 
HETATM   13  C   UNL     1     -11.887  13.876  69.958  1.00  0.00    -0.384 A  
HETATM   14 CL   UNL     1     -10.959  17.668  68.977  1.00  0.00     0.267 Cl 
HETATM   15  C   UNL     1     -11.645  15.250  70.066  1.00  0.00    -0.331 A  
HETATM   16  C   UNL     1     -11.789  15.878  71.347  1.00  0.00    -0.463 C  
HETATM   17  C   UNL     1     -11.278  15.970  68.926  1.00  0.00    -0.353 A  
ENDBRANCH   7   9
ENDBRANCH   3   4
ENDBRANCH   2   3
BRANCH   2  18
HETATM   18  N   UNL     1      -8.320  11.161  65.800  1.00  0.00    -0.336 N  
HETATM   19  O   UNL     1      -6.394   9.979  66.181  1.00  0.00    -0.072 OA 
HETATM   20  H   UNL     1      -8.787  12.059  65.930  1.00  0.00     0.000 HD 
HETATM   21  C   UNL     1      -7.037  11.020  66.276  1.00  0.00    -0.092 C  
BRANCH  21  22
HETATM   22  C   UNL     1      -6.500  12.216  66.931  1.00  0.00    -0.003 A  
HETATM   23  N   UNL     1      -5.196  12.558  66.916  1.00  0.00    -0.335 NA 
HETATM   24  H   UNL     1      -4.423  12.074  66.460  1.00  0.00     0.000 HD 
HETATM   25  C   UNL     1      -7.267  13.150  67.665  1.00  0.00    -0.160 A  
HETATM   26  N   UNL     1      -5.156  13.692  67.646  1.00  0.00    -0.309 NA 
HETATM   27  C   UNL     1      -6.369  14.073  68.147  1.00  0.00    -0.128 A  
BRANCH  27  28
HETATM   28  C   UNL     1      -6.551  15.278  68.994  1.00  0.00    -0.118 C  
HETATM   29  C   UNL     1      -5.376  16.245  68.893  1.00  0.00    -0.112 C  
HETATM   30  O   UNL     1      -7.743  15.913  68.549  1.00  0.00    -0.135 OA 
HETATM   31  H   UNL     1      -7.859  16.684  69.092  1.00  0.00     0.000 HD 
ENDBRANCH  27  28
ENDBRANCH  21  22
ENDBRANCH   2  18
TORSDOF 6
ENDMDL
MODEL      151
REMARK 921   NORMALIZED FREE ENERGY PREDICTED BY IDOCK:   -4.71 KCAL/MOL
REMARK 922        TOTAL FREE ENERGY PREDICTED BY IDOCK:   -7.98 KCAL/MOL
REMARK 923 INTER-LIGAND FREE ENERGY PREDICTED BY IDOCK:   -7.55 KCAL/MOL
REMARK 924 INTRA-LIGAND FREE ENERGY PREDICTED BY IDOCK:   -0.43 KCAL/MOL
REMARK 927      BINDING AFFINITY PREDICTED BY RF-SCORE:    0.00 PKD
ROOT
HETATM    1  C   UNL     1      -6.592   8.097  64.424  1.00  0.00    -0.065 C  
HETATM    2  C   UNL     1      -7.564   9.197  64.865  1.00  0.00    -0.107 C  
ENDROOT
BRANCH   2   3
HETATM    3  C   UNL     1      -8.626   9.447  63.781  1.00  0.00    -0.211 C  
BRANCH   3   4
HETATM    4  N   UNL     1      -9.432  10.623  64.056  1.00  0.00    -0.259 NA 
HETATM    5  C   UNL     1      -9.981  11.466  63.139  1.00  0.00    -0.372 A  
HETATM    6  N   UNL     1      -9.684  10.982  65.327  1.00  0.00    -0.225 NA 
HETATM    7  C   UNL     1     -10.419  12.103  65.230  1.00  0.00    -0.276 A  
HETATM    8  C   UNL     1     -10.643  12.427  63.863  1.00  0.00    -0.470 A  
BRANCH   7   9
HETATM    9  C   UNL     1     -10.863  12.834  66.424  1.00  0.00    -0.294 A  
HETATM   10  C   UNL     1     -10.619  14.212  66.542  1.00  0.00    -0.282 A  
HETATM   11  C   UNL     1     -11.554  12.187  67.458  1.00  0.00    -0.413 A  
HETATM   12  N   UNL     1     -12.668  15.508  70.775  1.00  0.00    -0.456 NA 
HETATM   13  C   UNL     1     -11.999  12.902  68.575  1.00  0.00    -0.272 A  
HETATM   14 CL   UNL     1     -10.733  16.624  67.713  1.00  0.00    -0.340 Cl 
HETATM   15  C   UNL     1     -11.763  14.277  68.679  1.00  0.00    -0.380 A  
HETATM   16  C   UNL     1     -12.253  14.976  69.831  1.00  0.00    -0.309 C  
HETATM   17  C   UNL     1     -11.066  14.929  67.658  1.00  0.00    -0.311 A  
ENDBRANCH   7   9
ENDBRANCH   3   4
ENDBRANCH   2   3
BRANCH   2  18
HETATM   18  N   UNL     1      -8.127   8.882  66.173  1.00  0.00    -0.112 N  
HETATM   19  O   UNL     1      -8.860   6.773  65.656  1.00  0.00    -0.125 OA 
HETATM   20  H   UNL     1      -8.071   9.589  66.906  1.00  0.00     0.000 HD 
HETATM   21  C   UNL     1      -8.731   7.682  66.470  1.00  0.00    -0.149 C  
BRANCH  21  22
HETATM   22  C   UNL     1      -9.233   7.581  67.844  1.00  0.00    -0.136 A  
HETATM   23  N   UNL     1      -8.639   8.163  68.904  1.00  0.00    -0.130 NA 
HETATM   24  H   UNL     1      -7.801   8.745  68.916  1.00  0.00     0.000 HD 
HETATM   25  C   UNL     1     -10.385   6.860  68.234  1.00  0.00    -0.220 A  
HETATM   26  N   UNL     1      -9.413   7.796  69.945  1.00  0.00    -0.161 NA 
HETATM   27  C   UNL     1     -10.458   6.984  69.601  1.00  0.00    -0.223 A  
BRANCH  27  28
HETATM   28  C   UNL     1     -11.423   6.444  70.591  1.00  0.00    -0.362 C  
HETATM   29  C   UNL     1     -10.923   6.580  72.026  1.00  0.00    -0.283 C  
HETATM   30  O   UNL     1     -12.631   7.177  70.425  1.00  0.00    -0.612 OA 
HETATM   31  H   UNL     1     -13.248   6.832  71.059  1.00  0.00     0.000 HD 
ENDBRANCH  27  28
ENDBRANCH  21  22
ENDBRANCH   2  18
TORSDOF 6
ENDMDL
MODEL      152
REMARK 921   NORMALIZED FREE ENERGY PREDICTED BY IDOCK:   -4.70 KCAL/MOL
REMARK 922        TOTAL FREE ENERGY PREDICTED BY IDOCK:   -7.98 KCAL/MOL
REMARK 923 INTER-LIGAND FREE ENERGY PREDICTED BY IDOCK:   -8.24 KCAL/MOL
REMARK 924 INTRA-LIGAND FREE ENERGY PREDICTED BY IDOCK:    0.27 KCAL/MOL
REMARK 927      BINDING AFFINITY PREDICTED BY RF-SCORE:    0.00 PKD
ROOT
HETATM    1  C   UNL     1      -9.911   9.166  70.932  1.00  0.00    -0.357 C  
HETATM    2  C   UNL     1     -11.011   8.101  71.006  1.00  0.00    -0.244 C  
ENDROOT
BRANCH   2   3
HETATM    3  C   UNL     1     -12.398   8.742  70.831  1.00  0.00    -0.071 C  
BRANCH   3   4
HETATM    4  N   UNL     1     -12.324  10.179  70.629  1.00  0.00    -0.299 NA 
HETATM    5  C   UNL     1     -12.546  11.144  71.563  1.00  0.00    -0.325 A  
HETATM    6  N   UNL     1     -12.028  10.671  69.413  1.00  0.00    -0.263 NA 
HETATM    7  C   UNL     1     -12.066  12.006  69.563  1.00  0.00    -0.212 A  
HETATM    8  C   UNL     1     -12.370  12.340  70.913  1.00  0.00    -0.363 A  
BRANCH   7   9
HETATM    9  C   UNL     1     -11.835  12.911  68.430  1.00  0.00    -0.357 A  
HETATM   10  C   UNL     1     -11.739  12.402  67.126  1.00  0.00    -0.415 A  
HETATM   11  C   UNL     1     -11.727  14.296  68.616  1.00  0.00    -0.380 A  
HETATM   12  N   UNL     1     -11.147  16.315  64.273  1.00  0.00    -0.750 NA 
HETATM   13  C   UNL     1     -11.539  15.151  67.524  1.00  0.00    -0.268 A  
HETATM   14 CL   UNL     1     -11.459  12.542  64.459  1.00  0.00    -0.368 Cl 
HETATM   15  C   UNL     1     -11.457  14.636  66.226  1.00  0.00    -0.351 A  
HETATM   16  C   UNL     1     -11.284  15.547  65.132  1.00  0.00    -0.318 C  
HETATM   17  C   UNL     1     -11.553  13.255  66.031  1.00  0.00    -0.349 A  
ENDBRANCH   7   9
ENDBRANCH   3   4
ENDBRANCH   2   3
BRANCH   2  18
HETATM   18  N   UNL     1     -10.741   7.026  70.057  1.00  0.00    -0.233 N  
HETATM   19  O   UNL     1     -10.358   8.359  68.233  1.00  0.00    -0.204 OA 
HETATM   20  H   UNL     1     -10.788   6.064  70.392  1.00  0.00     0.000 HD 
HETATM   21  C   UNL     1     -10.427   7.242  68.735  1.00  0.00    -0.200 C  
BRANCH  21  22
HETATM   22  C   UNL     1     -10.200   6.019  67.960  1.00  0.00    -0.181 A  
HETATM   23  N   UNL     1      -9.824   4.845  68.504  1.00  0.00    -0.154 NA 
HETATM   24  H   UNL     1      -9.659   4.631  69.487  1.00  0.00     0.000 HD 
HETATM   25  C   UNL     1     -10.335   5.913  66.556  1.00  0.00    -0.237 A  
HETATM   26  N   UNL     1      -9.715   4.021  67.442  1.00  0.00    -0.177 NA 
HETATM   27  C   UNL     1      -9.980   4.623  66.243  1.00  0.00    -0.247 A  
BRANCH  27  28
HETATM   28  C   UNL     1      -9.900   3.908  64.945  1.00  0.00    -0.197 C  
HETATM   29  C   UNL     1      -9.322   2.504  65.087  1.00  0.00    -0.082 C  
HETATM   30  O   UNL     1     -11.226   3.839  64.434  1.00  0.00    -0.640 OA 
HETATM   31  H   UNL     1     -11.174   3.382  63.603  1.00  0.00     0.000 HD 
ENDBRANCH  27  28
ENDBRANCH  21  22
ENDBRANCH   2  18
TORSDOF 6
ENDMDL
MODEL      153
REMARK 921   NORMALIZED FREE ENERGY PREDICTED BY IDOCK:   -4.66 KCAL/MOL
REMARK 922        TOTAL FREE ENERGY PREDICTED BY IDOCK:   -7.92 KCAL/MOL
REMARK 923 INTER-LIGAND FREE ENERGY PREDICTED BY IDOCK:   -6.81 KCAL/MOL
REMARK 924 INTRA-LIGAND FREE ENERGY PREDICTED BY IDOCK:   -1.11 KCAL/MOL
REMARK 927      BINDING AFFINITY PREDICTED BY RF-SCORE:    0.00 PKD
ROOT
HETATM    1  C   UNL     1      -7.728   7.923  72.130  1.00  0.00    -0.119 C  
HETATM    2  C   UNL     1      -8.109   8.870  70.987  1.00  0.00    -0.170 C  
ENDROOT
BRANCH   2   3
HETATM    3  C   UNL     1      -6.912   9.753  70.594  1.00  0.00    -0.094 C  
BRANCH   3   4
HETATM    4  N   UNL     1      -7.015  10.252  69.234  1.00  0.00    -0.064 NA 
HETATM    5  C   UNL     1      -6.081  10.130  68.251  1.00  0.00    -0.045 A  
HETATM    6  N   UNL     1      -8.110  10.929  68.848  1.00  0.00    -0.144 NA 
HETATM    7  C   UNL     1      -7.875  11.264  67.567  1.00  0.00    -0.123 A  
HETATM    8  C   UNL     1      -6.612  10.758  67.151  1.00  0.00    -0.079 A  
BRANCH   7   9
HETATM    9  C   UNL     1      -8.836  12.061  66.795  1.00  0.00    -0.198 A  
HETATM   10  C   UNL     1      -9.435  11.527  65.643  1.00  0.00    -0.244 A  
HETATM   11  C   UNL     1      -9.195  13.356  67.194  1.00  0.00    -0.240 A  
HETATM   12  N   UNL     1     -12.497  14.987  64.079  1.00  0.00    -0.774 NA 
HETATM   13  C   UNL     1     -10.136  14.092  66.467  1.00  0.00    -0.283 A  
HETATM   14 CL   UNL     1     -11.074  11.519  63.517  1.00  0.00    -0.474 Cl 
HETATM   15  C   UNL     1     -10.737  13.548  65.327  1.00  0.00    -0.328 A  
HETATM   16  C   UNL     1     -11.712  14.328  64.621  1.00  0.00    -0.430 C  
HETATM   17  C   UNL     1     -10.379  12.261  64.915  1.00  0.00    -0.290 A  
ENDBRANCH   7   9
ENDBRANCH   3   4
ENDBRANCH   2   3
BRANCH   2  18
HETATM   18  N   UNL     1      -8.671   8.118  69.870  1.00  0.00    -0.137 N  
HETATM   19  O   UNL     1     -10.702   7.671  70.836  1.00  0.00    -0.229 OA 
HETATM   20  H   UNL     1      -8.096   7.985  69.039  1.00  0.00     0.000 HD 
HETATM   21  C   UNL     1      -9.937   7.578  69.880  1.00  0.00    -0.189 C  
BRANCH  21  22
HETATM   22  C   UNL     1     -10.296   6.856  68.656  1.00  0.00    -0.186 A  
HETATM   23  N   UNL     1     -11.514   6.913  68.082  1.00  0.00    -0.413 NA 
HETATM   24  H   UNL     1     -12.328   7.448  68.383  1.00  0.00     0.000 HD 
HETATM   25  C   UNL     1      -9.427   6.008  67.933  1.00  0.00    -0.112 A  
HETATM   26  N   UNL     1     -11.402   6.096  67.015  1.00  0.00    -0.086 NA 
HETATM   27  C   UNL     1     -10.176   5.501  66.898  1.00  0.00    -0.233 A  
BRANCH  27  28
HETATM   28  C   UNL     1      -9.841   4.548  65.810  1.00  0.00    -0.222 C  
HETATM   29  C   UNL     1      -9.194   3.270  66.333  1.00  0.00    -0.161 C  
HETATM   30  O   UNL     1     -11.061   4.239  65.148  1.00  0.00    -0.744 OA 
HETATM   31  H   UNL     1     -10.846   3.630  64.452  1.00  0.00     0.000 HD 
ENDBRANCH  27  28
ENDBRANCH  21  22
ENDBRANCH   2  18
TORSDOF 6
ENDMDL
MODEL      154
REMARK 921   NORMALIZED FREE ENERGY PREDICTED BY IDOCK:   -4.65 KCAL/MOL
REMARK 922        TOTAL FREE ENERGY PREDICTED BY IDOCK:   -7.90 KCAL/MOL
REMARK 923 INTER-LIGAND FREE ENERGY PREDICTED BY IDOCK:   -7.32 KCAL/MOL
REMARK 924 INTRA-LIGAND FREE ENERGY PREDICTED BY IDOCK:   -0.58 KCAL/MOL
REMARK 927      BINDING AFFINITY PREDICTED BY RF-SCORE:    0.00 PKD
ROOT
HETATM    1  C   UNL     1     -11.583   6.716  71.308  1.00  0.00    -0.374 C  
HETATM    2  C   UNL     1     -11.403   7.910  70.364  1.00  0.00    -0.194 C  
ENDROOT
BRANCH   2   3
HETATM    3  C   UNL     1     -10.511   8.982  71.012  1.00  0.00    -0.269 C  
BRANCH   3   4
HETATM    4  N   UNL     1      -9.814   9.792  70.028  1.00  0.00    -0.241 NA 
HETATM    5  C   UNL     1      -8.482   9.761  69.747  1.00  0.00    -0.193 A  
HETATM    6  N   UNL     1     -10.492  10.696  69.300  1.00  0.00    -0.218 NA 
HETATM    7  C   UNL     1      -9.564  11.278  68.522  1.00  0.00    -0.198 A  
HETATM    8  C   UNL     1      -8.287  10.698  68.763  1.00  0.00    -0.144 A  
BRANCH   7   9
HETATM    9  C   UNL     1      -9.911  12.367  67.600  1.00  0.00    -0.198 A  
HETATM   10  C   UNL     1     -11.050  12.269  66.786  1.00  0.00    -0.345 A  
HETATM   11  C   UNL     1      -9.134  13.531  67.524  1.00  0.00    -0.214 A  
HETATM   12  N   UNL     1     -11.231  16.485  64.338  1.00  0.00    -0.980 NA 
HETATM   13  C   UNL     1      -9.494  14.575  66.664  1.00  0.00    -0.301 A  
HETATM   14 CL   UNL     1     -12.840  13.112  64.970  1.00  0.00    -0.456 Cl 
HETATM   15  C   UNL     1     -10.638  14.474  65.865  1.00  0.00    -0.315 A  
HETATM   16  C   UNL     1     -10.983  15.574  65.012  1.00  0.00    -0.440 C  
HETATM   17  C   UNL     1     -11.414  13.313  65.927  1.00  0.00    -0.332 A  
ENDBRANCH   7   9
ENDBRANCH   3   4
ENDBRANCH   2   3
BRANCH   2  18
HETATM   18  N   UNL     1     -10.923   7.459  69.062  1.00  0.00    -0.426 N  
HETATM   19  O   UNL     1      -9.340   5.998  69.844  1.00  0.00    -0.145 OA 
HETATM   20  H   UNL     1     -11.350   7.857  68.226  1.00  0.00     0.000 HD 
HETATM   21  C   UNL     1      -9.924   6.526  68.903  1.00  0.00    -0.151 C  
BRANCH  21  22
HETATM   22  C   UNL     1      -9.595   6.225  67.507  1.00  0.00    -0.116 A  
HETATM   23  N   UNL     1     -10.032   5.131  66.852  1.00  0.00    -0.179 NA 
HETATM   24  H   UNL     1     -10.637   4.388  67.201  1.00  0.00     0.000 HD 
HETATM   25  C   UNL     1      -8.778   7.028  66.677  1.00  0.00    -0.131 A  
HETATM   26  N   UNL     1      -9.479   5.250  65.628  1.00  0.00    -0.125 NA 
HETATM   27  C   UNL     1      -8.689   6.357  65.480  1.00  0.00    -0.066 A  
BRANCH  27  28
HETATM   28  C   UNL     1      -7.967   6.673  64.223  1.00  0.00    -0.092 C  
HETATM   29  C   UNL     1      -8.109   5.572  63.177  1.00  0.00    -0.103 C  
HETATM   30  O   UNL     1      -8.520   7.887  63.729  1.00  0.00    -0.379 OA 
HETATM   31  H   UNL     1      -8.058   8.088  62.924  1.00  0.00     0.000 HD 
ENDBRANCH  27  28
ENDBRANCH  21  22
ENDBRANCH   2  18
TORSDOF 6
ENDMDL
MODEL      155
REMARK 921   NORMALIZED FREE ENERGY PREDICTED BY IDOCK:   -4.65 KCAL/MOL
REMARK 922        TOTAL FREE ENERGY PREDICTED BY IDOCK:   -7.90 KCAL/MOL
REMARK 923 INTER-LIGAND FREE ENERGY PREDICTED BY IDOCK:   -7.34 KCAL/MOL
REMARK 924 INTRA-LIGAND FREE ENERGY PREDICTED BY IDOCK:   -0.55 KCAL/MOL
REMARK 927      BINDING AFFINITY PREDICTED BY RF-SCORE:    0.00 PKD
ROOT
HETATM    1  C   UNL     1     -11.637   6.278  71.661  1.00  0.00    -0.353 C  
HETATM    2  C   UNL     1     -10.971   7.090  70.544  1.00  0.00    -0.265 C  
ENDROOT
BRANCH   2   3
HETATM    3  C   UNL     1      -9.739   7.839  71.080  1.00  0.00    -0.163 C  
BRANCH   3   4
HETATM    4  N   UNL     1      -9.344   8.942  70.221  1.00  0.00    -0.172 NA 
HETATM    5  C   UNL     1      -8.126   9.548  70.185  1.00  0.00    -0.174 A  
HETATM    6  N   UNL     1     -10.232   9.478  69.366  1.00  0.00    -0.195 NA 
HETATM    7  C   UNL     1      -9.565  10.473  68.756  1.00  0.00    -0.179 A  
HETATM    8  C   UNL     1      -8.227  10.533  69.234  1.00  0.00    -0.151 A  
BRANCH   7   9
HETATM    9  C   UNL     1     -10.219  11.338  67.765  1.00  0.00    -0.203 A  
HETATM   10  C   UNL     1     -10.589  12.649  68.104  1.00  0.00    -0.241 A  
HETATM   11  C   UNL     1     -10.468  10.889  66.461  1.00  0.00    -0.308 A  
HETATM   12  N   UNL     1     -12.477  14.534  64.020  1.00  0.00    -0.811 NA 
HETATM   13  C   UNL     1     -11.063  11.735  65.517  1.00  0.00    -0.336 A  
HETATM   14 CL   UNL     1     -11.594  15.099  67.663  1.00  0.00    -0.327 Cl 
HETATM   15  C   UNL     1     -11.417  13.044  65.860  1.00  0.00    -0.374 A  
HETATM   16  C   UNL     1     -12.006  13.884  64.858  1.00  0.00    -0.395 C  
HETATM   17  C   UNL     1     -11.182  13.497  67.161  1.00  0.00    -0.305 A  
ENDBRANCH   7   9
ENDBRANCH   3   4
ENDBRANCH   2   3
BRANCH   2  18
HETATM   18  N   UNL     1     -10.683   6.235  69.398  1.00  0.00    -0.267 N  
HETATM   19  O   UNL     1      -9.356   4.730  70.505  1.00  0.00    -0.134 OA 
HETATM   20  H   UNL     1     -11.086   6.486  68.495  1.00  0.00     0.000 HD 
HETATM   21  C   UNL     1      -9.896   5.109  69.470  1.00  0.00    -0.208 C  
BRANCH  21  22
HETATM   22  C   UNL     1      -9.733   4.402  68.197  1.00  0.00    -0.119 A  
HETATM   23  N   UNL     1      -9.079   3.231  68.067  1.00  0.00    -0.149 NA 
HETATM   24  H   UNL     1      -8.631   2.676  68.795  1.00  0.00     0.000 HD 
HETATM   25  C   UNL     1     -10.226   4.855  66.951  1.00  0.00    -0.254 A  
HETATM   26  N   UNL     1      -9.157   2.967  66.747  1.00  0.00    -0.159 NA 
HETATM   27  C   UNL     1      -9.808   3.929  66.025  1.00  0.00    -0.121 A  
BRANCH  27  28
HETATM   28  C   UNL     1      -9.990   3.851  64.554  1.00  0.00    -0.202 C  
HETATM   29  C   UNL     1      -9.542   2.511  63.981  1.00  0.00    -0.140 C  
HETATM   30  O   UNL     1     -11.376   4.049  64.304  1.00  0.00    -0.641 OA 
HETATM   31  H   UNL     1     -11.492   3.999  63.363  1.00  0.00     0.000 HD 
ENDBRANCH  27  28
ENDBRANCH  21  22
ENDBRANCH   2  18
TORSDOF 6
ENDMDL
MODEL      156
REMARK 921   NORMALIZED FREE ENERGY PREDICTED BY IDOCK:   -4.59 KCAL/MOL
REMARK 922        TOTAL FREE ENERGY PREDICTED BY IDOCK:   -7.83 KCAL/MOL
REMARK 923 INTER-LIGAND FREE ENERGY PREDICTED BY IDOCK:   -6.81 KCAL/MOL
REMARK 924 INTRA-LIGAND FREE ENERGY PREDICTED BY IDOCK:   -1.01 KCAL/MOL
REMARK 927      BINDING AFFINITY PREDICTED BY RF-SCORE:    0.00 PKD
ROOT
HETATM    1  C   UNL     1     -10.695   6.399  66.640  1.00  0.00    -0.271 C  
HETATM    2  C   UNL     1      -9.278   6.526  67.208  1.00  0.00    -0.120 C  
ENDROOT
BRANCH   2   3
HETATM    3  C   UNL     1      -8.604   7.812  66.700  1.00  0.00    -0.136 C  
BRANCH   3   4
HETATM    4  N   UNL     1      -9.478   8.969  66.790  1.00  0.00    -0.169 NA 
HETATM    5  C   UNL     1      -9.887   9.761  65.761  1.00  0.00    -0.290 A  
HETATM    6  N   UNL     1      -9.950   9.362  67.985  1.00  0.00    -0.168 NA 
HETATM    7  C   UNL     1     -10.689  10.454  67.722  1.00  0.00    -0.279 A  
HETATM    8  C   UNL     1     -10.688  10.722  66.325  1.00  0.00    -0.205 A  
BRANCH   7   9
HETATM    9  C   UNL     1     -11.348  11.210  68.794  1.00  0.00    -0.342 A  
HETATM   10  C   UNL     1     -12.007  10.535  69.834  1.00  0.00    -0.339 A  
HETATM   11  C   UNL     1     -11.319  12.611  68.820  1.00  0.00    -0.333 A  
HETATM   12  N   UNL     1     -13.620  14.048  72.810  1.00  0.00    -0.689 NA 
HETATM   13  C   UNL     1     -11.924  13.318  69.866  1.00  0.00    -0.400 A  
HETATM   14 CL   UNL     1     -13.388  10.327  72.127  1.00  0.00    -0.499 Cl 
HETATM   15  C   UNL     1     -12.567  12.637  70.904  1.00  0.00    -0.338 A  
HETATM   16  C   UNL     1     -13.158  13.398  71.967  1.00  0.00    -0.377 C  
HETATM   17  C   UNL     1     -12.610  11.240  70.882  1.00  0.00    -0.371 A  
ENDBRANCH   7   9
ENDBRANCH   3   4
ENDBRANCH   2   3
BRANCH   2  18
HETATM   18  N   UNL     1      -9.302   6.416  68.663  1.00  0.00    -0.125 N  
HETATM   19  O   UNL     1      -7.137   5.708  68.920  1.00  0.00    -0.065 OA 
HETATM   20  H   UNL     1     -10.168   6.645  69.151  1.00  0.00     0.000 HD 
HETATM   21  C   UNL     1      -8.218   6.017  69.412  1.00  0.00    -0.115 C  
BRANCH  21  22
HETATM   22  C   UNL     1      -8.466   5.970  70.856  1.00  0.00    -0.127 A  
HETATM   23  N   UNL     1      -7.738   6.649  71.764  1.00  0.00    -0.096 NA 
HETATM   24  H   UNL     1      -6.952   7.279  71.598  1.00  0.00     0.000 HD 
HETATM   25  C   UNL     1      -9.480   5.207  71.479  1.00  0.00    -0.197 A  
HETATM   26  N   UNL     1      -8.292   6.300  72.943  1.00  0.00    -0.118 NA 
HETATM   27  C   UNL     1      -9.323   5.409  72.829  1.00  0.00    -0.139 A  
BRANCH  27  28
HETATM   28  C   UNL     1     -10.062   4.875  74.000  1.00  0.00    -0.199 C  
HETATM   29  C   UNL     1     -11.446   4.353  73.628  1.00  0.00    -0.210 C  
HETATM   30  O   UNL     1      -9.272   3.819  74.534  1.00  0.00    -0.097 OA 
HETATM   31  H   UNL     1      -9.745   3.477  75.283  1.00  0.00     0.000 HD 
ENDBRANCH  27  28
ENDBRANCH  21  22
ENDBRANCH   2  18
TORSDOF 6
ENDMDL
MODEL      157
REMARK 921   NORMALIZED FREE ENERGY PREDICTED BY IDOCK:   -4.59 KCAL/MOL
REMARK 922        TOTAL FREE ENERGY PREDICTED BY IDOCK:   -7.82 KCAL/MOL
REMARK 923 INTER-LIGAND FREE ENERGY PREDICTED BY IDOCK:   -7.08 KCAL/MOL
REMARK 924 INTRA-LIGAND FREE ENERGY PREDICTED BY IDOCK:   -0.75 KCAL/MOL
REMARK 927      BINDING AFFINITY PREDICTED BY RF-SCORE:    0.00 PKD
ROOT
HETATM    1  C   UNL     1     -12.614  14.071  71.420  1.00  0.00    -0.451 C  
HETATM    2  C   UNL     1     -11.638  13.879  70.254  1.00  0.00    -0.147 C  
ENDROOT
BRANCH   2   3
HETATM    3  C   UNL     1     -12.134  12.772  69.309  1.00  0.00    -0.172 C  
BRANCH   3   4
HETATM    4  N   UNL     1     -11.182  11.682  69.183  1.00  0.00    -0.246 NA 
HETATM    5  C   UNL     1     -10.232  11.540  68.218  1.00  0.00    -0.196 A  
HETATM    6  N   UNL     1     -11.200  10.669  70.067  1.00  0.00    -0.297 NA 
HETATM    7  C   UNL     1     -10.228   9.836  69.656  1.00  0.00    -0.233 A  
HETATM    8  C   UNL     1      -9.583  10.364  68.503  1.00  0.00    -0.161 A  
BRANCH   7   9
HETATM    9  C   UNL     1      -9.960   8.570  70.350  1.00  0.00    -0.203 A  
HETATM   10  C   UNL     1     -10.292   8.423  71.707  1.00  0.00    -0.333 A  
HETATM   11  C   UNL     1      -9.392   7.479  69.679  1.00  0.00    -0.153 A  
HETATM   12  N   UNL     1      -9.098   3.825  72.816  1.00  0.00    -0.100 NA 
HETATM   13  C   UNL     1      -9.171   6.268  70.346  1.00  0.00    -0.160 A  
HETATM   14 CL   UNL     1     -10.524   7.117  74.040  1.00  0.00    -0.316 Cl 
HETATM   15  C   UNL     1      -9.516   6.126  71.694  1.00  0.00    -0.160 A  
HETATM   16  C   UNL     1      -9.292   4.863  72.334  1.00  0.00    -0.133 C  
HETATM   17  C   UNL     1     -10.074   7.212  72.374  1.00  0.00    -0.182 A  
ENDBRANCH   7   9
ENDBRANCH   3   4
ENDBRANCH   2   3
BRANCH   2  18
HETATM   18  N   UNL     1     -11.390  15.151  69.584  1.00  0.00    -0.264 N  
HETATM   19  O   UNL     1      -9.104  14.994  69.533  1.00  0.00    -0.165 OA 
HETATM   20  H   UNL     1     -12.192  15.731  69.337  1.00  0.00     0.000 HD 
HETATM   21  C   UNL     1     -10.132  15.610  69.268  1.00  0.00    -0.258 C  
BRANCH  21  22
HETATM   22  C   UNL     1     -10.114  16.916  68.602  1.00  0.00    -0.291 A  
HETATM   23  N   UNL     1     -11.108  17.369  67.814  1.00  0.00    -0.136 NA 
HETATM   24  H   UNL     1     -11.987  16.908  67.580  1.00  0.00     0.000 HD 
HETATM   25  C   UNL     1      -9.060  17.854  68.690  1.00  0.00    -0.263 A  
HETATM   26  N   UNL     1     -10.667  18.577  67.407  1.00  0.00    -0.421 NA 
HETATM   27  C   UNL     1      -9.426  18.903  67.880  1.00  0.00    -0.305 A  
BRANCH  27  28
HETATM   28  C   UNL     1      -8.740  20.174  67.541  1.00  0.00    -0.336 C  
HETATM   29  C   UNL     1      -7.673  19.993  66.466  1.00  0.00    -0.325 C  
HETATM   30  O   UNL     1      -9.745  21.070  67.082  1.00  0.00    -0.669 OA 
HETATM   31  H   UNL     1      -9.306  21.884  66.864  1.00  0.00     0.000 HD 
ENDBRANCH  27  28
ENDBRANCH  21  22
ENDBRANCH   2  18
TORSDOF 6
ENDMDL
MODEL      158
REMARK 921   NORMALIZED FREE ENERGY PREDICTED BY IDOCK:   -4.56 KCAL/MOL
REMARK 922        TOTAL FREE ENERGY PREDICTED BY IDOCK:   -7.79 KCAL/MOL
REMARK 923 INTER-LIGAND FREE ENERGY PREDICTED BY IDOCK:   -7.25 KCAL/MOL
REMARK 924 INTRA-LIGAND FREE ENERGY PREDICTED BY IDOCK:   -0.54 KCAL/MOL
REMARK 927      BINDING AFFINITY PREDICTED BY RF-SCORE:    0.00 PKD
ROOT
HETATM    1  C   UNL     1      -7.017   9.894  68.823  1.00  0.00    -0.062 C  
HETATM    2  C   UNL     1      -7.834   8.813  69.539  1.00  0.00    -0.091 C  
ENDROOT
BRANCH   2   3
HETATM    3  C   UNL     1      -8.766   9.444  70.587  1.00  0.00    -0.211 C  
BRANCH   3   4
HETATM    4  N   UNL     1      -9.899  10.124  69.984  1.00  0.00    -0.196 NA 
HETATM    5  C   UNL     1     -11.217   9.849  70.192  1.00  0.00    -0.289 A  
HETATM    6  N   UNL     1      -9.695  11.122  69.108  1.00  0.00    -0.097 NA 
HETATM    7  C   UNL     1     -10.926  11.506  68.729  1.00  0.00    -0.222 A  
HETATM    8  C   UNL     1     -11.911  10.738  69.409  1.00  0.00    -0.353 A  
BRANCH   7   9
HETATM    9  C   UNL     1     -11.125  12.564  67.730  1.00  0.00    -0.291 A  
HETATM   10  C   UNL     1     -10.772  13.891  68.024  1.00  0.00    -0.255 A  
HETATM   11  C   UNL     1     -11.647  12.278  66.461  1.00  0.00    -0.440 A  
HETATM   12  N   UNL     1     -11.729  16.395  63.949  1.00  0.00    -1.024 NA 
HETATM   13  C   UNL     1     -11.801  13.290  65.508  1.00  0.00    -0.405 A  
HETATM   14 CL   UNL     1     -10.451  16.507  67.516  1.00  0.00    -0.306 Cl 
HETATM   15  C   UNL     1     -11.436  14.607  65.805  1.00  0.00    -0.338 A  
HETATM   16  C   UNL     1     -11.592  15.612  64.793  1.00  0.00    -0.218 C  
HETATM   17  C   UNL     1     -10.924  14.905  67.071  1.00  0.00    -0.327 A  
ENDBRANCH   7   9
ENDBRANCH   3   4
ENDBRANCH   2   3
BRANCH   2  18
HETATM   18  N   UNL     1      -8.530   7.976  68.567  1.00  0.00    -0.127 N  
HETATM   19  O   UNL     1      -8.484   6.039  69.792  1.00  0.00    -0.123 OA 
HETATM   20  H   UNL     1      -8.826   8.400  67.688  1.00  0.00     0.000 HD 
HETATM   21  C   UNL     1      -8.808   6.644  68.775  1.00  0.00    -0.126 C  
BRANCH  21  22
HETATM   22  C   UNL     1      -9.509   5.993  67.665  1.00  0.00    -0.112 A  
HETATM   23  N   UNL     1     -10.838   6.081  67.462  1.00  0.00    -0.327 NA 
HETATM   24  H   UNL     1     -11.526   6.598  68.010  1.00  0.00     0.000 HD 
HETATM   25  C   UNL     1      -8.893   5.187  66.679  1.00  0.00    -0.112 A  
HETATM   26  N   UNL     1     -11.045   5.326  66.364  1.00  0.00     0.002 NA 
HETATM   27  C   UNL     1      -9.912   4.739  65.872  1.00  0.00    -0.228 A  
BRANCH  27  28
HETATM   28  C   UNL     1      -9.912   3.850  64.684  1.00  0.00    -0.204 C  
HETATM   29  C   UNL     1      -9.233   2.512  64.957  1.00  0.00    -0.128 C  
HETATM   30  O   UNL     1     -11.274   3.641  64.331  1.00  0.00    -0.642 OA 
HETATM   31  H   UNL     1     -11.274   3.072  63.571  1.00  0.00     0.000 HD 
ENDBRANCH  27  28
ENDBRANCH  21  22
ENDBRANCH   2  18
TORSDOF 6
ENDMDL
MODEL      159
REMARK 921   NORMALIZED FREE ENERGY PREDICTED BY IDOCK:   -4.54 KCAL/MOL
REMARK 922        TOTAL FREE ENERGY PREDICTED BY IDOCK:   -7.75 KCAL/MOL
REMARK 923 INTER-LIGAND FREE ENERGY PREDICTED BY IDOCK:   -6.64 KCAL/MOL
REMARK 924 INTRA-LIGAND FREE ENERGY PREDICTED BY IDOCK:   -1.11 KCAL/MOL
REMARK 927      BINDING AFFINITY PREDICTED BY RF-SCORE:    0.00 PKD
ROOT
HETATM    1  C   UNL     1     -13.083   7.452  71.773  1.00  0.00    -0.363 C  
HETATM    2  C   UNL     1     -12.007   8.402  72.311  1.00  0.00    -0.389 C  
ENDROOT
BRANCH   2   3
HETATM    3  C   UNL     1     -10.730   7.625  72.673  1.00  0.00    -0.321 C  
BRANCH   3   4
HETATM    4  N   UNL     1     -10.018   7.152  71.499  1.00  0.00    -0.183 NA 
HETATM    5  C   UNL     1      -9.810   5.855  71.141  1.00  0.00    -0.181 A  
HETATM    6  N   UNL     1      -9.466   8.034  70.648  1.00  0.00    -0.161 NA 
HETATM    7  C   UNL     1      -8.873   7.280  69.706  1.00  0.00    -0.142 A  
HETATM    8  C   UNL     1      -9.088   5.900  69.975  1.00  0.00    -0.154 A  
BRANCH   7   9
HETATM    9  C   UNL     1      -8.114   7.887  68.605  1.00  0.00    -0.126 A  
HETATM   10  C   UNL     1      -8.767   8.270  67.422  1.00  0.00    -0.125 A  
HETATM   11  C   UNL     1      -6.736   8.116  68.712  1.00  0.00    -0.058 A  
HETATM   12  N   UNL     1      -5.291  10.267  64.642  1.00  0.00    -0.108 NA 
HETATM   13  C   UNL     1      -6.030   8.724  67.667  1.00  0.00    -0.047 A  
HETATM   14 CL   UNL     1      -8.950   9.331  64.963  1.00  0.00    -0.248 Cl 
HETATM   15  C   UNL     1      -6.690   9.114  66.497  1.00  0.00    -0.075 A  
HETATM   16  C   UNL     1      -5.935   9.752  65.458  1.00  0.00    -0.070 C  
HETATM   17  C   UNL     1      -8.063   8.881  66.377  1.00  0.00    -0.110 A  
ENDBRANCH   7   9
ENDBRANCH   3   4
ENDBRANCH   2   3
BRANCH   2  18
HETATM   18  N   UNL     1     -11.780   9.496  71.371  1.00  0.00    -0.365 N  
HETATM   19  O   UNL     1     -13.346  10.929  72.235  1.00  0.00    -0.380 OA 
HETATM   20  H   UNL     1     -11.073   9.371  70.647  1.00  0.00     0.000 HD 
HETATM   21  C   UNL     1     -12.469  10.686  71.412  1.00  0.00    -0.390 C  
BRANCH  21  22
HETATM   22  C   UNL     1     -12.085  11.642  70.370  1.00  0.00    -0.373 A  
HETATM   23  N   UNL     1     -11.522  11.288  69.197  1.00  0.00    -0.267 NA 
HETATM   24  H   UNL     1     -11.299  10.351  68.863  1.00  0.00     0.000 HD 
HETATM   25  C   UNL     1     -12.242  13.045  70.460  1.00  0.00    -0.392 A  
HETATM   26  N   UNL     1     -11.322  12.466  68.571  1.00  0.00    -0.268 NA 
HETATM   27  C   UNL     1     -11.708  13.556  69.301  1.00  0.00    -0.330 A  
BRANCH  27  28
HETATM   28  C   UNL     1     -11.559  14.949  68.813  1.00  0.00    -0.323 C  
HETATM   29  C   UNL     1     -11.842  15.078  67.320  1.00  0.00    -0.163 C  
HETATM   30  O   UNL     1     -12.480  15.741  69.553  1.00  0.00    -0.531 OA 
HETATM   31  H   UNL     1     -12.385  16.633  69.241  1.00  0.00     0.000 HD 
ENDBRANCH  27  28
ENDBRANCH  21  22
ENDBRANCH   2  18
TORSDOF 6
ENDMDL
MODEL      160
REMARK 921   NORMALIZED FREE ENERGY PREDICTED BY IDOCK:   -4.52 KCAL/MOL
REMARK 922        TOTAL FREE ENERGY PREDICTED BY IDOCK:   -7.73 KCAL/MOL
REMARK 923 INTER-LIGAND FREE ENERGY PREDICTED BY IDOCK:   -7.17 KCAL/MOL
REMARK 924 INTRA-LIGAND FREE ENERGY PREDICTED BY IDOCK:   -0.56 KCAL/MOL
REMARK 927      BINDING AFFINITY PREDICTED BY RF-SCORE:    0.00 PKD
ROOT
HETATM    1  C   UNL     1     -12.659  14.428  70.843  1.00  0.00    -0.422 C  
HETATM    2  C   UNL     1     -11.486  14.299  69.866  1.00  0.00    -0.243 C  
ENDROOT
BRANCH   2   3
HETATM    3  C   UNL     1     -11.827  13.310  68.738  1.00  0.00    -0.334 C  
BRANCH   3   4
HETATM    4  N   UNL     1     -10.773  12.336  68.517  1.00  0.00    -0.231 NA 
HETATM    5  C   UNL     1      -9.464  12.600  68.249  1.00  0.00    -0.203 A  
HETATM    6  N   UNL     1     -11.056  11.022  68.550  1.00  0.00    -0.221 NA 
HETATM    7  C   UNL     1      -9.888  10.411  68.286  1.00  0.00    -0.154 A  
HETATM    8  C   UNL     1      -8.857  11.376  68.111  1.00  0.00    -0.162 A  
BRANCH   7   9
HETATM    9  C   UNL     1      -9.793   8.949  68.190  1.00  0.00    -0.193 A  
HETATM   10  C   UNL     1      -9.132   8.216  69.189  1.00  0.00    -0.148 A  
HETATM   11  C   UNL     1     -10.371   8.251  67.121  1.00  0.00    -0.387 A  
HETATM   12  N   UNL     1      -9.615   3.545  67.866  1.00  0.00    -0.165 NA 
HETATM   13  C   UNL     1     -10.300   6.855  67.059  1.00  0.00    -0.348 A  
HETATM   14 CL   UNL     1      -8.241   5.997  70.409  1.00  0.00    -0.114 Cl 
HETATM   15  C   UNL     1      -9.651   6.131  68.065  1.00  0.00    -0.115 A  
HETATM   16  C   UNL     1      -9.618   4.700  67.973  1.00  0.00    -0.155 C  
HETATM   17  C   UNL     1      -9.063   6.818  69.129  1.00  0.00    -0.138 A  
ENDBRANCH   7   9
ENDBRANCH   3   4
ENDBRANCH   2   3
BRANCH   2  18
HETATM   18  N   UNL     1     -11.078  15.615  69.386  1.00  0.00    -0.279 N  
HETATM   19  O   UNL     1      -8.828  15.350  69.737  1.00  0.00    -0.225 OA 
HETATM   20  H   UNL     1     -11.801  16.255  69.057  1.00  0.00     0.000 HD 
HETATM   21  C   UNL     1      -9.768  16.038  69.353  1.00  0.00    -0.248 C  
BRANCH  21  22
HETATM   22  C   UNL     1      -9.586  17.399  68.839  1.00  0.00    -0.223 A  
HETATM   23  N   UNL     1     -10.397  18.431  69.143  1.00  0.00    -0.424 NA 
HETATM   24  H   UNL     1     -11.213  18.432  69.756  1.00  0.00     0.000 HD 
HETATM   25  C   UNL     1      -8.554  17.800  67.959  1.00  0.00    -0.250 A  
HETATM   26  N   UNL     1      -9.877  19.462  68.447  1.00  0.00    -0.399 NA 
HETATM   27  C   UNL     1      -8.786  19.128  67.693  1.00  0.00    -0.296 A  
BRANCH  27  28
HETATM   28  C   UNL     1      -8.069  20.102  66.833  1.00  0.00    -0.317 C  
HETATM   29  C   UNL     1      -6.782  19.529  66.250  1.00  0.00    -0.218 C  
HETATM   30  O   UNL     1      -8.963  20.455  65.784  1.00  0.00    -0.554 OA 
HETATM   31  H   UNL     1      -8.504  21.078  65.233  1.00  0.00     0.000 HD 
ENDBRANCH  27  28
ENDBRANCH  21  22
ENDBRANCH   2  18
TORSDOF 6
ENDMDL
MODEL      161
REMARK 921   NORMALIZED FREE ENERGY PREDICTED BY IDOCK:   -4.51 KCAL/MOL
REMARK 922        TOTAL FREE ENERGY PREDICTED BY IDOCK:   -7.72 KCAL/MOL
REMARK 923 INTER-LIGAND FREE ENERGY PREDICTED BY IDOCK:   -7.90 KCAL/MOL
REMARK 924 INTRA-LIGAND FREE ENERGY PREDICTED BY IDOCK:    0.18 KCAL/MOL
REMARK 927      BINDING AFFINITY PREDICTED BY RF-SCORE:    0.00 PKD
ROOT
HETATM    1  C   UNL     1     -11.196  16.306  64.772  1.00  0.00    -0.267 C  
HETATM    2  C   UNL     1     -10.688  15.829  66.137  1.00  0.00    -0.290 C  
ENDROOT
BRANCH   2   3
HETATM    3  C   UNL     1     -10.195  14.374  66.053  1.00  0.00    -0.315 C  
BRANCH   3   4
HETATM    4  N   UNL     1     -10.852  13.510  67.018  1.00  0.00    -0.280 NA 
HETATM    5  C   UNL     1     -11.870  13.852  67.855  1.00  0.00    -0.378 A  
HETATM    6  N   UNL     1     -10.448  12.236  67.162  1.00  0.00    -0.218 NA 
HETATM    7  C   UNL     1     -11.230  11.735  68.134  1.00  0.00    -0.260 A  
HETATM    8  C   UNL     1     -12.153  12.721  68.580  1.00  0.00    -0.142 A  
BRANCH   7   9
HETATM    9  C   UNL     1     -11.065  10.357  68.616  1.00  0.00    -0.313 A  
HETATM   10  C   UNL     1     -10.544   9.368  67.767  1.00  0.00    -0.317 A  
HETATM   11  C   UNL     1     -11.399  10.001  69.930  1.00  0.00    -0.306 A  
HETATM   12  N   UNL     1     -10.324   5.333  70.499  1.00  0.00    -0.268 NA 
HETATM   13  C   UNL     1     -11.206   8.692  70.385  1.00  0.00    -0.236 A  
HETATM   14 CL   UNL     1      -9.689   6.909  67.111  1.00  0.00    -0.181 Cl 
HETATM   15  C   UNL     1     -10.675   7.716  69.537  1.00  0.00    -0.211 A  
HETATM   16  C   UNL     1     -10.475   6.391  70.048  1.00  0.00    -0.215 C  
HETATM   17  C   UNL     1     -10.348   8.058  68.222  1.00  0.00    -0.197 A  
ENDBRANCH   7   9
ENDBRANCH   3   4
ENDBRANCH   2   3
BRANCH   2  18
HETATM   18  N   UNL     1      -9.689  16.755  66.659  1.00  0.00    -0.256 N  
HETATM   19  O   UNL     1     -10.544  18.652  65.696  1.00  0.00    -0.610 OA 
HETATM   20  H   UNL     1      -8.944  16.382  67.246  1.00  0.00     0.000 HD 
HETATM   21  C   UNL     1      -9.700  18.107  66.400  1.00  0.00    -0.327 C  
BRANCH  21  22
HETATM   22  C   UNL     1      -8.598  18.849  67.020  1.00  0.00    -0.289 A  
HETATM   23  N   UNL     1      -8.359  20.157  66.801  1.00  0.00    -0.387 NA 
HETATM   24  H   UNL     1      -8.885  20.805  66.214  1.00  0.00     0.000 HD 
HETATM   25  C   UNL     1      -7.647  18.296  67.908  1.00  0.00    -0.246 A  
HETATM   26  N   UNL     1      -7.260  20.409  67.542  1.00  0.00    -0.296 NA 
HETATM   27  C   UNL     1      -6.773  19.315  68.201  1.00  0.00    -0.247 A  
BRANCH  27  28
HETATM   28  C   UNL     1      -5.560  19.359  69.056  1.00  0.00    -0.203 C  
HETATM   29  C   UNL     1      -5.305  20.747  69.634  1.00  0.00    -0.409 C  
HETATM   30  O   UNL     1      -5.767  18.425  70.108  1.00  0.00    -0.239 OA 
HETATM   31  H   UNL     1      -4.991  18.454  70.654  1.00  0.00     0.000 HD 
ENDBRANCH  27  28
ENDBRANCH  21  22
ENDBRANCH   2  18
TORSDOF 6
ENDMDL
MODEL      162
REMARK 921   NORMALIZED FREE ENERGY PREDICTED BY IDOCK:   -4.50 KCAL/MOL
REMARK 922        TOTAL FREE ENERGY PREDICTED BY IDOCK:   -7.71 KCAL/MOL
REMARK 923 INTER-LIGAND FREE ENERGY PREDICTED BY IDOCK:   -6.72 KCAL/MOL
REMARK 924 INTRA-LIGAND FREE ENERGY PREDICTED BY IDOCK:   -0.98 KCAL/MOL
REMARK 927      BINDING AFFINITY PREDICTED BY RF-SCORE:    0.00 PKD
ROOT
HETATM    1  C   UNL     1     -12.576  14.443  71.263  1.00  0.00    -0.421 C  
HETATM    2  C   UNL     1     -11.853  15.148  70.110  1.00  0.00    -0.313 C  
ENDROOT
BRANCH   2   3
HETATM    3  C   UNL     1     -10.452  15.605  70.549  1.00  0.00    -0.099 C  
BRANCH   3   4
HETATM    4  N   UNL     1      -9.428  15.264  69.578  1.00  0.00    -0.230 NA 
HETATM    5  C   UNL     1      -8.620  16.133  68.910  1.00  0.00    -0.245 A  
HETATM    6  N   UNL     1      -9.219  13.979  69.245  1.00  0.00     0.296 NA 
HETATM    7  C   UNL     1      -8.243  14.015  68.322  1.00  0.00    -0.153 A  
HETATM    8  C   UNL     1      -7.826  15.358  68.101  1.00  0.00    -0.125 A  
BRANCH   7   9
HETATM    9  C   UNL     1      -7.756  12.792  67.672  1.00  0.00    -0.162 A  
HETATM   10  C   UNL     1      -8.663  11.808  67.247  1.00  0.00    -0.163 A  
HETATM   11  C   UNL     1      -6.389  12.584  67.443  1.00  0.00    -0.157 A  
HETATM   12  N   UNL     1      -5.915   8.373  65.137  1.00  0.00    -0.045 NA 
HETATM   13  C   UNL     1      -5.942  11.428  66.794  1.00  0.00    -0.143 A  
HETATM   14 CL   UNL     1      -9.405   9.499  66.096  1.00  0.00    -0.232 Cl 
HETATM   15  C   UNL     1      -6.853  10.458  66.362  1.00  0.00    -0.112 A  
HETATM   16  C   UNL     1      -6.355   9.297  65.684  1.00  0.00    -0.067 C  
HETATM   17  C   UNL     1      -8.217  10.651  66.596  1.00  0.00    -0.134 A  
ENDBRANCH   7   9
ENDBRANCH   3   4
ENDBRANCH   2   3
BRANCH   2  18
HETATM   18  N   UNL     1     -11.846  14.301  68.922  1.00  0.00    -0.325 N  
HETATM   19  O   UNL     1     -11.679  15.991  67.383  1.00  0.00     0.111 OA 
HETATM   20  H   UNL     1     -11.914  13.291  69.048  1.00  0.00     0.000 HD 
HETATM   21  C   UNL     1     -11.753  14.794  67.640  1.00  0.00    -0.341 C  
BRANCH  21  22
HETATM   22  C   UNL     1     -11.770  13.766  66.595  1.00  0.00    -0.394 A  
HETATM   23  N   UNL     1     -12.124  12.484  66.810  1.00  0.00    -0.546 NA 
HETATM   24  H   UNL     1     -12.433  12.053  67.682  1.00  0.00     0.000 HD 
HETATM   25  C   UNL     1     -11.411  13.979  65.244  1.00  0.00    -0.321 A  
HETATM   26  N   UNL     1     -11.975  11.905  65.601  1.00  0.00    -0.390 NA 
HETATM   27  C   UNL     1     -11.517  12.753  64.632  1.00  0.00    -0.324 A  
BRANCH  27  28
HETATM   28  C   UNL     1     -11.261  12.322  63.235  1.00  0.00    -0.324 C  
HETATM   29  C   UNL     1      -9.984  11.498  63.104  1.00  0.00    -0.404 C  
HETATM   30  O   UNL     1     -12.384  11.547  62.835  1.00  0.00    -0.958 OA 
HETATM   31  H   UNL     1     -12.220  11.271  61.941  1.00  0.00     0.000 HD 
ENDBRANCH  27  28
ENDBRANCH  21  22
ENDBRANCH   2  18
TORSDOF 6
ENDMDL
MODEL      163
REMARK 921   NORMALIZED FREE ENERGY PREDICTED BY IDOCK:   -4.49 KCAL/MOL
REMARK 922        TOTAL FREE ENERGY PREDICTED BY IDOCK:   -7.69 KCAL/MOL
REMARK 923 INTER-LIGAND FREE ENERGY PREDICTED BY IDOCK:   -6.62 KCAL/MOL
REMARK 924 INTRA-LIGAND FREE ENERGY PREDICTED BY IDOCK:   -1.07 KCAL/MOL
REMARK 927      BINDING AFFINITY PREDICTED BY RF-SCORE:    0.00 PKD
ROOT
HETATM    1  C   UNL     1     -10.525  20.081  67.127  1.00  0.00    -0.513 C  
HETATM    2  C   UNL     1      -9.903  19.391  65.908  1.00  0.00    -0.201 C  
ENDROOT
BRANCH   2   3
HETATM    3  C   UNL     1      -8.528  19.999  65.584  1.00  0.00     0.175 C  
BRANCH   3   4
HETATM    4  N   UNL     1      -7.432  19.120  65.953  1.00  0.00    -0.385 NA 
HETATM    5  C   UNL     1      -6.268  18.941  65.271  1.00  0.00    -0.281 A  
HETATM    6  N   UNL     1      -7.523  18.362  67.060  1.00  0.00    -0.210 NA 
HETATM    7  C   UNL     1      -6.376  17.662  67.094  1.00  0.00    -0.153 A  
HETATM    8  C   UNL     1      -5.551  18.018  65.990  1.00  0.00    -0.233 A  
BRANCH   7   9
HETATM    9  C   UNL     1      -6.111  16.675  68.148  1.00  0.00    -0.129 A  
HETATM   10  C   UNL     1      -5.847  17.096  69.461  1.00  0.00    -0.223 A  
HETATM   11  C   UNL     1      -6.136  15.300  67.880  1.00  0.00    -0.169 A  
HETATM   12  N   UNL     1      -5.305  12.984  72.030  1.00  0.00    -0.387 NA 
HETATM   13  C   UNL     1      -5.914  14.369  68.902  1.00  0.00    -0.086 A  
HETATM   14 CL   UNL     1      -5.321  16.775  72.074  1.00  0.00     0.489 Cl 
HETATM   15  C   UNL     1      -5.664  14.797  70.210  1.00  0.00    -0.139 A  
HETATM   16  C   UNL     1      -5.461  13.811  71.231  1.00  0.00    -0.210 C  
HETATM   17  C   UNL     1      -5.627  16.167  70.485  1.00  0.00    -0.104 A  
ENDBRANCH   7   9
ENDBRANCH   3   4
ENDBRANCH   2   3
BRANCH   2  18
HETATM   18  N   UNL     1      -9.871  17.946  66.104  1.00  0.00    -0.286 N  
HETATM   19  O   UNL     1     -11.300  17.406  64.395  1.00  0.00    -0.949 OA 
HETATM   20  H   UNL     1      -9.299  17.573  66.862  1.00  0.00     0.000 HD 
HETATM   21  C   UNL     1     -10.574  17.058  65.321  1.00  0.00    -0.080 C  
BRANCH  21  22
HETATM   22  C   UNL     1     -10.403  15.652  65.699  1.00  0.00    -0.385 A  
HETATM   23  N   UNL     1     -10.318  14.643  64.811  1.00  0.00    -0.504 NA 
HETATM   24  H   UNL     1     -10.344  14.695  63.792  1.00  0.00     0.000 HD 
HETATM   25  C   UNL     1     -10.316  15.176  67.027  1.00  0.00    -0.271 A  
HETATM   26  N   UNL     1     -10.190  13.546  65.585  1.00  0.00    -0.293 NA 
HETATM   27  C   UNL     1     -10.216  13.808  66.927  1.00  0.00    -0.261 A  
BRANCH  27  28
HETATM   28  C   UNL     1     -10.113  12.748  67.960  1.00  0.00    -0.230 C  
HETATM   29  C   UNL     1      -8.678  12.274  68.169  1.00  0.00    -0.186 C  
HETATM   30  O   UNL     1     -10.623  13.302  69.167  1.00  0.00    -0.414 OA 
HETATM   31  H   UNL     1     -10.557  12.624  69.827  1.00  0.00     0.000 HD 
ENDBRANCH  27  28
ENDBRANCH  21  22
ENDBRANCH   2  18
TORSDOF 6
ENDMDL
MODEL      164
REMARK 921   NORMALIZED FREE ENERGY PREDICTED BY IDOCK:   -4.48 KCAL/MOL
REMARK 922        TOTAL FREE ENERGY PREDICTED BY IDOCK:   -7.67 KCAL/MOL
REMARK 923 INTER-LIGAND FREE ENERGY PREDICTED BY IDOCK:   -7.09 KCAL/MOL
REMARK 924 INTRA-LIGAND FREE ENERGY PREDICTED BY IDOCK:   -0.58 KCAL/MOL
REMARK 927      BINDING AFFINITY PREDICTED BY RF-SCORE:    0.00 PKD
ROOT
HETATM    1  C   UNL     1      -7.476  18.605  67.529  1.00  0.00    -0.237 C  
HETATM    2  C   UNL     1      -8.492  17.738  68.280  1.00  0.00    -0.277 C  
ENDROOT
BRANCH   2   3
HETATM    3  C   UNL     1      -9.849  17.742  67.555  1.00  0.00    -0.304 C  
BRANCH   3   4
HETATM    4  N   UNL     1     -10.410  16.409  67.421  1.00  0.00    -0.290 NA 
HETATM    5  C   UNL     1     -10.723  15.772  66.259  1.00  0.00    -0.282 A  
HETATM    6  N   UNL     1     -10.690  15.685  68.519  1.00  0.00    -0.253 NA 
HETATM    7  C   UNL     1     -11.210  14.537  68.051  1.00  0.00    -0.292 A  
HETATM    8  C   UNL     1     -11.227  14.549  66.628  1.00  0.00    -0.346 A  
BRANCH   7   9
HETATM    9  C   UNL     1     -11.686  13.486  68.959  1.00  0.00    -0.370 A  
HETATM   10  C   UNL     1     -11.440  12.135  68.668  1.00  0.00    -0.347 A  
HETATM   11  C   UNL     1     -12.374  13.801  70.139  1.00  0.00    -0.390 A  
HETATM   12  N   UNL     1     -13.326   9.662  72.427  1.00  0.00    -0.401 NA 
HETATM   13  C   UNL     1     -12.794  12.790  71.011  1.00  0.00    -0.262 A  
HETATM   14 CL   UNL     1     -11.502   9.487  69.109  1.00  0.00     0.097 Cl 
HETATM   15  C   UNL     1     -12.534  11.447  70.720  1.00  0.00    -0.460 A  
HETATM   16  C   UNL     1     -12.965  10.444  71.649  1.00  0.00    -0.475 C  
HETATM   17  C   UNL     1     -11.858  11.123  69.541  1.00  0.00    -0.353 A  
ENDBRANCH   7   9
ENDBRANCH   3   4
ENDBRANCH   2   3
BRANCH   2  18
HETATM   18  N   UNL     1      -7.952  16.400  68.502  1.00  0.00    -0.192 N  
HETATM   19  O   UNL     1      -7.006  16.140  66.430  1.00  0.00    -0.119 OA 
HETATM   20  H   UNL     1      -8.112  15.959  69.407  1.00  0.00     0.000 HD 
HETATM   21  C   UNL     1      -7.240  15.703  67.553  1.00  0.00    -0.191 C  
BRANCH  21  22
HETATM   22  C   UNL     1      -6.798  14.374  67.985  1.00  0.00    -0.143 A  
HETATM   23  N   UNL     1      -6.296  13.442  67.151  1.00  0.00    -0.442 NA 
HETATM   24  H   UNL     1      -6.141  13.515  66.145  1.00  0.00     0.000 HD 
HETATM   25  C   UNL     1      -6.848  13.897  69.315  1.00  0.00    -0.094 A  
HETATM   26  N   UNL     1      -6.048  12.391  67.959  1.00  0.00    -0.066 NA 
HETATM   27  C   UNL     1      -6.392  12.601  69.265  1.00  0.00    -0.109 A  
BRANCH  27  28
HETATM   28  C   UNL     1      -6.225  11.572  70.321  1.00  0.00    -0.089 C  
HETATM   29  C   UNL     1      -5.444  10.356  69.832  1.00  0.00    -0.041 C  
HETATM   30  O   UNL     1      -5.531  12.196  71.394  1.00  0.00    -0.361 OA 
HETATM   31  H   UNL     1      -5.424  11.537  72.069  1.00  0.00     0.000 HD 
ENDBRANCH  27  28
ENDBRANCH  21  22
ENDBRANCH   2  18
TORSDOF 6
ENDMDL
MODEL      165
REMARK 921   NORMALIZED FREE ENERGY PREDICTED BY IDOCK:   -4.47 KCAL/MOL
REMARK 922        TOTAL FREE ENERGY PREDICTED BY IDOCK:   -7.66 KCAL/MOL
REMARK 923 INTER-LIGAND FREE ENERGY PREDICTED BY IDOCK:   -6.32 KCAL/MOL
REMARK 924 INTRA-LIGAND FREE ENERGY PREDICTED BY IDOCK:   -1.34 KCAL/MOL
REMARK 927      BINDING AFFINITY PREDICTED BY RF-SCORE:    0.00 PKD
ROOT
HETATM    1  C   UNL     1     -11.732   6.887  70.163  1.00  0.00    -0.306 C  
HETATM    2  C   UNL     1     -10.470   6.642  69.329  1.00  0.00    -0.214 C  
ENDROOT
BRANCH   2   3
HETATM    3  C   UNL     1     -10.805   6.642  67.828  1.00  0.00    -0.294 C  
BRANCH   3   4
HETATM    4  N   UNL     1     -10.350   7.847  67.158  1.00  0.00    -0.299 NA 
HETATM    5  C   UNL     1      -9.466   7.919  66.124  1.00  0.00    -0.088 A  
HETATM    6  N   UNL     1     -10.793   9.049  67.565  1.00  0.00    -0.163 NA 
HETATM    7  C   UNL     1     -10.169   9.934  66.768  1.00  0.00    -0.236 A  
HETATM    8  C   UNL     1      -9.339   9.254  65.834  1.00  0.00    -0.297 A  
BRANCH   7   9
HETATM    9  C   UNL     1     -10.363  11.381  66.931  1.00  0.00    -0.262 A  
HETATM   10  C   UNL     1     -10.754  11.907  68.173  1.00  0.00    -0.246 A  
HETATM   11  C   UNL     1     -10.145  12.268  65.868  1.00  0.00    -0.272 A  
HETATM   12  N   UNL     1     -10.904  16.739  67.515  1.00  0.00    -0.270 NA 
HETATM   13  C   UNL     1     -10.302  13.647  66.046  1.00  0.00    -0.305 A  
HETATM   14 CL   UNL     1     -11.380  13.847  69.919  1.00  0.00    -0.227 Cl 
HETATM   15  C   UNL     1     -10.680  14.164  67.290  1.00  0.00    -0.279 A  
HETATM   16  C   UNL     1     -10.811  15.585  67.435  1.00  0.00    -0.312 C  
HETATM   17  C   UNL     1     -10.909  13.287  68.353  1.00  0.00    -0.258 A  
ENDBRANCH   7   9
ENDBRANCH   3   4
ENDBRANCH   2   3
BRANCH   2  18
HETATM   18  N   UNL     1      -9.427   7.594  69.695  1.00  0.00    -0.157 N  
HETATM   19  O   UNL     1      -9.002   6.746  71.781  1.00  0.00    -0.140 OA 
HETATM   20  H   UNL     1      -9.176   8.317  69.022  1.00  0.00     0.000 HD 
HETATM   21  C   UNL     1      -8.765   7.567  70.901  1.00  0.00    -0.142 C  
BRANCH  21  22
HETATM   22  C   UNL     1      -7.758   8.620  71.061  1.00  0.00    -0.108 A  
HETATM   23  N   UNL     1      -7.043   8.809  72.188  1.00  0.00    -0.287 NA 
HETATM   24  H   UNL     1      -7.077   8.271  73.053  1.00  0.00     0.000 HD 
HETATM   25  C   UNL     1      -7.418   9.572  70.072  1.00  0.00    -0.126 A  
HETATM   26  N   UNL     1      -6.272   9.878  71.901  1.00  0.00    -0.255 NA 
HETATM   27  C   UNL     1      -6.482  10.395  70.653  1.00  0.00    -0.032 A  
BRANCH  27  28
HETATM   28  C   UNL     1      -5.758  11.584  70.138  1.00  0.00    -0.137 C  
HETATM   29  C   UNL     1      -6.152  11.931  68.706  1.00  0.00    -0.055 C  
HETATM   30  O   UNL     1      -6.078  12.664  71.006  1.00  0.00    -0.547 OA 
HETATM   31  H   UNL     1      -5.614  13.424  70.676  1.00  0.00     0.000 HD 
ENDBRANCH  27  28
ENDBRANCH  21  22
ENDBRANCH   2  18
TORSDOF 6
ENDMDL
MODEL      166
REMARK 921   NORMALIZED FREE ENERGY PREDICTED BY IDOCK:   -4.45 KCAL/MOL
REMARK 922        TOTAL FREE ENERGY PREDICTED BY IDOCK:   -7.64 KCAL/MOL
REMARK 923 INTER-LIGAND FREE ENERGY PREDICTED BY IDOCK:   -6.75 KCAL/MOL
REMARK 924 INTRA-LIGAND FREE ENERGY PREDICTED BY IDOCK:   -0.89 KCAL/MOL
REMARK 927      BINDING AFFINITY PREDICTED BY RF-SCORE:    0.00 PKD
ROOT
HETATM    1  C   UNL     1     -11.302   7.599  72.408  1.00  0.00    -0.381 C  
HETATM    2  C   UNL     1     -10.629   8.076  71.117  1.00  0.00    -0.203 C  
ENDROOT
BRANCH   2   3
HETATM    3  C   UNL     1      -9.413   8.963  71.436  1.00  0.00    -0.274 C  
BRANCH   3   4
HETATM    4  N   UNL     1      -9.052   9.828  70.326  1.00  0.00    -0.217 NA 
HETATM    5  C   UNL     1      -7.792  10.142  69.917  1.00  0.00    -0.151 A  
HETATM    6  N   UNL     1     -10.013  10.426  69.601  1.00  0.00    -0.211 NA 
HETATM    7  C   UNL     1      -9.350  11.161  68.691  1.00  0.00    -0.184 A  
HETATM    8  C   UNL     1      -7.947  10.989  68.848  1.00  0.00    -0.138 A  
BRANCH   7   9
HETATM    9  C   UNL     1     -10.062  12.008  67.725  1.00  0.00    -0.199 A  
HETATM   10  C   UNL     1      -9.514  13.235  67.322  1.00  0.00    -0.233 A  
HETATM   11  C   UNL     1     -11.286  11.608  67.170  1.00  0.00    -0.371 A  
HETATM   12  N   UNL     1     -12.655  15.012  64.038  1.00  0.00    -0.754 NA 
HETATM   13  C   UNL     1     -11.938  12.410  66.227  1.00  0.00    -0.369 A  
HETATM   14 CL   UNL     1      -9.410  15.528  65.929  1.00  0.00    -0.378 Cl 
HETATM   15  C   UNL     1     -11.378  13.626  65.821  1.00  0.00    -0.315 A  
HETATM   16  C   UNL     1     -12.069  14.409  64.838  1.00  0.00    -0.436 C  
HETATM   17  C   UNL     1     -10.164  14.038  66.376  1.00  0.00    -0.291 A  
ENDBRANCH   7   9
ENDBRANCH   3   4
ENDBRANCH   2   3
BRANCH   2  18
HETATM   18  N   UNL     1     -10.314   6.939  70.258  1.00  0.00    -0.196 N  
HETATM   19  O   UNL     1     -11.126   7.834  68.310  1.00  0.00     0.105 OA 
HETATM   20  H   UNL     1      -9.871   6.124  70.680  1.00  0.00     0.000 HD 
HETATM   21  C   UNL     1     -10.585   6.910  68.909  1.00  0.00    -0.221 C  
BRANCH  21  22
HETATM   22  C   UNL     1     -10.191   5.667  68.240  1.00  0.00    -0.186 A  
HETATM   23  N   UNL     1     -10.247   5.482  66.907  1.00  0.00    -0.206 NA 
HETATM   24  H   UNL     1     -10.544   6.145  66.191  1.00  0.00     0.000 HD 
HETATM   25  C   UNL     1      -9.716   4.509  68.899  1.00  0.00    -0.224 A  
HETATM   26  N   UNL     1      -9.820   4.213  66.742  1.00  0.00    -0.214 NA 
HETATM   27  C   UNL     1      -9.518   3.572  67.912  1.00  0.00    -0.165 A  
BRANCH  27  28
HETATM   28  C   UNL     1      -9.051   2.165  67.966  1.00  0.00    -0.178 C  
HETATM   29  C   UNL     1      -8.617   1.642  66.601  1.00  0.00    -0.109 C  
HETATM   30  O   UNL     1      -7.953   2.134  68.870  1.00  0.00    -0.051 OA 
HETATM   31  H   UNL     1      -7.654   1.234  68.904  1.00  0.00     0.000 HD 
ENDBRANCH  27  28
ENDBRANCH  21  22
ENDBRANCH   2  18
TORSDOF 6
ENDMDL
MODEL      167
REMARK 921   NORMALIZED FREE ENERGY PREDICTED BY IDOCK:   -4.41 KCAL/MOL
REMARK 922        TOTAL FREE ENERGY PREDICTED BY IDOCK:   -7.58 KCAL/MOL
REMARK 923 INTER-LIGAND FREE ENERGY PREDICTED BY IDOCK:   -6.24 KCAL/MOL
REMARK 924 INTRA-LIGAND FREE ENERGY PREDICTED BY IDOCK:   -1.34 KCAL/MOL
REMARK 927      BINDING AFFINITY PREDICTED BY RF-SCORE:    0.00 PKD
ROOT
HETATM    1  C   UNL     1      -9.571  15.915  69.121  1.00  0.00    -0.253 C  
HETATM    2  C   UNL     1      -9.925  14.791  68.141  1.00  0.00    -0.221 C  
ENDROOT
BRANCH   2   3
HETATM    3  C   UNL     1      -8.848  14.663  67.050  1.00  0.00    -0.241 C  
BRANCH   3   4
HETATM    4  N   UNL     1      -7.984  13.514  67.256  1.00  0.00    -0.148 NA 
HETATM    5  C   UNL     1      -6.759  13.514  67.850  1.00  0.00    -0.150 A  
HETATM    6  N   UNL     1      -8.366  12.301  66.822  1.00  0.00    -0.136 NA 
HETATM    7  C   UNL     1      -7.348  11.484  67.142  1.00  0.00    -0.139 A  
HETATM    8  C   UNL     1      -6.325  12.212  67.810  1.00  0.00    -0.092 A  
BRANCH   7   9
HETATM    9  C   UNL     1      -7.369  10.059  66.788  1.00  0.00    -0.095 A  
HETATM   10  C   UNL     1      -7.525   9.084  67.787  1.00  0.00    -0.085 A  
HETATM   11  C   UNL     1      -7.258   9.638  65.456  1.00  0.00    -0.098 A  
HETATM   12  N   UNL     1      -7.605   4.826  65.407  1.00  0.00    -0.081 NA 
HETATM   13  C   UNL     1      -7.312   8.278  65.130  1.00  0.00    -0.081 A  
HETATM   14 CL   UNL     1      -7.789   6.594  68.755  1.00  0.00    -0.109 Cl 
HETATM   15  C   UNL     1      -7.480   7.314  66.130  1.00  0.00    -0.083 A  
HETATM   16  C   UNL     1      -7.550   5.933  65.752  1.00  0.00    -0.087 C  
HETATM   17  C   UNL     1      -7.582   7.723  67.462  1.00  0.00    -0.109 A  
ENDBRANCH   7   9
ENDBRANCH   3   4
ENDBRANCH   2   3
BRANCH   2  18
HETATM   18  N   UNL     1     -10.175  13.548  68.863  1.00  0.00    -0.420 N  
HETATM   19  O   UNL     1     -12.061  12.938  67.712  1.00  0.00    -0.312 OA 
HETATM   20  H   UNL     1      -9.536  13.288  69.613  1.00  0.00     0.000 HD 
HETATM   21  C   UNL     1     -11.230  12.709  68.585  1.00  0.00    -0.282 C  
BRANCH  21  22
HETATM   22  C   UNL     1     -11.295  11.518  69.438  1.00  0.00    -0.289 A  
HETATM   23  N   UNL     1     -10.244  10.712  69.682  1.00  0.00    -0.407 NA 
HETATM   24  H   UNL     1      -9.287  10.804  69.342  1.00  0.00     0.000 HD 
HETATM   25  C   UNL     1     -12.458  11.059  70.099  1.00  0.00    -0.344 A  
HETATM   26  N   UNL     1     -10.756   9.753  70.480  1.00  0.00    -0.297 NA 
HETATM   27  C   UNL     1     -12.091   9.897  70.735  1.00  0.00    -0.308 A  
BRANCH  27  28
HETATM   28  C   UNL     1     -12.862   8.945  71.573  1.00  0.00    -0.334 C  
HETATM   29  C   UNL     1     -11.967   7.925  72.270  1.00  0.00    -0.387 C  
HETATM   30  O   UNL     1     -13.559   9.722  72.539  1.00  0.00    -0.656 OA 
HETATM   31  H   UNL     1     -14.051   9.112  73.075  1.00  0.00     0.000 HD 
ENDBRANCH  27  28
ENDBRANCH  21  22
ENDBRANCH   2  18
TORSDOF 6
ENDMDL
MODEL      168
REMARK 921   NORMALIZED FREE ENERGY PREDICTED BY IDOCK:   -4.40 KCAL/MOL
REMARK 922        TOTAL FREE ENERGY PREDICTED BY IDOCK:   -7.57 KCAL/MOL
REMARK 923 INTER-LIGAND FREE ENERGY PREDICTED BY IDOCK:   -7.13 KCAL/MOL
REMARK 924 INTRA-LIGAND FREE ENERGY PREDICTED BY IDOCK:   -0.44 KCAL/MOL
REMARK 927      BINDING AFFINITY PREDICTED BY RF-SCORE:    0.00 PKD
ROOT
HETATM    1  C   UNL     1     -10.477  11.019  63.945  1.00  0.00    -0.422 C  
HETATM    2  C   UNL     1     -10.042  10.693  65.378  1.00  0.00    -0.291 C  
ENDROOT
BRANCH   2   3
HETATM    3  C   UNL     1     -10.949  11.408  66.395  1.00  0.00    -0.260 C  
BRANCH   3   4
HETATM    4  N   UNL     1     -11.126  12.816  66.086  1.00  0.00    -0.282 NA 
HETATM    5  C   UNL     1     -12.184  13.380  65.442  1.00  0.00    -0.452 A  
HETATM    6  N   UNL     1     -10.175  13.703  66.426  1.00  0.00    -0.285 NA 
HETATM    7  C   UNL     1     -10.632  14.886  65.981  1.00  0.00    -0.315 A  
HETATM    8  C   UNL     1     -11.907  14.722  65.373  1.00  0.00    -0.249 A  
BRANCH   7   9
HETATM    9  C   UNL     1      -9.843  16.116  66.128  1.00  0.00    -0.358 A  
HETATM   10  C   UNL     1      -8.443  16.053  66.219  1.00  0.00    -0.337 A  
HETATM   11  C   UNL     1     -10.458  17.375  66.161  1.00  0.00    -0.284 A  
HETATM   12  N   UNL     1      -6.976  20.696  66.506  1.00  0.00    -0.252 NA 
HETATM   13  C   UNL     1      -9.692  18.541  66.270  1.00  0.00    -0.315 A  
HETATM   14 CL   UNL     1      -5.957  17.046  66.418  1.00  0.00    -0.184 Cl 
HETATM   15  C   UNL     1      -8.297  18.469  66.346  1.00  0.00    -0.278 A  
HETATM   16  C   UNL     1      -7.548  19.689  66.437  1.00  0.00    -0.291 C  
HETATM   17  C   UNL     1      -7.675  17.218  66.325  1.00  0.00    -0.318 A  
ENDBRANCH   7   9
ENDBRANCH   3   4
ENDBRANCH   2   3
BRANCH   2  18
HETATM   18  N   UNL     1      -9.974   9.248  65.571  1.00  0.00    -0.412 N  
HETATM   19  O   UNL     1      -8.385   9.268  67.223  1.00  0.00    -0.123 OA 
HETATM   20  H   UNL     1     -10.569   8.655  64.994  1.00  0.00     0.000 HD 
HETATM   21  C   UNL     1      -9.147   8.645  66.491  1.00  0.00    -0.165 C  
BRANCH  21  22
HETATM   22  C   UNL     1      -9.234   7.182  66.513  1.00  0.00    -0.162 A  
HETATM   23  N   UNL     1      -9.958   6.486  67.412  1.00  0.00    -0.133 NA 
HETATM   24  H   UNL     1     -10.538   6.848  68.169  1.00  0.00     0.000 HD 
HETATM   25  C   UNL     1      -8.570   6.318  65.611  1.00  0.00    -0.143 A  
HETATM   26  N   UNL     1      -9.734   5.200  67.076  1.00  0.00    -0.146 NA 
HETATM   27  C   UNL     1      -8.880   5.042  66.020  1.00  0.00    -0.130 A  
BRANCH  27  28
HETATM   28  C   UNL     1      -8.478   3.713  65.496  1.00  0.00    -0.110 C  
HETATM   29  C   UNL     1      -7.497   2.996  66.418  1.00  0.00    -0.076 C  
HETATM   30  O   UNL     1      -9.670   2.949  65.365  1.00  0.00    -0.357 OA 
HETATM   31  H   UNL     1      -9.413   2.098  65.030  1.00  0.00     0.000 HD 
ENDBRANCH  27  28
ENDBRANCH  21  22
ENDBRANCH   2  18
TORSDOF 6
ENDMDL
MODEL      169
REMARK 921   NORMALIZED FREE ENERGY PREDICTED BY IDOCK:   -4.35 KCAL/MOL
REMARK 922        TOTAL FREE ENERGY PREDICTED BY IDOCK:   -7.50 KCAL/MOL
REMARK 923 INTER-LIGAND FREE ENERGY PREDICTED BY IDOCK:   -6.28 KCAL/MOL
REMARK 924 INTRA-LIGAND FREE ENERGY PREDICTED BY IDOCK:   -1.22 KCAL/MOL
REMARK 927      BINDING AFFINITY PREDICTED BY RF-SCORE:    0.00 PKD
ROOT
HETATM    1  C   UNL     1     -10.424  17.735  68.651  1.00  0.00    -0.295 C  
HETATM    2  C   UNL     1      -9.310  16.981  67.919  1.00  0.00    -0.240 C  
ENDROOT
BRANCH   2   3
HETATM    3  C   UNL     1      -8.111  16.745  68.853  1.00  0.00    -0.230 C  
BRANCH   3   4
HETATM    4  N   UNL     1      -7.464  15.467  68.612  1.00  0.00    -0.123 NA 
HETATM    5  C   UNL     1      -6.193  15.270  68.166  1.00  0.00    -0.130 A  
HETATM    6  N   UNL     1      -8.141  14.323  68.814  1.00  0.00    -0.134 NA 
HETATM    7  C   UNL     1      -7.278  13.348  68.480  1.00  0.00    -0.110 A  
HETATM    8  C   UNL     1      -6.032  13.909  68.085  1.00  0.00    -0.125 A  
BRANCH   7   9
HETATM    9  C   UNL     1      -7.666  11.933  68.526  1.00  0.00    -0.135 A  
HETATM   10  C   UNL     1      -9.023  11.571  68.554  1.00  0.00    -0.146 A  
HETATM   11  C   UNL     1      -6.704  10.914  68.521  1.00  0.00    -0.057 A  
HETATM   12  N   UNL     1      -9.040   6.693  68.530  1.00  0.00    -0.129 NA 
HETATM   13  C   UNL     1      -7.089   9.568  68.532  1.00  0.00    -0.070 A  
HETATM   14 CL   UNL     1     -11.102   9.873  68.586  1.00  0.00    -0.219 Cl 
HETATM   15  C   UNL     1      -8.442   9.217  68.548  1.00  0.00    -0.123 A  
HETATM   16  C   UNL     1      -8.795   7.827  68.540  1.00  0.00    -0.130 C  
HETATM   17  C   UNL     1      -9.410  10.226  68.563  1.00  0.00    -0.155 A  
ENDBRANCH   7   9
ENDBRANCH   3   4
ENDBRANCH   2   3
BRANCH   2  18
HETATM   18  N   UNL     1      -9.833  15.758  67.319  1.00  0.00    -0.228 N  
HETATM   19  O   UNL     1     -10.171  16.605  65.217  1.00  0.00    -0.600 OA 
HETATM   20  H   UNL     1      -9.917  14.929  67.908  1.00  0.00     0.000 HD 
HETATM   21  C   UNL     1     -10.220  15.664  66.002  1.00  0.00    -0.335 C  
BRANCH  21  22
HETATM   22  C   UNL     1     -10.723  14.343  65.612  1.00  0.00    -0.320 A  
HETATM   23  N   UNL     1     -11.850  13.794  66.105  1.00  0.00    -0.376 NA 
HETATM   24  H   UNL     1     -12.503  14.193  66.780  1.00  0.00     0.000 HD 
HETATM   25  C   UNL     1     -10.093  13.478  64.688  1.00  0.00    -0.246 A  
HETATM   26  N   UNL     1     -11.911  12.591  65.498  1.00  0.00    -0.452 NA 
HETATM   27  C   UNL     1     -10.861  12.339  64.659  1.00  0.00    -0.308 A  
BRANCH  27  28
HETATM   28  C   UNL     1     -10.716  11.069  63.905  1.00  0.00    -0.240 C  
HETATM   29  C   UNL     1      -9.717  11.182  62.758  1.00  0.00    -0.298 C  
HETATM   30  O   UNL     1     -10.276  10.089  64.837  1.00  0.00    -0.321 OA 
HETATM   31  H   UNL     1     -10.183   9.276  64.355  1.00  0.00     0.000 HD 
ENDBRANCH  27  28
ENDBRANCH  21  22
ENDBRANCH   2  18
TORSDOF 6
ENDMDL
MODEL      170
REMARK 921   NORMALIZED FREE ENERGY PREDICTED BY IDOCK:   -4.35 KCAL/MOL
REMARK 922        TOTAL FREE ENERGY PREDICTED BY IDOCK:   -7.49 KCAL/MOL
REMARK 923 INTER-LIGAND FREE ENERGY PREDICTED BY IDOCK:   -6.82 KCAL/MOL
REMARK 924 INTRA-LIGAND FREE ENERGY PREDICTED BY IDOCK:   -0.67 KCAL/MOL
REMARK 927      BINDING AFFINITY PREDICTED BY RF-SCORE:    0.00 PKD
ROOT
HETATM    1  C   UNL     1     -12.143   9.242  71.047  1.00  0.00    -0.349 C  
HETATM    2  C   UNL     1     -11.104   8.641  70.094  1.00  0.00    -0.192 C  
ENDROOT
BRANCH   2   3
HETATM    3  C   UNL     1      -9.965   9.642  69.835  1.00  0.00    -0.241 C  
BRANCH   3   4
HETATM    4  N   UNL     1     -10.268  10.558  68.750  1.00  0.00    -0.180 NA 
HETATM    5  C   UNL     1     -10.648  10.225  67.486  1.00  0.00    -0.268 A  
HETATM    6  N   UNL     1     -10.163  11.885  68.943  1.00  0.00    -0.134 NA 
HETATM    7  C   UNL     1     -10.482  12.431  67.757  1.00  0.00    -0.218 A  
HETATM    8  C   UNL     1     -10.813  11.413  66.820  1.00  0.00    -0.336 A  
BRANCH   7   9
HETATM    9  C   UNL     1     -10.442  13.884  67.548  1.00  0.00    -0.248 A  
HETATM   10  C   UNL     1     -10.821  14.432  66.313  1.00  0.00    -0.313 A  
HETATM   11  C   UNL     1     -10.050  14.756  68.573  1.00  0.00    -0.230 A  
HETATM   12  N   UNL     1     -10.433  19.261  66.890  1.00  0.00    -0.420 NA 
HETATM   13  C   UNL     1     -10.048  16.141  68.371  1.00  0.00    -0.236 A  
HETATM   14 CL   UNL     1     -11.315  16.404  64.560  1.00  0.00    -0.321 Cl 
HETATM   15  C   UNL     1     -10.439  16.679  67.140  1.00  0.00    -0.300 A  
HETATM   16  C   UNL     1     -10.441  18.104  66.980  1.00  0.00    -0.370 C  
HETATM   17  C   UNL     1     -10.822  15.818  66.109  1.00  0.00    -0.240 A  
ENDBRANCH   7   9
ENDBRANCH   3   4
ENDBRANCH   2   3
BRANCH   2  18
HETATM   18  N   UNL     1     -10.645   7.349  70.593  1.00  0.00    -0.220 N  
HETATM   19  O   UNL     1     -11.360   6.098  68.810  1.00  0.00    -0.344 OA 
HETATM   20  H   UNL     1     -10.181   7.318  71.500  1.00  0.00     0.000 HD 
HETATM   21  C   UNL     1     -10.805   6.169  69.902  1.00  0.00    -0.353 C  
BRANCH  21  22
HETATM   22  C   UNL     1     -10.275   4.989  70.591  1.00  0.00    -0.235 A  
HETATM   23  N   UNL     1      -9.591   4.005  69.975  1.00  0.00    -0.195 NA 
HETATM   24  H   UNL     1      -9.336   3.937  68.989  1.00  0.00     0.000 HD 
HETATM   25  C   UNL     1     -10.419   4.726  71.973  1.00  0.00    -0.225 A  
HETATM   26  N   UNL     1      -9.323   3.133  70.967  1.00  0.00    -0.132 NA 
HETATM   27  C   UNL     1      -9.827   3.503  72.184  1.00  0.00    -0.168 A  
BRANCH  27  28
HETATM   28  C   UNL     1      -9.668   2.681  73.409  1.00  0.00    -0.097 C  
HETATM   29  C   UNL     1      -8.608   3.240  74.353  1.00  0.00    -0.079 C  
HETATM   30  O   UNL     1     -10.934   2.663  74.055  1.00  0.00    -0.182 OA 
HETATM   31  H   UNL     1     -10.832   2.137  74.839  1.00  0.00     0.000 HD 
ENDBRANCH  27  28
ENDBRANCH  21  22
ENDBRANCH   2  18
TORSDOF 6
ENDMDL
MODEL      171
REMARK 921   NORMALIZED FREE ENERGY PREDICTED BY IDOCK:   -4.33 KCAL/MOL
REMARK 922        TOTAL FREE ENERGY PREDICTED BY IDOCK:   -7.47 KCAL/MOL
REMARK 923 INTER-LIGAND FREE ENERGY PREDICTED BY IDOCK:   -6.12 KCAL/MOL
REMARK 924 INTRA-LIGAND FREE ENERGY PREDICTED BY IDOCK:   -1.35 KCAL/MOL
REMARK 927      BINDING AFFINITY PREDICTED BY RF-SCORE:    0.00 PKD
ROOT
HETATM    1  C   UNL     1     -11.600  11.898  65.856  1.00  0.00    -0.291 C  
HETATM    2  C   UNL     1     -10.227  11.340  66.249  1.00  0.00    -0.236 C  
ENDROOT
BRANCH   2   3
HETATM    3  C   UNL     1      -9.697  12.045  67.509  1.00  0.00    -0.187 C  
BRANCH   3   4
HETATM    4  N   UNL     1      -9.104  11.117  68.455  1.00  0.00    -0.171 NA 
HETATM    5  C   UNL     1      -7.781  10.986  68.746  1.00  0.00    -0.135 A  
HETATM    6  N   UNL     1      -9.886  10.259  69.133  1.00  0.00    -0.205 NA 
HETATM    7  C   UNL     1      -9.037   9.540  69.887  1.00  0.00    -0.216 A  
HETATM    8  C   UNL     1      -7.701   9.986  69.683  1.00  0.00    -0.158 A  
BRANCH   7   9
HETATM    9  C   UNL     1      -9.512   8.453  70.752  1.00  0.00    -0.199 A  
HETATM   10  C   UNL     1      -9.388   7.116  70.342  1.00  0.00    -0.159 A  
HETATM   11  C   UNL     1     -10.078   8.716  72.007  1.00  0.00    -0.401 A  
HETATM   12  N   UNL     1     -11.135   4.478  74.055  1.00  0.00    -0.264 NA 
HETATM   13  C   UNL     1     -10.498   7.669  72.835  1.00  0.00    -0.394 A  
HETATM   14 CL   UNL     1      -9.602   4.452  70.588  1.00  0.00    -0.246 Cl 
HETATM   15  C   UNL     1     -10.359   6.339  72.424  1.00  0.00    -0.215 A  
HETATM   16  C   UNL     1     -10.784   5.295  73.310  1.00  0.00    -0.277 C  
HETATM   17  C   UNL     1      -9.805   6.067  71.170  1.00  0.00    -0.179 A  
ENDBRANCH   7   9
ENDBRANCH   3   4
ENDBRANCH   2   3
BRANCH   2  18
HETATM   18  N   UNL     1     -10.287   9.887  66.373  1.00  0.00    -0.208 N  
HETATM   19  O   UNL     1      -8.391   9.431  65.168  1.00  0.00    -0.130 OA 
HETATM   20  H   UNL     1     -11.062   9.478  66.895  1.00  0.00     0.000 HD 
HETATM   21  C   UNL     1      -9.352   9.040  65.823  1.00  0.00    -0.236 C  
BRANCH  21  22
HETATM   22  C   UNL     1      -9.609   7.618  66.066  1.00  0.00     0.089 A  
HETATM   23  N   UNL     1     -10.741   7.144  66.621  1.00  0.00    -0.517 NA 
HETATM   24  H   UNL     1     -11.559   7.670  66.931  1.00  0.00     0.000 HD 
HETATM   25  C   UNL     1      -8.709   6.569  65.762  1.00  0.00    -0.129 A  
HETATM   26  N   UNL     1     -10.539   5.811  66.671  1.00  0.00    -0.287 NA 
HETATM   27  C   UNL     1      -9.319   5.417  66.197  1.00  0.00    -0.157 A  
BRANCH  27  28
HETATM   28  C   UNL     1      -8.879   4.000  66.178  1.00  0.00    -0.120 C  
HETATM   29  C   UNL     1      -8.277   3.558  67.508  1.00  0.00    -0.090 C  
HETATM   30  O   UNL     1     -10.030   3.219  65.883  1.00  0.00    -0.399 OA 
HETATM   31  H   UNL     1      -9.749   2.312  65.871  1.00  0.00     0.000 HD 
ENDBRANCH  27  28
ENDBRANCH  21  22
ENDBRANCH   2  18
TORSDOF 6
ENDMDL
MODEL      172
REMARK 921   NORMALIZED FREE ENERGY PREDICTED BY IDOCK:   -4.32 KCAL/MOL
REMARK 922        TOTAL FREE ENERGY PREDICTED BY IDOCK:   -7.46 KCAL/MOL
REMARK 923 INTER-LIGAND FREE ENERGY PREDICTED BY IDOCK:   -6.39 KCAL/MOL
REMARK 924 INTRA-LIGAND FREE ENERGY PREDICTED BY IDOCK:   -1.06 KCAL/MOL
REMARK 927      BINDING AFFINITY PREDICTED BY RF-SCORE:    0.00 PKD
ROOT
HETATM    1  C   UNL     1      -7.474   6.438  74.222  1.00  0.00    -0.091 C  
HETATM    2  C   UNL     1      -8.552   6.537  73.138  1.00  0.00    -0.121 C  
ENDROOT
BRANCH   2   3
HETATM    3  C   UNL     1      -9.861   7.092  73.724  1.00  0.00    -0.313 C  
BRANCH   3   4
HETATM    4  N   UNL     1     -10.767   7.575  72.697  1.00  0.00    -0.273 NA 
HETATM    5  C   UNL     1     -11.841   6.914  72.184  1.00  0.00    -0.281 A  
HETATM    6  N   UNL     1     -10.570   8.784  72.142  1.00  0.00    -0.343 NA 
HETATM    7  C   UNL     1     -11.550   8.908  71.230  1.00  0.00    -0.304 A  
HETATM    8  C   UNL     1     -12.383   7.755  71.244  1.00  0.00    -0.314 A  
BRANCH   7   9
HETATM    9  C   UNL     1     -11.650  10.095  70.371  1.00  0.00    -0.396 A  
HETATM   10  C   UNL     1     -12.113  11.311  70.896  1.00  0.00    -0.406 A  
HETATM   11  C   UNL     1     -11.270  10.051  69.022  1.00  0.00    -0.180 A  
HETATM   12  N   UNL     1     -11.845  14.479  67.195  1.00  0.00    -0.402 NA 
HETATM   13  C   UNL     1     -11.341  11.197  68.223  1.00  0.00    -0.365 A  
HETATM   14 CL   UNL     1     -12.753  13.918  70.832  1.00  0.00    -0.414 Cl 
HETATM   15  C   UNL     1     -11.792  12.409  68.758  1.00  0.00    -0.358 A  
HETATM   16  C   UNL     1     -11.831  13.565  67.910  1.00  0.00    -0.362 C  
HETATM   17  C   UNL     1     -12.182  12.460  70.099  1.00  0.00    -0.229 A  
ENDBRANCH   7   9
ENDBRANCH   3   4
ENDBRANCH   2   3
BRANCH   2  18
HETATM   18  N   UNL     1      -8.055   7.296  71.995  1.00  0.00    -0.094 N  
HETATM   19  O   UNL     1      -6.943   8.901  73.196  1.00  0.00    -0.333 OA 
HETATM   20  H   UNL     1      -8.297   6.973  71.058  1.00  0.00     0.000 HD 
HETATM   21  C   UNL     1      -7.277   8.425  72.115  1.00  0.00    -0.095 C  
BRANCH  21  22
HETATM   22  C   UNL     1      -6.894   9.034  70.838  1.00  0.00    -0.088 A  
HETATM   23  N   UNL     1      -5.706   8.831  70.237  1.00  0.00    -0.027 NA 
HETATM   24  H   UNL     1      -4.933   8.244  70.551  1.00  0.00     0.000 HD 
HETATM   25  C   UNL     1      -7.707   9.911  70.084  1.00  0.00    -0.188 A  
HETATM   26  N   UNL     1      -5.778   9.587  69.123  1.00  0.00    -0.036 NA 
HETATM   27  C   UNL     1      -6.949  10.283  68.999  1.00  0.00    -0.064 A  
BRANCH  27  28
HETATM   28  C   UNL     1      -7.232  11.193  67.861  1.00  0.00    -0.090 C  
HETATM   29  C   UNL     1      -7.916  12.483  68.302  1.00  0.00    -0.153 C  
HETATM   30  O   UNL     1      -5.980  11.489  67.254  1.00  0.00    -0.073 OA 
HETATM   31  H   UNL     1      -6.162  12.071  66.527  1.00  0.00     0.000 HD 
ENDBRANCH  27  28
ENDBRANCH  21  22
ENDBRANCH   2  18
TORSDOF 6
ENDMDL
MODEL      173
REMARK 921   NORMALIZED FREE ENERGY PREDICTED BY IDOCK:   -4.30 KCAL/MOL
REMARK 922        TOTAL FREE ENERGY PREDICTED BY IDOCK:   -7.43 KCAL/MOL
REMARK 923 INTER-LIGAND FREE ENERGY PREDICTED BY IDOCK:   -7.02 KCAL/MOL
REMARK 924 INTRA-LIGAND FREE ENERGY PREDICTED BY IDOCK:   -0.41 KCAL/MOL
REMARK 927      BINDING AFFINITY PREDICTED BY RF-SCORE:    0.00 PKD
ROOT
HETATM    1  C   UNL     1     -10.238  10.478  64.607  1.00  0.00    -0.364 C  
HETATM    2  C   UNL     1     -10.183  10.077  66.085  1.00  0.00    -0.213 C  
ENDROOT
BRANCH   2   3
HETATM    3  C   UNL     1     -11.278  10.804  66.885  1.00  0.00    -0.032 C  
BRANCH   3   4
HETATM    4  N   UNL     1     -11.310  12.230  66.611  1.00  0.00    -0.323 NA 
HETATM    5  C   UNL     1     -12.117  12.869  65.720  1.00  0.00    -0.457 A  
HETATM    6  N   UNL     1     -10.469  13.056  67.257  1.00  0.00    -0.238 NA 
HETATM    7  C   UNL     1     -10.737  14.277  66.761  1.00  0.00    -0.287 A  
HETATM    8  C   UNL     1     -11.786  14.198  65.804  1.00  0.00    -0.385 A  
BRANCH   7   9
HETATM    9  C   UNL     1      -9.983  15.461  67.193  1.00  0.00    -0.234 A  
HETATM   10  C   UNL     1     -10.171  16.693  66.547  1.00  0.00    -0.314 A  
HETATM   11  C   UNL     1      -9.081  15.398  68.263  1.00  0.00    -0.187 A  
HETATM   12  N   UNL     1      -7.297  19.830  68.934  1.00  0.00    -0.324 NA 
HETATM   13  C   UNL     1      -8.393  16.542  68.685  1.00  0.00    -0.235 A  
HETATM   14 CL   UNL     1      -9.788  19.316  66.124  1.00  0.00    -0.433 Cl 
HETATM   15  C   UNL     1      -8.596  17.769  68.044  1.00  0.00    -0.250 A  
HETATM   16  C   UNL     1      -7.886  18.921  68.519  1.00  0.00    -0.337 C  
HETATM   17  C   UNL     1      -9.486  17.839  66.969  1.00  0.00    -0.271 A  
ENDBRANCH   7   9
ENDBRANCH   3   4
ENDBRANCH   2   3
BRANCH   2  18
HETATM   18  N   UNL     1     -10.227   8.625  66.220  1.00  0.00    -0.408 N  
HETATM   19  O   UNL     1      -8.070   8.350  66.944  1.00  0.00    -0.098 OA 
HETATM   20  H   UNL     1     -11.095   8.144  65.984  1.00  0.00     0.000 HD 
HETATM   21  C   UNL     1      -9.160   7.870  66.648  1.00  0.00    -0.163 C  
BRANCH  21  22
HETATM   22  C   UNL     1      -9.422   6.429  66.703  1.00  0.00    -0.161 A  
HETATM   23  N   UNL     1     -10.231   5.780  65.843  1.00  0.00    -0.403 NA 
HETATM   24  H   UNL     1     -10.750   6.166  65.053  1.00  0.00     0.000 HD 
HETATM   25  C   UNL     1      -8.876   5.543  67.660  1.00  0.00    -0.105 A  
HETATM   26  N   UNL     1     -10.195   4.502  66.272  1.00  0.00    -0.259 NA 
HETATM   27  C   UNL     1      -9.420   4.311  67.382  1.00  0.00    -0.180 A  
BRANCH  27  28
HETATM   28  C   UNL     1      -9.255   2.989  68.035  1.00  0.00    -0.198 C  
HETATM   29  C   UNL     1      -9.099   1.856  67.026  1.00  0.00    -0.109 C  
HETATM   30  O   UNL     1      -8.093   3.078  68.851  1.00  0.00    -0.056 OA 
HETATM   31  H   UNL     1      -7.988   2.232  69.268  1.00  0.00     0.000 HD 
ENDBRANCH  27  28
ENDBRANCH  21  22
ENDBRANCH   2  18
TORSDOF 6
ENDMDL
MODEL      174
REMARK 921   NORMALIZED FREE ENERGY PREDICTED BY IDOCK:   -4.29 KCAL/MOL
REMARK 922        TOTAL FREE ENERGY PREDICTED BY IDOCK:   -7.42 KCAL/MOL
REMARK 923 INTER-LIGAND FREE ENERGY PREDICTED BY IDOCK:   -6.64 KCAL/MOL
REMARK 924 INTRA-LIGAND FREE ENERGY PREDICTED BY IDOCK:   -0.78 KCAL/MOL
REMARK 927      BINDING AFFINITY PREDICTED BY RF-SCORE:    0.00 PKD
ROOT
HETATM    1  C   UNL     1      -9.652  13.179  66.626  1.00  0.00    -0.260 C  
HETATM    2  C   UNL     1      -9.702  12.037  67.646  1.00  0.00    -0.187 C  
ENDROOT
BRANCH   2   3
HETATM    3  C   UNL     1      -8.287  11.516  67.947  1.00  0.00    -0.136 C  
BRANCH   3   4
HETATM    4  N   UNL     1      -8.294  10.163  68.474  1.00  0.00    -0.112 NA 
HETATM    5  C   UNL     1      -8.155   9.798  69.778  1.00  0.00    -0.167 A  
HETATM    6  N   UNL     1      -8.427   9.118  67.639  1.00  0.00    -0.116 NA 
HETATM    7  C   UNL     1      -8.368   8.034  68.432  1.00  0.00    -0.127 A  
HETATM    8  C   UNL     1      -8.217   8.427  69.791  1.00  0.00    -0.119 A  
BRANCH   7   9
HETATM    9  C   UNL     1      -8.435   6.675  67.878  1.00  0.00    -0.119 A  
HETATM   10  C   UNL     1      -8.650   6.481  66.504  1.00  0.00    -0.123 A  
HETATM   11  C   UNL     1      -8.268   5.548  68.694  1.00  0.00    -0.102 A  
HETATM   12  N   UNL     1      -8.511   1.647  65.866  1.00  0.00    -0.095 NA 
HETATM   13  C   UNL     1      -8.302   4.260  68.147  1.00  0.00    -0.097 A  
HETATM   14 CL   UNL     1      -8.939   5.049  64.252  1.00  0.00    -0.074 Cl 
HETATM   15  C   UNL     1      -8.504   4.076  66.776  1.00  0.00    -0.104 A  
HETATM   16  C   UNL     1      -8.513   2.741  66.252  1.00  0.00    -0.103 C  
HETATM   17  C   UNL     1      -8.682   5.193  65.955  1.00  0.00    -0.130 A  
ENDBRANCH   7   9
ENDBRANCH   3   4
ENDBRANCH   2   3
BRANCH   2  18
HETATM   18  N   UNL     1     -10.437  12.451  68.837  1.00  0.00    -0.402 N  
HETATM   19  O   UNL     1     -12.408  11.399  68.322  1.00  0.00    -0.506 OA 
HETATM   20  H   UNL     1      -9.959  13.039  69.519  1.00  0.00     0.000 HD 
HETATM   21  C   UNL     1     -11.742  12.092  69.086  1.00  0.00    -0.330 C  
BRANCH  21  22
HETATM   22  C   UNL     1     -12.287  12.624  70.338  1.00  0.00    -0.237 A  
HETATM   23  N   UNL     1     -12.918  11.872  71.261  1.00  0.00    -0.312 NA 
HETATM   24  H   UNL     1     -13.093  10.867  71.243  1.00  0.00     0.000 HD 
HETATM   25  C   UNL     1     -12.234  13.981  70.732  1.00  0.00    -0.438 A  
HETATM   26  N   UNL     1     -13.262  12.760  72.216  1.00  0.00    -0.451 NA 
HETATM   27  C   UNL     1     -12.902  14.049  71.931  1.00  0.00    -0.335 A  
BRANCH  27  28
HETATM   28  C   UNL     1     -13.201  15.189  72.832  1.00  0.00    -0.499 C  
HETATM   29  C   UNL     1     -12.479  15.080  74.171  1.00  0.00    -0.590 C  
HETATM   30  O   UNL     1     -12.786  16.367  72.150  1.00  0.00    -0.372 OA 
HETATM   31  H   UNL     1     -12.977  17.097  72.727  1.00  0.00     0.000 HD 
ENDBRANCH  27  28
ENDBRANCH  21  22
ENDBRANCH   2  18
TORSDOF 6
ENDMDL
MODEL      175
REMARK 921   NORMALIZED FREE ENERGY PREDICTED BY IDOCK:   -4.29 KCAL/MOL
REMARK 922        TOTAL FREE ENERGY PREDICTED BY IDOCK:   -7.41 KCAL/MOL
REMARK 923 INTER-LIGAND FREE ENERGY PREDICTED BY IDOCK:   -6.73 KCAL/MOL
REMARK 924 INTRA-LIGAND FREE ENERGY PREDICTED BY IDOCK:   -0.68 KCAL/MOL
REMARK 927      BINDING AFFINITY PREDICTED BY RF-SCORE:    0.00 PKD
ROOT
HETATM    1  C   UNL     1     -10.545  13.327  66.451  1.00  0.00    -0.288 C  
HETATM    2  C   UNL     1      -9.969  12.040  67.050  1.00  0.00    -0.204 C  
ENDROOT
BRANCH   2   3
HETATM    3  C   UNL     1      -8.495  12.237  67.443  1.00  0.00    -0.176 C  
BRANCH   3   4
HETATM    4  N   UNL     1      -7.799  10.978  67.636  1.00  0.00    -0.111 NA 
HETATM    5  C   UNL     1      -6.453  10.798  67.727  1.00  0.00    -0.059 A  
HETATM    6  N   UNL     1      -8.497   9.832  67.722  1.00  0.00    -0.121 NA 
HETATM    7  C   UNL     1      -7.567   8.872  67.869  1.00  0.00    -0.093 A  
HETATM    8  C   UNL     1      -6.266   9.449  67.896  1.00  0.00    -0.053 A  
BRANCH   7   9
HETATM    9  C   UNL     1      -7.937   7.454  67.956  1.00  0.00    -0.119 A  
HETATM   10  C   UNL     1      -9.001   6.951  67.191  1.00  0.00    -0.121 A  
HETATM   11  C   UNL     1      -7.231   6.568  68.782  1.00  0.00    -0.085 A  
HETATM   12  N   UNL     1      -9.151   2.180  68.199  1.00  0.00    -0.150 NA 
HETATM   13  C   UNL     1      -7.574   5.212  68.832  1.00  0.00    -0.081 A  
HETATM   14 CL   UNL     1     -10.659   5.061  66.251  1.00  0.00    -0.362 Cl 
HETATM   15  C   UNL     1      -8.628   4.717  68.056  1.00  0.00    -0.105 A  
HETATM   16  C   UNL     1      -8.935   3.318  68.122  1.00  0.00    -0.142 C  
HETATM   17  C   UNL     1      -9.343   5.594  67.237  1.00  0.00    -0.113 A  
ENDBRANCH   7   9
ENDBRANCH   3   4
ENDBRANCH   2   3
BRANCH   2  18
HETATM   18  N   UNL     1     -10.808  11.571  68.148  1.00  0.00    -0.202 N  
HETATM   19  O   UNL     1     -10.857  13.542  69.317  1.00  0.00    -0.182 OA 
HETATM   20  H   UNL     1     -11.125  10.601  68.134  1.00  0.00     0.000 HD 
HETATM   21  C   UNL     1     -11.195  12.368  69.201  1.00  0.00    -0.236 C  
BRANCH  21  22
HETATM   22  C   UNL     1     -12.032  11.691  70.196  1.00  0.00    -0.359 A  
HETATM   23  N   UNL     1     -12.630  12.320  71.226  1.00  0.00    -0.306 NA 
HETATM   24  H   UNL     1     -12.607  13.313  71.457  1.00  0.00     0.000 HD 
HETATM   25  C   UNL     1     -12.310  10.304  70.211  1.00  0.00    -0.267 A  
HETATM   26  N   UNL     1     -13.265  11.327  71.882  1.00  0.00    -0.461 NA 
HETATM   27  C   UNL     1     -13.078  10.089  71.330  1.00  0.00    -0.417 A  
BRANCH  27  28
HETATM   28  C   UNL     1     -13.668   8.853  71.901  1.00  0.00    -0.439 C  
HETATM   29  C   UNL     1     -12.752   7.643  71.742  1.00  0.00    -0.356 C  
HETATM   30  O   UNL     1     -13.899   9.110  73.280  1.00  0.00    -1.118 OA 
HETATM   31  H   UNL     1     -14.276   8.319  73.645  1.00  0.00     0.000 HD 
ENDBRANCH  27  28
ENDBRANCH  21  22
ENDBRANCH   2  18
TORSDOF 6
ENDMDL
MODEL      176
REMARK 921   NORMALIZED FREE ENERGY PREDICTED BY IDOCK:   -4.27 KCAL/MOL
REMARK 922        TOTAL FREE ENERGY PREDICTED BY IDOCK:   -7.40 KCAL/MOL
REMARK 923 INTER-LIGAND FREE ENERGY PREDICTED BY IDOCK:   -5.84 KCAL/MOL
REMARK 924 INTRA-LIGAND FREE ENERGY PREDICTED BY IDOCK:   -1.56 KCAL/MOL
REMARK 927      BINDING AFFINITY PREDICTED BY RF-SCORE:    0.00 PKD
ROOT
HETATM    1  C   UNL     1      -9.614   2.189  72.017  1.00  0.00    -0.189 C  
HETATM    2  C   UNL     1      -8.881   3.535  71.988  1.00  0.00    -0.095 C  
ENDROOT
BRANCH   2   3
HETATM    3  C   UNL     1      -7.803   3.541  70.892  1.00  0.00    -0.047 C  
BRANCH   3   4
HETATM    4  N   UNL     1      -7.518   4.878  70.402  1.00  0.00    -0.057 NA 
HETATM    5  C   UNL     1      -6.455   5.659  70.740  1.00  0.00    -0.035 A  
HETATM    6  N   UNL     1      -8.360   5.470  69.537  1.00  0.00    -0.101 NA 
HETATM    7  C   UNL     1      -7.827   6.682  69.312  1.00  0.00    -0.110 A  
HETATM    8  C   UNL     1      -6.612   6.828  70.039  1.00  0.00    -0.044 A  
BRANCH   7   9
HETATM    9  C   UNL     1      -8.489   7.660  68.439  1.00  0.00    -0.125 A  
HETATM   10  C   UNL     1      -8.399   9.033  68.718  1.00  0.00    -0.122 A  
HETATM   11  C   UNL     1      -9.204   7.255  67.303  1.00  0.00    -0.148 A  
HETATM   12  N   UNL     1     -10.815  11.228  65.092  1.00  0.00    -0.241 NA 
HETATM   13  C   UNL     1      -9.803   8.199  66.462  1.00  0.00    -0.309 A  
HETATM   14 CL   UNL     1      -8.824  11.649  68.290  1.00  0.00    -0.163 Cl 
HETATM   15  C   UNL     1      -9.698   9.566  66.741  1.00  0.00    -0.254 A  
HETATM   16  C   UNL     1     -10.310  10.502  65.843  1.00  0.00    -0.206 C  
HETATM   17  C   UNL     1      -8.996   9.979  67.876  1.00  0.00    -0.131 A  
ENDBRANCH   7   9
ENDBRANCH   3   4
ENDBRANCH   2   3
BRANCH   2  18
HETATM   18  N   UNL     1      -9.838   4.631  71.873  1.00  0.00    -0.172 N  
HETATM   19  O   UNL     1     -10.289   4.837  74.111  1.00  0.00    -0.209 OA 
HETATM   20  H   UNL     1     -10.051   4.990  70.943  1.00  0.00     0.000 HD 
HETATM   21  C   UNL     1     -10.467   5.205  72.954  1.00  0.00    -0.211 C  
BRANCH  21  22
HETATM   22  C   UNL     1     -11.394   6.287  72.609  1.00  0.00    -0.247 A  
HETATM   23  N   UNL     1     -12.727   6.127  72.501  1.00  0.00    -0.454 NA 
HETATM   24  H   UNL     1     -13.274   5.278  72.648  1.00  0.00     0.000 HD 
HETATM   25  C   UNL     1     -11.014   7.622  72.337  1.00  0.00    -0.353 A  
HETATM   26  N   UNL     1     -13.169   7.353  72.153  1.00  0.00    -0.090 NA 
HETATM   27  C   UNL     1     -12.175   8.281  72.010  1.00  0.00    -0.348 A  
BRANCH  27  28
HETATM   28  C   UNL     1     -12.433   9.687  71.611  1.00  0.00    -0.407 C  
HETATM   29  C   UNL     1     -11.275  10.293  70.825  1.00  0.00    -0.373 C  
HETATM   30  O   UNL     1     -13.610   9.675  70.813  1.00  0.00    -0.596 OA 
HETATM   31  H   UNL     1     -13.775  10.575  70.558  1.00  0.00     0.000 HD 
ENDBRANCH  27  28
ENDBRANCH  21  22
ENDBRANCH   2  18
TORSDOF 6
ENDMDL
MODEL      177
REMARK 921   NORMALIZED FREE ENERGY PREDICTED BY IDOCK:   -4.24 KCAL/MOL
REMARK 922        TOTAL FREE ENERGY PREDICTED BY IDOCK:   -7.35 KCAL/MOL
REMARK 923 INTER-LIGAND FREE ENERGY PREDICTED BY IDOCK:   -6.59 KCAL/MOL
REMARK 924 INTRA-LIGAND FREE ENERGY PREDICTED BY IDOCK:   -0.76 KCAL/MOL
REMARK 927      BINDING AFFINITY PREDICTED BY RF-SCORE:    0.00 PKD
ROOT
HETATM    1  C   UNL     1      -7.974   8.098  69.533  1.00  0.00    -0.113 C  
HETATM    2  C   UNL     1      -8.815   8.286  68.266  1.00  0.00    -0.140 C  
ENDROOT
BRANCH   2   3
HETATM    3  C   UNL     1      -8.410   9.576  67.533  1.00  0.00    -0.125 C  
BRANCH   3   4
HETATM    4  N   UNL     1      -9.489  10.547  67.481  1.00  0.00    -0.149 NA 
HETATM    5  C   UNL     1     -10.139  10.982  66.367  1.00  0.00    -0.229 A  
HETATM    6  N   UNL     1      -9.926  11.126  68.613  1.00  0.00    -0.200 NA 
HETATM    7  C   UNL     1     -10.891  11.974  68.216  1.00  0.00    -0.229 A  
HETATM    8  C   UNL     1     -11.066  11.893  66.807  1.00  0.00    -0.359 A  
BRANCH   7   9
HETATM    9  C   UNL     1     -11.594  12.837  69.174  1.00  0.00    -0.373 A  
HETATM   10  C   UNL     1     -12.246  12.277  70.284  1.00  0.00    -0.342 A  
HETATM   11  C   UNL     1     -11.614  14.230  69.019  1.00  0.00    -0.342 A  
HETATM   12  N   UNL     1     -14.030  16.083  72.761  1.00  0.00    -0.433 NA 
HETATM   13  C   UNL     1     -12.261  15.043  69.957  1.00  0.00    -0.373 A  
HETATM   14 CL   UNL     1     -13.658  12.316  72.567  1.00  0.00    -0.250 Cl 
HETATM   15  C   UNL     1     -12.897  14.478  71.067  1.00  0.00    -0.418 A  
HETATM   16  C   UNL     1     -13.532  15.348  72.015  1.00  0.00    -0.466 C  
HETATM   17  C   UNL     1     -12.891  13.090  71.225  1.00  0.00    -0.281 A  
ENDBRANCH   7   9
ENDBRANCH   3   4
ENDBRANCH   2   3
BRANCH   2  18
HETATM   18  N   UNL     1      -8.745   7.092  67.429  1.00  0.00    -0.120 N  
HETATM   19  O   UNL     1     -10.958   7.046  66.833  1.00  0.00    -0.371 OA 
HETATM   20  H   UNL     1      -7.845   6.624  67.329  1.00  0.00     0.000 HD 
HETATM   21  C   UNL     1      -9.831   6.565  66.768  1.00  0.00    -0.162 C  
BRANCH  21  22
HETATM   22  C   UNL     1      -9.537   5.359  65.989  1.00  0.00    -0.131 A  
HETATM   23  N   UNL     1     -10.346   4.282  65.939  1.00  0.00    -0.450 NA 
HETATM   24  H   UNL     1     -11.246   4.149  66.400  1.00  0.00     0.000 HD 
HETATM   25  C   UNL     1      -8.376   5.165  65.205  1.00  0.00    -0.141 A  
HETATM   26  N   UNL     1      -9.683   3.422  65.139  1.00  0.00    -0.133 NA 
HETATM   27  C   UNL     1      -8.478   3.892  64.696  1.00  0.00    -0.105 A  
BRANCH  27  28
HETATM   28  C   UNL     1      -7.575   3.103  63.822  1.00  0.00    -0.067 C  
HETATM   29  C   UNL     1      -6.171   2.970  64.402  1.00  0.00    -0.023 C  
HETATM   30  O   UNL     1      -8.166   1.818  63.679  1.00  0.00    -0.067 OA 
HETATM   31  H   UNL     1      -7.588   1.313  63.119  1.00  0.00     0.000 HD 
ENDBRANCH  27  28
ENDBRANCH  21  22
ENDBRANCH   2  18
TORSDOF 6
ENDMDL
MODEL      178
REMARK 921   NORMALIZED FREE ENERGY PREDICTED BY IDOCK:   -4.23 KCAL/MOL
REMARK 922        TOTAL FREE ENERGY PREDICTED BY IDOCK:   -7.33 KCAL/MOL
REMARK 923 INTER-LIGAND FREE ENERGY PREDICTED BY IDOCK:   -6.63 KCAL/MOL
REMARK 924 INTRA-LIGAND FREE ENERGY PREDICTED BY IDOCK:   -0.71 KCAL/MOL
REMARK 927      BINDING AFFINITY PREDICTED BY RF-SCORE:    0.00 PKD
ROOT
HETATM    1  C   UNL     1      -6.145  20.341  65.585  1.00  0.00    -0.237 C  
HETATM    2  C   UNL     1      -7.151  20.225  66.736  1.00  0.00    -0.256 C  
ENDROOT
BRANCH   2   3
HETATM    3  C   UNL     1      -8.591  20.200  66.196  1.00  0.00    -0.184 C  
BRANCH   3   4
HETATM    4  N   UNL     1      -9.484  19.422  67.035  1.00  0.00    -0.311 NA 
HETATM    5  C   UNL     1     -10.232  19.884  68.075  1.00  0.00    -0.436 A  
HETATM    6  N   UNL     1      -9.618  18.100  66.829  1.00  0.00    -0.289 NA 
HETATM    7  C   UNL     1     -10.480  17.689  67.775  1.00  0.00    -0.378 A  
HETATM    8  C   UNL     1     -10.904  18.793  68.566  1.00  0.00     0.366 A  
BRANCH   7   9
HETATM    9  C   UNL     1     -10.854  16.275  67.908  1.00  0.00    -0.330 A  
HETATM   10  C   UNL     1     -10.273  15.308  67.073  1.00  0.00    -0.260 A  
HETATM   11  C   UNL     1     -11.776  15.855  68.876  1.00  0.00    -0.376 A  
HETATM   12  N   UNL     1     -12.151  11.056  68.555  1.00  0.00    -0.565 NA 
HETATM   13  C   UNL     1     -12.100  14.500  69.013  1.00  0.00    -0.286 A  
HETATM   14 CL   UNL     1      -9.819  12.829  66.148  1.00  0.00    -0.266 Cl 
HETATM   15  C   UNL     1     -11.506  13.541  68.186  1.00  0.00    -0.338 A  
HETATM   16  C   UNL     1     -11.850  12.162  68.372  1.00  0.00    -0.303 C  
HETATM   17  C   UNL     1     -10.593  13.951  67.211  1.00  0.00    -0.276 A  
ENDBRANCH   7   9
ENDBRANCH   3   4
ENDBRANCH   2   3
BRANCH   2  18
HETATM   18  N   UNL     1      -6.824  19.082  67.582  1.00  0.00    -0.211 N  
HETATM   19  O   UNL     1      -6.355  17.611  65.887  1.00  0.00    -0.224 OA 
HETATM   20  H   UNL     1      -6.882  19.197  68.593  1.00  0.00     0.000 HD 
HETATM   21  C   UNL     1      -6.443  17.856  67.086  1.00  0.00    -0.165 C  
BRANCH  21  22
HETATM   22  C   UNL     1      -6.168  16.847  68.114  1.00  0.00    -0.132 A  
HETATM   23  N   UNL     1      -5.601  17.125  69.304  1.00  0.00    -0.169 NA 
HETATM   24  H   UNL     1      -5.302  18.031  69.664  1.00  0.00     0.000 HD 
HETATM   25  C   UNL     1      -6.448  15.467  67.989  1.00  0.00    -0.148 A  
HETATM   26  N   UNL     1      -5.520  15.921  69.908  1.00  0.00    -0.126 NA 
HETATM   27  C   UNL     1      -5.987  14.886  69.146  1.00  0.00    -0.101 A  
BRANCH  27  28
HETATM   28  C   UNL     1      -5.974  13.475  69.605  1.00  0.00    -0.117 C  
HETATM   29  C   UNL     1      -5.650  13.348  71.090  1.00  0.00    -0.192 C  
HETATM   30  O   UNL     1      -7.269  12.948  69.343  1.00  0.00    -0.315 OA 
HETATM   31  H   UNL     1      -7.260  12.046  69.637  1.00  0.00     0.000 HD 
ENDBRANCH  27  28
ENDBRANCH  21  22
ENDBRANCH   2  18
TORSDOF 6
ENDMDL
MODEL      179
REMARK 921   NORMALIZED FREE ENERGY PREDICTED BY IDOCK:   -4.19 KCAL/MOL
REMARK 922        TOTAL FREE ENERGY PREDICTED BY IDOCK:   -7.29 KCAL/MOL
REMARK 923 INTER-LIGAND FREE ENERGY PREDICTED BY IDOCK:   -6.61 KCAL/MOL
REMARK 924 INTRA-LIGAND FREE ENERGY PREDICTED BY IDOCK:   -0.67 KCAL/MOL
REMARK 927      BINDING AFFINITY PREDICTED BY RF-SCORE:    0.00 PKD
ROOT
HETATM    1  C   UNL     1      -9.937   6.672  70.795  1.00  0.00    -0.201 C  
HETATM    2  C   UNL     1      -9.738   7.368  69.444  1.00  0.00    -0.159 C  
ENDROOT
BRANCH   2   3
HETATM    3  C   UNL     1      -8.647   8.447  69.546  1.00  0.00    -0.129 C  
BRANCH   3   4
HETATM    4  N   UNL     1      -8.496   9.201  68.314  1.00  0.00    -0.124 NA 
HETATM    5  C   UNL     1      -7.722   8.866  67.246  1.00  0.00    -0.092 A  
HETATM    6  N   UNL     1      -9.147  10.367  68.156  1.00  0.00    -0.139 NA 
HETATM    7  C   UNL     1      -8.774  10.808  66.942  1.00  0.00    -0.141 A  
HETATM    8  C   UNL     1      -7.891   9.875  66.330  1.00  0.00    -0.107 A  
BRANCH   7   9
HETATM    9  C   UNL     1      -9.248  12.094  66.415  1.00  0.00    -0.207 A  
HETATM   10  C   UNL     1     -10.208  12.130  65.392  1.00  0.00    -0.299 A  
HETATM   11  C   UNL     1      -8.775  13.309  66.930  1.00  0.00    -0.152 A  
HETATM   12  N   UNL     1     -11.076  16.870  64.628  1.00  0.00    -0.990 NA 
HETATM   13  C   UNL     1      -9.258  14.528  66.441  1.00  0.00    -0.264 A  
HETATM   14 CL   UNL     1     -11.885  13.298  63.651  1.00  0.00    -0.527 Cl 
HETATM   15  C   UNL     1     -10.224  14.554  65.430  1.00  0.00    -0.415 A  
HETATM   16  C   UNL     1     -10.707  15.824  64.971  1.00  0.00    -0.421 C  
HETATM   17  C   UNL     1     -10.694  13.349  64.903  1.00  0.00    -0.369 A  
ENDBRANCH   7   9
ENDBRANCH   3   4
ENDBRANCH   2   3
BRANCH   2  18
HETATM   18  N   UNL     1      -9.489   6.383  68.397  1.00  0.00    -0.120 N  
HETATM   19  O   UNL     1     -11.533   6.549  67.372  1.00  0.00    -0.181 OA 
HETATM   20  H   UNL     1      -8.584   5.914  68.381  1.00  0.00     0.000 HD 
HETATM   21  C   UNL     1     -10.412   6.052  67.431  1.00  0.00    -0.246 C  
BRANCH  21  22
HETATM   22  C   UNL     1      -9.955   5.034  66.482  1.00  0.00    -0.224 A  
HETATM   23  N   UNL     1     -10.762   4.420  65.594  1.00  0.00    -0.578 NA 
HETATM   24  H   UNL     1     -11.760   4.568  65.442  1.00  0.00     0.000 HD 
HETATM   25  C   UNL     1      -8.627   4.560  66.380  1.00  0.00    -0.112 A  
HETATM   26  N   UNL     1      -9.940   3.562  64.955  1.00  0.00    -0.112 NA 
HETATM   27  C   UNL     1      -8.652   3.584  65.412  1.00  0.00    -0.113 A  
BRANCH  27  28
HETATM   28  C   UNL     1      -7.586   2.708  64.866  1.00  0.00    -0.072 C  
HETATM   29  C   UNL     1      -7.017   1.758  65.916  1.00  0.00    -0.042 C  
HETATM   30  O   UNL     1      -8.172   1.965  63.805  1.00  0.00    -0.075 OA 
HETATM   31  H   UNL     1      -7.490   1.404  63.456  1.00  0.00     0.000 HD 
ENDBRANCH  27  28
ENDBRANCH  21  22
ENDBRANCH   2  18
TORSDOF 6
ENDMDL
MODEL      180
REMARK 921   NORMALIZED FREE ENERGY PREDICTED BY IDOCK:   -4.19 KCAL/MOL
REMARK 922        TOTAL FREE ENERGY PREDICTED BY IDOCK:   -7.29 KCAL/MOL
REMARK 923 INTER-LIGAND FREE ENERGY PREDICTED BY IDOCK:   -6.66 KCAL/MOL
REMARK 924 INTRA-LIGAND FREE ENERGY PREDICTED BY IDOCK:   -0.63 KCAL/MOL
REMARK 927      BINDING AFFINITY PREDICTED BY RF-SCORE:    0.00 PKD
ROOT
HETATM    1  C   UNL     1     -11.057   9.599  71.114  1.00  0.00    -0.444 C  
HETATM    2  C   UNL     1     -10.780   9.082  69.698  1.00  0.00    -0.219 C  
ENDROOT
BRANCH   2   3
HETATM    3  C   UNL     1      -9.722   9.953  69.001  1.00  0.00    -0.193 C  
BRANCH   3   4
HETATM    4  N   UNL     1     -10.310  11.060  68.268  1.00  0.00    -0.171 NA 
HETATM    5  C   UNL     1     -11.172  10.974  67.218  1.00  0.00    -0.258 A  
HETATM    6  N   UNL     1      -9.998  12.325  68.599  1.00  0.00    -0.168 NA 
HETATM    7  C   UNL     1     -10.678  13.088  67.726  1.00  0.00    -0.229 A  
HETATM    8  C   UNL     1     -11.447  12.269  66.853  1.00  0.00    -0.418 A  
BRANCH   7   9
HETATM    9  C   UNL     1     -10.564  14.552  67.736  1.00  0.00    -0.250 A  
HETATM   10  C   UNL     1      -9.550  15.187  67.002  1.00  0.00    -0.235 A  
HETATM   11  C   UNL     1     -11.467  15.348  68.455  1.00  0.00    -0.360 A  
HETATM   12  N   UNL     1     -10.289  19.962  67.681  1.00  0.00    -0.422 NA 
HETATM   13  C   UNL     1     -11.365  16.743  68.430  1.00  0.00    -0.068 A  
HETATM   14 CL   UNL     1      -8.176  17.281  66.033  1.00  0.00    -0.244 Cl 
HETATM   15  C   UNL     1     -10.359  17.368  67.686  1.00  0.00    -0.355 A  
HETATM   16  C   UNL     1     -10.301  18.801  67.671  1.00  0.00    -0.420 C  
HETATM   17  C   UNL     1      -9.448  16.584  66.974  1.00  0.00    -0.239 A  
ENDBRANCH   7   9
ENDBRANCH   3   4
ENDBRANCH   2   3
BRANCH   2  18
HETATM   18  N   UNL     1     -10.439   7.664  69.734  1.00  0.00    -0.227 N  
HETATM   19  O   UNL     1     -11.013   7.189  67.566  1.00  0.00    -0.244 OA 
HETATM   20  H   UNL     1     -10.079   7.275  70.605  1.00  0.00     0.000 HD 
HETATM   21  C   UNL     1     -10.578   6.823  68.653  1.00  0.00    -0.227 C  
BRANCH  21  22
HETATM   22  C   UNL     1     -10.181   5.436  68.912  1.00  0.00    -0.196 A  
HETATM   23  N   UNL     1     -10.044   4.913  70.146  1.00  0.00    -0.260 NA 
HETATM   24  H   UNL     1     -10.199   5.369  71.045  1.00  0.00     0.000 HD 
HETATM   25  C   UNL     1      -9.884   4.479  67.913  1.00  0.00    -0.162 A  
HETATM   26  N   UNL     1      -9.653   3.643  69.913  1.00  0.00    -0.190 NA 
HETATM   27  C   UNL     1      -9.510   3.341  68.587  1.00  0.00    -0.131 A  
BRANCH  27  28
HETATM   28  C   UNL     1      -9.069   2.008  68.105  1.00  0.00    -0.168 C  
HETATM   29  C   UNL     1      -9.031   1.922  66.582  1.00  0.00    -0.111 C  
HETATM   30  O   UNL     1      -7.768   1.792  68.637  1.00  0.00    -0.046 OA 
HETATM   31  H   UNL     1      -7.485   0.940  68.328  1.00  0.00     0.000 HD 
ENDBRANCH  27  28
ENDBRANCH  21  22
ENDBRANCH   2  18
TORSDOF 6
ENDMDL
MODEL      181
REMARK 921   NORMALIZED FREE ENERGY PREDICTED BY IDOCK:   -4.19 KCAL/MOL
REMARK 922        TOTAL FREE ENERGY PREDICTED BY IDOCK:   -7.28 KCAL/MOL
REMARK 923 INTER-LIGAND FREE ENERGY PREDICTED BY IDOCK:   -6.21 KCAL/MOL
REMARK 924 INTRA-LIGAND FREE ENERGY PREDICTED BY IDOCK:   -1.07 KCAL/MOL
REMARK 927      BINDING AFFINITY PREDICTED BY RF-SCORE:    0.00 PKD
ROOT
HETATM    1  C   UNL     1     -12.546  13.781  70.847  1.00  0.00    -0.428 C  
HETATM    2  C   UNL     1     -11.566  14.401  69.845  1.00  0.00    -0.284 C  
ENDROOT
BRANCH   2   3
HETATM    3  C   UNL     1     -10.348  14.993  70.574  1.00  0.00     0.178 C  
BRANCH   3   4
HETATM    4  N   UNL     1      -9.240  15.261  69.674  1.00  0.00    -0.198 NA 
HETATM    5  C   UNL     1      -8.097  14.532  69.551  1.00  0.00     0.188 A  
HETATM    6  N   UNL     1      -9.276  16.336  68.868  1.00  0.00    -0.239 NA 
HETATM    7  C   UNL     1      -8.109  16.305  68.200  1.00  0.00    -0.158 A  
HETATM    8  C   UNL     1      -7.349  15.168  68.592  1.00  0.00    -0.121 A  
BRANCH   7   9
HETATM    9  C   UNL     1      -7.749  17.355  67.239  1.00  0.00    -0.221 A  
HETATM   10  C   UNL     1      -8.636  18.412  66.979  1.00  0.00    -0.264 A  
HETATM   11  C   UNL     1      -6.514  17.342  66.576  1.00  0.00    -0.272 A  
HETATM   12  N   UNL     1      -6.298  21.284  63.803  1.00  0.00    -0.294 NA 
HETATM   13  C   UNL     1      -6.171  18.365  65.686  1.00  0.00    -0.297 A  
HETATM   14 CL   UNL     1      -9.442  20.706  65.841  1.00  0.00     0.032 Cl 
HETATM   15  C   UNL     1      -7.055  19.421  65.443  1.00  0.00    -0.159 A  
HETATM   16  C   UNL     1      -6.657  20.460  64.538  1.00  0.00    -0.211 C  
HETATM   17  C   UNL     1      -8.293  19.438  66.091  1.00  0.00    -0.300 A  
ENDBRANCH   7   9
ENDBRANCH   3   4
ENDBRANCH   2   3
BRANCH   2  18
HETATM   18  N   UNL     1     -11.215  13.432  68.812  1.00  0.00    -0.261 N  
HETATM   19  O   UNL     1     -12.018  14.629  67.030  1.00  0.00    -0.382 OA 
HETATM   20  H   UNL     1     -10.761  12.565  69.097  1.00  0.00     0.000 HD 
HETATM   21  C   UNL     1     -11.466  13.627  67.473  1.00  0.00    -0.329 C  
BRANCH  21  22
HETATM   22  C   UNL     1     -11.036  12.523  66.610  1.00  0.00    -0.266 A  
HETATM   23  N   UNL     1     -11.303  12.453  65.291  1.00  0.00    -0.321 NA 
HETATM   24  H   UNL     1     -11.806  13.127  64.714  1.00  0.00     0.000 HD 
HETATM   25  C   UNL     1     -10.303  11.394  67.046  1.00  0.00    -0.258 A  
HETATM   26  N   UNL     1     -10.748  11.283  64.915  1.00  0.00    -0.294 NA 
HETATM   27  C   UNL     1     -10.162  10.591  65.939  1.00  0.00    -0.245 A  
BRANCH  27  28
HETATM   28  C   UNL     1      -9.511   9.271  65.754  1.00  0.00    -0.262 C  
HETATM   29  C   UNL     1      -8.150   9.191  66.437  1.00  0.00    -0.107 C  
HETATM   30  O   UNL     1     -10.391   8.300  66.308  1.00  0.00    -0.439 OA 
HETATM   31  H   UNL     1      -9.974   7.455  66.189  1.00  0.00     0.000 HD 
ENDBRANCH  27  28
ENDBRANCH  21  22
ENDBRANCH   2  18
TORSDOF 6
ENDMDL
MODEL      182
REMARK 921   NORMALIZED FREE ENERGY PREDICTED BY IDOCK:   -4.17 KCAL/MOL
REMARK 922        TOTAL FREE ENERGY PREDICTED BY IDOCK:   -7.26 KCAL/MOL
REMARK 923 INTER-LIGAND FREE ENERGY PREDICTED BY IDOCK:   -6.81 KCAL/MOL
REMARK 924 INTRA-LIGAND FREE ENERGY PREDICTED BY IDOCK:   -0.45 KCAL/MOL
REMARK 927      BINDING AFFINITY PREDICTED BY RF-SCORE:    0.00 PKD
ROOT
HETATM    1  C   UNL     1     -12.078  11.653  67.561  1.00  0.00     0.191 C  
HETATM    2  C   UNL     1     -10.662  12.183  67.811  1.00  0.00    -0.209 C  
ENDROOT
BRANCH   2   3
HETATM    3  C   UNL     1      -9.612  11.184  67.295  1.00  0.00    -0.165 C  
BRANCH   3   4
HETATM    4  N   UNL     1      -9.972   9.806  67.576  1.00  0.00    -0.174 NA 
HETATM    5  C   UNL     1     -10.388   8.874  66.674  1.00  0.00    -0.223 A  
HETATM    6  N   UNL     1      -9.931   9.345  68.838  1.00  0.00    -0.174 NA 
HETATM    7  C   UNL     1     -10.341   8.068  68.752  1.00  0.00    -0.206 A  
HETATM    8  C   UNL     1     -10.618   7.731  67.398  1.00  0.00    -0.345 A  
BRANCH   7   9
HETATM    9  C   UNL     1     -10.475   7.224  69.947  1.00  0.00    -0.236 A  
HETATM   10  C   UNL     1      -9.514   6.240  70.230  1.00  0.00    -0.173 A  
HETATM   11  C   UNL     1     -11.543   7.390  70.839  1.00  0.00    -0.318 A  
HETATM   12  N   UNL     1     -10.932   4.253  74.453  1.00  0.00    -0.223 NA 
HETATM   13  C   UNL     1     -11.640   6.601  71.991  1.00  0.00    -0.341 A  
HETATM   14 CL   UNL     1      -8.373   4.274  71.657  1.00  0.00    -0.094 Cl 
HETATM   15  C   UNL     1     -10.671   5.632  72.271  1.00  0.00    -0.281 A  
HETATM   16  C   UNL     1     -10.798   4.857  73.471  1.00  0.00    -0.305 C  
HETATM   17  C   UNL     1      -9.608   5.451  71.383  1.00  0.00    -0.156 A  
ENDBRANCH   7   9
ENDBRANCH   3   4
ENDBRANCH   2   3
BRANCH   2  18
HETATM   18  N   UNL     1     -10.516  13.524  67.254  1.00  0.00    -0.248 N  
HETATM   19  O   UNL     1     -10.665  14.661  69.239  1.00  0.00    -0.244 OA 
HETATM   20  H   UNL     1     -10.403  13.618  66.246  1.00  0.00     0.000 HD 
HETATM   21  C   UNL     1     -10.523  14.667  68.020  1.00  0.00    -0.236 C  
BRANCH  21  22
HETATM   22  C   UNL     1     -10.368  15.908  67.255  1.00  0.00    -0.293 A  
HETATM   23  N   UNL     1     -10.805  16.069  65.991  1.00  0.00    -0.245 NA 
HETATM   24  H   UNL     1     -11.298  15.396  65.404  1.00  0.00     0.000 HD 
HETATM   25  C   UNL     1      -9.737  17.080  67.733  1.00  0.00    -0.258 A  
HETATM   26  N   UNL     1     -10.438  17.330  65.684  1.00  0.00    -0.590 NA 
HETATM   27  C   UNL     1      -9.763  17.971  66.686  1.00  0.00    -0.332 A  
BRANCH  27  28
HETATM   28  C   UNL     1      -9.248  19.356  66.556  1.00  0.00    -0.356 C  
HETATM   29  C   UNL     1     -10.351  20.403  66.679  1.00  0.00    -0.286 C  
HETATM   30  O   UNL     1      -8.290  19.534  67.592  1.00  0.00    -0.290 OA 
HETATM   31  H   UNL     1      -7.961  20.421  67.509  1.00  0.00     0.000 HD 
ENDBRANCH  27  28
ENDBRANCH  21  22
ENDBRANCH   2  18
TORSDOF 6
ENDMDL
MODEL      183
REMARK 921   NORMALIZED FREE ENERGY PREDICTED BY IDOCK:   -4.15 KCAL/MOL
REMARK 922        TOTAL FREE ENERGY PREDICTED BY IDOCK:   -7.23 KCAL/MOL
REMARK 923 INTER-LIGAND FREE ENERGY PREDICTED BY IDOCK:   -7.25 KCAL/MOL
REMARK 924 INTRA-LIGAND FREE ENERGY PREDICTED BY IDOCK:    0.03 KCAL/MOL
REMARK 927      BINDING AFFINITY PREDICTED BY RF-SCORE:    0.00 PKD
ROOT
HETATM    1  C   UNL     1     -13.044  11.271  71.678  1.00  0.00    -0.513 C  
HETATM    2  C   UNL     1     -12.654  11.060  70.211  1.00  0.00    -0.243 C  
ENDROOT
BRANCH   2   3
HETATM    3  C   UNL     1     -11.675  12.152  69.748  1.00  0.00    -0.310 C  
BRANCH   3   4
HETATM    4  N   UNL     1     -11.333  12.031  68.342  1.00  0.00    -0.254 NA 
HETATM    5  C   UNL     1     -11.791  12.810  67.323  1.00  0.00    -0.350 A  
HETATM    6  N   UNL     1     -10.499  11.058  67.935  1.00  0.00    -0.183 NA 
HETATM    7  C   UNL     1     -10.418  11.209  66.601  1.00  0.00    -0.250 A  
HETATM    8  C   UNL     1     -11.205  12.318  66.184  1.00  0.00    -0.372 A  
BRANCH   7   9
HETATM    9  C   UNL     1      -9.622  10.294  65.774  1.00  0.00    -0.279 A  
HETATM   10  C   UNL     1      -9.430   8.962  66.176  1.00  0.00    -0.318 A  
HETATM   11  C   UNL     1      -9.054  10.715  64.564  1.00  0.00    -0.243 A  
HETATM   12  N   UNL     1      -6.811   6.921  62.602  1.00  0.00    -0.050 NA 
HETATM   13  C   UNL     1      -8.325   9.823  63.769  1.00  0.00    -0.170 A  
HETATM   14 CL   UNL     1      -8.527   6.444  65.948  1.00  0.00    -0.142 Cl 
HETATM   15  C   UNL     1      -8.149   8.495  64.171  1.00  0.00    -0.154 A  
HETATM   16  C   UNL     1      -7.411   7.608  63.319  1.00  0.00    -0.090 C  
HETATM   17  C   UNL     1      -8.702   8.068  65.381  1.00  0.00    -0.068 A  
ENDBRANCH   7   9
ENDBRANCH   3   4
ENDBRANCH   2   3
BRANCH   2  18
HETATM   18  N   UNL     1     -12.155   9.704  70.008  1.00  0.00    -0.454 N  
HETATM   19  O   UNL     1     -12.177   9.072  72.212  1.00  0.00    -0.361 OA 
HETATM   20  H   UNL     1     -11.939   9.406  69.057  1.00  0.00     0.000 HD 
HETATM   21  C   UNL     1     -11.959   8.807  71.034  1.00  0.00    -0.251 C  
BRANCH  21  22
HETATM   22  C   UNL     1     -11.445   7.503  70.606  1.00  0.00    -0.269 A  
HETATM   23  N   UNL     1     -11.828   6.881  69.473  1.00  0.00    -0.546 NA 
HETATM   24  H   UNL     1     -12.488   7.207  68.767  1.00  0.00     0.000 HD 
HETATM   25  C   UNL     1     -10.500   6.731  71.321  1.00  0.00    -0.237 A  
HETATM   26  N   UNL     1     -11.132   5.725  69.493  1.00  0.00    -0.324 NA 
HETATM   27  C   UNL     1     -10.343   5.571  70.599  1.00  0.00    -0.262 A  
BRANCH  27  28
HETATM   28  C   UNL     1      -9.509   4.367  70.836  1.00  0.00    -0.171 C  
HETATM   29  C   UNL     1     -10.030   3.514  71.987  1.00  0.00    -0.227 C  
HETATM   30  O   UNL     1      -9.525   3.616  69.628  1.00  0.00    -0.162 OA 
HETATM   31  H   UNL     1      -8.992   2.845  69.780  1.00  0.00     0.000 HD 
ENDBRANCH  27  28
ENDBRANCH  21  22
ENDBRANCH   2  18
TORSDOF 6
ENDMDL
MODEL      184
REMARK 921   NORMALIZED FREE ENERGY PREDICTED BY IDOCK:   -4.13 KCAL/MOL
REMARK 922        TOTAL FREE ENERGY PREDICTED BY IDOCK:   -7.20 KCAL/MOL
REMARK 923 INTER-LIGAND FREE ENERGY PREDICTED BY IDOCK:   -6.95 KCAL/MOL
REMARK 924 INTRA-LIGAND FREE ENERGY PREDICTED BY IDOCK:   -0.25 KCAL/MOL
REMARK 927      BINDING AFFINITY PREDICTED BY RF-SCORE:    0.00 PKD
ROOT
HETATM    1  C   UNL     1      -8.607   8.877  66.486  1.00  0.00    -0.133 C  
HETATM    2  C   UNL     1      -9.346   9.392  67.726  1.00  0.00    -0.128 C  
ENDROOT
BRANCH   2   3
HETATM    3  C   UNL     1     -10.691  10.025  67.330  1.00  0.00    -0.274 C  
BRANCH   3   4
HETATM    4  N   UNL     1     -10.965  11.248  68.065  1.00  0.00    -0.228 NA 
HETATM    5  C   UNL     1     -11.838  11.396  69.099  1.00  0.00    -0.345 A  
HETATM    6  N   UNL     1     -10.341  12.389  67.726  1.00  0.00    -0.212 NA 
HETATM    7  C   UNL     1     -10.832  13.314  68.569  1.00  0.00    -0.265 A  
HETATM    8  C   UNL     1     -11.765  12.718  69.463  1.00  0.00    -0.383 A  
BRANCH   7   9
HETATM    9  C   UNL     1     -10.420  14.721  68.487  1.00  0.00    -0.249 A  
HETATM   10  C   UNL     1      -9.110  15.096  68.826  1.00  0.00    -0.200 A  
HETATM   11  C   UNL     1     -11.308  15.715  68.053  1.00  0.00    -0.324 A  
HETATM   12  N   UNL     1      -8.911  19.901  68.009  1.00  0.00    -0.307 NA 
HETATM   13  C   UNL     1     -10.893  17.047  67.949  1.00  0.00    -0.302 A  
HETATM   14 CL   UNL     1      -7.058  16.796  69.146  1.00  0.00    -0.226 Cl 
HETATM   15  C   UNL     1      -9.582  17.410  68.276  1.00  0.00    -0.292 A  
HETATM   16  C   UNL     1      -9.191  18.782  68.137  1.00  0.00    -0.314 C  
HETATM   17  C   UNL     1      -8.692  16.428  68.720  1.00  0.00    -0.246 A  
ENDBRANCH   7   9
ENDBRANCH   3   4
ENDBRANCH   2   3
BRANCH   2  18
HETATM   18  N   UNL     1      -9.469   8.332  68.721  1.00  0.00    -0.147 N  
HETATM   19  O   UNL     1     -11.001   7.064  67.582  1.00  0.00    -0.233 OA 
HETATM   20  H   UNL     1      -8.918   8.406  69.576  1.00  0.00     0.000 HD 
HETATM   21  C   UNL     1     -10.290   7.239  68.566  1.00  0.00    -0.189 C  
BRANCH  21  22
HETATM   22  C   UNL     1     -10.265   6.300  69.691  1.00  0.00    -0.186 A  
HETATM   23  N   UNL     1     -10.098   4.970  69.555  1.00  0.00    -0.229 NA 
HETATM   24  H   UNL     1      -9.958   4.437  68.696  1.00  0.00     0.000 HD 
HETATM   25  C   UNL     1     -10.420   6.660  71.050  1.00  0.00    -0.246 A  
HETATM   26  N   UNL     1     -10.162   4.508  70.821  1.00  0.00    -0.157 NA 
HETATM   27  C   UNL     1     -10.386   5.481  71.755  1.00  0.00    -0.216 A  
BRANCH  27  28
HETATM   28  C   UNL     1     -10.513   5.194  73.206  1.00  0.00    -0.218 C  
HETATM   29  C   UNL     1     -10.390   6.451  74.062  1.00  0.00    -0.340 C  
HETATM   30  O   UNL     1     -11.791   4.600  73.394  1.00  0.00    -0.354 OA 
HETATM   31  H   UNL     1     -11.872   4.417  74.323  1.00  0.00     0.000 HD 
ENDBRANCH  27  28
ENDBRANCH  21  22
ENDBRANCH   2  18
TORSDOF 6
ENDMDL
MODEL      185
REMARK 921   NORMALIZED FREE ENERGY PREDICTED BY IDOCK:   -4.13 KCAL/MOL
REMARK 922        TOTAL FREE ENERGY PREDICTED BY IDOCK:   -7.19 KCAL/MOL
REMARK 923 INTER-LIGAND FREE ENERGY PREDICTED BY IDOCK:   -5.81 KCAL/MOL
REMARK 924 INTRA-LIGAND FREE ENERGY PREDICTED BY IDOCK:   -1.38 KCAL/MOL
REMARK 927      BINDING AFFINITY PREDICTED BY RF-SCORE:    0.00 PKD
ROOT
HETATM    1  C   UNL     1     -10.695  18.109  67.519  1.00  0.00    -0.365 C  
HETATM    2  C   UNL     1      -9.490  17.579  66.735  1.00  0.00    -0.275 C  
ENDROOT
BRANCH   2   3
HETATM    3  C   UNL     1      -8.208  17.682  67.578  1.00  0.00    -0.216 C  
BRANCH   3   4
HETATM    4  N   UNL     1      -7.370  16.501  67.460  1.00  0.00    -0.133 NA 
HETATM    5  C   UNL     1      -6.054  16.469  67.114  1.00  0.00    -0.161 A  
HETATM    6  N   UNL     1      -7.893  15.283  67.683  1.00  0.00    -0.144 NA 
HETATM    7  C   UNL     1      -6.878  14.428  67.468  1.00  0.00    -0.139 A  
HETATM    8  C   UNL     1      -5.696  15.144  67.127  1.00  0.00     0.606 A  
BRANCH   7   9
HETATM    9  C   UNL     1      -7.065  12.975  67.573  1.00  0.00    -0.158 A  
HETATM   10  C   UNL     1      -6.239  12.101  66.847  1.00  0.00    -0.011 A  
HETATM   11  C   UNL     1      -8.049  12.427  68.407  1.00  0.00    -0.143 A  
HETATM   12  N   UNL     1      -7.695   7.623  68.124  1.00  0.00    -0.117 NA 
HETATM   13  C   UNL     1      -8.195  11.039  68.521  1.00  0.00    -0.146 A  
HETATM   14 CL   UNL     1      -5.314   9.713  66.043  1.00  0.00    -0.036 Cl 
HETATM   15  C   UNL     1      -7.360  10.176  67.805  1.00  0.00    -0.088 A  
HETATM   16  C   UNL     1      -7.530   8.761  67.965  1.00  0.00    -0.093 C  
HETATM   17  C   UNL     1      -6.383  10.713  66.963  1.00  0.00    -0.073 A  
ENDBRANCH   7   9
ENDBRANCH   3   4
ENDBRANCH   2   3
BRANCH   2  18
HETATM   18  N   UNL     1      -9.758  16.232  66.242  1.00  0.00    -0.283 N  
HETATM   19  O   UNL     1     -10.969  16.852  64.396  1.00  0.00    -1.016 OA 
HETATM   20  H   UNL     1      -9.394  15.441  66.773  1.00  0.00     0.000 HD 
HETATM   21  C   UNL     1     -10.478  15.973  65.097  1.00  0.00    -0.303 C  
BRANCH  21  22
HETATM   22  C   UNL     1     -10.632  14.548  64.790  1.00  0.00    -0.377 A  
HETATM   23  N   UNL     1     -11.503  14.066  63.882  1.00  0.00    -0.584 NA 
HETATM   24  H   UNL     1     -12.147  14.589  63.287  1.00  0.00     0.000 HD 
HETATM   25  C   UNL     1      -9.905  13.504  65.407  1.00  0.00    -0.141 A  
HETATM   26  N   UNL     1     -11.324  12.731  63.944  1.00  0.00    -0.411 NA 
HETATM   27  C   UNL     1     -10.396  12.338  64.869  1.00  0.00    -0.290 A  
BRANCH  27  28
HETATM   28  C   UNL     1     -10.057  10.915  65.118  1.00  0.00    -0.292 C  
HETATM   29  C   UNL     1     -10.853  10.320  66.275  1.00  0.00     0.014 C  
HETATM   30  O   UNL     1     -10.343  10.210  63.917  1.00  0.00    -0.437 OA 
HETATM   31  H   UNL     1     -10.126   9.300  64.077  1.00  0.00     0.000 HD 
ENDBRANCH  27  28
ENDBRANCH  21  22
ENDBRANCH   2  18
TORSDOF 6
ENDMDL
MODEL      186
REMARK 921   NORMALIZED FREE ENERGY PREDICTED BY IDOCK:   -4.12 KCAL/MOL
REMARK 922        TOTAL FREE ENERGY PREDICTED BY IDOCK:   -7.18 KCAL/MOL
REMARK 923 INTER-LIGAND FREE ENERGY PREDICTED BY IDOCK:   -6.38 KCAL/MOL
REMARK 924 INTRA-LIGAND FREE ENERGY PREDICTED BY IDOCK:   -0.81 KCAL/MOL
REMARK 927      BINDING AFFINITY PREDICTED BY RF-SCORE:    0.00 PKD
ROOT
HETATM    1  C   UNL     1     -11.832  11.809  63.222  1.00  0.00    -0.342 C  
HETATM    2  C   UNL     1     -11.024  12.662  64.206  1.00  0.00    -0.366 C  
ENDROOT
BRANCH   2   3
HETATM    3  C   UNL     1     -11.738  13.997  64.478  1.00  0.00    -0.413 C  
BRANCH   3   4
HETATM    4  N   UNL     1     -11.251  14.651  65.680  1.00  0.00    -0.335 NA 
HETATM    5  C   UNL     1     -10.245  15.565  65.757  1.00  0.00    -0.366 A  
HETATM    6  N   UNL     1     -11.794  14.353  66.873  1.00  0.00    -0.407 NA 
HETATM    7  C   UNL     1     -11.110  15.099  67.758  1.00  0.00    -0.313 A  
HETATM    8  C   UNL     1     -10.138  15.891  67.086  1.00  0.00    -0.264 A  
BRANCH   7   9
HETATM    9  C   UNL     1     -11.384  15.020  69.199  1.00  0.00    -0.311 A  
HETATM   10  C   UNL     1     -11.266  16.164  70.005  1.00  0.00    -0.359 A  
HETATM   11  C   UNL     1     -11.788  13.819  69.798  1.00  0.00    -0.394 A  
HETATM   12  N   UNL     1     -12.567  14.708  74.476  1.00  0.00    -0.023 NA 
HETATM   13  C   UNL     1     -12.077  13.767  71.166  1.00  0.00    -0.272 A  
HETATM   14 CL   UNL     1     -11.396  17.572  72.286  1.00  0.00     1.206 Cl 
HETATM   15  C   UNL     1     -11.969  14.913  71.960  1.00  0.00    -0.428 A  
HETATM   16  C   UNL     1     -12.293  14.821  73.354  1.00  0.00    -0.339 C  
HETATM   17  C   UNL     1     -11.557  16.113  71.374  1.00  0.00    -0.431 A  
ENDBRANCH   7   9
ENDBRANCH   3   4
ENDBRANCH   2   3
BRANCH   2  18
HETATM   18  N   UNL     1     -10.729  11.900  65.415  1.00  0.00    -0.275 N  
HETATM   19  O   UNL     1      -9.855  10.056  64.370  1.00  0.00    -0.296 OA 
HETATM   20  H   UNL     1     -10.959  12.317  66.316  1.00  0.00     0.000 HD 
HETATM   21  C   UNL     1     -10.157  10.648  65.402  1.00  0.00    -0.291 C  
BRANCH  21  22
HETATM   22  C   UNL     1      -9.954  10.063  66.730  1.00  0.00    -0.210 A  
HETATM   23  N   UNL     1     -10.330   8.813  67.064  1.00  0.00    -0.280 NA 
HETATM   24  H   UNL     1     -10.778   8.111  66.474  1.00  0.00     0.000 HD 
HETATM   25  C   UNL     1      -9.355  10.728  67.825  1.00  0.00    -0.158 A  
HETATM   26  N   UNL     1      -9.976   8.708  68.361  1.00  0.00    -0.177 NA 
HETATM   27  C   UNL     1      -9.414   9.844  68.876  1.00  0.00    -0.170 A  
BRANCH  27  28
HETATM   28  C   UNL     1      -8.971   9.958  70.288  1.00  0.00    -0.042 C  
HETATM   29  C   UNL     1      -8.470   8.631  70.850  1.00  0.00    -0.195 C  
HETATM   30  O   UNL     1      -7.924  10.921  70.310  1.00  0.00    -0.127 OA 
HETATM   31  H   UNL     1      -7.640  10.993  71.213  1.00  0.00     0.000 HD 
ENDBRANCH  27  28
ENDBRANCH  21  22
ENDBRANCH   2  18
TORSDOF 6
ENDMDL
MODEL      187
REMARK 921   NORMALIZED FREE ENERGY PREDICTED BY IDOCK:   -4.11 KCAL/MOL
REMARK 922        TOTAL FREE ENERGY PREDICTED BY IDOCK:   -7.18 KCAL/MOL
REMARK 923 INTER-LIGAND FREE ENERGY PREDICTED BY IDOCK:   -6.94 KCAL/MOL
REMARK 924 INTRA-LIGAND FREE ENERGY PREDICTED BY IDOCK:   -0.24 KCAL/MOL
REMARK 927      BINDING AFFINITY PREDICTED BY RF-SCORE:    0.00 PKD
ROOT
HETATM    1  C   UNL     1     -10.242   8.642  71.893  1.00  0.00    -0.404 C  
HETATM    2  C   UNL     1     -11.243   7.523  71.584  1.00  0.00    -0.243 C  
ENDROOT
BRANCH   2   3
HETATM    3  C   UNL     1     -12.536   8.103  70.985  1.00  0.00    -0.099 C  
BRANCH   3   4
HETATM    4  N   UNL     1     -12.646   9.537  71.187  1.00  0.00    -0.314 NA 
HETATM    5  C   UNL     1     -13.320  10.168  72.188  1.00  0.00    -0.328 A  
HETATM    6  N   UNL     1     -12.061  10.384  70.322  1.00  0.00    -0.288 NA 
HETATM    7  C   UNL     1     -12.373  11.610  70.777  1.00  0.00    -0.358 A  
HETATM    8  C   UNL     1     -13.150  11.511  71.965  1.00  0.00    -0.430 A  
BRANCH   7   9
HETATM    9  C   UNL     1     -11.946  12.822  70.065  1.00  0.00    -0.371 A  
HETATM   10  C   UNL     1     -11.088  12.727  68.959  1.00  0.00    -0.285 A  
HETATM   11  C   UNL     1     -12.396  14.091  70.455  1.00  0.00    -0.437 A  
HETATM   12  N   UNL     1     -10.536  17.311  67.383  1.00  0.00    -0.347 NA 
HETATM   13  C   UNL     1     -12.007  15.234  69.749  1.00  0.00    -0.374 A  
HETATM   14 CL   UNL     1      -9.650  13.659  66.892  1.00  0.00    -0.254 Cl 
HETATM   15  C   UNL     1     -11.161  15.130  68.640  1.00  0.00    -0.295 A  
HETATM   16  C   UNL     1     -10.801  16.324  67.931  1.00  0.00    -0.330 C  
HETATM   17  C   UNL     1     -10.699  13.870  68.249  1.00  0.00    -0.251 A  
ENDBRANCH   7   9
ENDBRANCH   3   4
ENDBRANCH   2   3
BRANCH   2  18
HETATM   18  N   UNL     1     -10.619   6.501  70.749  1.00  0.00    -0.223 N  
HETATM   19  O   UNL     1     -10.271   4.964  72.414  1.00  0.00    -0.186 OA 
HETATM   20  H   UNL     1     -10.500   6.696  69.756  1.00  0.00     0.000 HD 
HETATM   21  C   UNL     1     -10.184   5.289  71.234  1.00  0.00    -0.224 C  
BRANCH  21  22
HETATM   22  C   UNL     1      -9.583   4.415  70.222  1.00  0.00    -0.193 A  
HETATM   23  N   UNL     1      -9.614   3.069  70.279  1.00  0.00    -0.136 NA 
HETATM   24  H   UNL     1     -10.049   2.479  70.988  1.00  0.00     0.000 HD 
HETATM   25  C   UNL     1      -8.890   4.864  69.074  1.00  0.00    -0.117 A  
HETATM   26  N   UNL     1      -8.935   2.687  69.178  1.00  0.00    -0.100 NA 
HETATM   27  C   UNL     1      -8.450   3.728  68.436  1.00  0.00    -0.091 A  
BRANCH  27  28
HETATM   28  C   UNL     1      -7.656   3.537  67.197  1.00  0.00    -0.079 C  
HETATM   29  C   UNL     1      -8.056   2.276  66.437  1.00  0.00    -0.084 C  
HETATM   30  O   UNL     1      -7.880   4.685  66.387  1.00  0.00    -0.097 OA 
HETATM   31  H   UNL     1      -7.372   4.562  65.594  1.00  0.00     0.000 HD 
ENDBRANCH  27  28
ENDBRANCH  21  22
ENDBRANCH   2  18
TORSDOF 6
ENDMDL
MODEL      188
REMARK 921   NORMALIZED FREE ENERGY PREDICTED BY IDOCK:   -4.08 KCAL/MOL
REMARK 922        TOTAL FREE ENERGY PREDICTED BY IDOCK:   -7.13 KCAL/MOL
REMARK 923 INTER-LIGAND FREE ENERGY PREDICTED BY IDOCK:   -7.44 KCAL/MOL
REMARK 924 INTRA-LIGAND FREE ENERGY PREDICTED BY IDOCK:    0.31 KCAL/MOL
REMARK 927      BINDING AFFINITY PREDICTED BY RF-SCORE:    0.00 PKD
ROOT
HETATM    1  C   UNL     1     -13.150  12.900  64.558  1.00  0.00    -0.005 C  
HETATM    2  C   UNL     1     -11.832  13.233  63.851  1.00  0.00    -0.465 C  
ENDROOT
BRANCH   2   3
HETATM    3  C   UNL     1     -11.318  14.616  64.286  1.00  0.00    -0.098 C  
BRANCH   3   4
HETATM    4  N   UNL     1     -10.729  14.597  65.613  1.00  0.00    -0.313 NA 
HETATM    5  C   UNL     1      -9.417  14.399  65.917  1.00  0.00    -0.154 A  
HETATM    6  N   UNL     1     -11.508  14.765  66.696  1.00  0.00    -0.354 NA 
HETATM    7  C   UNL     1     -10.670  14.668  67.742  1.00  0.00    -0.265 A  
HETATM    8  C   UNL     1      -9.338  14.457  67.287  1.00  0.00    -0.211 A  
BRANCH   7   9
HETATM    9  C   UNL     1     -11.157  14.756  69.125  1.00  0.00    -0.278 A  
HETATM   10  C   UNL     1     -11.808  13.663  69.717  1.00  0.00    -0.392 A  
HETATM   11  C   UNL     1     -10.967  15.916  69.889  1.00  0.00    -0.343 A  
HETATM   12  N   UNL     1     -12.785  15.086  74.280  1.00  0.00    -0.370 NA 
HETATM   13  C   UNL     1     -11.408  15.975  71.216  1.00  0.00    -0.397 A  
HETATM   14 CL   UNL     1     -13.029  12.322  71.697  1.00  0.00    -0.468 Cl 
HETATM   15  C   UNL     1     -12.045  14.877  71.803  1.00  0.00    -0.428 A  
HETATM   16  C   UNL     1     -12.464  14.972  73.171  1.00  0.00    -0.435 C  
HETATM   17  C   UNL     1     -12.248  13.720  71.045  1.00  0.00    -0.319 A  
ENDBRANCH   7   9
ENDBRANCH   3   4
ENDBRANCH   2   3
BRANCH   2  18
HETATM   18  N   UNL     1     -10.863  12.161  64.050  1.00  0.00    -0.345 N  
HETATM   19  O   UNL     1     -11.630  11.476  66.099  1.00  0.00    -0.345 OA 
HETATM   20  H   UNL     1     -10.164  12.000  63.325  1.00  0.00     0.000 HD 
HETATM   21  C   UNL     1     -10.842  11.356  65.166  1.00  0.00    -0.238 C  
BRANCH  21  22
HETATM   22  C   UNL     1      -9.780  10.346  65.163  1.00  0.00    -0.291 A  
HETATM   23  N   UNL     1      -9.396   9.658  66.256  1.00  0.00    -0.172 NA 
HETATM   24  H   UNL     1      -9.772   9.717  67.202  1.00  0.00     0.000 HD 
HETATM   25  C   UNL     1      -9.020   9.974  64.030  1.00  0.00    -0.270 A  
HETATM   26  N   UNL     1      -8.397   8.872  65.804  1.00  0.00    -0.127 NA 
HETATM   27  C   UNL     1      -8.109   9.047  64.479  1.00  0.00    -0.143 A  
BRANCH  27  28
HETATM   28  C   UNL     1      -7.033   8.302  63.780  1.00  0.00    -0.080 C  
HETATM   29  C   UNL     1      -6.327   7.304  64.692  1.00  0.00    -0.037 C  
HETATM   30  O   UNL     1      -7.649   7.618  62.695  1.00  0.00    -0.097 OA 
HETATM   31  H   UNL     1      -6.960   7.140  62.249  1.00  0.00     0.000 HD 
ENDBRANCH  27  28
ENDBRANCH  21  22
ENDBRANCH   2  18
TORSDOF 6
ENDMDL
MODEL      189
REMARK 921   NORMALIZED FREE ENERGY PREDICTED BY IDOCK:   -4.07 KCAL/MOL
REMARK 922        TOTAL FREE ENERGY PREDICTED BY IDOCK:   -7.12 KCAL/MOL
REMARK 923 INTER-LIGAND FREE ENERGY PREDICTED BY IDOCK:   -6.18 KCAL/MOL
REMARK 924 INTRA-LIGAND FREE ENERGY PREDICTED BY IDOCK:   -0.94 KCAL/MOL
REMARK 927      BINDING AFFINITY PREDICTED BY RF-SCORE:    0.00 PKD
ROOT
HETATM    1  C   UNL     1     -11.675  14.275  64.084  1.00  0.00    -0.279 C  
HETATM    2  C   UNL     1     -11.133  13.469  65.270  1.00  0.00    -0.297 C  
ENDROOT
BRANCH   2   3
HETATM    3  C   UNL     1     -12.286  12.830  66.062  1.00  0.00    -0.314 C  
BRANCH   3   4
HETATM    4  N   UNL     1     -11.817  12.076  67.212  1.00  0.00    -0.598 NA 
HETATM    5  C   UNL     1     -11.971  12.412  68.522  1.00  0.00    -0.223 A  
HETATM    6  N   UNL     1     -11.139  10.930  67.032  1.00  0.00    -0.263 NA 
HETATM    7  C   UNL     1     -10.836  10.510  68.272  1.00  0.00    -0.248 A  
HETATM    8  C   UNL     1     -11.364  11.411  69.238  1.00  0.00    -0.355 A  
BRANCH   7   9
HETATM    9  C   UNL     1     -10.048   9.291  68.497  1.00  0.00    -0.211 A  
HETATM   10  C   UNL     1      -9.155   9.216  69.577  1.00  0.00    -0.155 A  
HETATM   11  C   UNL     1     -10.181   8.174  67.661  1.00  0.00    -0.296 A  
HETATM   12  N   UNL     1      -7.289   4.713  69.372  1.00  0.00    -0.052 NA 
HETATM   13  C   UNL     1      -9.447   7.008  67.905  1.00  0.00    -0.128 A  
HETATM   14 CL   UNL     1      -7.355   8.041  71.186  1.00  0.00    -0.061 Cl 
HETATM   15  C   UNL     1      -8.568   6.937  68.991  1.00  0.00    -0.128 A  
HETATM   16  C   UNL     1      -7.850   5.717  69.219  1.00  0.00    -0.090 C  
HETATM   17  C   UNL     1      -8.422   8.049  69.825  1.00  0.00    -0.127 A  
ENDBRANCH   7   9
ENDBRANCH   3   4
ENDBRANCH   2   3
BRANCH   2  18
HETATM   18  N   UNL     1     -10.133  12.509  64.816  1.00  0.00    -0.428 N  
HETATM   19  O   UNL     1     -11.398  11.560  63.157  1.00  0.00    -0.227 OA 
HETATM   20  H   UNL     1      -9.230  12.491  65.291  1.00  0.00     0.000 HD 
HETATM   21  C   UNL     1     -10.344  11.626  63.782  1.00  0.00    -0.398 C  
BRANCH  21  22
HETATM   22  C   UNL     1      -9.207  10.746  63.497  1.00  0.00    -0.257 A  
HETATM   23  N   UNL     1      -8.367  10.918  62.457  1.00  0.00    -0.340 NA 
HETATM   24  H   UNL     1      -8.382  11.654  61.751  1.00  0.00     0.000 HD 
HETATM   25  C   UNL     1      -8.852   9.609  64.260  1.00  0.00    -0.260 A  
HETATM   26  N   UNL     1      -7.505   9.887  62.569  1.00  0.00    -0.114 NA 
HETATM   27  C   UNL     1      -7.771   9.052  63.618  1.00  0.00    -0.122 A  
BRANCH  27  28
HETATM   28  C   UNL     1      -6.962   7.844  63.915  1.00  0.00    -0.063 C  
HETATM   29  C   UNL     1      -7.440   7.115  65.166  1.00  0.00    -0.094 C  
HETATM   30  O   UNL     1      -7.074   6.990  62.782  1.00  0.00    -0.054 OA 
HETATM   31  H   UNL     1      -6.556   6.217  62.973  1.00  0.00     0.000 HD 
ENDBRANCH  27  28
ENDBRANCH  21  22
ENDBRANCH   2  18
TORSDOF 6
ENDMDL
MODEL      190
REMARK 921   NORMALIZED FREE ENERGY PREDICTED BY IDOCK:   -4.07 KCAL/MOL
REMARK 922        TOTAL FREE ENERGY PREDICTED BY IDOCK:   -7.11 KCAL/MOL
REMARK 923 INTER-LIGAND FREE ENERGY PREDICTED BY IDOCK:   -6.97 KCAL/MOL
REMARK 924 INTRA-LIGAND FREE ENERGY PREDICTED BY IDOCK:   -0.14 KCAL/MOL
REMARK 927      BINDING AFFINITY PREDICTED BY RF-SCORE:    0.00 PKD
ROOT
HETATM    1  C   UNL     1      -7.221  20.865  65.962  1.00  0.00     0.087 C  
HETATM    2  C   UNL     1      -8.087  20.160  67.011  1.00  0.00    -0.326 C  
ENDROOT
BRANCH   2   3
HETATM    3  C   UNL     1      -9.507  19.923  66.470  1.00  0.00    -0.410 C  
BRANCH   3   4
HETATM    4  N   UNL     1     -10.046  18.635  66.871  1.00  0.00    -0.344 NA 
HETATM    5  C   UNL     1     -10.850  18.388  67.942  1.00  0.00    -0.202 A  
HETATM    6  N   UNL     1      -9.742  17.531  66.167  1.00  0.00    -0.465 NA 
HETATM    7  C   UNL     1     -10.368  16.530  66.809  1.00  0.00    -0.296 A  
HETATM    8  C   UNL     1     -11.094  17.038  67.922  1.00  0.00    -0.125 A  
BRANCH   7   9
HETATM    9  C   UNL     1     -10.242  15.137  66.362  1.00  0.00    -0.291 A  
HETATM   10  C   UNL     1      -9.930  14.124  67.282  1.00  0.00    -0.249 A  
HETATM   11  C   UNL     1     -10.448  14.781  65.022  1.00  0.00    -0.443 A  
HETATM   12  N   UNL     1      -9.951   9.994  64.684  1.00  0.00    -0.249 NA 
HETATM   13  C   UNL     1     -10.356  13.445  64.616  1.00  0.00    -0.400 A  
HETATM   14 CL   UNL     1      -9.464  11.603  68.082  1.00  0.00    -0.185 Cl 
HETATM   15  C   UNL     1     -10.058  12.440  65.542  1.00  0.00    -0.287 A  
HETATM   16  C   UNL     1      -9.992  11.082  65.088  1.00  0.00    -0.278 C  
HETATM   17  C   UNL     1      -9.840  12.786  66.878  1.00  0.00    -0.236 A  
ENDBRANCH   7   9
ENDBRANCH   3   4
ENDBRANCH   2   3
BRANCH   2  18
HETATM   18  N   UNL     1      -7.430  18.944  67.478  1.00  0.00    -0.227 N  
HETATM   19  O   UNL     1      -6.905  18.104  65.411  1.00  0.00    -0.482 OA 
HETATM   20  H   UNL     1      -7.375  18.780  68.483  1.00  0.00     0.000 HD 
HETATM   21  C   UNL     1      -6.880  18.006  66.634  1.00  0.00    -0.204 C  
BRANCH  21  22
HETATM   22  C   UNL     1      -6.275  16.859  67.316  1.00  0.00    -0.165 A  
HETATM   23  N   UNL     1      -5.463  15.970  66.713  1.00  0.00    -0.148 NA 
HETATM   24  H   UNL     1      -5.146  15.963  65.743  1.00  0.00     0.000 HD 
HETATM   25  C   UNL     1      -6.471  16.532  68.678  1.00  0.00    -0.142 A  
HETATM   26  N   UNL     1      -5.166  15.091  67.692  1.00  0.00    -0.324 NA 
HETATM   27  C   UNL     1      -5.774  15.366  68.886  1.00  0.00    -0.098 A  
BRANCH  27  28
HETATM   28  C   UNL     1      -5.604  14.519  70.093  1.00  0.00    -0.119 C  
HETATM   29  C   UNL     1      -5.386  15.342  71.358  1.00  0.00     0.007 C  
HETATM   30  O   UNL     1      -6.790  13.743  70.216  1.00  0.00    -0.373 OA 
HETATM   31  H   UNL     1      -6.681  13.201  70.988  1.00  0.00     0.000 HD 
ENDBRANCH  27  28
ENDBRANCH  21  22
ENDBRANCH   2  18
TORSDOF 6
ENDMDL
MODEL      191
REMARK 921   NORMALIZED FREE ENERGY PREDICTED BY IDOCK:   -4.06 KCAL/MOL
REMARK 922        TOTAL FREE ENERGY PREDICTED BY IDOCK:   -7.11 KCAL/MOL
REMARK 923 INTER-LIGAND FREE ENERGY PREDICTED BY IDOCK:   -6.74 KCAL/MOL
REMARK 924 INTRA-LIGAND FREE ENERGY PREDICTED BY IDOCK:   -0.38 KCAL/MOL
REMARK 927      BINDING AFFINITY PREDICTED BY RF-SCORE:    0.00 PKD
ROOT
HETATM    1  C   UNL     1      -7.236   9.357  70.574  1.00  0.00    -0.126 C  
HETATM    2  C   UNL     1      -8.382   8.519  71.149  1.00  0.00    -0.150 C  
ENDROOT
BRANCH   2   3
HETATM    3  C   UNL     1      -9.708   9.297  71.082  1.00  0.00    -0.257 C  
BRANCH   3   4
HETATM    4  N   UNL     1     -10.168   9.492  69.719  1.00  0.00    -0.212 NA 
HETATM    5  C   UNL     1     -10.410   8.522  68.795  1.00  0.00    -0.213 A  
HETATM    6  N   UNL     1     -10.377  10.736  69.253  1.00  0.00    -0.218 NA 
HETATM    7  C   UNL     1     -10.763  10.565  67.977  1.00  0.00    -0.245 A  
HETATM    8  C   UNL     1     -10.815   9.179  67.660  1.00  0.00    -0.160 A  
BRANCH   7   9
HETATM    9  C   UNL     1     -11.049  11.711  67.103  1.00  0.00    -0.354 A  
HETATM   10  C   UNL     1     -10.857  11.608  65.716  1.00  0.00    -0.334 A  
HETATM   11  C   UNL     1     -11.535  12.918  67.622  1.00  0.00    -0.383 A  
HETATM   12  N   UNL     1     -12.273  15.915  63.914  1.00  0.00    -0.750 NA 
HETATM   13  C   UNL     1     -11.833  13.991  66.775  1.00  0.00    -0.450 A  
HETATM   14 CL   UNL     1     -10.902  12.460  63.171  1.00  0.00    -0.289 Cl 
HETATM   15  C   UNL     1     -11.651  13.876  65.393  1.00  0.00    -0.331 A  
HETATM   16  C   UNL     1     -11.987  14.992  64.557  1.00  0.00    -0.371 C  
HETATM   17  C   UNL     1     -11.157  12.680  64.866  1.00  0.00    -0.296 A  
ENDBRANCH   7   9
ENDBRANCH   3   4
ENDBRANCH   2   3
BRANCH   2  18
HETATM   18  N   UNL     1      -8.436   7.216  70.496  1.00  0.00    -0.137 N  
HETATM   19  O   UNL     1      -9.120   6.019  72.327  1.00  0.00    -0.142 OA 
HETATM   20  H   UNL     1      -8.183   7.159  69.510  1.00  0.00     0.000 HD 
HETATM   21  C   UNL     1      -8.810   6.059  71.141  1.00  0.00    -0.139 C  
BRANCH  21  22
HETATM   22  C   UNL     1      -8.787   4.862  70.295  1.00  0.00    -0.103 A  
HETATM   23  N   UNL     1      -8.296   3.671  70.694  1.00  0.00    -0.067 NA 
HETATM   24  H   UNL     1      -7.898   3.426  71.600  1.00  0.00     0.000 HD 
HETATM   25  C   UNL     1      -9.261   4.801  68.965  1.00  0.00    -0.174 A  
HETATM   26  N   UNL     1      -8.455   2.882  69.612  1.00  0.00    -0.058 NA 
HETATM   27  C   UNL     1      -9.002   3.522  68.533  1.00  0.00    -0.131 A  
BRANCH  27  28
HETATM   28  C   UNL     1      -9.246   2.850  67.233  1.00  0.00    -0.173 C  
HETATM   29  C   UNL     1      -7.967   2.671  66.420  1.00  0.00    -0.081 C  
HETATM   30  O   UNL     1      -9.815   1.581  67.530  1.00  0.00    -0.393 OA 
HETATM   31  H   UNL     1      -9.971   1.151  66.698  1.00  0.00     0.000 HD 
ENDBRANCH  27  28
ENDBRANCH  21  22
ENDBRANCH   2  18
TORSDOF 6
ENDMDL
MODEL      192
REMARK 921   NORMALIZED FREE ENERGY PREDICTED BY IDOCK:   -4.06 KCAL/MOL
REMARK 922        TOTAL FREE ENERGY PREDICTED BY IDOCK:   -7.10 KCAL/MOL
REMARK 923 INTER-LIGAND FREE ENERGY PREDICTED BY IDOCK:   -6.14 KCAL/MOL
REMARK 924 INTRA-LIGAND FREE ENERGY PREDICTED BY IDOCK:   -0.96 KCAL/MOL
REMARK 927      BINDING AFFINITY PREDICTED BY RF-SCORE:    0.00 PKD
ROOT
HETATM    1  C   UNL     1      -5.141  13.620  70.778  1.00  0.00    -0.114 C  
HETATM    2  C   UNL     1      -6.294  13.870  69.799  1.00  0.00    -0.125 C  
ENDROOT
BRANCH   2   3
HETATM    3  C   UNL     1      -6.520  15.379  69.604  1.00  0.00    -0.171 C  
BRANCH   3   4
HETATM    4  N   UNL     1      -7.392  15.668  68.479  1.00  0.00    -0.118 NA 
HETATM    5  C   UNL     1      -7.607  16.885  67.908  1.00  0.00    -0.171 A  
HETATM    6  N   UNL     1      -8.104  14.679  67.910  1.00  0.00    -0.134 NA 
HETATM    7  C   UNL     1      -8.810  15.279  66.937  1.00  0.00    -0.254 A  
HETATM    8  C   UNL     1      -8.506  16.668  66.894  1.00  0.00    -0.246 A  
BRANCH   7   9
HETATM    9  C   UNL     1      -9.756  14.527  66.102  1.00  0.00    -0.340 A  
HETATM   10  C   UNL     1      -9.684  13.127  66.037  1.00  0.00    -0.234 A  
HETATM   11  C   UNL     1     -10.758  15.179  65.370  1.00  0.00    -0.396 A  
HETATM   12  N   UNL     1     -13.372  11.797  63.134  1.00  0.00    -0.292 NA 
HETATM   13  C   UNL     1     -11.672  14.448  64.604  1.00  0.00    -0.438 A  
HETATM   14 CL   UNL     1     -10.445  10.671  65.262  1.00  0.00    -0.310 Cl 
HETATM   15  C   UNL     1     -11.602  13.052  64.556  1.00  0.00    -0.406 A  
HETATM   16  C   UNL     1     -12.570  12.339  63.774  1.00  0.00    -0.470 C  
HETATM   17  C   UNL     1     -10.600  12.393  65.273  1.00  0.00    -0.290 A  
ENDBRANCH   7   9
ENDBRANCH   3   4
ENDBRANCH   2   3
BRANCH   2  18
HETATM   18  N   UNL     1      -6.067  13.147  68.552  1.00  0.00    -0.072 N  
HETATM   19  O   UNL     1      -7.571  11.461  68.936  1.00  0.00    -0.124 OA 
HETATM   20  H   UNL     1      -5.378  13.517  67.898  1.00  0.00     0.000 HD 
HETATM   21  C   UNL     1      -6.735  11.992  68.213  1.00  0.00    -0.061 C  
BRANCH  21  22
HETATM   22  C   UNL     1      -6.347  11.429  66.917  1.00  0.00    -0.137 A  
HETATM   23  N   UNL     1      -5.314  11.883  66.180  1.00  0.00    -0.455 NA 
HETATM   24  H   UNL     1      -4.667  12.640  66.402  1.00  0.00     0.000 HD 
HETATM   25  C   UNL     1      -7.004  10.356  66.272  1.00  0.00    -0.118 A  
HETATM   26  N   UNL     1      -5.339  11.103  65.080  1.00  0.00    -0.191 NA 
HETATM   27  C   UNL     1      -6.356  10.189  65.071  1.00  0.00    -0.123 A  
BRANCH  27  28
HETATM   28  C   UNL     1      -6.583   9.244  63.949  1.00  0.00    -0.092 C  
HETATM   29  C   UNL     1      -7.777   8.327  64.192  1.00  0.00    -0.138 C  
HETATM   30  O   UNL     1      -6.806  10.035  62.788  1.00  0.00    -0.117 OA 
HETATM   31  H   UNL     1      -6.952   9.431  62.071  1.00  0.00     0.000 HD 
ENDBRANCH  27  28
ENDBRANCH  21  22
ENDBRANCH   2  18
TORSDOF 6
ENDMDL
MODEL      193
REMARK 921   NORMALIZED FREE ENERGY PREDICTED BY IDOCK:   -4.06 KCAL/MOL
REMARK 922        TOTAL FREE ENERGY PREDICTED BY IDOCK:   -7.10 KCAL/MOL
REMARK 923 INTER-LIGAND FREE ENERGY PREDICTED BY IDOCK:   -6.77 KCAL/MOL
REMARK 924 INTRA-LIGAND FREE ENERGY PREDICTED BY IDOCK:   -0.33 KCAL/MOL
REMARK 927      BINDING AFFINITY PREDICTED BY RF-SCORE:    0.00 PKD
ROOT
HETATM    1  C   UNL     1      -7.576   9.360  69.768  1.00  0.00    -0.095 C  
HETATM    2  C   UNL     1      -8.913   8.652  70.010  1.00  0.00    -0.147 C  
ENDROOT
BRANCH   2   3
HETATM    3  C   UNL     1     -10.070   9.666  70.015  1.00  0.00    -0.252 C  
BRANCH   3   4
HETATM    4  N   UNL     1     -10.127  10.448  68.792  1.00  0.00    -0.178 NA 
HETATM    5  C   UNL     1     -10.137   9.967  67.519  1.00  0.00    -0.197 A  
HETATM    6  N   UNL     1     -10.154  11.791  68.855  1.00  0.00    -0.131 NA 
HETATM    7  C   UNL     1     -10.177  12.195  67.573  1.00  0.00    -0.199 A  
HETATM    8  C   UNL     1     -10.188  11.069  66.703  1.00  0.00    -0.280 A  
BRANCH   7   9
HETATM    9  C   UNL     1     -10.168  13.620  67.220  1.00  0.00    -0.246 A  
HETATM   10  C   UNL     1     -10.705  14.049  65.995  1.00  0.00    -0.294 A  
HETATM   11  C   UNL     1      -9.649  14.584  68.095  1.00  0.00    -0.212 A  
HETATM   12  N   UNL     1     -10.255  18.907  66.041  1.00  0.00    -0.521 NA 
HETATM   13  C   UNL     1      -9.676  15.942  67.759  1.00  0.00    -0.220 A  
HETATM   14 CL   UNL     1     -11.425  15.846  64.136  1.00  0.00    -0.246 Cl 
HETATM   15  C   UNL     1     -10.223  16.362  66.543  1.00  0.00    -0.310 A  
HETATM   16  C   UNL     1     -10.249  17.764  66.245  1.00  0.00    -0.364 C  
HETATM   17  C   UNL     1     -10.735  15.408  65.659  1.00  0.00    -0.369 A  
ENDBRANCH   7   9
ENDBRANCH   3   4
ENDBRANCH   2   3
BRANCH   2  18
HETATM   18  N   UNL     1      -9.093   7.565  69.053  1.00  0.00    -0.141 N  
HETATM   19  O   UNL     1      -9.555   5.925  70.586  1.00  0.00    -0.168 OA 
HETATM   20  H   UNL     1      -8.978   7.771  68.061  1.00  0.00     0.000 HD 
HETATM   21  C   UNL     1      -9.408   6.276  69.420  1.00  0.00    -0.140 C  
BRANCH  21  22
HETATM   22  C   UNL     1      -9.535   5.343  68.297  1.00  0.00    -0.119 A  
HETATM   23  N   UNL     1      -9.149   4.053  68.346  1.00  0.00    -0.126 NA 
HETATM   24  H   UNL     1      -8.742   3.547  69.133  1.00  0.00     0.000 HD 
HETATM   25  C   UNL     1     -10.064   5.671  67.027  1.00  0.00    -0.223 A  
HETATM   26  N   UNL     1      -9.426   3.589  67.111  1.00  0.00    -0.204 NA 
HETATM   27  C   UNL     1      -9.947   4.531  66.268  1.00  0.00    -0.247 A  
BRANCH  27  28
HETATM   28  C   UNL     1     -10.305   4.244  64.857  1.00  0.00    -0.165 C  
HETATM   29  C   UNL     1      -9.815   2.874  64.398  1.00  0.00    -0.105 C  
HETATM   30  O   UNL     1     -11.724   4.305  64.775  1.00  0.00    -0.872 OA 
HETATM   31  H   UNL     1     -11.953   4.121  63.872  1.00  0.00     0.000 HD 
ENDBRANCH  27  28
ENDBRANCH  21  22
ENDBRANCH   2  18
TORSDOF 6
ENDMDL
MODEL      194
REMARK 921   NORMALIZED FREE ENERGY PREDICTED BY IDOCK:   -4.04 KCAL/MOL
REMARK 922        TOTAL FREE ENERGY PREDICTED BY IDOCK:   -7.08 KCAL/MOL
REMARK 923 INTER-LIGAND FREE ENERGY PREDICTED BY IDOCK:   -6.57 KCAL/MOL
REMARK 924 INTRA-LIGAND FREE ENERGY PREDICTED BY IDOCK:   -0.51 KCAL/MOL
REMARK 927      BINDING AFFINITY PREDICTED BY RF-SCORE:    0.00 PKD
ROOT
HETATM    1  C   UNL     1      -7.608  11.884  67.542  1.00  0.00    -0.140 C  
HETATM    2  C   UNL     1      -8.974  12.528  67.284  1.00  0.00    -0.192 C  
ENDROOT
BRANCH   2   3
HETATM    3  C   UNL     1     -10.008  12.032  68.309  1.00  0.00    -0.203 C  
BRANCH   3   4
HETATM    4  N   UNL     1     -10.077  10.582  68.370  1.00  0.00    -0.158 NA 
HETATM    5  C   UNL     1     -10.637   9.755  67.446  1.00  0.00    -0.267 A  
HETATM    6  N   UNL     1      -9.570   9.930  69.431  1.00  0.00    -0.202 NA 
HETATM    7  C   UNL     1      -9.817   8.632  69.188  1.00  0.00    -0.185 A  
HETATM    8  C   UNL     1     -10.471   8.483  67.933  1.00  0.00    -0.262 A  
BRANCH   7   9
HETATM    9  C   UNL     1      -9.446   7.588  70.151  1.00  0.00    -0.161 A  
HETATM   10  C   UNL     1      -8.293   7.730  70.940  1.00  0.00    -0.111 A  
HETATM   11  C   UNL     1     -10.236   6.443  70.324  1.00  0.00    -0.236 A  
HETATM   12  N   UNL     1      -8.217   3.782  73.805  1.00  0.00    -0.086 NA 
HETATM   13  C   UNL     1      -9.888   5.471  71.269  1.00  0.00    -0.228 A  
HETATM   14 CL   UNL     1      -6.515   7.023  72.823  1.00  0.00    -0.057 Cl 
HETATM   15  C   UNL     1      -8.745   5.627  72.059  1.00  0.00    -0.134 A  
HETATM   16  C   UNL     1      -8.434   4.617  73.029  1.00  0.00    -0.099 C  
HETATM   17  C   UNL     1      -7.945   6.760  71.888  1.00  0.00    -0.101 A  
ENDBRANCH   7   9
ENDBRANCH   3   4
ENDBRANCH   2   3
BRANCH   2  18
HETATM   18  N   UNL     1      -8.850  13.981  67.237  1.00  0.00    -0.207 N  
HETATM   19  O   UNL     1     -10.763  14.380  66.038  1.00  0.00    -0.291 OA 
HETATM   20  H   UNL     1      -8.042  14.412  67.686  1.00  0.00     0.000 HD 
HETATM   21  C   UNL     1      -9.766  14.801  66.617  1.00  0.00    -0.267 C  
BRANCH  21  22
HETATM   22  C   UNL     1      -9.441  16.228  66.684  1.00  0.00    -0.248 A  
HETATM   23  N   UNL     1      -8.660  16.863  65.788  1.00  0.00    -0.460 NA 
HETATM   24  H   UNL     1      -8.208  16.475  64.960  1.00  0.00     0.000 HD 
HETATM   25  C   UNL     1      -9.891  17.114  67.690  1.00  0.00    -0.270 A  
HETATM   26  N   UNL     1      -8.617  18.132  66.244  1.00  0.00    -0.448 NA 
HETATM   27  C   UNL     1      -9.315  18.329  67.403  1.00  0.00    -0.261 A  
BRANCH  27  28
HETATM   28  C   UNL     1      -9.385  19.642  68.091  1.00  0.00    -0.352 C  
HETATM   29  C   UNL     1     -10.012  20.724  67.219  1.00  0.00    -0.348 C  
HETATM   30  O   UNL     1     -10.167  19.447  69.263  1.00  0.00    -0.596 OA 
HETATM   31  H   UNL     1     -10.212  20.288  69.703  1.00  0.00     0.000 HD 
ENDBRANCH  27  28
ENDBRANCH  21  22
ENDBRANCH   2  18
TORSDOF 6
ENDMDL
MODEL      195
REMARK 921   NORMALIZED FREE ENERGY PREDICTED BY IDOCK:   -3.98 KCAL/MOL
REMARK 922        TOTAL FREE ENERGY PREDICTED BY IDOCK:   -7.00 KCAL/MOL
REMARK 923 INTER-LIGAND FREE ENERGY PREDICTED BY IDOCK:   -5.65 KCAL/MOL
REMARK 924 INTRA-LIGAND FREE ENERGY PREDICTED BY IDOCK:   -1.35 KCAL/MOL
REMARK 927      BINDING AFFINITY PREDICTED BY RF-SCORE:    0.00 PKD
ROOT
HETATM    1  C   UNL     1      -8.191   5.244  70.849  1.00  0.00    -0.112 C  
HETATM    2  C   UNL     1      -9.113   6.249  70.149  1.00  0.00    -0.153 C  
ENDROOT
BRANCH   2   3
HETATM    3  C   UNL     1      -9.072   7.610  70.865  1.00  0.00    -0.149 C  
BRANCH   3   4
HETATM    4  N   UNL     1     -10.110   8.513  70.400  1.00  0.00    -0.186 NA 
HETATM    5  C   UNL     1     -11.396   8.572  70.844  1.00  0.00    -0.268 A  
HETATM    6  N   UNL     1      -9.845   9.391  69.417  1.00  0.00    -0.170 NA 
HETATM    7  C   UNL     1     -11.004  10.041  69.214  1.00  0.00    -0.228 A  
HETATM    8  C   UNL     1     -11.999   9.563  70.111  1.00  0.00     0.040 A  
BRANCH   7   9
HETATM    9  C   UNL     1     -11.134  11.068  68.172  1.00  0.00    -0.329 A  
HETATM   10  C   UNL     1     -10.948  10.734  66.821  1.00  0.00    -0.214 A  
HETATM   11  C   UNL     1     -11.464  12.392  68.493  1.00  0.00    -0.350 A  
HETATM   12  N   UNL     1     -11.785  14.863  64.362  1.00  0.00    -0.367 NA 
HETATM   13  C   UNL     1     -11.615  13.353  67.488  1.00  0.00    -0.382 A  
HETATM   14 CL   UNL     1     -10.866  11.190  64.177  1.00  0.00    -0.422 Cl 
HETATM   15  C   UNL     1     -11.441  13.009  66.144  1.00  0.00    -0.381 A  
HETATM   16  C   UNL     1     -11.624  14.019  65.143  1.00  0.00    -0.342 C  
HETATM   17  C   UNL     1     -11.102  11.694  65.814  1.00  0.00    -0.256 A  
ENDBRANCH   7   9
ENDBRANCH   3   4
ENDBRANCH   2   3
BRANCH   2  18
HETATM   18  N   UNL     1      -8.793   6.327  68.728  1.00  0.00    -0.123 N  
HETATM   19  O   UNL     1     -10.946   6.194  67.955  1.00  0.00    -0.312 OA 
HETATM   20  H   UNL     1      -7.813   6.406  68.457  1.00  0.00     0.000 HD 
HETATM   21  C   UNL     1      -9.744   6.299  67.734  1.00  0.00    -0.118 C  
BRANCH  21  22
HETATM   22  C   UNL     1      -9.201   6.384  66.375  1.00  0.00    -0.155 A  
HETATM   23  N   UNL     1      -9.511   5.521  65.388  1.00  0.00    -0.365 NA 
HETATM   24  H   UNL     1     -10.148   4.724  65.424  1.00  0.00     0.000 HD 
HETATM   25  C   UNL     1      -8.284   7.364  65.930  1.00  0.00    -0.134 A  
HETATM   26  N   UNL     1      -8.782   5.957  64.341  1.00  0.00     0.104 NA 
HETATM   27  C   UNL     1      -8.001   7.044  64.623  1.00  0.00    -0.114 A  
BRANCH  27  28
HETATM   28  C   UNL     1      -7.103   7.675  63.625  1.00  0.00    -0.070 C  
HETATM   29  C   UNL     1      -5.654   7.734  64.098  1.00  0.00    -0.041 C  
HETATM   30  O   UNL     1      -7.195   6.892  62.440  1.00  0.00    -0.054 OA 
HETATM   31  H   UNL     1      -6.620   7.296  61.802  1.00  0.00     0.000 HD 
ENDBRANCH  27  28
ENDBRANCH  21  22
ENDBRANCH   2  18
TORSDOF 6
ENDMDL
MODEL      196
REMARK 921   NORMALIZED FREE ENERGY PREDICTED BY IDOCK:   -3.96 KCAL/MOL
REMARK 922        TOTAL FREE ENERGY PREDICTED BY IDOCK:   -6.97 KCAL/MOL
REMARK 923 INTER-LIGAND FREE ENERGY PREDICTED BY IDOCK:   -6.33 KCAL/MOL
REMARK 924 INTRA-LIGAND FREE ENERGY PREDICTED BY IDOCK:   -0.63 KCAL/MOL
REMARK 927      BINDING AFFINITY PREDICTED BY RF-SCORE:    0.00 PKD
ROOT
HETATM    1  C   UNL     1      -7.731  10.348  69.148  1.00  0.00    -0.126 C  
HETATM    2  C   UNL     1      -9.113   9.939  69.668  1.00  0.00    -0.227 C  
ENDROOT
BRANCH   2   3
HETATM    3  C   UNL     1     -10.200  10.261  68.629  1.00  0.00    -0.180 C  
BRANCH   3   4
HETATM    4  N   UNL     1     -10.766  11.586  68.812  1.00  0.00    -0.204 NA 
HETATM    5  C   UNL     1     -11.786  11.927  69.647  1.00  0.00    -0.337 A  
HETATM    6  N   UNL     1     -10.293  12.623  68.099  1.00  0.00    -0.227 NA 
HETATM    7  C   UNL     1     -11.037  13.674  68.482  1.00  0.00    -0.275 A  
HETATM    8  C   UNL     1     -11.977  13.275  69.474  1.00  0.00    -0.366 A  
BRANCH   7   9
HETATM    9  C   UNL     1     -10.849  15.004  67.888  1.00  0.00    -0.280 A  
HETATM   10  C   UNL     1     -10.636  16.122  68.709  1.00  0.00    -0.279 A  
HETATM   11  C   UNL     1     -10.857  15.187  66.498  1.00  0.00    -0.317 A  
HETATM   12  N   UNL     1      -9.999  19.855  65.633  1.00  0.00    -0.373 NA 
HETATM   13  C   UNL     1     -10.645  16.454  65.945  1.00  0.00    -0.294 A  
HETATM   14 CL   UNL     1     -10.153  18.708  69.243  1.00  0.00    -0.212 Cl 
HETATM   15  C   UNL     1     -10.420  17.561  66.770  1.00  0.00    -0.270 A  
HETATM   16  C   UNL     1     -10.187  18.839  66.162  1.00  0.00    -0.421 C  
HETATM   17  C   UNL     1     -10.420  17.391  68.157  1.00  0.00    -0.389 A  
ENDBRANCH   7   9
ENDBRANCH   3   4
ENDBRANCH   2   3
BRANCH   2  18
HETATM   18  N   UNL     1      -9.104   8.542  70.090  1.00  0.00    -0.148 N  
HETATM   19  O   UNL     1      -8.677   8.929  72.309  1.00  0.00    -0.395 OA 
HETATM   20  H   UNL     1      -9.264   7.824  69.385  1.00  0.00     0.000 HD 
HETATM   21  C   UNL     1      -8.891   8.144  71.391  1.00  0.00    -0.149 C  
BRANCH  21  22
HETATM   22  C   UNL     1      -8.918   6.692  71.590  1.00  0.00    -0.141 A  
HETATM   23  N   UNL     1      -9.694   6.075  72.502  1.00  0.00    -0.157 NA 
HETATM   24  H   UNL     1     -10.358   6.495  73.152  1.00  0.00     0.000 HD 
HETATM   25  C   UNL     1      -8.135   5.762  70.869  1.00  0.00    -0.119 A  
HETATM   26  N   UNL     1      -9.385   4.771  72.354  1.00  0.00    -0.129 NA 
HETATM   27  C   UNL     1      -8.429   4.531  71.406  1.00  0.00    -0.105 A  
BRANCH  27  28
HETATM   28  C   UNL     1      -7.923   3.171  71.094  1.00  0.00    -0.054 C  
HETATM   29  C   UNL     1      -8.830   2.072  71.639  1.00  0.00    -0.113 C  
HETATM   30  O   UNL     1      -7.846   3.080  69.677  1.00  0.00    -0.044 OA 
HETATM   31  H   UNL     1      -7.523   2.210  69.477  1.00  0.00     0.000 HD 
ENDBRANCH  27  28
ENDBRANCH  21  22
ENDBRANCH   2  18
TORSDOF 6
ENDMDL
MODEL      197
REMARK 921   NORMALIZED FREE ENERGY PREDICTED BY IDOCK:   -3.95 KCAL/MOL
REMARK 922        TOTAL FREE ENERGY PREDICTED BY IDOCK:   -6.96 KCAL/MOL
REMARK 923 INTER-LIGAND FREE ENERGY PREDICTED BY IDOCK:   -6.91 KCAL/MOL
REMARK 924 INTRA-LIGAND FREE ENERGY PREDICTED BY IDOCK:   -0.04 KCAL/MOL
REMARK 927      BINDING AFFINITY PREDICTED BY RF-SCORE:    0.00 PKD
ROOT
HETATM    1  C   UNL     1     -10.136  10.346  65.313  1.00  0.00    -0.370 C  
HETATM    2  C   UNL     1     -10.711  11.186  66.459  1.00  0.00    -0.260 C  
ENDROOT
BRANCH   2   3
HETATM    3  C   UNL     1     -10.038  10.815  67.792  1.00  0.00    -0.174 C  
BRANCH   3   4
HETATM    4  N   UNL     1     -10.015   9.381  68.022  1.00  0.00    -0.168 NA 
HETATM    5  C   UNL     1     -10.753   8.692  68.936  1.00  0.00    -0.082 A  
HETATM    6  N   UNL     1      -9.189   8.600  67.305  1.00  0.00    -0.138 NA 
HETATM    7  C   UNL     1      -9.395   7.358  67.776  1.00  0.00    -0.136 A  
HETATM    8  C   UNL     1     -10.390   7.376  68.792  1.00  0.00    -0.209 A  
BRANCH   7   9
HETATM    9  C   UNL     1      -8.634   6.209  67.266  1.00  0.00    -0.103 A  
HETATM   10  C   UNL     1      -8.535   5.033  68.025  1.00  0.00    -0.103 A  
HETATM   11  C   UNL     1      -8.010   6.250  66.012  1.00  0.00    -0.114 A  
HETATM   12  N   UNL     1      -5.952   1.951  65.263  1.00  0.00    -0.017 NA 
HETATM   13  C   UNL     1      -7.315   5.137  65.524  1.00  0.00    -0.073 A  
HETATM   14 CL   UNL     1      -7.783   2.506  68.535  1.00  0.00    -0.054 Cl 
HETATM   15  C   UNL     1      -7.233   3.964  66.281  1.00  0.00    -0.064 A  
HETATM   16  C   UNL     1      -6.528   2.840  65.738  1.00  0.00    -0.028 C  
HETATM   17  C   UNL     1      -7.843   3.917  67.538  1.00  0.00    -0.086 A  
ENDBRANCH   7   9
ENDBRANCH   3   4
ENDBRANCH   2   3
BRANCH   2  18
HETATM   18  N   UNL     1     -10.629  12.607  66.139  1.00  0.00    -0.254 N  
HETATM   19  O   UNL     1     -12.755  12.824  65.312  1.00  0.00    -0.625 OA 
HETATM   20  H   UNL     1      -9.754  13.095  66.330  1.00  0.00     0.000 HD 
HETATM   21  C   UNL     1     -11.669  13.322  65.591  1.00  0.00    -0.356 C  
BRANCH  21  22
HETATM   22  C   UNL     1     -11.367  14.735  65.344  1.00  0.00    -0.356 A  
HETATM   23  N   UNL     1     -11.821  15.424  64.279  1.00  0.00    -0.757 NA 
HETATM   24  H   UNL     1     -12.424  15.093  63.525  1.00  0.00     0.000 HD 
HETATM   25  C   UNL     1     -10.561  15.547  66.175  1.00  0.00    -0.321 A  
HETATM   26  N   UNL     1     -11.290  16.653  64.443  1.00  0.00    -1.044 NA 
HETATM   27  C   UNL     1     -10.498  16.771  65.551  1.00  0.00    -0.237 A  
BRANCH  27  28
HETATM   28  C   UNL     1      -9.797  18.028  65.913  1.00  0.00    -0.042 C  
HETATM   29  C   UNL     1     -10.613  18.897  66.864  1.00  0.00    -0.495 C  
HETATM   30  O   UNL     1      -8.572  17.649  66.530  1.00  0.00    -0.247 OA 
HETATM   31  H   UNL     1      -8.124  18.454  66.762  1.00  0.00     0.000 HD 
ENDBRANCH  27  28
ENDBRANCH  21  22
ENDBRANCH   2  18
TORSDOF 6
ENDMDL
MODEL      198
REMARK 921   NORMALIZED FREE ENERGY PREDICTED BY IDOCK:   -3.95 KCAL/MOL
REMARK 922        TOTAL FREE ENERGY PREDICTED BY IDOCK:   -6.95 KCAL/MOL
REMARK 923 INTER-LIGAND FREE ENERGY PREDICTED BY IDOCK:   -6.27 KCAL/MOL
REMARK 924 INTRA-LIGAND FREE ENERGY PREDICTED BY IDOCK:   -0.69 KCAL/MOL
REMARK 927      BINDING AFFINITY PREDICTED BY RF-SCORE:    0.00 PKD
ROOT
HETATM    1  C   UNL     1     -10.967  15.477  69.897  1.00  0.00    -0.315 C  
HETATM    2  C   UNL     1      -9.831  15.125  68.930  1.00  0.00    -0.229 C  
ENDROOT
BRANCH   2   3
HETATM    3  C   UNL     1     -10.309  14.106  67.882  1.00  0.00    -0.234 C  
BRANCH   3   4
HETATM    4  N   UNL     1      -9.524  12.884  67.899  1.00  0.00    -0.201 NA 
HETATM    5  C   UNL     1      -8.224  12.758  68.285  1.00  0.00    -0.159 A  
HETATM    6  N   UNL     1     -10.071  11.728  67.486  1.00  0.00    -0.190 NA 
HETATM    7  C   UNL     1      -9.088  10.819  67.603  1.00  0.00    -0.147 A  
HETATM    8  C   UNL     1      -7.914  11.431  68.124  1.00  0.00    -0.133 A  
BRANCH   7   9
HETATM    9  C   UNL     1      -9.286   9.420  67.203  1.00  0.00    -0.159 A  
HETATM   10  C   UNL     1      -8.234   8.696  66.619  1.00  0.00    -0.107 A  
HETATM   11  C   UNL     1     -10.510   8.771  67.410  1.00  0.00    -0.349 A  
HETATM   12  N   UNL     1     -10.025   4.216  65.896  1.00  0.00    -0.207 NA 
HETATM   13  C   UNL     1     -10.675   7.428  67.053  1.00  0.00    -0.389 A  
HETATM   14 CL   UNL     1      -7.045   6.534  65.562  1.00  0.00    -0.063 Cl 
HETATM   15  C   UNL     1      -9.619   6.710  66.483  1.00  0.00    -0.187 A  
HETATM   16  C   UNL     1      -9.823   5.330  66.149  1.00  0.00    -0.165 C  
HETATM   17  C   UNL     1      -8.397   7.351  66.263  1.00  0.00    -0.132 A  
ENDBRANCH   7   9
ENDBRANCH   3   4
ENDBRANCH   2   3
BRANCH   2  18
HETATM   18  N   UNL     1      -9.265  16.338  68.349  1.00  0.00    -0.197 N  
HETATM   19  O   UNL     1      -7.269  16.275  69.472  1.00  0.00    -0.219 OA 
HETATM   20  H   UNL     1      -9.826  16.858  67.674  1.00  0.00     0.000 HD 
HETATM   21  C   UNL     1      -8.015  16.818  68.664  1.00  0.00    -0.246 C  
BRANCH  21  22
HETATM   22  C   UNL     1      -7.649  18.055  67.968  1.00  0.00    -0.244 A  
HETATM   23  N   UNL     1      -7.921  19.289  68.437  1.00  0.00    -0.328 NA 
HETATM   24  H   UNL     1      -8.387  19.543  69.309  1.00  0.00     0.000 HD 
HETATM   25  C   UNL     1      -6.980  18.116  66.724  1.00  0.00    -0.226 A  
HETATM   26  N   UNL     1      -7.434  20.108  67.483  1.00  0.00    -0.284 NA 
HETATM   27  C   UNL     1      -6.886  19.453  66.415  1.00  0.00    -0.204 A  
BRANCH  27  28
HETATM   28  C   UNL     1      -6.311  20.157  65.243  1.00  0.00    -0.262 C  
HETATM   29  C   UNL     1      -5.656  19.201  64.252  1.00  0.00    -0.317 C  
HETATM   30  O   UNL     1      -7.383  20.850  64.616  1.00  0.00    -0.370 OA 
HETATM   31  H   UNL     1      -7.015  21.300  63.866  1.00  0.00     0.000 HD 
ENDBRANCH  27  28
ENDBRANCH  21  22
ENDBRANCH   2  18
TORSDOF 6
ENDMDL
MODEL      199
REMARK 921   NORMALIZED FREE ENERGY PREDICTED BY IDOCK:   -3.93 KCAL/MOL
REMARK 922        TOTAL FREE ENERGY PREDICTED BY IDOCK:   -6.93 KCAL/MOL
REMARK 923 INTER-LIGAND FREE ENERGY PREDICTED BY IDOCK:   -5.87 KCAL/MOL
REMARK 924 INTRA-LIGAND FREE ENERGY PREDICTED BY IDOCK:   -1.06 KCAL/MOL
REMARK 927      BINDING AFFINITY PREDICTED BY RF-SCORE:    0.00 PKD
ROOT
HETATM    1  C   UNL     1     -13.027  11.788  71.584  1.00  0.00    -0.467 C  
HETATM    2  C   UNL     1     -12.103  11.482  70.400  1.00  0.00    -0.382 C  
ENDROOT
BRANCH   2   3
HETATM    3  C   UNL     1     -11.601  12.785  69.754  1.00  0.00    -0.218 C  
BRANCH   3   4
HETATM    4  N   UNL     1     -11.415  12.656  68.319  1.00  0.00    -0.289 NA 
HETATM    5  C   UNL     1     -12.177  13.228  67.346  1.00  0.00    -0.186 A  
HETATM    6  N   UNL     1     -10.418  11.894  67.837  1.00  0.00    -0.199 NA 
HETATM    7  C   UNL     1     -10.542  11.969  66.501  1.00  0.00    -0.234 A  
HETATM    8  C   UNL     1     -11.629  12.820  66.156  1.00  0.00    -0.431 A  
BRANCH   7   9
HETATM    9  C   UNL     1      -9.647  11.225  65.605  1.00  0.00    -0.260 A  
HETATM   10  C   UNL     1      -8.326  10.950  65.993  1.00  0.00    -0.165 A  
HETATM   11  C   UNL     1     -10.090  10.755  64.361  1.00  0.00    -0.419 A  
HETATM   12  N   UNL     1      -6.444   8.334  62.331  1.00  0.00    -0.087 NA 
HETATM   13  C   UNL     1      -9.236  10.019  63.532  1.00  0.00    -0.315 A  
HETATM   14 CL   UNL     1      -5.865   9.911  65.729  1.00  0.00    -0.060 Cl 
HETATM   15  C   UNL     1      -7.925   9.739  63.931  1.00  0.00    -0.146 A  
HETATM   16  C   UNL     1      -7.089   8.965  63.060  1.00  0.00    -0.089 C  
HETATM   17  C   UNL     1      -7.472  10.212  65.165  1.00  0.00    -0.141 A  
ENDBRANCH   7   9
ENDBRANCH   3   4
ENDBRANCH   2   3
BRANCH   2  18
HETATM   18  N   UNL     1     -11.031  10.583  70.812  1.00  0.00    -0.338 N  
HETATM   19  O   UNL     1     -12.190   8.626  70.526  1.00  0.00    -0.014 OA 
HETATM   20  H   UNL     1     -10.141  10.991  71.096  1.00  0.00     0.000 HD 
HETATM   21  C   UNL     1     -11.158   9.213  70.837  1.00  0.00    -0.291 C  
BRANCH  21  22
HETATM   22  C   UNL     1      -9.958   8.503  71.290  1.00  0.00    -0.221 A  
HETATM   23  N   UNL     1      -9.366   7.511  70.595  1.00  0.00    -0.163 NA 
HETATM   24  H   UNL     1      -9.636   7.129  69.689  1.00  0.00     0.000 HD 
HETATM   25  C   UNL     1      -9.279   8.754  72.504  1.00  0.00    -0.046 A  
HETATM   26  N   UNL     1      -8.333   7.144  71.380  1.00  0.00    -0.112 NA 
HETATM   27  C   UNL     1      -8.255   7.838  72.556  1.00  0.00    -0.127 A  
BRANCH  27  28
HETATM   28  C   UNL     1      -7.210   7.583  73.578  1.00  0.00    -0.084 C  
HETATM   29  C   UNL     1      -6.101   6.670  73.063  1.00  0.00    -0.057 C  
HETATM   30  O   UNL     1      -6.670   8.849  73.935  1.00  0.00    -0.334 OA 
HETATM   31  H   UNL     1      -6.000   8.686  74.588  1.00  0.00     0.000 HD 
ENDBRANCH  27  28
ENDBRANCH  21  22
ENDBRANCH   2  18
TORSDOF 6
ENDMDL
MODEL      200
REMARK 921   NORMALIZED FREE ENERGY PREDICTED BY IDOCK:   -3.90 KCAL/MOL
REMARK 922        TOTAL FREE ENERGY PREDICTED BY IDOCK:   -6.90 KCAL/MOL
REMARK 923 INTER-LIGAND FREE ENERGY PREDICTED BY IDOCK:   -6.76 KCAL/MOL
REMARK 924 INTRA-LIGAND FREE ENERGY PREDICTED BY IDOCK:   -0.13 KCAL/MOL
REMARK 927      BINDING AFFINITY PREDICTED BY RF-SCORE:    0.00 PKD
ROOT
HETATM    1  C   UNL     1      -9.354   6.014  73.254  1.00  0.00    -0.135 C  
HETATM    2  C   UNL     1     -10.119   6.916  72.280  1.00  0.00    -0.176 C  
ENDROOT
BRANCH   2   3
HETATM    3  C   UNL     1     -11.244   7.671  73.010  1.00  0.00    -0.333 C  
BRANCH   3   4
HETATM    4  N   UNL     1     -11.833   8.715  72.191  1.00  0.00    -0.367 NA 
HETATM    5  C   UNL     1     -13.015   9.353  72.413  1.00  0.00    -0.351 A  
HETATM    6  N   UNL     1     -11.207   9.127  71.075  1.00  0.00    -0.286 NA 
HETATM    7  C   UNL     1     -12.017  10.063  70.551  1.00  0.00    -0.272 A  
HETATM    8  C   UNL     1     -13.158  10.246  71.381  1.00  0.00    -0.512 A  
BRANCH   7   9
HETATM    9  C   UNL     1     -11.696  10.731  69.283  1.00  0.00    -0.374 A  
HETATM   10  C   UNL     1     -11.982  12.094  69.109  1.00  0.00    -0.311 A  
HETATM   11  C   UNL     1     -11.081  10.038  68.231  1.00  0.00    -0.247 A  
HETATM   12  N   UNL     1     -10.338  13.181  64.647  1.00  0.00    -0.371 NA 
HETATM   13  C   UNL     1     -10.751  10.696  67.041  1.00  0.00    -0.317 A  
HETATM   14 CL   UNL     1     -12.029  14.436  67.798  1.00  0.00    -0.397 Cl 
HETATM   15  C   UNL     1     -11.029  12.057  66.880  1.00  0.00    -0.328 A  
HETATM   16  C   UNL     1     -10.657  12.697  65.652  1.00  0.00    -0.273 C  
HETATM   17  C   UNL     1     -11.651  12.754  67.920  1.00  0.00    -0.351 A  
ENDBRANCH   7   9
ENDBRANCH   3   4
ENDBRANCH   2   3
BRANCH   2  18
HETATM   18  N   UNL     1      -9.196   7.792  71.566  1.00  0.00    -0.135 N  
HETATM   19  O   UNL     1      -7.548   6.235  71.228  1.00  0.00    -0.091 OA 
HETATM   20  H   UNL     1      -9.470   8.763  71.415  1.00  0.00     0.000 HD 
HETATM   21  C   UNL     1      -7.974   7.377  71.087  1.00  0.00    -0.100 C  
BRANCH  21  22
HETATM   22  C   UNL     1      -7.205   8.423  70.406  1.00  0.00    -0.037 A  
HETATM   23  N   UNL     1      -6.324   8.181  69.416  1.00  0.00    -0.034 NA 
HETATM   24  H   UNL     1      -6.077   7.284  68.997  1.00  0.00     0.000 HD 
HETATM   25  C   UNL     1      -7.278   9.803  70.703  1.00  0.00    -0.084 A  
HETATM   26  N   UNL     1      -5.846   9.404  69.109  1.00  0.00    -0.035 NA 
HETATM   27  C   UNL     1      -6.363  10.411  69.876  1.00  0.00    -0.095 A  
BRANCH  27  28
HETATM   28  C   UNL     1      -5.961  11.832  69.724  1.00  0.00    -0.126 C  
HETATM   29  C   UNL     1      -6.866  12.593  68.761  1.00  0.00    -0.096 C  
HETATM   30  O   UNL     1      -6.028  12.416  71.019  1.00  0.00    -0.529 OA 
HETATM   31  H   UNL     1      -5.771  13.325  70.921  1.00  0.00     0.000 HD 
ENDBRANCH  27  28
ENDBRANCH  21  22
ENDBRANCH   2  18
TORSDOF 6
ENDMDL
MODEL      201
REMARK 921   NORMALIZED FREE ENERGY PREDICTED BY IDOCK:   -3.89 KCAL/MOL
REMARK 922        TOTAL FREE ENERGY PREDICTED BY IDOCK:   -6.88 KCAL/MOL
REMARK 923 INTER-LIGAND FREE ENERGY PREDICTED BY IDOCK:   -5.77 KCAL/MOL
REMARK 924 INTRA-LIGAND FREE ENERGY PREDICTED BY IDOCK:   -1.10 KCAL/MOL
REMARK 927      BINDING AFFINITY PREDICTED BY RF-SCORE:    0.00 PKD
ROOT
HETATM    1  C   UNL     1     -13.468   9.452  72.037  1.00  0.00    -0.522 C  
HETATM    2  C   UNL     1     -12.233   8.574  71.807  1.00  0.00    -0.334 C  
ENDROOT
BRANCH   2   3
HETATM    3  C   UNL     1     -12.629   7.090  71.736  1.00  0.00    -0.350 C  
BRANCH   3   4
HETATM    4  N   UNL     1     -11.547   6.250  71.252  1.00  0.00    -0.301 NA 
HETATM    5  C   UNL     1     -10.674   5.531  72.010  1.00  0.00    -0.234 A  
HETATM    6  N   UNL     1     -11.321   6.143  69.931  1.00  0.00    -0.421 NA 
HETATM    7  C   UNL     1     -10.256   5.329  69.829  1.00  0.00    -0.294 A  
HETATM    8  C   UNL     1      -9.834   4.908  71.121  1.00  0.00    -0.261 A  
BRANCH   7   9
HETATM    9  C   UNL     1      -9.667   4.998  68.525  1.00  0.00    -0.215 A  
HETATM   10  C   UNL     1     -10.495   4.727  67.424  1.00  0.00     0.002 A  
HETATM   11  C   UNL     1      -8.278   4.964  68.341  1.00  0.00    -0.084 A  
HETATM   12  N   UNL     1      -7.440   3.941  63.702  1.00  0.00    -0.054 NA 
HETATM   13  C   UNL     1      -7.731   4.678  67.085  1.00  0.00    -0.090 A  
HETATM   14 CL   UNL     1     -11.043   4.134  64.863  1.00  0.00    -0.108 Cl 
HETATM   15  C   UNL     1      -8.563   4.421  65.990  1.00  0.00    -0.113 A  
HETATM   16  C   UNL     1      -7.963   4.151  64.716  1.00  0.00    -0.093 C  
HETATM   17  C   UNL     1      -9.949   4.443  66.166  1.00  0.00    -0.238 A  
ENDBRANCH   7   9
ENDBRANCH   3   4
ENDBRANCH   2   3
BRANCH   2  18
HETATM   18  N   UNL     1     -11.491   9.037  70.639  1.00  0.00    -0.295 N  
HETATM   19  O   UNL     1      -9.392   8.698  71.496  1.00  0.00    -0.200 OA 
HETATM   20  H   UNL     1     -12.018   9.364  69.830  1.00  0.00     0.000 HD 
HETATM   21  C   UNL     1     -10.116   9.057  70.573  1.00  0.00    -0.215 C  
BRANCH  21  22
HETATM   22  C   UNL     1      -9.580   9.567  69.308  1.00  0.00    -0.175 A  
HETATM   23  N   UNL     1     -10.261   9.556  68.146  1.00  0.00    -0.183 NA 
HETATM   24  H   UNL     1     -11.209   9.222  67.974  1.00  0.00     0.000 HD 
HETATM   25  C   UNL     1      -8.289  10.121  69.141  1.00  0.00    -0.154 A  
HETATM   26  N   UNL     1      -9.393  10.089  67.262  1.00  0.00    -0.147 NA 
HETATM   27  C   UNL     1      -8.180  10.416  67.803  1.00  0.00    -0.110 A  
BRANCH  27  28
HETATM   28  C   UNL     1      -7.071  10.997  67.007  1.00  0.00    -0.118 C  
HETATM   29  C   UNL     1      -6.551  10.036  65.943  1.00  0.00    -0.098 C  
HETATM   30  O   UNL     1      -7.582  12.173  66.392  1.00  0.00    -0.364 OA 
HETATM   31  H   UNL     1      -6.871  12.545  65.882  1.00  0.00     0.000 HD 
ENDBRANCH  27  28
ENDBRANCH  21  22
ENDBRANCH   2  18
TORSDOF 6
ENDMDL
MODEL      202
REMARK 921   NORMALIZED FREE ENERGY PREDICTED BY IDOCK:   -3.88 KCAL/MOL
REMARK 922        TOTAL FREE ENERGY PREDICTED BY IDOCK:   -6.86 KCAL/MOL
REMARK 923 INTER-LIGAND FREE ENERGY PREDICTED BY IDOCK:   -6.15 KCAL/MOL
REMARK 924 INTRA-LIGAND FREE ENERGY PREDICTED BY IDOCK:   -0.71 KCAL/MOL
REMARK 927      BINDING AFFINITY PREDICTED BY RF-SCORE:    0.00 PKD
ROOT
HETATM    1  C   UNL     1     -11.023   9.731  69.647  1.00  0.00    -0.269 C  
HETATM    2  C   UNL     1      -9.781   9.598  68.759  1.00  0.00    -0.163 C  
ENDROOT
BRANCH   2   3
HETATM    3  C   UNL     1      -8.579  10.313  69.398  1.00  0.00    -0.156 C  
BRANCH   3   4
HETATM    4  N   UNL     1      -8.103  11.425  68.594  1.00  0.00    -0.147 NA 
HETATM    5  C   UNL     1      -6.876  11.544  68.017  1.00  0.00    -0.064 A  
HETATM    6  N   UNL     1      -8.900  12.485  68.375  1.00  0.00    -0.161 NA 
HETATM    7  C   UNL     1      -8.160  13.326  67.633  1.00  0.00    -0.174 A  
HETATM    8  C   UNL     1      -6.883  12.755  67.370  1.00  0.00    -0.137 A  
BRANCH   7   9
HETATM    9  C   UNL     1      -8.674  14.637  67.218  1.00  0.00    -0.224 A  
HETATM   10  C   UNL     1      -9.620  14.732  66.185  1.00  0.00    -0.338 A  
HETATM   11  C   UNL     1      -8.256  15.816  67.851  1.00  0.00    -0.151 A  
HETATM   12  N   UNL     1     -10.658  19.487  65.843  1.00  0.00    -0.510 NA 
HETATM   13  C   UNL     1      -8.779  17.056  67.467  1.00  0.00    -0.215 A  
HETATM   14 CL   UNL     1     -11.314  15.993  64.528  1.00  0.00    -0.406 Cl 
HETATM   15  C   UNL     1      -9.730  17.140  66.445  1.00  0.00    -0.307 A  
HETATM   16  C   UNL     1     -10.255  18.428  66.095  1.00  0.00    -0.389 C  
HETATM   17  C   UNL     1     -10.146  15.972  65.801  1.00  0.00    -0.366 A  
ENDBRANCH   7   9
ENDBRANCH   3   4
ENDBRANCH   2   3
BRANCH   2  18
HETATM   18  N   UNL     1      -9.528   8.195  68.446  1.00  0.00    -0.141 N  
HETATM   19  O   UNL     1     -10.088   8.304  66.226  1.00  0.00    -0.215 OA 
HETATM   20  H   UNL     1      -9.210   7.583  69.197  1.00  0.00     0.000 HD 
HETATM   21  C   UNL     1      -9.698   7.655  67.192  1.00  0.00    -0.183 C  
BRANCH  21  22
HETATM   22  C   UNL     1      -9.392   6.225  67.104  1.00  0.00    -0.123 A  
HETATM   23  N   UNL     1      -9.114   5.587  65.950  1.00  0.00    -0.157 NA 
HETATM   24  H   UNL     1      -9.061   5.979  65.010  1.00  0.00     0.000 HD 
HETATM   25  C   UNL     1      -9.361   5.335  68.202  1.00  0.00    -0.139 A  
HETATM   26  N   UNL     1      -8.922   4.307  66.331  1.00  0.00    -0.116 NA 
HETATM   27  C   UNL     1      -9.091   4.096  67.671  1.00  0.00    -0.140 A  
BRANCH  27  28
HETATM   28  C   UNL     1      -8.949   2.760  68.303  1.00  0.00    -0.148 C  
HETATM   29  C   UNL     1      -9.381   2.758  69.766  1.00  0.00    -0.199 C  
HETATM   30  O   UNL     1      -9.764   1.866  67.554  1.00  0.00    -0.410 OA 
HETATM   31  H   UNL     1      -9.673   1.012  67.959  1.00  0.00     0.000 HD 
ENDBRANCH  27  28
ENDBRANCH  21  22
ENDBRANCH   2  18
TORSDOF 6
ENDMDL
MODEL      203
REMARK 921   NORMALIZED FREE ENERGY PREDICTED BY IDOCK:   -3.86 KCAL/MOL
REMARK 922        TOTAL FREE ENERGY PREDICTED BY IDOCK:   -6.84 KCAL/MOL
REMARK 923 INTER-LIGAND FREE ENERGY PREDICTED BY IDOCK:   -6.24 KCAL/MOL
REMARK 924 INTRA-LIGAND FREE ENERGY PREDICTED BY IDOCK:   -0.60 KCAL/MOL
REMARK 927      BINDING AFFINITY PREDICTED BY RF-SCORE:    0.00 PKD
ROOT
HETATM    1  C   UNL     1     -13.454  11.346  71.992  1.00  0.00    -0.289 C  
HETATM    2  C   UNL     1     -12.597  11.131  70.741  1.00  0.00    -0.352 C  
ENDROOT
BRANCH   2   3
HETATM    3  C   UNL     1     -11.902  12.441  70.328  1.00  0.00    -0.232 C  
BRANCH   3   4
HETATM    4  N   UNL     1     -11.517  12.447  68.928  1.00  0.00    -0.284 NA 
HETATM    5  C   UNL     1     -11.982  13.283  67.960  1.00  0.00    -0.313 A  
HETATM    6  N   UNL     1     -10.628  11.547  68.473  1.00  0.00    -0.201 NA 
HETATM    7  C   UNL     1     -10.517  11.807  67.159  1.00  0.00    -0.220 A  
HETATM    8  C   UNL     1     -11.342  12.910  66.805  1.00  0.00    -0.367 A  
BRANCH   7   9
HETATM    9  C   UNL     1      -9.656  10.996  66.288  1.00  0.00    -0.231 A  
HETATM   10  C   UNL     1      -9.931  10.897  64.915  1.00  0.00    -0.361 A  
HETATM   11  C   UNL     1      -8.536  10.323  66.795  1.00  0.00    -0.129 A  
HETATM   12  N   UNL     1      -6.353   8.123  63.097  1.00  0.00    -0.080 NA 
HETATM   13  C   UNL     1      -7.706   9.580  65.948  1.00  0.00    -0.100 A  
HETATM   14 CL   UNL     1      -9.508  10.100  62.387  1.00  0.00    -0.297 Cl 
HETATM   15  C   UNL     1      -7.980   9.497  64.579  1.00  0.00    -0.133 A  
HETATM   16  C   UNL     1      -7.094   8.741  63.742  1.00  0.00    -0.092 C  
HETATM   17  C   UNL     1      -9.100  10.156  64.065  1.00  0.00    -0.254 A  
ENDBRANCH   7   9
ENDBRANCH   3   4
ENDBRANCH   2   3
BRANCH   2  18
HETATM   18  N   UNL     1     -11.674  10.019  70.942  1.00  0.00    -0.344 N  
HETATM   19  O   UNL     1     -13.204   8.548  71.809  1.00  0.00    -0.338 OA 
HETATM   20  H   UNL     1     -10.696  10.151  70.686  1.00  0.00     0.000 HD 
HETATM   21  C   UNL     1     -12.055   8.802  71.460  1.00  0.00    -0.329 C  
BRANCH  21  22
HETATM   22  C   UNL     1     -10.965   7.830  71.582  1.00  0.00    -0.235 A  
HETATM   23  N   UNL     1     -10.442   7.433  72.759  1.00  0.00    -0.246 NA 
HETATM   24  H   UNL     1     -10.716   7.721  73.699  1.00  0.00     0.000 HD 
HETATM   25  C   UNL     1     -10.320   7.196  70.495  1.00  0.00    -0.215 A  
HETATM   26  N   UNL     1      -9.472   6.568  72.402  1.00  0.00    -0.146 NA 
HETATM   27  C   UNL     1      -9.335   6.414  71.050  1.00  0.00    -0.164 A  
BRANCH  27  28
HETATM   28  C   UNL     1      -8.316   5.527  70.436  1.00  0.00    -0.111 C  
HETATM   29  C   UNL     1      -7.730   6.111  69.155  1.00  0.00    -0.100 C  
HETATM   30  O   UNL     1      -7.289   5.353  71.405  1.00  0.00    -0.075 OA 
HETATM   31  H   UNL     1      -6.637   4.786  71.012  1.00  0.00     0.000 HD 
ENDBRANCH  27  28
ENDBRANCH  21  22
ENDBRANCH   2  18
TORSDOF 6
ENDMDL
MODEL      204
REMARK 921   NORMALIZED FREE ENERGY PREDICTED BY IDOCK:   -3.86 KCAL/MOL
REMARK 922        TOTAL FREE ENERGY PREDICTED BY IDOCK:   -6.84 KCAL/MOL
REMARK 923 INTER-LIGAND FREE ENERGY PREDICTED BY IDOCK:   -6.66 KCAL/MOL
REMARK 924 INTRA-LIGAND FREE ENERGY PREDICTED BY IDOCK:   -0.18 KCAL/MOL
REMARK 927      BINDING AFFINITY PREDICTED BY RF-SCORE:    0.00 PKD
ROOT
HETATM    1  C   UNL     1     -10.540   5.964  66.508  1.00  0.00    -0.266 C  
HETATM    2  C   UNL     1      -9.211   5.432  67.054  1.00  0.00    -0.113 C  
ENDROOT
BRANCH   2   3
HETATM    3  C   UNL     1      -8.173   6.563  67.151  1.00  0.00    -0.113 C  
BRANCH   3   4
HETATM    4  N   UNL     1      -8.311   7.535  66.080  1.00  0.00    -0.131 NA 
HETATM    5  C   UNL     1      -7.585   7.584  64.929  1.00  0.00    -0.100 A  
HETATM    6  N   UNL     1      -9.216   8.523  66.183  1.00  0.00    -0.200 NA 
HETATM    7  C   UNL     1      -9.067   9.245  65.058  1.00  0.00    -0.188 A  
HETATM    8  C   UNL     1      -8.061   8.668  64.234  1.00  0.00    -0.158 A  
BRANCH   7   9
HETATM    9  C   UNL     1      -9.862  10.455  64.814  1.00  0.00    -0.406 A  
HETATM   10  C   UNL     1     -10.572  11.059  65.864  1.00  0.00    -0.270 A  
HETATM   11  C   UNL     1      -9.917  11.045  63.544  1.00  0.00    -0.421 A  
HETATM   12  N   UNL     1     -12.646  15.009  63.889  1.00  0.00    -0.726 NA 
HETATM   13  C   UNL     1     -10.653  12.216  63.333  1.00  0.00    -0.454 A  
HETATM   14 CL   UNL     1     -12.139  12.915  67.008  1.00  0.00    -0.375 Cl 
HETATM   15  C   UNL     1     -11.347  12.819  64.387  1.00  0.00    -0.394 A  
HETATM   16  C   UNL     1     -12.073  14.029  64.133  1.00  0.00    -0.422 C  
HETATM   17  C   UNL     1     -11.307  12.233  65.655  1.00  0.00    -0.350 A  
ENDBRANCH   7   9
ENDBRANCH   3   4
ENDBRANCH   2   3
BRANCH   2  18
HETATM   18  N   UNL     1      -9.425   4.726  68.313  1.00  0.00    -0.135 N  
HETATM   19  O   UNL     1      -7.644   3.295  68.132  1.00  0.00    -0.056 OA 
HETATM   20  H   UNL     1     -10.218   5.002  68.892  1.00  0.00     0.000 HD 
HETATM   21  C   UNL     1      -8.614   3.708  68.760  1.00  0.00    -0.086 C  
BRANCH  21  22
HETATM   22  C   UNL     1      -9.016   3.135  70.047  1.00  0.00    -0.103 A  
HETATM   23  N   UNL     1      -9.194   1.817  70.259  1.00  0.00    -0.092 NA 
HETATM   24  H   UNL     1      -9.070   1.050  69.598  1.00  0.00     0.000 HD 
HETATM   25  C   UNL     1      -9.278   3.883  71.219  1.00  0.00    -0.197 A  
HETATM   26  N   UNL     1      -9.574   1.749  71.551  1.00  0.00    -0.120 NA 
HETATM   27  C   UNL     1      -9.672   2.967  72.166  1.00  0.00    -0.157 A  
BRANCH  27  28
HETATM   28  C   UNL     1     -10.094   3.127  73.579  1.00  0.00    -0.116 C  
HETATM   29  C   UNL     1     -10.820   4.446  73.825  1.00  0.00    -0.362 C  
HETATM   30  O   UNL     1     -10.956   2.035  73.874  1.00  0.00    -0.149 OA 
HETATM   31  H   UNL     1     -11.226   2.139  74.779  1.00  0.00     0.000 HD 
ENDBRANCH  27  28
ENDBRANCH  21  22
ENDBRANCH   2  18
TORSDOF 6
ENDMDL
MODEL      205
REMARK 921   NORMALIZED FREE ENERGY PREDICTED BY IDOCK:   -3.81 KCAL/MOL
REMARK 922        TOTAL FREE ENERGY PREDICTED BY IDOCK:   -6.77 KCAL/MOL
REMARK 923 INTER-LIGAND FREE ENERGY PREDICTED BY IDOCK:   -6.27 KCAL/MOL
REMARK 924 INTRA-LIGAND FREE ENERGY PREDICTED BY IDOCK:   -0.50 KCAL/MOL
REMARK 927      BINDING AFFINITY PREDICTED BY RF-SCORE:    0.00 PKD
ROOT
HETATM    1  C   UNL     1     -12.977  14.028  71.539  1.00  0.00    -0.427 C  
HETATM    2  C   UNL     1     -12.268  14.894  70.491  1.00  0.00    -0.329 C  
ENDROOT
BRANCH   2   3
HETATM    3  C   UNL     1     -10.940  15.436  71.045  1.00  0.00    -0.261 C  
BRANCH   3   4
HETATM    4  N   UNL     1      -9.897  15.485  70.036  1.00  0.00    -0.223 NA 
HETATM    5  C   UNL     1      -8.981  14.515  69.765  1.00  0.00     0.616 A  
HETATM    6  N   UNL     1      -9.756  16.580  69.269  1.00  0.00    -0.231 NA 
HETATM    7  C   UNL     1      -8.705  16.312  68.475  1.00  0.00    -0.211 A  
HETATM    8  C   UNL     1      -8.204  15.008  68.747  1.00  0.00    -0.168 A  
BRANCH   7   9
HETATM    9  C   UNL     1      -8.203  17.298  67.509  1.00  0.00    -0.204 A  
HETATM   10  C   UNL     1      -9.054  18.296  67.010  1.00  0.00    -0.271 A  
HETATM   11  C   UNL     1      -6.869  17.281  67.080  1.00  0.00    -0.225 A  
HETATM   12  N   UNL     1      -6.253  21.004  64.074  1.00  0.00    -0.324 NA 
HETATM   13  C   UNL     1      -6.395  18.246  66.183  1.00  0.00    -0.252 A  
HETATM   14 CL   UNL     1      -9.697  20.464  65.562  1.00  0.00    -0.042 Cl 
HETATM   15  C   UNL     1      -7.247  19.245  65.701  1.00  0.00    -0.237 A  
HETATM   16  C   UNL     1      -6.718  20.227  64.799  1.00  0.00    -0.214 C  
HETATM   17  C   UNL     1      -8.582  19.264  66.115  1.00  0.00    -0.257 A  
ENDBRANCH   7   9
ENDBRANCH   3   4
ENDBRANCH   2   3
BRANCH   2  18
HETATM   18  N   UNL     1     -12.123  14.159  69.239  1.00  0.00    -0.398 N  
HETATM   19  O   UNL     1     -12.323  15.962  67.838  1.00  0.00     0.542 OA 
HETATM   20  H   UNL     1     -11.990  13.149  69.284  1.00  0.00     0.000 HD 
HETATM   21  C   UNL     1     -12.156  14.758  68.000  1.00  0.00    -0.128 C  
BRANCH  21  22
HETATM   22  C   UNL     1     -11.996  13.830  66.877  1.00  0.00    -0.421 A  
HETATM   23  N   UNL     1     -12.051  12.489  66.997  1.00  0.00    -0.514 NA 
HETATM   24  H   UNL     1     -12.217  11.939  67.840  1.00  0.00     0.000 HD 
HETATM   25  C   UNL     1     -11.755  14.215  65.537  1.00  0.00    -0.344 A  
HETATM   26  N   UNL     1     -11.835  12.046  65.742  1.00  0.00    -0.480 NA 
HETATM   27  C   UNL     1     -11.618  13.043  64.831  1.00  0.00    -0.326 A  
BRANCH  27  28
HETATM   28  C   UNL     1     -11.339  12.782  63.398  1.00  0.00    -0.337 C  
HETATM   29  C   UNL     1     -11.236  11.292  63.086  1.00  0.00     0.112 C  
HETATM   30  O   UNL     1     -12.409  13.360  62.661  1.00  0.00    -0.715 OA 
HETATM   31  H   UNL     1     -12.230  13.192  61.744  1.00  0.00     0.000 HD 
ENDBRANCH  27  28
ENDBRANCH  21  22
ENDBRANCH   2  18
TORSDOF 6
ENDMDL
MODEL      206
REMARK 921   NORMALIZED FREE ENERGY PREDICTED BY IDOCK:   -3.80 KCAL/MOL
REMARK 922        TOTAL FREE ENERGY PREDICTED BY IDOCK:   -6.76 KCAL/MOL
REMARK 923 INTER-LIGAND FREE ENERGY PREDICTED BY IDOCK:   -5.59 KCAL/MOL
REMARK 924 INTRA-LIGAND FREE ENERGY PREDICTED BY IDOCK:   -1.17 KCAL/MOL
REMARK 927      BINDING AFFINITY PREDICTED BY RF-SCORE:    0.00 PKD
ROOT
HETATM    1  C   UNL     1      -5.558   9.266  65.305  1.00  0.00    -0.053 C  
HETATM    2  C   UNL     1      -6.384   9.148  66.590  1.00  0.00    -0.066 C  
ENDROOT
BRANCH   2   3
HETATM    3  C   UNL     1      -5.603   8.376  67.667  1.00  0.00    -0.039 C  
BRANCH   3   4
HETATM    4  N   UNL     1      -6.236   8.451  68.972  1.00  0.00    -0.043 NA 
HETATM    5  C   UNL     1      -5.618   8.356  70.182  1.00  0.00    -0.021 A  
HETATM    6  N   UNL     1      -7.567   8.610  69.064  1.00  0.00    -0.089 NA 
HETATM    7  C   UNL     1      -7.824   8.613  70.384  1.00  0.00    -0.091 A  
HETATM    8  C   UNL     1      -6.614   8.476  71.120  1.00  0.00    -0.055 A  
BRANCH   7   9
HETATM    9  C   UNL     1      -9.195   8.725  70.898  1.00  0.00    -0.261 A  
HETATM   10  C   UNL     1     -10.099   9.626  70.312  1.00  0.00    -0.331 A  
HETATM   11  C   UNL     1      -9.640   7.929  71.962  1.00  0.00    -0.242 A  
HETATM   12  N   UNL     1     -14.286   8.977  72.730  1.00  0.00    -0.518 NA 
HETATM   13  C   UNL     1     -10.959   8.023  72.421  1.00  0.00    -0.402 A  
HETATM   14 CL   UNL     1     -12.466  10.847  69.980  1.00  0.00    -0.367 Cl 
HETATM   15  C   UNL     1     -11.856   8.914  71.823  1.00  0.00    -0.429 A  
HETATM   16  C   UNL     1     -13.204   8.966  72.310  1.00  0.00    -0.447 C  
HETATM   17  C   UNL     1     -11.419   9.719  70.768  1.00  0.00    -0.342 A  
ENDBRANCH   7   9
ENDBRANCH   3   4
ENDBRANCH   2   3
BRANCH   2  18
HETATM   18  N   UNL     1      -6.834  10.465  67.028  1.00  0.00    -0.082 N  
HETATM   19  O   UNL     1      -8.836  10.455  65.912  1.00  0.00    -0.153 OA 
HETATM   20  H   UNL     1      -6.224  11.005  67.641  1.00  0.00     0.000 HD 
HETATM   21  C   UNL     1      -8.039  11.017  66.655  1.00  0.00    -0.155 C  
BRANCH  21  22
HETATM   22  C   UNL     1      -8.287  12.353  67.204  1.00  0.00    -0.181 A  
HETATM   23  N   UNL     1      -9.457  12.733  67.755  1.00  0.00    -0.198 NA 
HETATM   24  H   UNL     1     -10.303  12.177  67.882  1.00  0.00     0.000 HD 
HETATM   25  C   UNL     1      -7.347  13.410  67.218  1.00  0.00    -0.039 A  
HETATM   26  N   UNL     1      -9.246  14.020  68.098  1.00  0.00    -0.191 NA 
HETATM   27  C   UNL     1      -8.003  14.486  67.768  1.00  0.00    -0.159 A  
BRANCH  27  28
HETATM   28  C   UNL     1      -7.565  15.878  68.034  1.00  0.00    -0.129 C  
HETATM   29  C   UNL     1      -7.273  16.653  66.753  1.00  0.00    -0.272 C  
HETATM   30  O   UNL     1      -8.620  16.507  68.752  1.00  0.00    -0.241 OA 
HETATM   31  H   UNL     1      -8.339  17.399  68.922  1.00  0.00     0.000 HD 
ENDBRANCH  27  28
ENDBRANCH  21  22
ENDBRANCH   2  18
TORSDOF 6
ENDMDL
MODEL      207
REMARK 921   NORMALIZED FREE ENERGY PREDICTED BY IDOCK:   -3.80 KCAL/MOL
REMARK 922        TOTAL FREE ENERGY PREDICTED BY IDOCK:   -6.75 KCAL/MOL
REMARK 923 INTER-LIGAND FREE ENERGY PREDICTED BY IDOCK:   -5.68 KCAL/MOL
REMARK 924 INTRA-LIGAND FREE ENERGY PREDICTED BY IDOCK:   -1.07 KCAL/MOL
REMARK 927      BINDING AFFINITY PREDICTED BY RF-SCORE:    0.00 PKD
ROOT
HETATM    1  C   UNL     1      -9.694   2.855  70.668  1.00  0.00    -0.104 C  
HETATM    2  C   UNL     1      -8.778   4.070  70.485  1.00  0.00    -0.076 C  
ENDROOT
BRANCH   2   3
HETATM    3  C   UNL     1      -8.075   4.017  69.117  1.00  0.00    -0.062 C  
BRANCH   3   4
HETATM    4  N   UNL     1      -7.635   5.326  68.669  1.00  0.00    -0.081 NA 
HETATM    5  C   UNL     1      -6.552   6.018  69.120  1.00  0.00    -0.051 A  
HETATM    6  N   UNL     1      -8.335   5.984  67.729  1.00  0.00    -0.112 NA 
HETATM    7  C   UNL     1      -7.685   7.150  67.568  1.00  0.00    -0.111 A  
HETATM    8  C   UNL     1      -6.543   7.197  68.416  1.00  0.00    -0.048 A  
BRANCH   7   9
HETATM    9  C   UNL     1      -8.174   8.178  66.641  1.00  0.00    -0.103 A  
HETATM   10  C   UNL     1      -8.032   8.006  65.254  1.00  0.00    -0.124 A  
HETATM   11  C   UNL     1      -8.808   9.337  67.108  1.00  0.00    -0.137 A  
HETATM   12  N   UNL     1     -10.143  11.927  63.263  1.00  0.00    -0.433 NA 
HETATM   13  C   UNL     1      -9.298  10.294  66.212  1.00  0.00    -0.206 A  
HETATM   14 CL   UNL     1      -8.316   8.660  62.666  1.00  0.00    -0.196 Cl 
HETATM   15  C   UNL     1      -9.163  10.108  64.832  1.00  0.00    -0.281 A  
HETATM   16  C   UNL     1      -9.696  11.103  63.947  1.00  0.00    -0.286 C  
HETATM   17  C   UNL     1      -8.523   8.961  64.356  1.00  0.00    -0.153 A  
ENDBRANCH   7   9
ENDBRANCH   3   4
ENDBRANCH   2   3
BRANCH   2  18
HETATM   18  N   UNL     1      -9.520   5.305  70.713  1.00  0.00    -0.162 N  
HETATM   19  O   UNL     1      -9.002   5.530  72.934  1.00  0.00    -0.124 OA 
HETATM   20  H   UNL     1     -10.029   5.714  69.930  1.00  0.00     0.000 HD 
HETATM   21  C   UNL     1      -9.569   5.947  71.929  1.00  0.00    -0.151 C  
BRANCH  21  22
HETATM   22  C   UNL     1     -10.378   7.169  71.936  1.00  0.00    -0.192 A  
HETATM   23  N   UNL     1      -9.861   8.410  72.016  1.00  0.00    -0.254 NA 
HETATM   24  H   UNL     1      -8.879   8.682  72.068  1.00  0.00     0.000 HD 
HETATM   25  C   UNL     1     -11.790   7.205  71.871  1.00  0.00    -0.336 A  
HETATM   26  N   UNL     1     -10.947   9.210  72.011  1.00  0.00    -0.298 NA 
HETATM   27  C   UNL     1     -12.134   8.533  71.958  1.00  0.00    -0.364 A  
BRANCH  27  28
HETATM   28  C   UNL     1     -13.453   9.212  71.964  1.00  0.00    -0.448 C  
HETATM   29  C   UNL     1     -14.332   8.793  70.790  1.00  0.00     0.335 C  
HETATM   30  O   UNL     1     -14.084   8.867  73.191  1.00  0.00    -1.125 OA 
HETATM   31  H   UNL     1     -14.929   9.302  73.195  1.00  0.00     0.000 HD 
ENDBRANCH  27  28
ENDBRANCH  21  22
ENDBRANCH   2  18
TORSDOF 6
ENDMDL
MODEL      208
REMARK 921   NORMALIZED FREE ENERGY PREDICTED BY IDOCK:   -3.78 KCAL/MOL
REMARK 922        TOTAL FREE ENERGY PREDICTED BY IDOCK:   -6.72 KCAL/MOL
REMARK 923 INTER-LIGAND FREE ENERGY PREDICTED BY IDOCK:   -6.54 KCAL/MOL
REMARK 924 INTRA-LIGAND FREE ENERGY PREDICTED BY IDOCK:   -0.19 KCAL/MOL
REMARK 927      BINDING AFFINITY PREDICTED BY RF-SCORE:    0.00 PKD
ROOT
HETATM    1  C   UNL     1     -10.095   8.523  72.186  1.00  0.00    -0.393 C  
HETATM    2  C   UNL     1     -10.987   8.633  70.944  1.00  0.00    -0.253 C  
ENDROOT
BRANCH   2   3
HETATM    3  C   UNL     1     -11.926   9.846  71.058  1.00  0.00    -0.365 C  
BRANCH   3   4
HETATM    4  N   UNL     1     -11.826  10.734  69.912  1.00  0.00    -0.306 NA 
HETATM    5  C   UNL     1     -11.901  10.379  68.600  1.00  0.00     0.127 A  
HETATM    6  N   UNL     1     -11.619  12.049  70.098  1.00  0.00    -0.214 NA 
HETATM    7  C   UNL     1     -11.552  12.566  68.859  1.00  0.00    -0.318 A  
HETATM    8  C   UNL     1     -11.746  11.543  67.889  1.00  0.00    -0.317 A  
BRANCH   7   9
HETATM    9  C   UNL     1     -11.288  13.994  68.638  1.00  0.00    -0.307 A  
HETATM   10  C   UNL     1     -10.632  14.420  67.473  1.00  0.00    -0.265 A  
HETATM   11  C   UNL     1     -11.700  14.961  69.565  1.00  0.00    -0.353 A  
HETATM   12  N   UNL     1     -10.490  19.285  67.801  1.00  0.00    -0.427 NA 
HETATM   13  C   UNL     1     -11.471  16.321  69.326  1.00  0.00    -0.251 A  
HETATM   14 CL   UNL     1      -9.599  16.215  65.764  1.00  0.00    -0.342 Cl 
HETATM   15  C   UNL     1     -10.827  16.738  68.157  1.00  0.00    -0.353 A  
HETATM   16  C   UNL     1     -10.629  18.142  67.941  1.00  0.00    -0.371 C  
HETATM   17  C   UNL     1     -10.404  15.780  67.231  1.00  0.00    -0.290 A  
ENDBRANCH   7   9
ENDBRANCH   3   4
ENDBRANCH   2   3
BRANCH   2  18
HETATM   18  N   UNL     1     -10.172   8.636  69.733  1.00  0.00    -0.200 N  
HETATM   19  O   UNL     1     -10.102   6.364  69.445  1.00  0.00    -0.162 OA 
HETATM   20  H   UNL     1      -9.865   9.534  69.360  1.00  0.00     0.000 HD 
HETATM   21  C   UNL     1      -9.795   7.491  69.070  1.00  0.00    -0.170 C  
BRANCH  21  22
HETATM   22  C   UNL     1      -8.973   7.725  67.879  1.00  0.00    -0.125 A  
HETATM   23  N   UNL     1      -8.831   6.834  66.879  1.00  0.00    -0.116 NA 
HETATM   24  H   UNL     1      -9.260   5.913  66.789  1.00  0.00     0.000 HD 
HETATM   25  C   UNL     1      -8.221   8.897  67.633  1.00  0.00    -0.110 A  
HETATM   26  N   UNL     1      -7.987   7.447  66.023  1.00  0.00    -0.108 NA 
HETATM   27  C   UNL     1      -7.565   8.677  66.445  1.00  0.00    -0.091 A  
BRANCH  27  28
HETATM   28  C   UNL     1      -6.618   9.516  65.670  1.00  0.00    -0.072 C  
HETATM   29  C   UNL     1      -6.519   9.087  64.210  1.00  0.00    -0.079 C  
HETATM   30  O   UNL     1      -7.096  10.853  65.752  1.00  0.00    -0.305 OA 
HETATM   31  H   UNL     1      -6.490  11.390  65.256  1.00  0.00     0.000 HD 
ENDBRANCH  27  28
ENDBRANCH  21  22
ENDBRANCH   2  18
TORSDOF 6
ENDMDL
MODEL      209
REMARK 921   NORMALIZED FREE ENERGY PREDICTED BY IDOCK:   -3.77 KCAL/MOL
REMARK 922        TOTAL FREE ENERGY PREDICTED BY IDOCK:   -6.72 KCAL/MOL
REMARK 923 INTER-LIGAND FREE ENERGY PREDICTED BY IDOCK:   -6.63 KCAL/MOL
REMARK 924 INTRA-LIGAND FREE ENERGY PREDICTED BY IDOCK:   -0.09 KCAL/MOL
REMARK 927      BINDING AFFINITY PREDICTED BY RF-SCORE:    0.00 PKD
ROOT
HETATM    1  C   UNL     1      -7.078  10.445  69.034  1.00  0.00    -0.076 C  
HETATM    2  C   UNL     1      -7.559   9.061  69.484  1.00  0.00    -0.077 C  
ENDROOT
BRANCH   2   3
HETATM    3  C   UNL     1      -8.694   9.190  70.513  1.00  0.00    -0.221 C  
BRANCH   3   4
HETATM    4  N   UNL     1      -9.830   9.932  69.995  1.00  0.00    -0.251 NA 
HETATM    5  C   UNL     1     -11.130   9.803  70.380  1.00  0.00    -0.307 A  
HETATM    6  N   UNL     1      -9.651  10.841  69.022  1.00  0.00    -0.198 NA 
HETATM    7  C   UNL     1     -10.882  11.315  68.761  1.00  0.00    -0.208 A  
HETATM    8  C   UNL     1     -11.837  10.696  69.615  1.00  0.00    -0.358 A  
BRANCH   7   9
HETATM    9  C   UNL     1     -11.112  12.314  67.709  1.00  0.00    -0.304 A  
HETATM   10  C   UNL     1     -11.601  11.919  66.454  1.00  0.00    -0.315 A  
HETATM   11  C   UNL     1     -10.871  13.676  67.935  1.00  0.00    -0.264 A  
HETATM   12  N   UNL     1     -12.094  16.061  63.923  1.00  0.00    -0.819 NA 
HETATM   13  C   UNL     1     -11.125  14.621  66.934  1.00  0.00    -0.333 A  
HETATM   14 CL   UNL     1     -12.471  12.289  63.942  1.00  0.00    -0.589 Cl 
HETATM   15  C   UNL     1     -11.624  14.220  65.690  1.00  0.00    -0.346 A  
HETATM   16  C   UNL     1     -11.889  15.222  64.698  1.00  0.00    -0.267 C  
HETATM   17  C   UNL     1     -11.858  12.863  65.452  1.00  0.00    -0.403 A  
ENDBRANCH   7   9
ENDBRANCH   3   4
ENDBRANCH   2   3
BRANCH   2  18
HETATM   18  N   UNL     1      -7.909   8.245  68.326  1.00  0.00    -0.116 N  
HETATM   19  O   UNL     1      -5.911   7.134  68.159  1.00  0.00    -0.027 OA 
HETATM   20  H   UNL     1      -8.838   8.356  67.920  1.00  0.00     0.000 HD 
HETATM   21  C   UNL     1      -7.052   7.333  67.754  1.00  0.00    -0.089 C  
BRANCH  21  22
HETATM   22  C   UNL     1      -7.607   6.626  66.596  1.00  0.00    -0.094 A  
HETATM   23  N   UNL     1      -8.570   5.687  66.681  1.00  0.00    -0.116 NA 
HETATM   24  H   UNL     1      -9.047   5.348  67.517  1.00  0.00     0.000 HD 
HETATM   25  C   UNL     1      -7.204   6.826  65.256  1.00  0.00    -0.073 A  
HETATM   26  N   UNL     1      -8.753   5.300  65.402  1.00  0.00    -0.148 NA 
HETATM   27  C   UNL     1      -7.933   5.931  64.509  1.00  0.00    -0.126 A  
BRANCH  27  28
HETATM   28  C   UNL     1      -7.950   5.644  63.053  1.00  0.00    -0.104 C  
HETATM   29  C   UNL     1      -8.930   4.533  62.689  1.00  0.00    -0.127 C  
HETATM   30  O   UNL     1      -8.322   6.853  62.402  1.00  0.00    -0.273 OA 
HETATM   31  H   UNL     1      -8.334   6.668  61.471  1.00  0.00     0.000 HD 
ENDBRANCH  27  28
ENDBRANCH  21  22
ENDBRANCH   2  18
TORSDOF 6
ENDMDL
MODEL      210
REMARK 921   NORMALIZED FREE ENERGY PREDICTED BY IDOCK:   -3.73 KCAL/MOL
REMARK 922        TOTAL FREE ENERGY PREDICTED BY IDOCK:   -6.66 KCAL/MOL
REMARK 923 INTER-LIGAND FREE ENERGY PREDICTED BY IDOCK:   -6.11 KCAL/MOL
REMARK 924 INTRA-LIGAND FREE ENERGY PREDICTED BY IDOCK:   -0.55 KCAL/MOL
REMARK 927      BINDING AFFINITY PREDICTED BY RF-SCORE:    0.00 PKD
ROOT
HETATM    1  C   UNL     1      -7.780  11.643  66.229  1.00  0.00     0.145 C  
HETATM    2  C   UNL     1      -8.892  12.261  67.084  1.00  0.00    -0.194 C  
ENDROOT
BRANCH   2   3
HETATM    3  C   UNL     1      -8.746  11.835  68.554  1.00  0.00    -0.118 C  
BRANCH   3   4
HETATM    4  N   UNL     1      -9.265  10.501  68.799  1.00  0.00    -0.168 NA 
HETATM    5  C   UNL     1     -10.548  10.173  69.117  1.00  0.00    -0.224 A  
HETATM    6  N   UNL     1      -8.443   9.439  68.738  1.00  0.00    -0.120 NA 
HETATM    7  C   UNL     1      -9.221   8.383  69.035  1.00  0.00    -0.147 A  
HETATM    8  C   UNL     1     -10.560   8.808  69.260  1.00  0.00    -0.210 A  
BRANCH   7   9
HETATM    9  C   UNL     1      -8.670   7.024  69.114  1.00  0.00    -0.132 A  
HETATM   10  C   UNL     1      -9.250   5.982  68.374  1.00  0.00    -0.114 A  
HETATM   11  C   UNL     1      -7.550   6.738  69.907  1.00  0.00    -0.100 A  
HETATM   12  N   UNL     1      -6.496   2.067  69.320  1.00  0.00    -0.029 NA 
HETATM   13  C   UNL     1      -7.016   5.445  69.948  1.00  0.00    -0.061 A  
HETATM   14 CL   UNL     1      -9.486   3.469  67.459  1.00  0.00    -0.247 Cl 
HETATM   15  C   UNL     1      -7.592   4.415  69.197  1.00  0.00    -0.055 A  
HETATM   16  C   UNL     1      -7.003   3.109  69.252  1.00  0.00    -0.041 C  
HETATM   17  C   UNL     1      -8.715   4.688  68.412  1.00  0.00    -0.099 A  
ENDBRANCH   7   9
ENDBRANCH   3   4
ENDBRANCH   2   3
BRANCH   2  18
HETATM   18  N   UNL     1      -8.931  13.708  66.896  1.00  0.00    -0.315 N  
HETATM   19  O   UNL     1     -11.205  13.945  67.071  1.00  0.00    -0.298 OA 
HETATM   20  H   UNL     1      -8.051  14.199  66.746  1.00  0.00     0.000 HD 
HETATM   21  C   UNL     1     -10.095  14.443  66.911  1.00  0.00    -0.259 C  
BRANCH  21  22
HETATM   22  C   UNL     1      -9.904  15.880  66.696  1.00  0.00    -0.254 A  
HETATM   23  N   UNL     1      -9.003  16.397  65.837  1.00  0.00    -0.466 NA 
HETATM   24  H   UNL     1      -8.357  15.898  65.225  1.00  0.00     0.000 HD 
HETATM   25  C   UNL     1     -10.623  16.900  67.360  1.00  0.00    -0.294 A  
HETATM   26  N   UNL     1      -9.156  17.730  65.978  1.00  0.00    -0.520 NA 
HETATM   27  C   UNL     1     -10.095  18.086  66.906  1.00  0.00    -0.348 A  
BRANCH  27  28
HETATM   28  C   UNL     1     -10.411  19.498  67.236  1.00  0.00    -0.447 C  
HETATM   29  C   UNL     1      -9.873  19.911  68.602  1.00  0.00    -0.438 C  
HETATM   30  O   UNL     1      -9.819  20.296  66.218  1.00  0.00    -0.556 OA 
HETATM   31  H   UNL     1     -10.021  21.200  66.430  1.00  0.00     0.000 HD 
ENDBRANCH  27  28
ENDBRANCH  21  22
ENDBRANCH   2  18
TORSDOF 6
ENDMDL
MODEL      211
REMARK 921   NORMALIZED FREE ENERGY PREDICTED BY IDOCK:   -3.71 KCAL/MOL
REMARK 922        TOTAL FREE ENERGY PREDICTED BY IDOCK:   -6.63 KCAL/MOL
REMARK 923 INTER-LIGAND FREE ENERGY PREDICTED BY IDOCK:   -5.06 KCAL/MOL
REMARK 924 INTRA-LIGAND FREE ENERGY PREDICTED BY IDOCK:   -1.57 KCAL/MOL
REMARK 927      BINDING AFFINITY PREDICTED BY RF-SCORE:    0.00 PKD
ROOT
HETATM    1  C   UNL     1      -7.998   7.958  63.206  1.00  0.00    -0.125 C  
HETATM    2  C   UNL     1      -7.101   8.577  64.284  1.00  0.00    -0.082 C  
ENDROOT
BRANCH   2   3
HETATM    3  C   UNL     1      -7.303  10.100  64.348  1.00  0.00    -0.116 C  
BRANCH   3   4
HETATM    4  N   UNL     1      -7.583  10.567  65.695  1.00  0.00    -0.149 NA 
HETATM    5  C   UNL     1      -6.773  11.337  66.473  1.00  0.00    -0.105 A  
HETATM    6  N   UNL     1      -8.733  10.222  66.300  1.00  0.00    -0.144 NA 
HETATM    7  C   UNL     1      -8.663  10.785  67.518  1.00  0.00    -0.125 A  
HETATM    8  C   UNL     1      -7.449  11.514  67.654  1.00  0.00    -0.110 A  
BRANCH   7   9
HETATM    9  C   UNL     1      -9.730  10.599  68.510  1.00  0.00    -0.177 A  
HETATM   10  C   UNL     1      -9.493   9.848  69.672  1.00  0.00    -0.252 A  
HETATM   11  C   UNL     1     -10.995  11.177  68.334  1.00  0.00    -0.277 A  
HETATM   12  N   UNL     1     -13.654  10.083  72.208  1.00  0.00    -0.305 NA 
HETATM   13  C   UNL     1     -11.993  11.018  69.303  1.00  0.00    -0.410 A  
HETATM   14 CL   UNL     1     -10.106   8.760  72.049  1.00  0.00    -0.402 Cl 
HETATM   15  C   UNL     1     -11.744  10.279  70.464  1.00  0.00    -0.418 A  
HETATM   16  C   UNL     1     -12.787  10.157  71.440  1.00  0.00    -0.428 C  
HETATM   17  C   UNL     1     -10.490   9.690  70.643  1.00  0.00    -0.312 A  
ENDBRANCH   7   9
ENDBRANCH   3   4
ENDBRANCH   2   3
BRANCH   2  18
HETATM   18  N   UNL     1      -7.308   7.906  65.563  1.00  0.00    -0.074 N  
HETATM   19  O   UNL     1      -5.572   6.421  65.378  1.00  0.00    -0.020 OA 
HETATM   20  H   UNL     1      -8.080   8.217  66.152  1.00  0.00     0.000 HD 
HETATM   21  C   UNL     1      -6.516   6.876  66.016  1.00  0.00    -0.051 C  
BRANCH  21  22
HETATM   22  C   UNL     1      -6.906   6.343  67.325  1.00  0.00    -0.069 A  
HETATM   23  N   UNL     1      -6.279   5.320  67.936  1.00  0.00    -0.036 NA 
HETATM   24  H   UNL     1      -5.469   4.791  67.609  1.00  0.00     0.000 HD 
HETATM   25  C   UNL     1      -7.986   6.821  68.103  1.00  0.00    -0.114 A  
HETATM   26  N   UNL     1      -6.972   5.157  69.081  1.00  0.00    -0.054 NA 
HETATM   27  C   UNL     1      -8.029   6.014  69.216  1.00  0.00    -0.103 A  
BRANCH  27  28
HETATM   28  C   UNL     1      -8.940   5.997  70.387  1.00  0.00    -0.149 C  
HETATM   29  C   UNL     1     -10.098   5.020  70.212  1.00  0.00    -0.339 C  
HETATM   30  O   UNL     1      -8.152   5.621  71.510  1.00  0.00    -0.114 OA 
HETATM   31  H   UNL     1      -8.735   5.609  72.260  1.00  0.00     0.000 HD 
ENDBRANCH  27  28
ENDBRANCH  21  22
ENDBRANCH   2  18
TORSDOF 6
ENDMDL
MODEL      212
REMARK 921   NORMALIZED FREE ENERGY PREDICTED BY IDOCK:   -3.65 KCAL/MOL
REMARK 922        TOTAL FREE ENERGY PREDICTED BY IDOCK:   -6.55 KCAL/MOL
REMARK 923 INTER-LIGAND FREE ENERGY PREDICTED BY IDOCK:   -5.41 KCAL/MOL
REMARK 924 INTRA-LIGAND FREE ENERGY PREDICTED BY IDOCK:   -1.14 KCAL/MOL
REMARK 927      BINDING AFFINITY PREDICTED BY RF-SCORE:    0.00 PKD
ROOT
HETATM    1  C   UNL     1     -11.662  12.289  66.007  1.00  0.00    -0.451 C  
HETATM    2  C   UNL     1     -10.131  12.220  66.003  1.00  0.00    -0.248 C  
ENDROOT
BRANCH   2   3
HETATM    3  C   UNL     1      -9.552  12.963  67.220  1.00  0.00    -0.220 C  
BRANCH   3   4
HETATM    4  N   UNL     1      -8.939  12.061  68.179  1.00  0.00    -0.186 NA 
HETATM    5  C   UNL     1      -7.606  11.898  68.405  1.00  0.00    -0.120 A  
HETATM    6  N   UNL     1      -9.710  11.265  68.940  1.00  0.00    -0.170 NA 
HETATM    7  C   UNL     1      -8.844  10.555  69.683  1.00  0.00     0.067 A  
HETATM    8  C   UNL     1      -7.508  10.943  69.386  1.00  0.00    -0.105 A  
BRANCH   7   9
HETATM    9  C   UNL     1      -9.306   9.528  70.626  1.00  0.00    -0.263 A  
HETATM   10  C   UNL     1     -10.673   9.403  70.922  1.00  0.00    -0.393 A  
HETATM   11  C   UNL     1      -8.407   8.641  71.234  1.00  0.00    -0.211 A  
HETATM   12  N   UNL     1     -10.969   5.619  73.986  1.00  0.00    -0.060 NA 
HETATM   13  C   UNL     1      -8.865   7.647  72.106  1.00  0.00    -0.161 A  
HETATM   14 CL   UNL     1     -12.834   8.319  72.090  1.00  0.00    -0.355 Cl 
HETATM   15  C   UNL     1     -10.230   7.521  72.386  1.00  0.00    -0.261 A  
HETATM   16  C   UNL     1     -10.660   6.477  73.270  1.00  0.00    -0.276 C  
HETATM   17  C   UNL     1     -11.133   8.408  71.793  1.00  0.00    -0.290 A  
ENDBRANCH   7   9
ENDBRANCH   3   4
ENDBRANCH   2   3
BRANCH   2  18
HETATM   18  N   UNL     1      -9.686  10.834  65.898  1.00  0.00    -0.213 N  
HETATM   19  O   UNL     1      -9.337  10.830  63.633  1.00  0.00    -0.227 OA 
HETATM   20  H   UNL     1      -9.649  10.273  66.749  1.00  0.00     0.000 HD 
HETATM   21  C   UNL     1      -9.315  10.245  64.711  1.00  0.00    -0.260 C  
BRANCH  21  22
HETATM   22  C   UNL     1      -8.907   8.842  64.835  1.00  0.00    -0.117 A  
HETATM   23  N   UNL     1      -9.321   8.025  65.824  1.00  0.00    -0.413 NA 
HETATM   24  H   UNL     1      -9.957   8.238  66.592  1.00  0.00     0.000 HD 
HETATM   25  C   UNL     1      -8.030   8.173  63.950  1.00  0.00    -0.138 A  
HETATM   26  N   UNL     1      -8.694   6.861  65.559  1.00  0.00    -0.083 NA 
HETATM   27  C   UNL     1      -7.880   6.906  64.461  1.00  0.00    -0.115 A  
BRANCH  27  28
HETATM   28  C   UNL     1      -7.079   5.745  64.001  1.00  0.00    -0.052 C  
HETATM   29  C   UNL     1      -7.795   4.931  62.928  1.00  0.00    -0.070 C  
HETATM   30  O   UNL     1      -5.862   6.268  63.482  1.00  0.00    -0.022 OA 
HETATM   31  H   UNL     1      -5.350   5.525  63.188  1.00  0.00     0.000 HD 
ENDBRANCH  27  28
ENDBRANCH  21  22
ENDBRANCH   2  18
TORSDOF 6
ENDMDL
MODEL      213
REMARK 921   NORMALIZED FREE ENERGY PREDICTED BY IDOCK:   -3.64 KCAL/MOL
REMARK 922        TOTAL FREE ENERGY PREDICTED BY IDOCK:   -6.54 KCAL/MOL
REMARK 923 INTER-LIGAND FREE ENERGY PREDICTED BY IDOCK:   -5.86 KCAL/MOL
REMARK 924 INTRA-LIGAND FREE ENERGY PREDICTED BY IDOCK:   -0.68 KCAL/MOL
REMARK 927      BINDING AFFINITY PREDICTED BY RF-SCORE:    0.00 PKD
ROOT
HETATM    1  C   UNL     1      -5.744   7.152  64.701  1.00  0.00    -0.033 C  
HETATM    2  C   UNL     1      -6.901   8.114  64.993  1.00  0.00    -0.062 C  
ENDROOT
BRANCH   2   3
HETATM    3  C   UNL     1      -7.956   8.047  63.875  1.00  0.00    -0.128 C  
BRANCH   3   4
HETATM    4  N   UNL     1      -8.748   9.261  63.788  1.00  0.00    -0.198 NA 
HETATM    5  C   UNL     1      -9.205   9.854  62.651  1.00  0.00    -0.273 A  
HETATM    6  N   UNL     1      -9.084   9.926  64.908  1.00  0.00    -0.206 NA 
HETATM    7  C   UNL     1      -9.779  10.993  64.480  1.00  0.00    -0.273 A  
HETATM    8  C   UNL     1      -9.893  10.969  63.062  1.00  0.00    -0.370 A  
BRANCH   7   9
HETATM    9  C   UNL     1     -10.290  12.001  65.418  1.00  0.00    -0.301 A  
HETATM   10  C   UNL     1     -10.758  11.616  66.684  1.00  0.00    -0.310 A  
HETATM   11  C   UNL     1     -10.304  13.363  65.085  1.00  0.00    -0.349 A  
HETATM   12  N   UNL     1     -12.011  15.780  68.896  1.00  0.00    -0.343 NA 
HETATM   13  C   UNL     1     -10.764  14.316  66.001  1.00  0.00    -0.304 A  
HETATM   14 CL   UNL     1     -11.762  12.006  69.143  1.00  0.00    -0.362 Cl 
HETATM   15  C   UNL     1     -11.217  13.925  67.265  1.00  0.00    -0.329 A  
HETATM   16  C   UNL     1     -11.662  14.935  68.181  1.00  0.00    -0.318 C  
HETATM   17  C   UNL     1     -11.216  12.569  67.602  1.00  0.00    -0.282 A  
ENDBRANCH   7   9
ENDBRANCH   3   4
ENDBRANCH   2   3
BRANCH   2  18
HETATM   18  N   UNL     1      -7.443   7.866  66.324  1.00  0.00    -0.078 N  
HETATM   19  O   UNL     1      -8.693   6.025  65.773  1.00  0.00    -0.151 OA 
HETATM   20  H   UNL     1      -7.174   8.495  67.080  1.00  0.00     0.000 HD 
HETATM   21  C   UNL     1      -8.300   6.828  66.613  1.00  0.00    -0.118 C  
BRANCH  21  22
HETATM   22  C   UNL     1      -8.727   6.769  68.014  1.00  0.00    -0.118 A  
HETATM   23  N   UNL     1      -9.903   6.250  68.418  1.00  0.00    -0.127 NA 
HETATM   24  H   UNL     1     -10.634   5.827  67.847  1.00  0.00     0.000 HD 
HETATM   25  C   UNL     1      -7.976   7.253  69.110  1.00  0.00    -0.119 A  
HETATM   26  N   UNL     1      -9.885   6.422  69.756  1.00  0.00    -0.163 NA 
HETATM   27  C   UNL     1      -8.762   7.050  70.220  1.00  0.00    -0.144 A  
BRANCH  27  28
HETATM   28  C   UNL     1      -8.543   7.359  71.654  1.00  0.00    -0.116 C  
HETATM   29  C   UNL     1      -9.836   7.322  72.463  1.00  0.00    -0.195 C  
HETATM   30  O   UNL     1      -7.633   6.384  72.148  1.00  0.00    -0.093 OA 
HETATM   31  H   UNL     1      -7.494   6.582  73.066  1.00  0.00     0.000 HD 
ENDBRANCH  27  28
ENDBRANCH  21  22
ENDBRANCH   2  18
TORSDOF 6
ENDMDL
MODEL      214
REMARK 921   NORMALIZED FREE ENERGY PREDICTED BY IDOCK:   -3.64 KCAL/MOL
REMARK 922        TOTAL FREE ENERGY PREDICTED BY IDOCK:   -6.54 KCAL/MOL
REMARK 923 INTER-LIGAND FREE ENERGY PREDICTED BY IDOCK:   -6.72 KCAL/MOL
REMARK 924 INTRA-LIGAND FREE ENERGY PREDICTED BY IDOCK:    0.18 KCAL/MOL
REMARK 927      BINDING AFFINITY PREDICTED BY RF-SCORE:    0.00 PKD
ROOT
HETATM    1  C   UNL     1     -13.384  11.392  72.057  1.00  0.00    -0.388 C  
HETATM    2  C   UNL     1     -12.539  11.905  70.886  1.00  0.00    -0.266 C  
ENDROOT
BRANCH   2   3
HETATM    3  C   UNL     1     -12.368  13.432  70.969  1.00  0.00    -0.315 C  
BRANCH   3   4
HETATM    4  N   UNL     1     -11.528  13.955  69.906  1.00  0.00    -0.223 NA 
HETATM    5  C   UNL     1     -11.147  13.300  68.775  1.00  0.00    -0.266 A  
HETATM    6  N   UNL     1     -11.028  15.199  69.997  1.00  0.00    -0.266 NA 
HETATM    7  C   UNL     1     -10.290  15.355  68.884  1.00  0.00    -0.233 A  
HETATM    8  C   UNL     1     -10.359  14.184  68.080  1.00  0.00    -0.239 A  
BRANCH   7   9
HETATM    9  C   UNL     1      -9.535  16.590  68.633  1.00  0.00    -0.243 A  
HETATM   10  C   UNL     1      -8.165  16.655  68.932  1.00  0.00    -0.231 A  
HETATM   11  C   UNL     1     -10.151  17.718  68.074  1.00  0.00    -0.355 A  
HETATM   12  N   UNL     1      -6.769  21.115  67.533  1.00  0.00    -0.455 NA 
HETATM   13  C   UNL     1      -9.413  18.877  67.810  1.00  0.00    -0.342 A  
HETATM   14 CL   UNL     1      -5.740  17.800  69.056  1.00  0.00    -0.182 Cl 
HETATM   15  C   UNL     1      -8.045  18.929  68.100  1.00  0.00    -0.333 A  
HETATM   16  C   UNL     1      -7.321  20.129  67.796  1.00  0.00    -0.298 C  
HETATM   17  C   UNL     1      -7.424  17.813  68.667  1.00  0.00    -0.274 A  
ENDBRANCH   7   9
ENDBRANCH   3   4
ENDBRANCH   2   3
BRANCH   2  18
HETATM   18  N   UNL     1     -11.275  11.179  70.814  1.00  0.00    -0.126 N  
HETATM   19  O   UNL     1     -12.173   9.070  70.791  1.00  0.00    -0.215 OA 
HETATM   20  H   UNL     1     -10.409  11.717  70.800  1.00  0.00     0.000 HD 
HETATM   21  C   UNL     1     -11.191   9.806  70.766  1.00  0.00    -0.348 C  
BRANCH  21  22
HETATM   22  C   UNL     1      -9.822   9.286  70.704  1.00  0.00    -0.270 A  
HETATM   23  N   UNL     1      -9.048   9.080  71.788  1.00  0.00    -0.363 NA 
HETATM   24  H   UNL     1      -9.284   9.231  72.768  1.00  0.00     0.000 HD 
HETATM   25  C   UNL     1      -9.138   8.947  69.514  1.00  0.00    -0.146 A  
HETATM   26  N   UNL     1      -7.888   8.626  71.270  1.00  0.00    -0.118 NA 
HETATM   27  C   UNL     1      -7.879   8.559  69.904  1.00  0.00    -0.096 A  
BRANCH  27  28
HETATM   28  C   UNL     1      -6.699   8.108  69.126  1.00  0.00    -0.047 C  
HETATM   29  C   UNL     1      -6.570   8.833  67.790  1.00  0.00    -0.061 C  
HETATM   30  O   UNL     1      -5.556   8.366  69.931  1.00  0.00    -0.025 OA 
HETATM   31  H   UNL     1      -4.801   8.078  69.432  1.00  0.00     0.000 HD 
ENDBRANCH  27  28
ENDBRANCH  21  22
ENDBRANCH   2  18
TORSDOF 6
ENDMDL
MODEL      215
REMARK 921   NORMALIZED FREE ENERGY PREDICTED BY IDOCK:   -3.63 KCAL/MOL
REMARK 922        TOTAL FREE ENERGY PREDICTED BY IDOCK:   -6.52 KCAL/MOL
REMARK 923 INTER-LIGAND FREE ENERGY PREDICTED BY IDOCK:   -7.20 KCAL/MOL
REMARK 924 INTRA-LIGAND FREE ENERGY PREDICTED BY IDOCK:    0.68 KCAL/MOL
REMARK 927      BINDING AFFINITY PREDICTED BY RF-SCORE:    0.00 PKD
ROOT
HETATM    1  C   UNL     1     -11.522  10.627  69.061  1.00  0.00    -0.342 C  
HETATM    2  C   UNL     1     -12.374  11.645  69.827  1.00  0.00    -0.133 C  
ENDROOT
BRANCH   2   3
HETATM    3  C   UNL     1     -12.461  11.267  71.315  1.00  0.00    -0.336 C  
BRANCH   3   4
HETATM    4  N   UNL     1     -12.613   9.837  71.516  1.00  0.00    -0.368 NA 
HETATM    5  C   UNL     1     -13.778   9.133  71.501  1.00  0.00    -0.329 A  
HETATM    6  N   UNL     1     -11.534   9.076  71.765  1.00  0.00    -0.352 NA 
HETATM    7  C   UNL     1     -12.018   7.832  71.924  1.00  0.00    -0.301 A  
HETATM    8  C   UNL     1     -13.429   7.828  71.744  1.00  0.00    -0.373 A  
BRANCH   7   9
HETATM    9  C   UNL     1     -11.139   6.704  72.258  1.00  0.00    -0.292 A  
HETATM   10  C   UNL     1     -10.850   5.723  71.296  1.00  0.00    -0.313 A  
HETATM   11  C   UNL     1     -10.553   6.589  73.526  1.00  0.00    -0.312 A  
HETATM   12  N   UNL     1      -7.759   2.656  73.495  1.00  0.00    -0.050 NA 
HETATM   13  C   UNL     1      -9.691   5.526  73.820  1.00  0.00    -0.155 A  
HETATM   14 CL   UNL     1      -9.678   3.506  70.339  1.00  0.00    -0.234 Cl 
HETATM   15  C   UNL     1      -9.399   4.560  72.852  1.00  0.00    -0.145 A  
HETATM   16  C   UNL     1      -8.496   3.498  73.188  1.00  0.00    -0.082 C  
HETATM   17  C   UNL     1      -9.986   4.661  71.588  1.00  0.00    -0.193 A  
ENDBRANCH   7   9
ENDBRANCH   3   4
ENDBRANCH   2   3
BRANCH   2  18
HETATM   18  N   UNL     1     -11.878  12.998  69.595  1.00  0.00    -0.320 N  
HETATM   19  O   UNL     1     -10.681  12.531  67.698  1.00  0.00    -0.212 OA 
HETATM   20  H   UNL     1     -12.146  13.730  70.254  1.00  0.00     0.000 HD 
HETATM   21  C   UNL     1     -11.068  13.338  68.536  1.00  0.00    -0.265 C  
BRANCH  21  22
HETATM   22  C   UNL     1     -10.683  14.752  68.500  1.00  0.00    -0.247 A  
HETATM   23  N   UNL     1     -11.506  15.744  68.108  1.00  0.00    -0.337 NA 
HETATM   24  H   UNL     1     -12.477  15.674  67.804  1.00  0.00     0.000 HD 
HETATM   25  C   UNL     1      -9.410  15.253  68.857  1.00  0.00    -0.213 A  
HETATM   26  N   UNL     1     -10.743  16.852  68.210  1.00  0.00    -0.368 NA 
HETATM   27  C   UNL     1      -9.463  16.607  68.626  1.00  0.00    -0.249 A  
BRANCH  27  28
HETATM   28  C   UNL     1      -8.448  17.678  68.787  1.00  0.00    -0.213 C  
HETATM   29  C   UNL     1      -7.077  17.128  69.166  1.00  0.00    -0.213 C  
HETATM   30  O   UNL     1      -8.372  18.359  67.541  1.00  0.00    -0.249 OA 
HETATM   31  H   UNL     1      -7.722  19.044  67.645  1.00  0.00     0.000 HD 
ENDBRANCH  27  28
ENDBRANCH  21  22
ENDBRANCH   2  18
TORSDOF 6
ENDMDL
MODEL      216
REMARK 921   NORMALIZED FREE ENERGY PREDICTED BY IDOCK:   -3.62 KCAL/MOL
REMARK 922        TOTAL FREE ENERGY PREDICTED BY IDOCK:   -6.51 KCAL/MOL
REMARK 923 INTER-LIGAND FREE ENERGY PREDICTED BY IDOCK:   -6.15 KCAL/MOL
REMARK 924 INTRA-LIGAND FREE ENERGY PREDICTED BY IDOCK:   -0.36 KCAL/MOL
REMARK 927      BINDING AFFINITY PREDICTED BY RF-SCORE:    0.00 PKD
ROOT
HETATM    1  C   UNL     1      -9.826   2.847  71.716  1.00  0.00    -0.218 C  
HETATM    2  C   UNL     1      -9.880   4.194  70.988  1.00  0.00    -0.177 C  
ENDROOT
BRANCH   2   3
HETATM    3  C   UNL     1      -8.808   5.150  71.537  1.00  0.00    -0.133 C  
BRANCH   3   4
HETATM    4  N   UNL     1      -9.332   6.479  71.799  1.00  0.00    -0.150 NA 
HETATM    5  C   UNL     1      -9.656   7.001  73.014  1.00  0.00    -0.154 A  
HETATM    6  N   UNL     1      -9.560   7.324  70.778  1.00  0.00    -0.171 NA 
HETATM    7  C   UNL     1     -10.057   8.432  71.353  1.00  0.00    -0.215 A  
HETATM    8  C   UNL     1     -10.113   8.271  72.765  1.00  0.00    -0.333 A  
BRANCH   7   9
HETATM    9  C   UNL     1     -10.478   9.588  70.550  1.00  0.00    -0.358 A  
HETATM   10  C   UNL     1      -9.673  10.048  69.495  1.00  0.00    -0.253 A  
HETATM   11  C   UNL     1     -11.691  10.245  70.800  1.00  0.00    -0.453 A  
HETATM   12  N   UNL     1     -12.158  13.754  67.523  1.00  0.00    -0.373 NA 
HETATM   13  C   UNL     1     -12.094  11.325  70.007  1.00  0.00    -0.425 A  
HETATM   14 CL   UNL     1      -9.029  11.617  67.414  1.00  0.00    -0.162 Cl 
HETATM   15  C   UNL     1     -11.293  11.768  68.950  1.00  0.00    -0.326 A  
HETATM   16  C   UNL     1     -11.752  12.866  68.150  1.00  0.00    -0.352 C  
HETATM   17  C   UNL     1     -10.077  11.127  68.700  1.00  0.00    -0.200 A  
ENDBRANCH   7   9
ENDBRANCH   3   4
ENDBRANCH   2   3
BRANCH   2  18
HETATM   18  N   UNL     1      -9.801   3.994  69.545  1.00  0.00    -0.150 N  
HETATM   19  O   UNL     1      -7.747   2.977  69.521  1.00  0.00    -0.044 OA 
HETATM   20  H   UNL     1     -10.577   4.319  68.969  1.00  0.00     0.000 HD 
HETATM   21  C   UNL     1      -8.733   3.391  68.920  1.00  0.00    -0.095 C  
BRANCH  21  22
HETATM   22  C   UNL     1      -8.859   3.299  67.463  1.00  0.00    -0.133 A  
HETATM   23  N   UNL     1      -9.184   2.167  66.807  1.00  0.00    -0.326 NA 
HETATM   24  H   UNL     1      -9.396   1.250  67.201  1.00  0.00     0.000 HD 
HETATM   25  C   UNL     1      -8.647   4.369  66.563  1.00  0.00    -0.112 A  
HETATM   26  N   UNL     1      -9.163   2.533  65.509  1.00  0.00    -0.120 NA 
HETATM   27  C   UNL     1      -8.814   3.839  65.306  1.00  0.00    -0.120 A  
BRANCH  27  28
HETATM   28  C   UNL     1      -8.707   4.446  63.956  1.00  0.00    -0.136 C  
HETATM   29  C   UNL     1      -9.645   3.792  62.946  1.00  0.00    -0.124 C  
HETATM   30  O   UNL     1      -9.033   5.823  64.101  1.00  0.00    -0.336 OA 
HETATM   31  H   UNL     1      -8.965   6.212  63.237  1.00  0.00     0.000 HD 
ENDBRANCH  27  28
ENDBRANCH  21  22
ENDBRANCH   2  18
TORSDOF 6
ENDMDL
MODEL      217
REMARK 921   NORMALIZED FREE ENERGY PREDICTED BY IDOCK:   -3.59 KCAL/MOL
REMARK 922        TOTAL FREE ENERGY PREDICTED BY IDOCK:   -6.47 KCAL/MOL
REMARK 923 INTER-LIGAND FREE ENERGY PREDICTED BY IDOCK:   -5.29 KCAL/MOL
REMARK 924 INTRA-LIGAND FREE ENERGY PREDICTED BY IDOCK:   -1.18 KCAL/MOL
REMARK 927      BINDING AFFINITY PREDICTED BY RF-SCORE:    0.00 PKD
ROOT
HETATM    1  C   UNL     1      -8.756   9.856  63.448  1.00  0.00    -0.230 C  
HETATM    2  C   UNL     1      -7.616   9.173  64.211  1.00  0.00    -0.115 C  
ENDROOT
BRANCH   2   3
HETATM    3  C   UNL     1      -6.916  10.172  65.148  1.00  0.00    -0.137 C  
BRANCH   3   4
HETATM    4  N   UNL     1      -7.212   9.921  66.547  1.00  0.00    -0.093 NA 
HETATM    5  C   UNL     1      -6.314   9.634  67.530  1.00  0.00    -0.064 A  
HETATM    6  N   UNL     1      -8.486   9.941  66.978  1.00  0.00    -0.121 NA 
HETATM    7  C   UNL     1      -8.411   9.650  68.288  1.00  0.00    -0.117 A  
HETATM    8  C   UNL     1      -7.053   9.471  68.675  1.00  0.00    -0.069 A  
BRANCH   7   9
HETATM    9  C   UNL     1      -9.618   9.534  69.117  1.00  0.00    -0.170 A  
HETATM   10  C   UNL     1     -10.072   8.272  69.532  1.00  0.00    -0.197 A  
HETATM   11  C   UNL     1     -10.329  10.669  69.529  1.00  0.00    -0.214 A  
HETATM   12  N   UNL     1     -13.981   9.177  72.307  1.00  0.00    -0.451 NA 
HETATM   13  C   UNL     1     -11.460  10.545  70.345  1.00  0.00    -0.427 A  
HETATM   14 CL   UNL     1     -11.680   6.555  70.825  1.00  0.00    -0.436 Cl 
HETATM   15  C   UNL     1     -11.898   9.285  70.765  1.00  0.00    -0.303 A  
HETATM   16  C   UNL     1     -13.049   9.203  71.616  1.00  0.00    -0.369 C  
HETATM   17  C   UNL     1     -11.201   8.146  70.351  1.00  0.00    -0.221 A  
ENDBRANCH   7   9
ENDBRANCH   3   4
ENDBRANCH   2   3
BRANCH   2  18
HETATM   18  N   UNL     1      -8.105   7.978  64.892  1.00  0.00    -0.144 N  
HETATM   19  O   UNL     1      -7.654   6.496  63.202  1.00  0.00    -0.068 OA 
HETATM   20  H   UNL     1      -8.486   8.080  65.832  1.00  0.00     0.000 HD 
HETATM   21  C   UNL     1      -8.080   6.722  64.331  1.00  0.00    -0.058 C  
BRANCH  21  22
HETATM   22  C   UNL     1      -8.627   5.666  65.188  1.00  0.00    -0.130 A  
HETATM   23  N   UNL     1      -9.453   5.897  66.227  1.00  0.00    -0.197 NA 
HETATM   24  H   UNL     1      -9.818   6.791  66.555  1.00  0.00     0.000 HD 
HETATM   25  C   UNL     1      -8.356   4.286  65.045  1.00  0.00    -0.115 A  
HETATM   26  N   UNL     1      -9.682   4.668  66.732  1.00  0.00    -0.181 NA 
HETATM   27  C   UNL     1      -9.020   3.666  66.077  1.00  0.00    -0.144 A  
BRANCH  27  28
HETATM   28  C   UNL     1      -9.111   2.240  66.477  1.00  0.00    -0.066 C  
HETATM   29  C   UNL     1      -7.752   1.549  66.488  1.00  0.00    -0.065 C  
HETATM   30  O   UNL     1      -9.679   2.218  67.781  1.00  0.00    -0.384 OA 
HETATM   31  H   UNL     1      -9.737   1.305  68.037  1.00  0.00     0.000 HD 
ENDBRANCH  27  28
ENDBRANCH  21  22
ENDBRANCH   2  18
TORSDOF 6
ENDMDL
MODEL      218
REMARK 921   NORMALIZED FREE ENERGY PREDICTED BY IDOCK:   -3.56 KCAL/MOL
REMARK 922        TOTAL FREE ENERGY PREDICTED BY IDOCK:   -6.43 KCAL/MOL
REMARK 923 INTER-LIGAND FREE ENERGY PREDICTED BY IDOCK:   -5.71 KCAL/MOL
REMARK 924 INTRA-LIGAND FREE ENERGY PREDICTED BY IDOCK:   -0.72 KCAL/MOL
REMARK 927      BINDING AFFINITY PREDICTED BY RF-SCORE:    0.00 PKD
ROOT
HETATM    1  C   UNL     1     -11.980  13.255  65.554  1.00  0.00    -0.445 C  
HETATM    2  C   UNL     1     -11.301  13.370  66.924  1.00  0.00    -0.323 C  
ENDROOT
BRANCH   2   3
HETATM    3  C   UNL     1     -10.193  12.314  67.070  1.00  0.00    -0.215 C  
BRANCH   3   4
HETATM    4  N   UNL     1     -10.489  11.339  68.105  1.00  0.00    -0.182 NA 
HETATM    5  C   UNL     1     -11.286  11.525  69.193  1.00  0.00    -0.286 A  
HETATM    6  N   UNL     1      -9.934  10.116  68.054  1.00  0.00    -0.144 NA 
HETATM    7  C   UNL     1     -10.385   9.487  69.153  1.00  0.00    -0.207 A  
HETATM    8  C   UNL     1     -11.258  10.340  69.884  1.00  0.00    -0.360 A  
BRANCH   7   9
HETATM    9  C   UNL     1      -9.962   8.119  69.480  1.00  0.00    -0.187 A  
HETATM   10  C   UNL     1      -8.779   7.898  70.203  1.00  0.00    -0.136 A  
HETATM   11  C   UNL     1     -10.732   7.010  69.102  1.00  0.00    -0.240 A  
HETATM   12  N   UNL     1      -8.539   3.062  70.799  1.00  0.00    -0.067 NA 
HETATM   13  C   UNL     1     -10.334   5.714  69.449  1.00  0.00    -0.343 A  
HETATM   14 CL   UNL     1      -6.916   6.424  71.453  1.00  0.00    -0.074 Cl 
HETATM   15  C   UNL     1      -9.160   5.503  70.179  1.00  0.00    -0.162 A  
HETATM   16  C   UNL     1      -8.797   4.161  70.530  1.00  0.00    -0.082 C  
HETATM   17  C   UNL     1      -8.381   6.601  70.552  1.00  0.00    -0.130 A  
ENDBRANCH   7   9
ENDBRANCH   3   4
ENDBRANCH   2   3
BRANCH   2  18
HETATM   18  N   UNL     1     -10.840  14.736  67.149  1.00  0.00    -0.303 N  
HETATM   19  O   UNL     1     -11.529  14.902  69.329  1.00  0.00    -0.269 OA 
HETATM   20  H   UNL     1     -10.386  15.225  66.378  1.00  0.00     0.000 HD 
HETATM   21  C   UNL     1     -10.986  15.398  68.346  1.00  0.00    -0.284 C  
BRANCH  21  22
HETATM   22  C   UNL     1     -10.456  16.765  68.349  1.00  0.00    -0.339 A  
HETATM   23  N   UNL     1      -9.824  17.322  69.401  1.00  0.00    -0.060 NA 
HETATM   24  H   UNL     1      -9.613  16.900  70.305  1.00  0.00     0.000 HD 
HETATM   25  C   UNL     1     -10.547  17.671  67.267  1.00  0.00    -0.297 A  
HETATM   26  N   UNL     1      -9.535  18.569  68.976  1.00  0.00    -0.225 NA 
HETATM   27  C   UNL     1      -9.977  18.841  67.711  1.00  0.00    -0.350 A  
BRANCH  27  28
HETATM   28  C   UNL     1      -9.786  20.157  67.053  1.00  0.00    -0.455 C  
HETATM   29  C   UNL     1      -8.830  20.083  65.867  1.00  0.00    -0.146 C  
HETATM   30  O   UNL     1     -11.071  20.585  66.617  1.00  0.00     0.597 OA 
HETATM   31  H   UNL     1     -10.948  21.427  66.196  1.00  0.00     0.000 HD 
ENDBRANCH  27  28
ENDBRANCH  21  22
ENDBRANCH   2  18
TORSDOF 6
ENDMDL
MODEL      219
REMARK 921   NORMALIZED FREE ENERGY PREDICTED BY IDOCK:   -3.56 KCAL/MOL
REMARK 922        TOTAL FREE ENERGY PREDICTED BY IDOCK:   -6.43 KCAL/MOL
REMARK 923 INTER-LIGAND FREE ENERGY PREDICTED BY IDOCK:   -6.45 KCAL/MOL
REMARK 924 INTRA-LIGAND FREE ENERGY PREDICTED BY IDOCK:    0.02 KCAL/MOL
REMARK 927      BINDING AFFINITY PREDICTED BY RF-SCORE:    0.00 PKD
ROOT
HETATM    1  C   UNL     1      -5.749  12.717  67.347  1.00  0.00    -0.104 C  
HETATM    2  C   UNL     1      -7.263  12.873  67.525  1.00  0.00    -0.148 C  
ENDROOT
BRANCH   2   3
HETATM    3  C   UNL     1      -7.688  12.455  68.943  1.00  0.00     0.072 C  
BRANCH   3   4
HETATM    4  N   UNL     1      -8.541  11.280  68.942  1.00  0.00    -0.103 NA 
HETATM    5  C   UNL     1      -9.413  10.909  67.965  1.00  0.00    -0.163 A  
HETATM    6  N   UNL     1      -8.529  10.441  69.993  1.00  0.00     0.110 NA 
HETATM    7  C   UNL     1      -9.433   9.494  69.687  1.00  0.00    -0.199 A  
HETATM    8  C   UNL     1      -9.995   9.746  68.405  1.00  0.00    -0.176 A  
BRANCH   7   9
HETATM    9  C   UNL     1      -9.744   8.403  70.620  1.00  0.00    -0.203 A  
HETATM   10  C   UNL     1      -9.494   7.070  70.259  1.00  0.00    -0.165 A  
HETATM   11  C   UNL     1     -10.274   8.663  71.892  1.00  0.00    -0.404 A  
HETATM   12  N   UNL     1     -10.760   4.435  74.165  1.00  0.00    -0.265 NA 
HETATM   13  C   UNL     1     -10.536   7.616  72.783  1.00  0.00    -0.368 A  
HETATM   14 CL   UNL     1      -9.403   4.412  70.626  1.00  0.00    -0.205 Cl 
HETATM   15  C   UNL     1     -10.272   6.291  72.419  1.00  0.00    -0.208 A  
HETATM   16  C   UNL     1     -10.537   5.250  73.369  1.00  0.00    -0.257 C  
HETATM   17  C   UNL     1      -9.753   6.021  71.150  1.00  0.00    -0.177 A  
ENDBRANCH   7   9
ENDBRANCH   3   4
ENDBRANCH   2   3
BRANCH   2  18
HETATM   18  N   UNL     1      -7.680  14.225  67.165  1.00  0.00    -0.351 N  
HETATM   19  O   UNL     1      -5.957  15.327  68.200  1.00  0.00    -0.112 OA 
HETATM   20  H   UNL     1      -8.531  14.338  66.616  1.00  0.00     0.000 HD 
HETATM   21  C   UNL     1      -6.984  15.355  67.529  1.00  0.00    -0.194 C  
BRANCH  21  22
HETATM   22  C   UNL     1      -7.584  16.610  67.067  1.00  0.00    -0.202 A  
HETATM   23  N   UNL     1      -7.104  17.337  66.039  1.00  0.00    -0.239 NA 
HETATM   24  H   UNL     1      -6.299  17.134  65.446  1.00  0.00     0.000 HD 
HETATM   25  C   UNL     1      -8.726  17.219  67.637  1.00  0.00    -0.219 A  
HETATM   26  N   UNL     1      -7.936  18.397  65.981  1.00  0.00    -0.488 NA 
HETATM   27  C   UNL     1      -8.910  18.390  66.941  1.00  0.00    -0.279 A  
BRANCH  27  28
HETATM   28  C   UNL     1      -9.920  19.469  67.075  1.00  0.00    -0.378 C  
HETATM   29  C   UNL     1      -9.852  20.168  68.429  1.00  0.00    -0.371 C  
HETATM   30  O   UNL     1      -9.661  20.402  66.033  1.00  0.00    -0.653 OA 
HETATM   31  H   UNL     1     -10.307  21.093  66.119  1.00  0.00     0.000 HD 
ENDBRANCH  27  28
ENDBRANCH  21  22
ENDBRANCH   2  18
TORSDOF 6
ENDMDL
MODEL      220
REMARK 921   NORMALIZED FREE ENERGY PREDICTED BY IDOCK:   -3.54 KCAL/MOL
REMARK 922        TOTAL FREE ENERGY PREDICTED BY IDOCK:   -6.40 KCAL/MOL
REMARK 923 INTER-LIGAND FREE ENERGY PREDICTED BY IDOCK:   -6.25 KCAL/MOL
REMARK 924 INTRA-LIGAND FREE ENERGY PREDICTED BY IDOCK:   -0.15 KCAL/MOL
REMARK 927      BINDING AFFINITY PREDICTED BY RF-SCORE:    0.00 PKD
ROOT
HETATM    1  C   UNL     1     -12.753  10.970  70.219  1.00  0.00    -0.256 C  
HETATM    2  C   UNL     1     -11.936  10.818  68.931  1.00  0.00    -0.139 C  
ENDROOT
BRANCH   2   3
HETATM    3  C   UNL     1     -12.073  12.072  68.051  1.00  0.00     0.043 C  
BRANCH   3   4
HETATM    4  N   UNL     1     -11.706  13.287  68.757  1.00  0.00    -0.308 NA 
HETATM    5  C   UNL     1     -12.245  13.747  69.919  1.00  0.00    -0.321 A  
HETATM    6  N   UNL     1     -10.755  14.094  68.254  1.00  0.00    -0.243 NA 
HETATM    7  C   UNL     1     -10.680  15.119  69.120  1.00  0.00    -0.253 A  
HETATM    8  C   UNL     1     -11.593  14.923  70.194  1.00  0.00    -0.333 A  
BRANCH   7   9
HETATM    9  C   UNL     1      -9.770  16.249  68.893  1.00  0.00    -0.248 A  
HETATM   10  C   UNL     1     -10.280  17.546  68.725  1.00  0.00    -0.373 A  
HETATM   11  C   UNL     1      -8.381  16.068  68.858  1.00  0.00    -0.231 A  
HETATM   12  N   UNL     1      -6.357  20.401  68.219  1.00  0.00    -0.295 NA 
HETATM   13  C   UNL     1      -7.524  17.159  68.672  1.00  0.00    -0.245 A  
HETATM   14 CL   UNL     1     -10.139  20.202  68.355  1.00  0.00    -0.500 Cl 
HETATM   15  C   UNL     1      -8.040  18.449  68.518  1.00  0.00    -0.340 A  
HETATM   16  C   UNL     1      -7.126  19.542  68.350  1.00  0.00    -0.314 C  
HETATM   17  C   UNL     1      -9.424  18.639  68.541  1.00  0.00    -0.350 A  
ENDBRANCH   7   9
ENDBRANCH   3   4
ENDBRANCH   2   3
BRANCH   2  18
HETATM   18  N   UNL     1     -10.554  10.473  69.245  1.00  0.00    -0.222 N  
HETATM   19  O   UNL     1     -10.460   8.553  67.996  1.00  0.00    -0.221 OA 
HETATM   20  H   UNL     1     -10.032  11.088  69.870  1.00  0.00     0.000 HD 
HETATM   21  C   UNL     1      -9.917   9.360  68.744  1.00  0.00    -0.179 C  
BRANCH  21  22
HETATM   22  C   UNL     1      -8.531   9.203  69.194  1.00  0.00    -0.132 A  
HETATM   23  N   UNL     1      -7.780   8.113  68.942  1.00  0.00    -0.101 NA 
HETATM   24  H   UNL     1      -8.037   7.278  68.416  1.00  0.00     0.000 HD 
HETATM   25  C   UNL     1      -7.813  10.156  69.953  1.00  0.00    -0.164 A  
HETATM   26  N   UNL     1      -6.607   8.386  69.550  1.00  0.00    -0.040 NA 
HETATM   27  C   UNL     1      -6.586   9.589  70.200  1.00  0.00    -0.073 A  
BRANCH  27  28
HETATM   28  C   UNL     1      -5.405  10.080  70.953  1.00  0.00    -0.068 C  
HETATM   29  C   UNL     1      -5.231  11.591  70.844  1.00  0.00    -0.131 C  
HETATM   30  O   UNL     1      -5.605   9.710  72.312  1.00  0.00    -0.217 OA 
HETATM   31  H   UNL     1      -4.849  10.025  72.794  1.00  0.00     0.000 HD 
ENDBRANCH  27  28
ENDBRANCH  21  22
ENDBRANCH   2  18
TORSDOF 6
ENDMDL
MODEL      221
REMARK 921   NORMALIZED FREE ENERGY PREDICTED BY IDOCK:   -3.53 KCAL/MOL
REMARK 922        TOTAL FREE ENERGY PREDICTED BY IDOCK:   -6.40 KCAL/MOL
REMARK 923 INTER-LIGAND FREE ENERGY PREDICTED BY IDOCK:   -6.22 KCAL/MOL
REMARK 924 INTRA-LIGAND FREE ENERGY PREDICTED BY IDOCK:   -0.18 KCAL/MOL
REMARK 927      BINDING AFFINITY PREDICTED BY RF-SCORE:    0.00 PKD
ROOT
HETATM    1  C   UNL     1      -8.642  14.880  65.972  1.00  0.00     0.551 C  
HETATM    2  C   UNL     1     -10.058  15.454  65.857  1.00  0.00    -0.345 C  
ENDROOT
BRANCH   2   3
HETATM    3  C   UNL     1     -10.803  14.822  64.669  1.00  0.00    -0.292 C  
BRANCH   3   4
HETATM    4  N   UNL     1     -10.667  13.376  64.634  1.00  0.00    -0.389 NA 
HETATM    5  C   UNL     1     -10.983  12.555  63.596  1.00  0.00    -0.456 A  
HETATM    6  N   UNL     1     -10.205  12.720  65.712  1.00  0.00    -0.285 NA 
HETATM    7  C   UNL     1     -10.227  11.422  65.361  1.00  0.00    -0.270 A  
HETATM    8  C   UNL     1     -10.694  11.283  64.025  1.00  0.00    -0.444 A  
BRANCH   7   9
HETATM    9  C   UNL     1      -9.829  10.367  66.302  1.00  0.00    -0.272 A  
HETATM   10  C   UNL     1      -8.523   9.854  66.278  1.00  0.00    -0.133 A  
HETATM   11  C   UNL     1     -10.728   9.864  67.254  1.00  0.00    -0.304 A  
HETATM   12  N   UNL     1      -8.372   6.593  69.904  1.00  0.00    -0.130 NA 
HETATM   13  C   UNL     1     -10.325   8.882  68.165  1.00  0.00    -0.261 A  
HETATM   14 CL   UNL     1      -6.487   8.307  67.097  1.00  0.00    -0.057 Cl 
HETATM   15  C   UNL     1      -9.018   8.385  68.143  1.00  0.00    -0.139 A  
HETATM   16  C   UNL     1      -8.641   7.392  69.107  1.00  0.00    -0.136 C  
HETATM   17  C   UNL     1      -8.118   8.872  67.191  1.00  0.00    -0.103 A  
ENDBRANCH   7   9
ENDBRANCH   3   4
ENDBRANCH   2   3
BRANCH   2  18
HETATM   18  N   UNL     1     -10.764  15.322  67.127  1.00  0.00    -0.310 N  
HETATM   19  O   UNL     1      -9.593  16.934  68.260  1.00  0.00    -0.242 OA 
HETATM   20  H   UNL     1     -11.508  14.628  67.196  1.00  0.00     0.000 HD 
HETATM   21  C   UNL     1     -10.477  16.084  68.236  1.00  0.00    -0.269 C  
BRANCH  21  22
HETATM   22  C   UNL     1     -11.305  15.781  69.407  1.00  0.00    -0.348 A  
HETATM   23  N   UNL     1     -12.391  16.495  69.763  1.00  0.00    -0.022 NA 
HETATM   24  H   UNL     1     -12.794  17.306  69.293  1.00  0.00     0.000 HD 
HETATM   25  C   UNL     1     -11.070  14.720  70.312  1.00  0.00    -0.185 A  
HETATM   26  N   UNL     1     -12.819  15.887  70.888  1.00  0.00    -0.418 NA 
HETATM   27  C   UNL     1     -12.041  14.833  71.280  1.00  0.00    -0.341 A  
BRANCH  27  28
HETATM   28  C   UNL     1     -12.316  14.034  72.500  1.00  0.00     0.092 C  
HETATM   29  C   UNL     1     -13.099  14.820  73.547  1.00  0.00    -0.305 C  
HETATM   30  O   UNL     1     -13.064  12.898  72.084  1.00  0.00    -0.403 OA 
HETATM   31  H   UNL     1     -13.241  12.388  72.865  1.00  0.00     0.000 HD 
ENDBRANCH  27  28
ENDBRANCH  21  22
ENDBRANCH   2  18
TORSDOF 6
ENDMDL
MODEL      222
REMARK 921   NORMALIZED FREE ENERGY PREDICTED BY IDOCK:   -3.49 KCAL/MOL
REMARK 922        TOTAL FREE ENERGY PREDICTED BY IDOCK:   -6.33 KCAL/MOL
REMARK 923 INTER-LIGAND FREE ENERGY PREDICTED BY IDOCK:   -4.82 KCAL/MOL
REMARK 924 INTRA-LIGAND FREE ENERGY PREDICTED BY IDOCK:   -1.52 KCAL/MOL
REMARK 927      BINDING AFFINITY PREDICTED BY RF-SCORE:    0.00 PKD
ROOT
HETATM    1  C   UNL     1      -6.502  12.789  69.627  1.00  0.00    -0.046 C  
HETATM    2  C   UNL     1      -7.179  11.810  68.662  1.00  0.00    -0.112 C  
ENDROOT
BRANCH   2   3
HETATM    3  C   UNL     1      -6.139  10.874  68.022  1.00  0.00    -0.049 C  
BRANCH   3   4
HETATM    4  N   UNL     1      -6.754   9.807  67.253  1.00  0.00    -0.074 NA 
HETATM    5  C   UNL     1      -7.167   9.872  65.957  1.00  0.00    -0.106 A  
HETATM    6  N   UNL     1      -6.983   8.612  67.826  1.00  0.00    -0.074 NA 
HETATM    7  C   UNL     1      -7.572   7.877  66.868  1.00  0.00    -0.099 A  
HETATM    8  C   UNL     1      -7.686   8.634  65.668  1.00  0.00    -0.091 A  
BRANCH   7   9
HETATM    9  C   UNL     1      -8.022   6.503  67.124  1.00  0.00    -0.112 A  
HETATM   10  C   UNL     1      -7.137   5.560  67.671  1.00  0.00    -0.071 A  
HETATM   11  C   UNL     1      -9.338   6.105  66.852  1.00  0.00    -0.143 A  
HETATM   12  N   UNL     1      -9.782   1.494  68.199  1.00  0.00    -0.114 NA 
HETATM   13  C   UNL     1      -9.761   4.801  67.131  1.00  0.00    -0.207 A  
HETATM   14 CL   UNL     1      -6.407   3.164  68.639  1.00  0.00    -0.029 Cl 
HETATM   15  C   UNL     1      -8.878   3.871  67.688  1.00  0.00    -0.133 A  
HETATM   16  C   UNL     1      -9.357   2.551  67.977  1.00  0.00    -0.202 C  
HETATM   17  C   UNL     1      -7.560   4.255  67.954  1.00  0.00    -0.069 A  
ENDBRANCH   7   9
ENDBRANCH   3   4
ENDBRANCH   2   3
BRANCH   2  18
HETATM   18  N   UNL     1      -8.265  11.104  69.334  1.00  0.00    -0.380 N  
HETATM   19  O   UNL     1      -9.823  11.353  67.671  1.00  0.00    -0.173 OA 
HETATM   20  H   UNL     1      -8.092  10.725  70.264  1.00  0.00     0.000 HD 
HETATM   21  C   UNL     1      -9.511  10.925  68.778  1.00  0.00    -0.190 C  
BRANCH  21  22
HETATM   22  C   UNL     1     -10.453  10.193  69.629  1.00  0.00    -0.252 A  
HETATM   23  N   UNL     1     -11.200  10.770  70.591  1.00  0.00    -0.404 NA 
HETATM   24  H   UNL     1     -11.236  11.755  70.855  1.00  0.00     0.000 HD 
HETATM   25  C   UNL     1     -10.691   8.800  69.562  1.00  0.00    -0.196 A  
HETATM   26  N   UNL     1     -11.887   9.739  71.123  1.00  0.00    -0.352 NA 
HETATM   27  C   UNL     1     -11.594   8.527  70.562  1.00  0.00    -0.132 A  
BRANCH  27  28
HETATM   28  C   UNL     1     -12.218   7.257  71.008  1.00  0.00    -0.313 C  
HETATM   29  C   UNL     1     -11.313   6.458  71.940  1.00  0.00    -0.339 C  
HETATM   30  O   UNL     1     -13.421   7.608  71.682  1.00  0.00    -0.354 OA 
HETATM   31  H   UNL     1     -13.820   6.796  71.968  1.00  0.00     0.000 HD 
ENDBRANCH  27  28
ENDBRANCH  21  22
ENDBRANCH   2  18
TORSDOF 6
ENDMDL
MODEL      223
REMARK 921   NORMALIZED FREE ENERGY PREDICTED BY IDOCK:   -3.49 KCAL/MOL
REMARK 922        TOTAL FREE ENERGY PREDICTED BY IDOCK:   -6.33 KCAL/MOL
REMARK 923 INTER-LIGAND FREE ENERGY PREDICTED BY IDOCK:   -5.20 KCAL/MOL
REMARK 924 INTRA-LIGAND FREE ENERGY PREDICTED BY IDOCK:   -1.14 KCAL/MOL
REMARK 927      BINDING AFFINITY PREDICTED BY RF-SCORE:    0.00 PKD
ROOT
HETATM    1  C   UNL     1      -6.562   8.438  73.640  1.00  0.00    -0.134 C  
HETATM    2  C   UNL     1      -7.062   9.003  72.306  1.00  0.00     0.262 C  
ENDROOT
BRANCH   2   3
HETATM    3  C   UNL     1      -5.895   9.594  71.496  1.00  0.00    -0.024 C  
BRANCH   3   4
HETATM    4  N   UNL     1      -6.332  10.609  70.554  1.00  0.00    -0.281 NA 
HETATM    5  C   UNL     1      -5.718  11.796  70.295  1.00  0.00    -0.155 A  
HETATM    6  N   UNL     1      -7.461  10.427  69.848  1.00  0.00    -0.154 NA 
HETATM    7  C   UNL     1      -7.587  11.542  69.107  1.00  0.00    -0.003 A  
HETATM    8  C   UNL     1      -6.494  12.419  69.349  1.00  0.00    -0.103 A  
BRANCH   7   9
HETATM    9  C   UNL     1      -8.739  11.745  68.218  1.00  0.00    -0.167 A  
HETATM   10  C   UNL     1      -9.510  12.914  68.315  1.00  0.00    -0.206 A  
HETATM   11  C   UNL     1      -9.083  10.796  67.245  1.00  0.00    -0.151 A  
HETATM   12  N   UNL     1     -12.875  12.511  64.805  1.00  0.00    -0.820 NA 
HETATM   13  C   UNL     1     -10.164  11.017  66.384  1.00  0.00    -0.284 A  
HETATM   14 CL   UNL     1     -11.476  14.611  67.634  1.00  0.00    -0.347 Cl 
HETATM   15  C   UNL     1     -10.919  12.190  66.479  1.00  0.00    -0.325 A  
HETATM   16  C   UNL     1     -12.006  12.387  65.564  1.00  0.00    -0.391 C  
HETATM   17  C   UNL     1     -10.590  13.137  67.452  1.00  0.00    -0.242 A  
ENDBRANCH   7   9
ENDBRANCH   3   4
ENDBRANCH   2   3
BRANCH   2  18
HETATM   18  N   UNL     1      -7.823   7.992  71.580  1.00  0.00    -0.093 N  
HETATM   19  O   UNL     1      -9.900   8.879  71.972  1.00  0.00    -0.325 OA 
HETATM   20  H   UNL     1      -7.313   7.229  71.136  1.00  0.00     0.000 HD 
HETATM   21  C   UNL     1      -9.195   8.013  71.464  1.00  0.00    -0.147 C  
BRANCH  21  22
HETATM   22  C   UNL     1      -9.754   6.896  70.697  1.00  0.00    -0.175 A  
HETATM   23  N   UNL     1     -10.863   6.220  71.056  1.00  0.00    -0.258 NA 
HETATM   24  H   UNL     1     -11.463   6.378  71.866  1.00  0.00     0.000 HD 
HETATM   25  C   UNL     1      -9.204   6.381  69.500  1.00  0.00    -0.144 A  
HETATM   26  N   UNL     1     -10.992   5.285  70.093  1.00  0.00    -0.041 NA 
HETATM   27  C   UNL     1     -10.002   5.318  69.150  1.00  0.00    -0.205 A  
BRANCH  27  28
HETATM   28  C   UNL     1      -9.936   4.366  68.014  1.00  0.00    -0.009 C  
HETATM   29  C   UNL     1      -8.907   4.779  66.966  1.00  0.00    -0.107 C  
HETATM   30  O   UNL     1      -9.591   3.099  68.561  1.00  0.00    -0.168 OA 
HETATM   31  H   UNL     1      -9.548   2.491  67.833  1.00  0.00     0.000 HD 
ENDBRANCH  27  28
ENDBRANCH  21  22
ENDBRANCH   2  18
TORSDOF 6
ENDMDL
MODEL      224
REMARK 921   NORMALIZED FREE ENERGY PREDICTED BY IDOCK:   -3.45 KCAL/MOL
REMARK 922        TOTAL FREE ENERGY PREDICTED BY IDOCK:   -6.29 KCAL/MOL
REMARK 923 INTER-LIGAND FREE ENERGY PREDICTED BY IDOCK:   -7.54 KCAL/MOL
REMARK 924 INTRA-LIGAND FREE ENERGY PREDICTED BY IDOCK:    1.25 KCAL/MOL
REMARK 927      BINDING AFFINITY PREDICTED BY RF-SCORE:    0.00 PKD
ROOT
HETATM    1  C   UNL     1     -13.266  10.765  71.443  1.00  0.00    -0.384 C  
HETATM    2  C   UNL     1     -12.410   9.880  70.530  1.00  0.00    -0.150 C  
ENDROOT
BRANCH   2   3
HETATM    3  C   UNL     1     -11.961  10.661  69.284  1.00  0.00    -0.197 C  
BRANCH   3   4
HETATM    4  N   UNL     1     -11.832  12.085  69.539  1.00  0.00    -0.323 NA 
HETATM    5  C   UNL     1     -12.278  12.759  70.634  1.00  0.00    -0.288 A  
HETATM    6  N   UNL     1     -11.237  12.878  68.631  1.00  0.00    -0.263 NA 
HETATM    7  C   UNL     1     -11.306  14.114  69.155  1.00  0.00    -0.279 A  
HETATM    8  C   UNL     1     -11.939  14.073  70.429  1.00  0.00    -0.398 A  
BRANCH   7   9
HETATM    9  C   UNL     1     -10.793  15.284  68.430  1.00  0.00    -0.257 A  
HETATM   10  C   UNL     1     -10.707  16.531  69.069  1.00  0.00    -0.332 A  
HETATM   11  C   UNL     1     -10.360  15.183  67.101  1.00  0.00    -0.263 A  
HETATM   12  N   UNL     1      -8.740  19.524  65.756  1.00  0.00    -0.359 NA 
HETATM   13  C   UNL     1      -9.843  16.298  66.432  1.00  0.00    -0.310 A  
HETATM   14 CL   UNL     1     -10.108  19.140  69.270  1.00  0.00    -0.303 Cl 
HETATM   15  C   UNL     1      -9.750  17.534  67.080  1.00  0.00    -0.279 A  
HETATM   16  C   UNL     1      -9.196  18.648  66.365  1.00  0.00    -0.291 C  
HETATM   17  C   UNL     1     -10.188  17.647  68.402  1.00  0.00    -0.381 A  
ENDBRANCH   7   9
ENDBRANCH   3   4
ENDBRANCH   2   3
BRANCH   2  18
HETATM   18  N   UNL     1     -11.305   9.294  71.282  1.00  0.00    -0.322 N  
HETATM   19  O   UNL     1     -12.584   8.072  72.740  1.00  0.00    -0.102 OA 
HETATM   20  H   UNL     1     -10.353   9.544  71.015  1.00  0.00     0.000 HD 
HETATM   21  C   UNL     1     -11.481   8.424  72.334  1.00  0.00    -0.380 C  
BRANCH  21  22
HETATM   22  C   UNL     1     -10.234   7.962  72.951  1.00  0.00    -0.330 A  
HETATM   23  N   UNL     1     -10.183   7.099  73.984  1.00  0.00    -0.421 NA 
HETATM   24  H   UNL     1     -10.960   6.645  74.465  1.00  0.00     0.000 HD 
HETATM   25  C   UNL     1      -8.937   8.365  72.555  1.00  0.00    -0.308 A  
HETATM   26  N   UNL     1      -8.863   6.977  74.234  1.00  0.00    -0.183 NA 
HETATM   27  C   UNL     1      -8.072   7.743  73.423  1.00  0.00    -0.161 A  
BRANCH  27  28
HETATM   28  C   UNL     1      -6.593   7.779  73.537  1.00  0.00    -0.085 C  
HETATM   29  C   UNL     1      -6.101   8.951  74.379  1.00  0.00    -0.124 C  
HETATM   30  O   UNL     1      -6.200   6.550  74.137  1.00  0.00    -0.064 OA 
HETATM   31  H   UNL     1      -5.253   6.574  74.210  1.00  0.00     0.000 HD 
ENDBRANCH  27  28
ENDBRANCH  21  22
ENDBRANCH   2  18
TORSDOF 6
ENDMDL
MODEL      225
REMARK 921   NORMALIZED FREE ENERGY PREDICTED BY IDOCK:   -3.42 KCAL/MOL
REMARK 922        TOTAL FREE ENERGY PREDICTED BY IDOCK:   -6.24 KCAL/MOL
REMARK 923 INTER-LIGAND FREE ENERGY PREDICTED BY IDOCK:   -5.58 KCAL/MOL
REMARK 924 INTRA-LIGAND FREE ENERGY PREDICTED BY IDOCK:   -0.67 KCAL/MOL
REMARK 927      BINDING AFFINITY PREDICTED BY RF-SCORE:    0.00 PKD
ROOT
HETATM    1  C   UNL     1     -12.976   7.373  70.788  1.00  0.00     0.027 C  
HETATM    2  C   UNL     1     -11.602   8.032  70.631  1.00  0.00    -0.196 C  
ENDROOT
BRANCH   2   3
HETATM    3  C   UNL     1     -11.718   9.562  70.741  1.00  0.00    -0.298 C  
BRANCH   3   4
HETATM    4  N   UNL     1     -11.409  10.233  69.490  1.00  0.00    -0.249 NA 
HETATM    5  C   UNL     1     -11.097   9.640  68.305  1.00  0.00    -0.046 A  
HETATM    6  N   UNL     1     -11.395  11.576  69.435  1.00  0.00    -0.271 NA 
HETATM    7  C   UNL     1     -11.054  11.865  68.167  1.00  0.00    -0.242 A  
HETATM    8  C   UNL     1     -10.879  10.667  67.420  1.00  0.00    -0.353 A  
BRANCH   7   9
HETATM    9  C   UNL     1     -10.889  13.253  67.716  1.00  0.00    -0.268 A  
HETATM   10  C   UNL     1     -10.192  14.177  68.510  1.00  0.00    -0.247 A  
HETATM   11  C   UNL     1     -11.400  13.682  66.483  1.00  0.00    -0.335 A  
HETATM   12  N   UNL     1     -10.171  18.314  65.925  1.00  0.00    -0.587 NA 
HETATM   13  C   UNL     1     -11.207  14.999  66.051  1.00  0.00    -0.310 A  
HETATM   14 CL   UNL     1      -9.115  16.560  69.115  1.00  0.00    -0.229 Cl 
HETATM   15  C   UNL     1     -10.500  15.910  66.843  1.00  0.00    -0.309 A  
HETATM   16  C   UNL     1     -10.309  17.245  66.355  1.00  0.00    -0.316 C  
HETATM   17  C   UNL     1      -9.996  15.494  68.078  1.00  0.00    -0.214 A  
ENDBRANCH   7   9
ENDBRANCH   3   4
ENDBRANCH   2   3
BRANCH   2  18
HETATM   18  N   UNL     1     -10.649   7.449  71.570  1.00  0.00    -0.207 N  
HETATM   19  O   UNL     1      -9.452   6.242  70.032  1.00  0.00    -0.153 OA 
HETATM   20  H   UNL     1     -10.738   7.685  72.557  1.00  0.00     0.000 HD 
HETATM   21  C   UNL     1      -9.636   6.597  71.192  1.00  0.00    -0.170 C  
BRANCH  21  22
HETATM   22  C   UNL     1      -8.799   6.125  72.298  1.00  0.00    -0.137 A  
HETATM   23  N   UNL     1      -8.776   6.697  73.518  1.00  0.00    -0.122 NA 
HETATM   24  H   UNL     1      -9.317   7.496  73.850  1.00  0.00     0.000 HD 
HETATM   25  C   UNL     1      -7.909   5.029  72.230  1.00  0.00    -0.100 A  
HETATM   26  N   UNL     1      -7.869   5.966  74.197  1.00  0.00    -0.101 NA 
HETATM   27  C   UNL     1      -7.294   4.969  73.458  1.00  0.00    -0.091 A  
BRANCH  27  28
HETATM   28  C   UNL     1      -6.255   4.058  73.999  1.00  0.00    -0.032 C  
HETATM   29  C   UNL     1      -5.772   3.046  72.965  1.00  0.00    -0.004 C  
HETATM   30  O   UNL     1      -5.172   4.878  74.420  1.00  0.00    -0.015 OA 
HETATM   31  H   UNL     1      -4.508   4.294  74.766  1.00  0.00     0.000 HD 
ENDBRANCH  27  28
ENDBRANCH  21  22
ENDBRANCH   2  18
TORSDOF 6
ENDMDL
MODEL      226
REMARK 921   NORMALIZED FREE ENERGY PREDICTED BY IDOCK:   -3.41 KCAL/MOL
REMARK 922        TOTAL FREE ENERGY PREDICTED BY IDOCK:   -6.22 KCAL/MOL
REMARK 923 INTER-LIGAND FREE ENERGY PREDICTED BY IDOCK:   -5.23 KCAL/MOL
REMARK 924 INTRA-LIGAND FREE ENERGY PREDICTED BY IDOCK:   -1.00 KCAL/MOL
REMARK 927      BINDING AFFINITY PREDICTED BY RF-SCORE:    0.00 PKD
ROOT
HETATM    1  C   UNL     1      -5.958  12.316  69.981  1.00  0.00    -0.153 C  
HETATM    2  C   UNL     1      -6.757  11.295  69.163  1.00  0.00    -0.099 C  
ENDROOT
BRANCH   2   3
HETATM    3  C   UNL     1      -5.810  10.338  68.419  1.00  0.00    -0.040 C  
BRANCH   3   4
HETATM    4  N   UNL     1      -6.376   9.857  67.171  1.00  0.00    -0.067 NA 
HETATM    5  C   UNL     1      -6.703  10.608  66.084  1.00  0.00    -0.132 A  
HETATM    6  N   UNL     1      -6.646   8.549  67.016  1.00  0.00    -0.057 NA 
HETATM    7  C   UNL     1      -7.174   8.450  65.784  1.00  0.00    -0.072 A  
HETATM    8  C   UNL     1      -7.205   9.728  65.159  1.00  0.00    -0.122 A  
BRANCH   7   9
HETATM    9  C   UNL     1      -7.644   7.164  65.254  1.00  0.00    -0.103 A  
HETATM   10  C   UNL     1      -8.692   6.477  65.887  1.00  0.00    -0.149 A  
HETATM   11  C   UNL     1      -7.079   6.603  64.100  1.00  0.00    -0.055 A  
HETATM   12  N   UNL     1      -9.444   2.505  63.157  1.00  0.00    -0.094 NA 
HETATM   13  C   UNL     1      -7.559   5.392  63.587  1.00  0.00    -0.073 A  
HETATM   14 CL   UNL     1     -10.475   4.498  66.212  1.00  0.00    -0.245 Cl 
HETATM   15  C   UNL     1      -8.611   4.721  64.217  1.00  0.00    -0.141 A  
HETATM   16  C   UNL     1      -9.086   3.493  63.649  1.00  0.00    -0.096 C  
HETATM   17  C   UNL     1      -9.174   5.267  65.374  1.00  0.00    -0.080 A  
ENDBRANCH   7   9
ENDBRANCH   3   4
ENDBRANCH   2   3
BRANCH   2  18
HETATM   18  N   UNL     1      -7.728  10.614  70.012  1.00  0.00    -0.318 N  
HETATM   19  O   UNL     1      -9.378  10.414  68.433  1.00  0.00    -0.141 OA 
HETATM   20  H   UNL     1      -7.473  10.421  70.980  1.00  0.00     0.000 HD 
HETATM   21  C   UNL     1      -8.972  10.218  69.574  1.00  0.00    -0.157 C  
BRANCH  21  22
HETATM   22  C   UNL     1      -9.789   9.556  70.595  1.00  0.00    -0.262 A  
HETATM   23  N   UNL     1      -9.284   8.984  71.705  1.00  0.00    -0.361 NA 
HETATM   24  H   UNL     1      -8.309   8.936  72.001  1.00  0.00     0.000 HD 
HETATM   25  C   UNL     1     -11.196   9.423  70.544  1.00  0.00    -0.329 A  
HETATM   26  N   UNL     1     -10.371   8.490  72.332  1.00  0.00    -0.324 NA 
HETATM   27  C   UNL     1     -11.543   8.699  71.659  1.00  0.00    -0.310 A  
BRANCH  27  28
HETATM   28  C   UNL     1     -12.857   8.221  72.157  1.00  0.00    -0.315 C  
HETATM   29  C   UNL     1     -13.753   9.362  72.627  1.00  0.00    -0.337 C  
HETATM   30  O   UNL     1     -13.475   7.530  71.078  1.00  0.00    -0.594 OA 
HETATM   31  H   UNL     1     -14.316   7.224  71.397  1.00  0.00     0.000 HD 
ENDBRANCH  27  28
ENDBRANCH  21  22
ENDBRANCH   2  18
TORSDOF 6
ENDMDL
MODEL      227
REMARK 921   NORMALIZED FREE ENERGY PREDICTED BY IDOCK:   -3.39 KCAL/MOL
REMARK 922        TOTAL FREE ENERGY PREDICTED BY IDOCK:   -6.21 KCAL/MOL
REMARK 923 INTER-LIGAND FREE ENERGY PREDICTED BY IDOCK:   -5.03 KCAL/MOL
REMARK 924 INTRA-LIGAND FREE ENERGY PREDICTED BY IDOCK:   -1.18 KCAL/MOL
REMARK 927      BINDING AFFINITY PREDICTED BY RF-SCORE:    0.00 PKD
ROOT
HETATM    1  C   UNL     1      -8.695   5.507  65.353  1.00  0.00    -0.148 C  
HETATM    2  C   UNL     1      -7.751   5.902  66.494  1.00  0.00    -0.100 C  
ENDROOT
BRANCH   2   3
HETATM    3  C   UNL     1      -6.776   7.000  66.036  1.00  0.00    -0.053 C  
BRANCH   3   4
HETATM    4  N   UNL     1      -7.453   8.246  65.724  1.00  0.00    -0.079 NA 
HETATM    5  C   UNL     1      -7.849   8.670  64.493  1.00  0.00    -0.132 A  
HETATM    6  N   UNL     1      -7.729   9.124  66.704  1.00  0.00    -0.096 NA 
HETATM    7  C   UNL     1      -8.321  10.159  66.083  1.00  0.00    -0.131 A  
HETATM    8  C   UNL     1      -8.432   9.897  64.689  1.00  0.00    -0.178 A  
BRANCH   7   9
HETATM    9  C   UNL     1      -8.740  11.357  66.822  1.00  0.00    -0.174 A  
HETATM   10  C   UNL     1      -7.958  12.523  66.781  1.00  0.00     0.078 A  
HETATM   11  C   UNL     1      -9.930  11.377  67.562  1.00  0.00    -0.201 A  
HETATM   12  N   UNL     1     -10.418  15.797  69.432  1.00  0.00    -0.236 NA 
HETATM   13  C   UNL     1     -10.333  12.536  68.235  1.00  0.00    -0.241 A  
HETATM   14 CL   UNL     1      -7.343  15.076  67.337  1.00  0.00    -0.229 Cl 
HETATM   15  C   UNL     1      -9.555  13.696  68.179  1.00  0.00    -0.221 A  
HETATM   16  C   UNL     1     -10.013  14.868  68.867  1.00  0.00    -0.233 C  
HETATM   17  C   UNL     1      -8.361  13.684  67.452  1.00  0.00    -0.192 A  
ENDBRANCH   7   9
ENDBRANCH   3   4
ENDBRANCH   2   3
BRANCH   2  18
HETATM   18  N   UNL     1      -8.515   6.258  67.685  1.00  0.00    -0.116 N  
HETATM   19  O   UNL     1      -6.915   5.678  69.221  1.00  0.00    -0.059 OA 
HETATM   20  H   UNL     1      -9.458   6.626  67.562  1.00  0.00     0.000 HD 
HETATM   21  C   UNL     1      -8.030   6.122  68.966  1.00  0.00    -0.108 C  
BRANCH  21  22
HETATM   22  C   UNL     1      -8.968   6.534  70.014  1.00  0.00    -0.144 A  
HETATM   23  N   UNL     1      -8.659   6.573  71.325  1.00  0.00    -0.126 NA 
HETATM   24  H   UNL     1      -7.769   6.347  71.769  1.00  0.00     0.000 HD 
HETATM   25  C   UNL     1     -10.308   6.930  69.792  1.00  0.00    -0.224 A  
HETATM   26  N   UNL     1      -9.803   6.980  71.911  1.00  0.00    -0.164 NA 
HETATM   27  C   UNL     1     -10.836   7.177  71.036  1.00  0.00    -0.240 A  
BRANCH  27  28
HETATM   28  C   UNL     1     -12.190   7.605  71.467  1.00  0.00    -0.324 C  
HETATM   29  C   UNL     1     -12.309   9.120  71.597  1.00  0.00    -0.434 C  
HETATM   30  O   UNL     1     -13.100   7.127  70.484  1.00  0.00    -0.525 OA 
HETATM   31  H   UNL     1     -13.967   7.401  70.760  1.00  0.00     0.000 HD 
ENDBRANCH  27  28
ENDBRANCH  21  22
ENDBRANCH   2  18
TORSDOF 6
ENDMDL
MODEL      228
REMARK 921   NORMALIZED FREE ENERGY PREDICTED BY IDOCK:   -3.35 KCAL/MOL
REMARK 922        TOTAL FREE ENERGY PREDICTED BY IDOCK:   -6.15 KCAL/MOL
REMARK 923 INTER-LIGAND FREE ENERGY PREDICTED BY IDOCK:   -5.94 KCAL/MOL
REMARK 924 INTRA-LIGAND FREE ENERGY PREDICTED BY IDOCK:   -0.21 KCAL/MOL
REMARK 927      BINDING AFFINITY PREDICTED BY RF-SCORE:    0.00 PKD
ROOT
HETATM    1  C   UNL     1      -9.690   8.663  71.951  1.00  0.00    -0.383 C  
HETATM    2  C   UNL     1     -10.850   8.127  71.106  1.00  0.00    -0.232 C  
ENDROOT
BRANCH   2   3
HETATM    3  C   UNL     1     -11.927   9.210  70.916  1.00  0.00    -0.242 C  
BRANCH   3   4
HETATM    4  N   UNL     1     -11.563  10.180  69.898  1.00  0.00    -0.245 NA 
HETATM    5  C   UNL     1     -11.277   9.921  68.593  1.00  0.00    -0.068 A  
HETATM    6  N   UNL     1     -11.463  11.482  70.218  1.00  0.00    -0.201 NA 
HETATM    7  C   UNL     1     -11.092  12.090  69.077  1.00  0.00    -0.239 A  
HETATM    8  C   UNL     1     -10.986  11.137  68.026  1.00  0.00    -0.307 A  
BRANCH   7   9
HETATM    9  C   UNL     1     -10.835  13.534  69.027  1.00  0.00    -0.227 A  
HETATM   10  C   UNL     1      -9.563  14.015  68.676  1.00  0.00    -0.159 A  
HETATM   11  C   UNL     1     -11.847  14.464  69.305  1.00  0.00    -0.365 A  
HETATM   12  N   UNL     1      -9.989  18.875  68.702  1.00  0.00    -0.399 NA 
HETATM   13  C   UNL     1     -11.596  15.838  69.223  1.00  0.00    -0.380 A  
HETATM   14 CL   UNL     1      -7.720  15.891  68.140  1.00  0.00    -0.130 Cl 
HETATM   15  C   UNL     1     -10.330  16.308  68.860  1.00  0.00    -0.263 A  
HETATM   16  C   UNL     1     -10.120  17.724  68.769  1.00  0.00    -0.381 C  
HETATM   17  C   UNL     1      -9.312  15.390  68.591  1.00  0.00    -0.202 A  
ENDBRANCH   7   9
ENDBRANCH   3   4
ENDBRANCH   2   3
BRANCH   2  18
HETATM   18  N   UNL     1     -10.351   7.574  69.851  1.00  0.00    -0.217 N  
HETATM   19  O   UNL     1     -10.642   5.365  70.392  1.00  0.00    -0.280 OA 
HETATM   20  H   UNL     1     -10.030   8.220  69.132  1.00  0.00     0.000 HD 
HETATM   21  C   UNL     1     -10.292   6.224  69.589  1.00  0.00    -0.215 C  
BRANCH  21  22
HETATM   22  C   UNL     1      -9.750   5.888  68.269  1.00  0.00    -0.128 A  
HETATM   23  N   UNL     1     -10.425   5.184  67.338  1.00  0.00    -0.150 NA 
HETATM   24  H   UNL     1     -11.371   4.807  67.397  1.00  0.00     0.000 HD 
HETATM   25  C   UNL     1      -8.462   6.245  67.808  1.00  0.00    -0.116 A  
HETATM   26  N   UNL     1      -9.555   5.096  66.312  1.00  0.00    -0.154 NA 
HETATM   27  C   UNL     1      -8.347   5.690  66.555  1.00  0.00    -0.110 A  
BRANCH  27  28
HETATM   28  C   UNL     1      -7.236   5.694  65.572  1.00  0.00    -0.067 C  
HETATM   29  C   UNL     1      -6.938   7.090  65.034  1.00  0.00    -0.052 C  
HETATM   30  O   UNL     1      -6.094   5.178  66.244  1.00  0.00    -0.028 OA 
HETATM   31  H   UNL     1      -5.383   5.181  65.615  1.00  0.00     0.000 HD 
ENDBRANCH  27  28
ENDBRANCH  21  22
ENDBRANCH   2  18
TORSDOF 6
ENDMDL
MODEL      229
REMARK 921   NORMALIZED FREE ENERGY PREDICTED BY IDOCK:   -3.34 KCAL/MOL
REMARK 922        TOTAL FREE ENERGY PREDICTED BY IDOCK:   -6.13 KCAL/MOL
REMARK 923 INTER-LIGAND FREE ENERGY PREDICTED BY IDOCK:   -6.10 KCAL/MOL
REMARK 924 INTRA-LIGAND FREE ENERGY PREDICTED BY IDOCK:   -0.03 KCAL/MOL
REMARK 927      BINDING AFFINITY PREDICTED BY RF-SCORE:    0.00 PKD
ROOT
HETATM    1  C   UNL     1      -6.255   7.977  67.586  1.00  0.00    -0.052 C  
HETATM    2  C   UNL     1      -6.218   9.461  67.205  1.00  0.00    -0.065 C  
ENDROOT
BRANCH   2   3
HETATM    3  C   UNL     1      -7.485   9.851  66.425  1.00  0.00    -0.101 C  
BRANCH   3   4
HETATM    4  N   UNL     1      -8.696   9.666  67.206  1.00  0.00    -0.132 NA 
HETATM    5  C   UNL     1      -9.486   8.557  67.230  1.00  0.00    -0.157 A  
HETATM    6  N   UNL     1      -9.147  10.659  67.991  1.00  0.00    -0.144 NA 
HETATM    7  C   UNL     1     -10.276  10.178  68.540  1.00  0.00    -0.174 A  
HETATM    8  C   UNL     1     -10.509   8.846  68.098  1.00  0.00    -0.254 A  
BRANCH   7   9
HETATM    9  C   UNL     1     -11.098  10.996  69.441  1.00  0.00    -0.320 A  
HETATM   10  C   UNL     1     -11.197  12.383  69.246  1.00  0.00    -0.264 A  
HETATM   11  C   UNL     1     -11.815  10.417  70.498  1.00  0.00    -0.430 A  
HETATM   12  N   UNL     1     -14.274  13.937  72.698  1.00  0.00    -0.635 NA 
HETATM   13  C   UNL     1     -12.620  11.204  71.329  1.00  0.00    -0.503 A  
HETATM   14 CL   UNL     1     -12.076  14.868  69.754  1.00  0.00    -0.352 Cl 
HETATM   15  C   UNL     1     -12.723  12.583  71.120  1.00  0.00    -0.340 A  
HETATM   16  C   UNL     1     -13.574  13.351  71.982  1.00  0.00    -0.487 C  
HETATM   17  C   UNL     1     -12.004  13.171  70.076  1.00  0.00    -0.321 A  
ENDBRANCH   7   9
ENDBRANCH   3   4
ENDBRANCH   2   3
BRANCH   2  18
HETATM   18  N   UNL     1      -5.983  10.283  68.387  1.00  0.00    -0.041 N  
HETATM   19  O   UNL     1      -5.280   8.589  69.763  1.00  0.00    -0.029 OA 
HETATM   20  H   UNL     1      -6.170  11.283  68.325  1.00  0.00     0.000 HD 
HETATM   21  C   UNL     1      -5.523   9.778  69.582  1.00  0.00    -0.033 C  
BRANCH  21  22
HETATM   22  C   UNL     1      -5.364  10.780  70.640  1.00  0.00    -0.093 A  
HETATM   23  N   UNL     1      -5.228  10.478  71.946  1.00  0.00    -0.277 NA 
HETATM   24  H   UNL     1      -5.202   9.554  72.379  1.00  0.00     0.000 HD 
HETATM   25  C   UNL     1      -5.343  12.179  70.433  1.00  0.00    -0.134 A  
HETATM   26  N   UNL     1      -5.135  11.682  72.545  1.00  0.00    -0.327 NA 
HETATM   27  C   UNL     1      -5.231  12.740  71.683  1.00  0.00    -0.076 A  
BRANCH  27  28
HETATM   28  C   UNL     1      -5.176  14.154  72.130  1.00  0.00    -0.203 C  
HETATM   29  C   UNL     1      -5.344  15.137  70.976  1.00  0.00    -0.109 C  
HETATM   30  O   UNL     1      -6.228  14.325  73.072  1.00  0.00    -0.046 OA 
HETATM   31  H   UNL     1      -6.193  15.230  73.358  1.00  0.00     0.000 HD 
ENDBRANCH  27  28
ENDBRANCH  21  22
ENDBRANCH   2  18
TORSDOF 6
ENDMDL
MODEL      230
REMARK 921   NORMALIZED FREE ENERGY PREDICTED BY IDOCK:   -3.34 KCAL/MOL
REMARK 922        TOTAL FREE ENERGY PREDICTED BY IDOCK:   -6.13 KCAL/MOL
REMARK 923 INTER-LIGAND FREE ENERGY PREDICTED BY IDOCK:   -6.96 KCAL/MOL
REMARK 924 INTRA-LIGAND FREE ENERGY PREDICTED BY IDOCK:    0.83 KCAL/MOL
REMARK 927      BINDING AFFINITY PREDICTED BY RF-SCORE:    0.00 PKD
ROOT
HETATM    1  C   UNL     1     -13.199  11.071  71.868  1.00  0.00    -0.503 C  
HETATM    2  C   UNL     1     -12.446  10.391  70.719  1.00  0.00    -0.368 C  
ENDROOT
BRANCH   2   3
HETATM    3  C   UNL     1     -12.316  11.343  69.519  1.00  0.00    -0.145 C  
BRANCH   3   4
HETATM    4  N   UNL     1     -11.940  12.689  69.917  1.00  0.00    -0.323 NA 
HETATM    5  C   UNL     1     -12.458  13.405  70.953  1.00  0.00    -0.359 A  
HETATM    6  N   UNL     1     -11.005  13.358  69.221  1.00  0.00    -0.167 NA 
HETATM    7  C   UNL     1     -10.917  14.556  69.825  1.00  0.00    -0.151 A  
HETATM    8  C   UNL     1     -11.806  14.612  70.935  1.00  0.00    -0.372 A  
BRANCH   7   9
HETATM    9  C   UNL     1     -10.018  15.603  69.323  1.00  0.00    -0.265 A  
HETATM   10  C   UNL     1     -10.523  16.871  68.996  1.00  0.00    -0.341 A  
HETATM   11  C   UNL     1      -8.643  15.373  69.179  1.00  0.00    -0.242 A  
HETATM   12  N   UNL     1      -6.628  19.475  67.632  1.00  0.00    -0.215 NA 
HETATM   13  C   UNL     1      -7.793  16.390  68.730  1.00  0.00    -0.220 A  
HETATM   14 CL   UNL     1     -10.379  19.425  68.180  1.00  0.00    -0.521 Cl 
HETATM   15  C   UNL     1      -8.302  17.655  68.418  1.00  0.00    -0.290 A  
HETATM   16  C   UNL     1      -7.394  18.675  67.980  1.00  0.00    -0.249 C  
HETATM   17  C   UNL     1      -9.673  17.891  68.549  1.00  0.00    -0.351 A  
ENDBRANCH   7   9
ENDBRANCH   3   4
ENDBRANCH   2   3
BRANCH   2  18
HETATM   18  N   UNL     1     -11.169   9.865  71.190  1.00  0.00    -0.362 N  
HETATM   19  O   UNL     1     -10.246   9.498  69.124  1.00  0.00    -0.186 OA 
HETATM   20  H   UNL     1     -11.018   9.793  72.196  1.00  0.00     0.000 HD 
HETATM   21  C   UNL     1     -10.158   9.462  70.348  1.00  0.00    -0.255 C  
BRANCH  21  22
HETATM   22  C   UNL     1      -8.964   8.962  71.034  1.00  0.00    -0.241 A  
HETATM   23  N   UNL     1      -7.766   8.804  70.436  1.00  0.00    -0.081 NA 
HETATM   24  H   UNL     1      -7.512   9.010  69.470  1.00  0.00     0.000 HD 
HETATM   25  C   UNL     1      -8.914   8.572  72.392  1.00  0.00    -0.284 A  
HETATM   26  N   UNL     1      -6.983   8.310  71.417  1.00  0.00    -0.059 NA 
HETATM   27  C   UNL     1      -7.633   8.121  72.605  1.00  0.00    -0.125 A  
BRANCH  27  28
HETATM   28  C   UNL     1      -6.969   7.567  73.811  1.00  0.00    -0.087 C  
HETATM   29  C   UNL     1      -5.848   6.592  73.463  1.00  0.00    -0.054 C  
HETATM   30  O   UNL     1      -6.443   8.675  74.532  1.00  0.00    -0.141 OA 
HETATM   31  H   UNL     1      -6.018   8.320  75.303  1.00  0.00     0.000 HD 
ENDBRANCH  27  28
ENDBRANCH  21  22
ENDBRANCH   2  18
TORSDOF 6
ENDMDL
MODEL      231
REMARK 921   NORMALIZED FREE ENERGY PREDICTED BY IDOCK:   -3.31 KCAL/MOL
REMARK 922        TOTAL FREE ENERGY PREDICTED BY IDOCK:   -6.09 KCAL/MOL
REMARK 923 INTER-LIGAND FREE ENERGY PREDICTED BY IDOCK:   -4.62 KCAL/MOL
REMARK 924 INTRA-LIGAND FREE ENERGY PREDICTED BY IDOCK:   -1.47 KCAL/MOL
REMARK 927      BINDING AFFINITY PREDICTED BY RF-SCORE:    0.00 PKD
ROOT
HETATM    1  C   UNL     1     -11.466  12.631  67.043  1.00  0.00    -0.406 C  
HETATM    2  C   UNL     1     -10.131  12.209  66.419  1.00  0.00    -0.220 C  
ENDROOT
BRANCH   2   3
HETATM    3  C   UNL     1      -8.988  13.104  66.929  1.00  0.00    -0.209 C  
BRANCH   3   4
HETATM    4  N   UNL     1      -8.004  12.361  67.696  1.00  0.00    -0.151 NA 
HETATM    5  C   UNL     1      -6.663  12.308  67.463  1.00  0.00    -0.138 A  
HETATM    6  N   UNL     1      -8.393  11.615  68.745  1.00  0.00    -0.092 NA 
HETATM    7  C   UNL     1      -7.263  11.052  69.205  1.00  0.00    -0.124 A  
HETATM    8  C   UNL     1      -6.149  11.483  68.433  1.00  0.00    -0.045 A  
BRANCH   7   9
HETATM    9  C   UNL     1      -7.279  10.118  70.338  1.00  0.00    -0.063 A  
HETATM   10  C   UNL     1      -8.492   9.572  70.788  1.00  0.00    -0.085 A  
HETATM   11  C   UNL     1      -6.094   9.733  70.981  1.00  0.00    -0.069 A  
HETATM   12  N   UNL     1      -7.260   6.552  74.416  1.00  0.00    -0.095 NA 
HETATM   13  C   UNL     1      -6.121   8.818  72.039  1.00  0.00    -0.073 A  
HETATM   14 CL   UNL     1     -10.057   8.023  72.323  1.00  0.00    -0.284 Cl 
HETATM   15  C   UNL     1      -7.333   8.269  72.472  1.00  0.00    -0.142 A  
HETATM   16  C   UNL     1      -7.315   7.319  73.547  1.00  0.00    -0.079 C  
HETATM   17  C   UNL     1      -8.520   8.653  71.844  1.00  0.00    -0.143 A  
ENDBRANCH   7   9
ENDBRANCH   3   4
ENDBRANCH   2   3
BRANCH   2  18
HETATM   18  N   UNL     1      -9.898  10.785  66.632  1.00  0.00    -0.193 N  
HETATM   19  O   UNL     1      -9.197  10.300  64.505  1.00  0.00    -0.205 OA 
HETATM   20  H   UNL     1     -10.085  10.398  67.557  1.00  0.00     0.000 HD 
HETATM   21  C   UNL     1      -9.439   9.936  65.651  1.00  0.00    -0.235 C  
BRANCH  21  22
HETATM   22  C   UNL     1      -9.282   8.544  66.081  1.00  0.00    -0.211 A  
HETATM   23  N   UNL     1      -8.863   7.551  65.272  1.00  0.00    -0.371 NA 
HETATM   24  H   UNL     1      -8.591   7.611  64.290  1.00  0.00     0.000 HD 
HETATM   25  C   UNL     1      -9.557   8.063  67.382  1.00  0.00    -0.196 A  
HETATM   26  N   UNL     1      -8.889   6.460  66.064  1.00  0.00    -0.157 NA 
HETATM   27  C   UNL     1      -9.330   6.708  67.335  1.00  0.00    -0.129 A  
BRANCH  27  28
HETATM   28  C   UNL     1      -9.457   5.649  68.367  1.00  0.00    -0.121 C  
HETATM   29  C   UNL     1     -10.807   5.686  69.076  1.00  0.00    -0.251 C  
HETATM   30  O   UNL     1      -9.293   4.405  67.697  1.00  0.00    -0.134 OA 
HETATM   31  H   UNL     1      -9.376   3.728  68.358  1.00  0.00     0.000 HD 
ENDBRANCH  27  28
ENDBRANCH  21  22
ENDBRANCH   2  18
TORSDOF 6
ENDMDL
MODEL      232
REMARK 921   NORMALIZED FREE ENERGY PREDICTED BY IDOCK:   -3.29 KCAL/MOL
REMARK 922        TOTAL FREE ENERGY PREDICTED BY IDOCK:   -6.07 KCAL/MOL
REMARK 923 INTER-LIGAND FREE ENERGY PREDICTED BY IDOCK:   -5.20 KCAL/MOL
REMARK 924 INTRA-LIGAND FREE ENERGY PREDICTED BY IDOCK:   -0.87 KCAL/MOL
REMARK 927      BINDING AFFINITY PREDICTED BY RF-SCORE:    0.00 PKD
ROOT
HETATM    1  C   UNL     1      -6.272  14.769  70.406  1.00  0.00    -0.152 C  
HETATM    2  C   UNL     1      -6.151  14.363  68.933  1.00  0.00    -0.087 C  
ENDROOT
BRANCH   2   3
HETATM    3  C   UNL     1      -5.135  13.220  68.769  1.00  0.00    -0.071 C  
BRANCH   3   4
HETATM    4  N   UNL     1      -5.762  11.911  68.802  1.00  0.00    -0.049 NA 
HETATM    5  C   UNL     1      -5.768  10.986  67.802  1.00  0.00    -0.042 A  
HETATM    6  N   UNL     1      -6.439  11.518  69.895  1.00  0.00    -0.134 NA 
HETATM    7  C   UNL     1      -6.906  10.295  69.590  1.00  0.00    -0.094 A  
HETATM    8  C   UNL     1      -6.484   9.919  68.284  1.00  0.00    -0.055 A  
BRANCH   7   9
HETATM    9  C   UNL     1      -7.744   9.539  70.530  1.00  0.00    -0.177 A  
HETATM   10  C   UNL     1      -9.139   9.696  70.518  1.00  0.00    -0.198 A  
HETATM   11  C   UNL     1      -7.182   8.634  71.440  1.00  0.00    -0.101 A  
HETATM   12  N   UNL     1     -10.797   6.604  73.907  1.00  0.00    -0.114 NA 
HETATM   13  C   UNL     1      -7.995   7.897  72.308  1.00  0.00    -0.151 A  
HETATM   14 CL   UNL     1     -11.663   9.207  71.291  1.00  0.00    -0.369 Cl 
HETATM   15  C   UNL     1      -9.385   8.050  72.281  1.00  0.00    -0.259 A  
HETATM   16  C   UNL     1     -10.184   7.262  73.173  1.00  0.00    -0.298 C  
HETATM   17  C   UNL     1      -9.955   8.958  71.384  1.00  0.00    -0.308 A  
ENDBRANCH   7   9
ENDBRANCH   3   4
ENDBRANCH   2   3
BRANCH   2  18
HETATM   18  N   UNL     1      -7.467  14.058  68.381  1.00  0.00    -0.110 N  
HETATM   19  O   UNL     1      -8.238  16.215  68.306  1.00  0.00    -0.154 OA 
HETATM   20  H   UNL     1      -7.698  13.083  68.192  1.00  0.00     0.000 HD 
HETATM   21  C   UNL     1      -8.413  15.018  68.103  1.00  0.00    -0.151 C  
BRANCH  21  22
HETATM   22  C   UNL     1      -9.668  14.490  67.560  1.00  0.00    -0.211 A  
HETATM   23  N   UNL     1     -10.655  13.972  68.318  1.00  0.00    -0.242 NA 
HETATM   24  H   UNL     1     -10.688  13.884  69.333  1.00  0.00     0.000 HD 
HETATM   25  C   UNL     1      -9.999  14.444  66.186  1.00  0.00    -0.328 A  
HETATM   26  N   UNL     1     -11.586  13.598  67.417  1.00  0.00    -0.336 NA 
HETATM   27  C   UNL     1     -11.228  13.831  66.118  1.00  0.00    -0.300 A  
BRANCH  27  28
HETATM   28  C   UNL     1     -12.093  13.478  64.965  1.00  0.00    -0.397 C  
HETATM   29  C   UNL     1     -12.773  14.697  64.351  1.00  0.00     0.058 C  
HETATM   30  O   UNL     1     -11.254  12.852  64.002  1.00  0.00    -0.367 OA 
HETATM   31  H   UNL     1     -11.808  12.627  63.264  1.00  0.00     0.000 HD 
ENDBRANCH  27  28
ENDBRANCH  21  22
ENDBRANCH   2  18
TORSDOF 6
ENDMDL
MODEL      233
REMARK 921   NORMALIZED FREE ENERGY PREDICTED BY IDOCK:   -3.29 KCAL/MOL
REMARK 922        TOTAL FREE ENERGY PREDICTED BY IDOCK:   -6.06 KCAL/MOL
REMARK 923 INTER-LIGAND FREE ENERGY PREDICTED BY IDOCK:   -5.22 KCAL/MOL
REMARK 924 INTRA-LIGAND FREE ENERGY PREDICTED BY IDOCK:   -0.84 KCAL/MOL
REMARK 927      BINDING AFFINITY PREDICTED BY RF-SCORE:    0.00 PKD
ROOT
HETATM    1  C   UNL     1      -6.161   8.965  72.992  1.00  0.00    -0.023 C  
HETATM    2  C   UNL     1      -6.743   8.040  71.919  1.00  0.00    -0.067 C  
ENDROOT
BRANCH   2   3
HETATM    3  C   UNL     1      -8.134   7.532  72.338  1.00  0.00    -0.103 C  
BRANCH   3   4
HETATM    4  N   UNL     1      -9.138   7.759  71.314  1.00  0.00    -0.136 NA 
HETATM    5  C   UNL     1      -9.936   6.819  70.735  1.00  0.00    -0.187 A  
HETATM    6  N   UNL     1      -9.338   8.998  70.832  1.00  0.00    -0.241 NA 
HETATM    7  C   UNL     1     -10.297   8.855  69.901  1.00  0.00    -0.206 A  
HETATM    8  C   UNL     1     -10.712   7.496  69.828  1.00  0.00    -0.249 A  
BRANCH   7   9
HETATM    9  C   UNL     1     -10.769   9.995  69.106  1.00  0.00    -0.244 A  
HETATM   10  C   UNL     1     -11.387  11.088  69.734  1.00  0.00    -0.366 A  
HETATM   11  C   UNL     1     -10.598  10.033  67.715  1.00  0.00    -0.311 A  
HETATM   12  N   UNL     1     -12.342  14.247  66.140  1.00  0.00    -0.425 NA 
HETATM   13  C   UNL     1     -11.024  11.141  66.974  1.00  0.00    -0.348 A  
HETATM   14 CL   UNL     1     -12.551  13.505  69.852  1.00  0.00    -0.169 Cl 
HETATM   15  C   UNL     1     -11.627  12.231  67.609  1.00  0.00    -0.421 A  
HETATM   16  C   UNL     1     -12.032  13.355  66.815  1.00  0.00    -0.394 C  
HETATM   17  C   UNL     1     -11.811  12.199  68.994  1.00  0.00    -0.306 A  
ENDBRANCH   7   9
ENDBRANCH   3   4
ENDBRANCH   2   3
BRANCH   2  18
HETATM   18  N   UNL     1      -6.730   8.700  70.618  1.00  0.00    -0.040 N  
HETATM   19  O   UNL     1      -6.621   6.796  69.346  1.00  0.00    -0.045 OA 
HETATM   20  H   UNL     1      -6.763   9.718  70.592  1.00  0.00     0.000 HD 
HETATM   21  C   UNL     1      -6.676   8.019  69.423  1.00  0.00    -0.039 C  
BRANCH  21  22
HETATM   22  C   UNL     1      -6.666   8.880  68.237  1.00  0.00    -0.065 A  
HETATM   23  N   UNL     1      -6.463  10.212  68.278  1.00  0.00    -0.053 NA 
HETATM   24  H   UNL     1      -6.281  10.796  69.094  1.00  0.00     0.000 HD 
HETATM   25  C   UNL     1      -6.876   8.435  66.911  1.00  0.00    -0.069 A  
HETATM   26  N   UNL     1      -6.558  10.590  66.987  1.00  0.00    -0.074 NA 
HETATM   27  C   UNL     1      -6.838   9.564  66.127  1.00  0.00    -0.090 A  
BRANCH  27  28
HETATM   28  C   UNL     1      -7.007   9.757  64.666  1.00  0.00    -0.124 C  
HETATM   29  C   UNL     1      -7.288   8.449  63.933  1.00  0.00    -0.102 C  
HETATM   30  O   UNL     1      -8.098  10.654  64.496  1.00  0.00    -0.326 OA 
HETATM   31  H   UNL     1      -8.206  10.777  63.561  1.00  0.00     0.000 HD 
ENDBRANCH  27  28
ENDBRANCH  21  22
ENDBRANCH   2  18
TORSDOF 6
ENDMDL
MODEL      234
REMARK 921   NORMALIZED FREE ENERGY PREDICTED BY IDOCK:   -3.22 KCAL/MOL
REMARK 922        TOTAL FREE ENERGY PREDICTED BY IDOCK:   -5.98 KCAL/MOL
REMARK 923 INTER-LIGAND FREE ENERGY PREDICTED BY IDOCK:   -5.71 KCAL/MOL
REMARK 924 INTRA-LIGAND FREE ENERGY PREDICTED BY IDOCK:   -0.27 KCAL/MOL
REMARK 927      BINDING AFFINITY PREDICTED BY RF-SCORE:    0.00 PKD
ROOT
HETATM    1  C   UNL     1      -9.348  11.516  68.686  1.00  0.00    -0.142 C  
HETATM    2  C   UNL     1      -8.066  12.300  68.384  1.00  0.00    -0.151 C  
ENDROOT
BRANCH   2   3
HETATM    3  C   UNL     1      -7.073  11.430  67.594  1.00  0.00    -0.092 C  
BRANCH   3   4
HETATM    4  N   UNL     1      -7.730  10.355  66.872  1.00  0.00    -0.108 NA 
HETATM    5  C   UNL     1      -8.587  10.485  65.823  1.00  0.00    -0.173 A  
HETATM    6  N   UNL     1      -7.527   9.078  67.240  1.00  0.00    -0.084 NA 
HETATM    7  C   UNL     1      -8.287   8.353  66.400  1.00  0.00    -0.116 A  
HETATM    8  C   UNL     1      -8.954   9.208  65.479  1.00  0.00    -0.252 A  
BRANCH   7   9
HETATM    9  C   UNL     1      -8.370   6.891  66.511  1.00  0.00    -0.121 A  
HETATM   10  C   UNL     1      -8.917   6.298  67.660  1.00  0.00    -0.115 A  
HETATM   11  C   UNL     1      -7.929   6.057  65.475  1.00  0.00    -0.115 A  
HETATM   12  N   UNL     1      -8.799   1.499  66.794  1.00  0.00    -0.115 NA 
HETATM   13  C   UNL     1      -8.043   4.666  65.580  1.00  0.00    -0.107 A  
HETATM   14 CL   UNL     1      -9.732   4.265  69.212  1.00  0.00    -0.259 Cl 
HETATM   15  C   UNL     1      -8.601   4.084  66.723  1.00  0.00    -0.106 A  
HETATM   16  C   UNL     1      -8.718   2.656  66.783  1.00  0.00    -0.123 C  
HETATM   17  C   UNL     1      -9.034   4.907  67.766  1.00  0.00    -0.109 A  
ENDBRANCH   7   9
ENDBRANCH   3   4
ENDBRANCH   2   3
BRANCH   2  18
HETATM   18  N   UNL     1      -8.387  13.563  67.727  1.00  0.00    -0.166 N  
HETATM   19  O   UNL     1      -7.865  14.929  69.492  1.00  0.00    -0.174 OA 
HETATM   20  H   UNL     1      -8.727  13.535  66.767  1.00  0.00     0.000 HD 
HETATM   21  C   UNL     1      -8.254  14.790  68.337  1.00  0.00    -0.154 C  
BRANCH  21  22
HETATM   22  C   UNL     1      -8.638  15.927  67.496  1.00  0.00    -0.168 A  
HETATM   23  N   UNL     1      -8.199  16.110  66.236  1.00  0.00    -0.301 NA 
HETATM   24  H   UNL     1      -7.576  15.513  65.693  1.00  0.00     0.000 HD 
HETATM   25  C   UNL     1      -9.501  16.974  67.896  1.00  0.00    -0.245 A  
HETATM   26  N   UNL     1      -8.777  17.270  65.861  1.00  0.00    -0.539 NA 
HETATM   27  C   UNL     1      -9.545  17.847  66.835  1.00  0.00    -0.300 A  
BRANCH  27  28
HETATM   28  C   UNL     1     -10.256  19.136  66.646  1.00  0.00    -0.411 C  
HETATM   29  C   UNL     1      -9.420  20.333  67.087  1.00  0.00    -0.557 C  
HETATM   30  O   UNL     1     -10.556  19.237  65.259  1.00  0.00    -0.402 OA 
HETATM   31  H   UNL     1     -11.010  20.062  65.138  1.00  0.00     0.000 HD 
ENDBRANCH  27  28
ENDBRANCH  21  22
ENDBRANCH   2  18
TORSDOF 6
ENDMDL
MODEL      235
REMARK 921   NORMALIZED FREE ENERGY PREDICTED BY IDOCK:   -3.19 KCAL/MOL
REMARK 922        TOTAL FREE ENERGY PREDICTED BY IDOCK:   -5.93 KCAL/MOL
REMARK 923 INTER-LIGAND FREE ENERGY PREDICTED BY IDOCK:   -5.22 KCAL/MOL
REMARK 924 INTRA-LIGAND FREE ENERGY PREDICTED BY IDOCK:   -0.71 KCAL/MOL
REMARK 927      BINDING AFFINITY PREDICTED BY RF-SCORE:    0.00 PKD
ROOT
HETATM    1  C   UNL     1      -5.732   9.176  70.398  1.00  0.00    -0.035 C  
HETATM    2  C   UNL     1      -7.122   9.310  69.768  1.00  0.00    -0.064 C  
ENDROOT
BRANCH   2   3
HETATM    3  C   UNL     1      -7.009   9.694  68.283  1.00  0.00    -0.073 C  
BRANCH   3   4
HETATM    4  N   UNL     1      -8.087  10.567  67.853  1.00  0.00    -0.106 NA 
HETATM    5  C   UNL     1      -9.187  10.209  67.135  1.00  0.00    -0.138 A  
HETATM    6  N   UNL     1      -8.045  11.879  68.145  1.00  0.00    -0.147 NA 
HETATM    7  C   UNL     1      -9.157  12.391  67.590  1.00  0.00    -0.186 A  
HETATM    8  C   UNL     1      -9.912  11.361  66.962  1.00  0.00    -0.227 A  
BRANCH   7   9
HETATM    9  C   UNL     1      -9.454  13.828  67.656  1.00  0.00    -0.217 A  
HETATM   10  C   UNL     1      -8.565  14.760  67.099  1.00  0.00    -0.248 A  
HETATM   11  C   UNL     1     -10.631  14.300  68.252  1.00  0.00    -0.247 A  
HETATM   12  N   UNL     1     -10.682  19.102  67.786  1.00  0.00    -0.407 NA 
HETATM   13  C   UNL     1     -10.917  15.670  68.280  1.00  0.00    -0.315 A  
HETATM   14 CL   UNL     1      -7.705  17.206  66.403  1.00  0.00    -0.319 Cl 
HETATM   15  C   UNL     1     -10.032  16.592  67.711  1.00  0.00    -0.253 A  
HETATM   16  C   UNL     1     -10.371  17.985  67.743  1.00  0.00    -0.393 C  
HETATM   17  C   UNL     1      -8.851  16.131  67.124  1.00  0.00    -0.198 A  
ENDBRANCH   7   9
ENDBRANCH   3   4
ENDBRANCH   2   3
BRANCH   2  18
HETATM   18  N   UNL     1      -7.903   8.099  70.001  1.00  0.00    -0.100 N  
HETATM   19  O   UNL     1      -8.826   8.749  71.996  1.00  0.00    -0.312 OA 
HETATM   20  H   UNL     1      -7.851   7.351  69.311  1.00  0.00     0.000 HD 
HETATM   21  C   UNL     1      -8.706   7.915  71.104  1.00  0.00    -0.136 C  
BRANCH  21  22
HETATM   22  C   UNL     1      -9.395   6.622  71.140  1.00  0.00    -0.163 A  
HETATM   23  N   UNL     1     -10.732   6.488  71.242  1.00  0.00    -0.231 NA 
HETATM   24  H   UNL     1     -11.437   7.224  71.293  1.00  0.00     0.000 HD 
HETATM   25  C   UNL     1      -8.756   5.362  71.085  1.00  0.00    -0.135 A  
HETATM   26  N   UNL     1     -10.919   5.153  71.260  1.00  0.00    -0.009 NA 
HETATM   27  C   UNL     1      -9.759   4.429  71.201  1.00  0.00    -0.186 A  
BRANCH  27  28
HETATM   28  C   UNL     1      -9.730   2.946  71.229  1.00  0.00    -0.135 C  
HETATM   29  C   UNL     1      -9.401   2.343  69.867  1.00  0.00    -0.174 C  
HETATM   30  O   UNL     1      -8.736   2.576  72.178  1.00  0.00    -0.068 OA 
HETATM   31  H   UNL     1      -8.717   1.627  72.195  1.00  0.00     0.000 HD 
ENDBRANCH  27  28
ENDBRANCH  21  22
ENDBRANCH   2  18
TORSDOF 6
ENDMDL
MODEL      236
REMARK 921   NORMALIZED FREE ENERGY PREDICTED BY IDOCK:   -3.15 KCAL/MOL
REMARK 922        TOTAL FREE ENERGY PREDICTED BY IDOCK:   -5.88 KCAL/MOL
REMARK 923 INTER-LIGAND FREE ENERGY PREDICTED BY IDOCK:   -5.70 KCAL/MOL
REMARK 924 INTRA-LIGAND FREE ENERGY PREDICTED BY IDOCK:   -0.18 KCAL/MOL
REMARK 927      BINDING AFFINITY PREDICTED BY RF-SCORE:    0.00 PKD
ROOT
HETATM    1  C   UNL     1      -6.584  10.082  69.559  1.00  0.00    -0.055 C  
HETATM    2  C   UNL     1      -8.079   9.932  69.859  1.00  0.00    -0.188 C  
ENDROOT
BRANCH   2   3
HETATM    3  C   UNL     1      -8.890   9.875  68.554  1.00  0.00    -0.122 C  
BRANCH   3   4
HETATM    4  N   UNL     1      -9.835  10.972  68.440  1.00  0.00    -0.175 NA 
HETATM    5  C   UNL     1     -11.188  10.871  68.325  1.00  0.00    -0.286 A  
HETATM    6  N   UNL     1      -9.392  12.241  68.422  1.00  0.00    -0.192 NA 
HETATM    7  C   UNL     1     -10.499  12.991  68.284  1.00  0.00    -0.250 A  
HETATM    8  C   UNL     1     -11.653  12.160  68.240  1.00  0.00    -0.382 A  
BRANCH   7   9
HETATM    9  C   UNL     1     -10.424  14.454  68.179  1.00  0.00    -0.237 A  
HETATM   10  C   UNL     1     -10.638  15.087  66.944  1.00  0.00    -0.297 A  
HETATM   11  C   UNL     1     -10.161  15.251  69.301  1.00  0.00    -0.250 A  
HETATM   12  N   UNL     1     -10.299  19.861  67.887  1.00  0.00    -0.421 NA 
HETATM   13  C   UNL     1     -10.125  16.646  69.193  1.00  0.00    -0.285 A  
HETATM   14 CL   UNL     1     -10.892  17.176  65.278  1.00  0.00    -0.179 Cl 
HETATM   15  C   UNL     1     -10.352  17.269  67.962  1.00  0.00    -0.353 A  
HETATM   16  C   UNL     1     -10.325  18.701  67.898  1.00  0.00    -0.398 C  
HETATM   17  C   UNL     1     -10.605  16.482  66.835  1.00  0.00    -0.238 A  
ENDBRANCH   7   9
ENDBRANCH   3   4
ENDBRANCH   2   3
BRANCH   2  18
HETATM   18  N   UNL     1      -8.308   8.791  70.740  1.00  0.00    -0.142 N  
HETATM   19  O   UNL     1      -7.741   7.162  69.230  1.00  0.00    -0.103 OA 
HETATM   20  H   UNL     1      -8.630   8.971  71.690  1.00  0.00     0.000 HD 
HETATM   21  C   UNL     1      -8.113   7.484  70.354  1.00  0.00    -0.111 C  
BRANCH  21  22
HETATM   22  C   UNL     1      -8.410   6.496  71.395  1.00  0.00    -0.125 A  
HETATM   23  N   UNL     1      -7.494   6.022  72.262  1.00  0.00    -0.094 NA 
HETATM   24  H   UNL     1      -6.507   6.271  72.335  1.00  0.00     0.000 HD 
HETATM   25  C   UNL     1      -9.678   5.911  71.618  1.00  0.00    -0.185 A  
HETATM   26  N   UNL     1      -8.188   5.139  73.009  1.00  0.00    -0.105 NA 
HETATM   27  C   UNL     1      -9.499   5.011  72.641  1.00  0.00    -0.140 A  
BRANCH  27  28
HETATM   28  C   UNL     1     -10.440   4.081  73.314  1.00  0.00    -0.177 C  
HETATM   29  C   UNL     1     -11.883   4.570  73.258  1.00  0.00    -0.056 C  
HETATM   30  O   UNL     1     -10.324   2.830  72.647  1.00  0.00    -0.156 OA 
HETATM   31  H   UNL     1     -10.926   2.235  73.077  1.00  0.00     0.000 HD 
ENDBRANCH  27  28
ENDBRANCH  21  22
ENDBRANCH   2  18
TORSDOF 6
ENDMDL
MODEL      237
REMARK 921   NORMALIZED FREE ENERGY PREDICTED BY IDOCK:   -3.11 KCAL/MOL
REMARK 922        TOTAL FREE ENERGY PREDICTED BY IDOCK:   -5.83 KCAL/MOL
REMARK 923 INTER-LIGAND FREE ENERGY PREDICTED BY IDOCK:   -5.59 KCAL/MOL
REMARK 924 INTRA-LIGAND FREE ENERGY PREDICTED BY IDOCK:   -0.24 KCAL/MOL
REMARK 927      BINDING AFFINITY PREDICTED BY RF-SCORE:    0.00 PKD
ROOT
HETATM    1  C   UNL     1      -6.314   8.809  66.774  1.00  0.00    -0.059 C  
HETATM    2  C   UNL     1      -6.009  10.194  66.193  1.00  0.00    -0.077 C  
ENDROOT
BRANCH   2   3
HETATM    3  C   UNL     1      -7.045  10.571  65.120  1.00  0.00    -0.020 C  
BRANCH   3   4
HETATM    4  N   UNL     1      -8.390  10.673  65.658  1.00  0.00    -0.164 NA 
HETATM    5  C   UNL     1      -9.459   9.897  65.328  1.00  0.00    -0.268 A  
HETATM    6  N   UNL     1      -8.679  11.621  66.566  1.00  0.00    -0.187 NA 
HETATM    7  C   UNL     1      -9.987  11.458  66.830  1.00  0.00    -0.208 A  
HETATM    8  C   UNL     1     -10.507  10.365  66.081  1.00  0.00    -0.224 A  
BRANCH   7   9
HETATM    9  C   UNL     1     -10.698  12.346  67.758  1.00  0.00    -0.247 A  
HETATM   10  C   UNL     1     -11.350  11.818  68.884  1.00  0.00    -0.326 A  
HETATM   11  C   UNL     1     -10.727  13.733  67.559  1.00  0.00    -0.262 A  
HETATM   12  N   UNL     1     -13.166  15.688  71.234  1.00  0.00    -0.499 NA 
HETATM   13  C   UNL     1     -11.381  14.571  68.469  1.00  0.00    -0.309 A  
HETATM   14 CL   UNL     1     -12.768  11.919  71.161  1.00  0.00    -0.440 Cl 
HETATM   15  C   UNL     1     -12.018  14.038  69.595  1.00  0.00    -0.393 A  
HETATM   16  C   UNL     1     -12.660  14.933  70.513  1.00  0.00    -0.360 C  
HETATM   17  C   UNL     1     -12.003  12.655  69.797  1.00  0.00    -0.295 A  
ENDBRANCH   7   9
ENDBRANCH   3   4
ENDBRANCH   2   3
BRANCH   2  18
HETATM   18  N   UNL     1      -5.892  11.179  67.263  1.00  0.00    -0.055 N  
HETATM   19  O   UNL     1      -5.840   9.688  69.003  1.00  0.00    -0.036 OA 
HETATM   20  H   UNL     1      -5.869  12.166  67.010  1.00  0.00     0.000 HD 
HETATM   21  C   UNL     1      -5.809  10.845  68.595  1.00  0.00    -0.043 C  
BRANCH  21  22
HETATM   22  C   UNL     1      -5.703  11.992  69.501  1.00  0.00    -0.085 A  
HETATM   23  N   UNL     1      -5.986  11.938  70.817  1.00  0.00    -0.492 NA 
HETATM   24  H   UNL     1      -6.288  11.131  71.364  1.00  0.00     0.000 HD 
HETATM   25  C   UNL     1      -5.306  13.293  69.115  1.00  0.00    -0.073 A  
HETATM   26  N   UNL     1      -5.775  13.201  71.241  1.00  0.00    -0.340 NA 
HETATM   27  C   UNL     1      -5.396  14.063  70.250  1.00  0.00    -0.106 A  
BRANCH  27  28
HETATM   28  C   UNL     1      -5.133  15.504  70.490  1.00  0.00    -0.140 C  
HETATM   29  C   UNL     1      -5.791  16.399  69.444  1.00  0.00    -0.157 C  
HETATM   30  O   UNL     1      -5.649  15.804  71.781  1.00  0.00     0.278 OA 
HETATM   31  H   UNL     1      -5.480  16.726  71.934  1.00  0.00     0.000 HD 
ENDBRANCH  27  28
ENDBRANCH  21  22
ENDBRANCH   2  18
TORSDOF 6
ENDMDL
MODEL      238
REMARK 921   NORMALIZED FREE ENERGY PREDICTED BY IDOCK:   -3.07 KCAL/MOL
REMARK 922        TOTAL FREE ENERGY PREDICTED BY IDOCK:   -5.76 KCAL/MOL
REMARK 923 INTER-LIGAND FREE ENERGY PREDICTED BY IDOCK:   -5.57 KCAL/MOL
REMARK 924 INTRA-LIGAND FREE ENERGY PREDICTED BY IDOCK:   -0.19 KCAL/MOL
REMARK 927      BINDING AFFINITY PREDICTED BY RF-SCORE:    0.00 PKD
ROOT
HETATM    1  C   UNL     1     -11.562   9.644  70.125  1.00  0.00    -0.193 C  
HETATM    2  C   UNL     1     -10.337   9.288  69.275  1.00  0.00    -0.215 C  
ENDROOT
BRANCH   2   3
HETATM    3  C   UNL     1      -9.101  10.066  69.755  1.00  0.00    -0.193 C  
BRANCH   3   4
HETATM    4  N   UNL     1      -8.667  11.065  68.794  1.00  0.00    -0.159 NA 
HETATM    5  C   UNL     1      -7.560  11.007  68.004  1.00  0.00    -0.092 A  
HETATM    6  N   UNL     1      -9.378  12.195  68.633  1.00  0.00    -0.091 NA 
HETATM    7  C   UNL     1      -8.702  12.898  67.708  1.00  0.00    -0.188 A  
HETATM    8  C   UNL     1      -7.560  12.169  67.273  1.00  0.00    -0.156 A  
BRANCH   7   9
HETATM    9  C   UNL     1      -9.146  14.233  67.285  1.00  0.00    -0.221 A  
HETATM   10  C   UNL     1     -10.067  14.373  66.235  1.00  0.00    -0.308 A  
HETATM   11  C   UNL     1      -8.683  15.390  67.926  1.00  0.00    -0.160 A  
HETATM   12  N   UNL     1     -10.870  19.171  65.879  1.00  0.00    -0.334 NA 
HETATM   13  C   UNL     1      -9.139  16.654  67.534  1.00  0.00    -0.204 A  
HETATM   14 CL   UNL     1     -11.670  15.713  64.549  1.00  0.00    -0.305 Cl 
HETATM   15  C   UNL     1     -10.066  16.783  66.495  1.00  0.00    -0.322 A  
HETATM   16  C   UNL     1     -10.522  18.095  66.137  1.00  0.00    -0.364 C  
HETATM   17  C   UNL     1     -10.526  15.636  65.843  1.00  0.00    -0.344 A  
ENDBRANCH   7   9
ENDBRANCH   3   4
ENDBRANCH   2   3
BRANCH   2  18
HETATM   18  N   UNL     1     -10.142   7.842  69.246  1.00  0.00    -0.193 N  
HETATM   19  O   UNL     1      -9.376   7.626  71.396  1.00  0.00    -0.140 OA 
HETATM   20  H   UNL     1     -10.361   7.342  68.385  1.00  0.00     0.000 HD 
HETATM   21  C   UNL     1      -9.678   7.118  70.321  1.00  0.00    -0.175 C  
BRANCH  21  22
HETATM   22  C   UNL     1      -9.552   5.679  70.071  1.00  0.00    -0.166 A  
HETATM   23  N   UNL     1      -9.454   4.754  71.045  1.00  0.00    -0.154 NA 
HETATM   24  H   UNL     1      -9.464   4.899  72.055  1.00  0.00     0.000 HD 
HETATM   25  C   UNL     1      -9.507   5.081  68.790  1.00  0.00    -0.192 A  
HETATM   26  N   UNL     1      -9.337   3.591  70.372  1.00  0.00    -0.154 NA 
HETATM   27  C   UNL     1      -9.331   3.736  69.012  1.00  0.00    -0.171 A  
BRANCH  27  28
HETATM   28  C   UNL     1      -9.191   2.591  68.078  1.00  0.00    -0.206 C  
HETATM   29  C   UNL     1      -8.580   3.000  66.742  1.00  0.00    -0.117 C  
HETATM   30  O   UNL     1      -8.357   1.638  68.724  1.00  0.00    -0.051 OA 
HETATM   31  H   UNL     1      -8.267   0.905  68.126  1.00  0.00     0.000 HD 
ENDBRANCH  27  28
ENDBRANCH  21  22
ENDBRANCH   2  18
TORSDOF 6
ENDMDL
MODEL      239
REMARK 921   NORMALIZED FREE ENERGY PREDICTED BY IDOCK:   -3.03 KCAL/MOL
REMARK 922        TOTAL FREE ENERGY PREDICTED BY IDOCK:   -5.71 KCAL/MOL
REMARK 923 INTER-LIGAND FREE ENERGY PREDICTED BY IDOCK:   -5.77 KCAL/MOL
REMARK 924 INTRA-LIGAND FREE ENERGY PREDICTED BY IDOCK:    0.06 KCAL/MOL
REMARK 927      BINDING AFFINITY PREDICTED BY RF-SCORE:    0.00 PKD
ROOT
HETATM    1  C   UNL     1      -7.304  10.061  70.224  1.00  0.00    -0.152 C  
HETATM    2  C   UNL     1      -8.383   9.274  70.976  1.00  0.00    -0.081 C  
ENDROOT
BRANCH   2   3
HETATM    3  C   UNL     1      -9.536   8.896  70.030  1.00  0.00    -0.178 C  
BRANCH   3   4
HETATM    4  N   UNL     1     -10.427  10.012  69.769  1.00  0.00    -0.239 NA 
HETATM    5  C   UNL     1     -11.517  10.372  70.502  1.00  0.00    -0.345 A  
HETATM    6  N   UNL     1     -10.222  10.798  68.698  1.00  0.00    -0.177 NA 
HETATM    7  C   UNL     1     -11.220  11.698  68.735  1.00  0.00    -0.245 A  
HETATM    8  C   UNL     1     -12.044  11.471  69.872  1.00  0.00    -0.389 A  
BRANCH   7   9
HETATM    9  C   UNL     1     -11.369  12.721  67.691  1.00  0.00    -0.359 A  
HETATM   10  C   UNL     1     -11.071  14.064  67.969  1.00  0.00    -0.282 A  
HETATM   11  C   UNL     1     -11.788  12.383  66.397  1.00  0.00    -0.421 A  
HETATM   12  N   UNL     1     -11.780  16.420  63.756  1.00  0.00    -0.911 NA 
HETATM   13  C   UNL     1     -11.894  13.362  65.403  1.00  0.00    -0.381 A  
HETATM   14 CL   UNL     1     -10.775  16.672  67.403  1.00  0.00    -0.293 Cl 
HETATM   15  C   UNL     1     -11.583  14.696  65.685  1.00  0.00    -0.328 A  
HETATM   16  C   UNL     1     -11.687  15.666  64.633  1.00  0.00    -0.190 C  
HETATM   17  C   UNL     1     -11.175  15.045  66.975  1.00  0.00    -0.328 A  
ENDBRANCH   7   9
ENDBRANCH   3   4
ENDBRANCH   2   3
BRANCH   2  18
HETATM   18  N   UNL     1      -7.792   8.130  71.663  1.00  0.00    -0.102 N  
HETATM   19  O   UNL     1      -6.476   7.418  69.926  1.00  0.00    -0.034 OA 
HETATM   20  H   UNL     1      -8.076   7.945  72.625  1.00  0.00     0.000 HD 
HETATM   21  C   UNL     1      -6.872   7.288  71.080  1.00  0.00    -0.055 C  
BRANCH  21  22
HETATM   22  C   UNL     1      -6.414   6.200  71.949  1.00  0.00    -0.050 A  
HETATM   23  N   UNL     1      -5.258   6.228  72.640  1.00  0.00    -0.030 NA 
HETATM   24  H   UNL     1      -4.564   6.975  72.677  1.00  0.00     0.000 HD 
HETATM   25  C   UNL     1      -7.111   4.989  72.164  1.00  0.00    -0.075 A  
HETATM   26  N   UNL     1      -5.234   5.037  73.271  1.00  0.00    -0.009 NA 
HETATM   27  C   UNL     1      -6.310   4.240  72.993  1.00  0.00    -0.028 A  
BRANCH  27  28
HETATM   28  C   UNL     1      -6.476   2.879  73.562  1.00  0.00    -0.021 C  
HETATM   29  C   UNL     1      -7.773   2.732  74.352  1.00  0.00    -0.051 C  
HETATM   30  O   UNL     1      -6.470   1.974  72.465  1.00  0.00    -0.013 OA 
HETATM   31  H   UNL     1      -6.576   1.104  72.829  1.00  0.00     0.000 HD 
ENDBRANCH  27  28
ENDBRANCH  21  22
ENDBRANCH   2  18
TORSDOF 6
ENDMDL
MODEL      240
REMARK 921   NORMALIZED FREE ENERGY PREDICTED BY IDOCK:   -2.91 KCAL/MOL
REMARK 922        TOTAL FREE ENERGY PREDICTED BY IDOCK:   -5.56 KCAL/MOL
REMARK 923 INTER-LIGAND FREE ENERGY PREDICTED BY IDOCK:   -5.37 KCAL/MOL
REMARK 924 INTRA-LIGAND FREE ENERGY PREDICTED BY IDOCK:   -0.19 KCAL/MOL
REMARK 927      BINDING AFFINITY PREDICTED BY RF-SCORE:    0.00 PKD
ROOT
HETATM    1  C   UNL     1      -5.125  14.006  67.588  1.00  0.00     0.099 C  
HETATM    2  C   UNL     1      -6.604  13.613  67.680  1.00  0.00    -0.165 C  
ENDROOT
BRANCH   2   3
HETATM    3  C   UNL     1      -6.884  12.861  68.992  1.00  0.00    -0.080 C  
BRANCH   3   4
HETATM    4  N   UNL     1      -7.630  11.633  68.779  1.00  0.00    -0.131 NA 
HETATM    5  C   UNL     1      -7.999  11.104  67.580  1.00  0.00    -0.116 A  
HETATM    6  N   UNL     1      -8.046  10.909  69.832  1.00  0.00     0.344 NA 
HETATM    7  C   UNL     1      -8.715   9.873  69.296  1.00  0.00    -0.169 A  
HETATM    8  C   UNL     1      -8.687   9.953  67.876  1.00  0.00    -0.129 A  
BRANCH   7   9
HETATM    9  C   UNL     1      -9.368   8.864  70.140  1.00  0.00    -0.197 A  
HETATM   10  C   UNL     1     -10.606   9.138  70.742  1.00  0.00    -0.324 A  
HETATM   11  C   UNL     1      -8.788   7.605  70.347  1.00  0.00    -0.144 A  
HETATM   12  N   UNL     1     -11.805   5.043  73.107  1.00  0.00    -0.179 NA 
HETATM   13  C   UNL     1      -9.437   6.641  71.128  1.00  0.00    -0.167 A  
HETATM   14 CL   UNL     1     -12.784   8.594  72.213  1.00  0.00    -0.436 Cl 
HETATM   15  C   UNL     1     -10.676   6.918  71.713  1.00  0.00    -0.247 A  
HETATM   16  C   UNL     1     -11.316   5.896  72.490  1.00  0.00    -0.304 C  
HETATM   17  C   UNL     1     -11.257   8.174  71.521  1.00  0.00    -0.259 A  
ENDBRANCH   7   9
ENDBRANCH   3   4
ENDBRANCH   2   3
BRANCH   2  18
HETATM   18  N   UNL     1      -7.453  14.783  67.485  1.00  0.00    -0.186 N  
HETATM   19  O   UNL     1      -7.130  15.705  69.559  1.00  0.00    -0.188 OA 
HETATM   20  H   UNL     1      -7.928  14.891  66.590  1.00  0.00     0.000 HD 
HETATM   21  C   UNL     1      -7.646  15.749  68.447  1.00  0.00    -0.130 C  
BRANCH  21  22
HETATM   22  C   UNL     1      -8.543  16.834  68.041  1.00  0.00    -0.210 A  
HETATM   23  N   UNL     1      -9.824  16.941  68.448  1.00  0.00    -0.254 NA 
HETATM   24  H   UNL     1     -10.338  16.325  69.078  1.00  0.00     0.000 HD 
HETATM   25  C   UNL     1      -8.192  17.893  67.172  1.00  0.00    -0.228 A  
HETATM   26  N   UNL     1     -10.265  18.053  67.826  1.00  0.00    -0.359 NA 
HETATM   27  C   UNL     1      -9.332  18.646  67.020  1.00  0.00    -0.294 A  
BRANCH  27  28
HETATM   28  C   UNL     1      -9.610  19.868  66.226  1.00  0.00    -0.425 C  
HETATM   29  C   UNL     1     -10.819  19.705  65.310  1.00  0.00     0.110 C  
HETATM   30  O   UNL     1      -9.844  20.917  67.158  1.00  0.00    -0.605 OA 
HETATM   31  H   UNL     1     -10.022  21.698  66.649  1.00  0.00     0.000 HD 
ENDBRANCH  27  28
ENDBRANCH  21  22
ENDBRANCH   2  18
TORSDOF 6
ENDMDL
MODEL      241
REMARK 921   NORMALIZED FREE ENERGY PREDICTED BY IDOCK:   -2.91 KCAL/MOL
REMARK 922        TOTAL FREE ENERGY PREDICTED BY IDOCK:   -5.56 KCAL/MOL
REMARK 923 INTER-LIGAND FREE ENERGY PREDICTED BY IDOCK:   -4.49 KCAL/MOL
REMARK 924 INTRA-LIGAND FREE ENERGY PREDICTED BY IDOCK:   -1.07 KCAL/MOL
REMARK 927      BINDING AFFINITY PREDICTED BY RF-SCORE:    0.00 PKD
ROOT
HETATM    1  C   UNL     1      -5.651  10.851  71.263  1.00  0.00     0.067 C  
HETATM    2  C   UNL     1      -6.395  11.429  70.054  1.00  0.00    -0.132 C  
ENDROOT
BRANCH   2   3
HETATM    3  C   UNL     1      -6.066  12.921  69.878  1.00  0.00    -0.126 C  
BRANCH   3   4
HETATM    4  N   UNL     1      -6.983  13.588  68.971  1.00  0.00    -0.109 NA 
HETATM    5  C   UNL     1      -7.152  14.931  68.827  1.00  0.00    -0.115 A  
HETATM    6  N   UNL     1      -7.789  12.861  68.177  1.00  0.00    -0.137 NA 
HETATM    7  C   UNL     1      -8.512  13.768  67.497  1.00  0.00    -0.196 A  
HETATM    8  C   UNL     1      -8.122  15.085  67.868  1.00  0.00    -0.142 A  
BRANCH   7   9
HETATM    9  C   UNL     1      -9.552  13.359  66.544  1.00  0.00    -0.277 A  
HETATM   10  C   UNL     1     -10.301  14.327  65.856  1.00  0.00    -0.325 A  
HETATM   11  C   UNL     1      -9.809  12.006  66.283  1.00  0.00    -0.250 A  
HETATM   12  N   UNL     1     -13.262  11.794  62.921  1.00  0.00    -0.115 NA 
HETATM   13  C   UNL     1     -10.781  11.632  65.349  1.00  0.00    -0.341 A  
HETATM   14 CL   UNL     1     -12.137  15.213  64.110  1.00  0.00    -0.331 Cl 
HETATM   15  C   UNL     1     -11.513  12.603  64.658  1.00  0.00    -0.376 A  
HETATM   16  C   UNL     1     -12.487  12.177  63.695  1.00  0.00    -0.549 C  
HETATM   17  C   UNL     1     -11.272  13.954  64.919  1.00  0.00    -0.356 A  
ENDBRANCH   7   9
ENDBRANCH   3   4
ENDBRANCH   2   3
BRANCH   2  18
HETATM   18  N   UNL     1      -6.130  10.628  68.864  1.00  0.00    -0.040 N  
HETATM   19  O   UNL     1      -8.076   9.417  68.910  1.00  0.00    -0.099 OA 
HETATM   20  H   UNL     1      -5.253  10.777  68.367  1.00  0.00     0.000 HD 
HETATM   21  C   UNL     1      -7.002   9.680  68.378  1.00  0.00    -0.065 C  
BRANCH  21  22
HETATM   22  C   UNL     1      -6.532   8.988  67.174  1.00  0.00    -0.061 A  
HETATM   23  N   UNL     1      -5.344   9.228  66.587  1.00  0.00    -0.041 NA 
HETATM   24  H   UNL     1      -4.618   9.882  66.878  1.00  0.00     0.000 HD 
HETATM   25  C   UNL     1      -7.260   7.998  66.474  1.00  0.00    -0.080 A  
HETATM   26  N   UNL     1      -5.341   8.399  65.523  1.00  0.00    -0.035 NA 
HETATM   27  C   UNL     1      -6.484   7.661  65.390  1.00  0.00    -0.041 A  
BRANCH  27  28
HETATM   28  C   UNL     1      -6.703   6.702  64.280  1.00  0.00    -0.041 C  
HETATM   29  C   UNL     1      -8.079   6.046  64.338  1.00  0.00    -0.119 C  
HETATM   30  O   UNL     1      -6.565   7.439  63.071  1.00  0.00    -0.053 OA 
HETATM   31  H   UNL     1      -6.706   6.824  62.360  1.00  0.00     0.000 HD 
ENDBRANCH  27  28
ENDBRANCH  21  22
ENDBRANCH   2  18
TORSDOF 6
ENDMDL
MODEL      242
REMARK 921   NORMALIZED FREE ENERGY PREDICTED BY IDOCK:   -2.84 KCAL/MOL
REMARK 922        TOTAL FREE ENERGY PREDICTED BY IDOCK:   -5.46 KCAL/MOL
REMARK 923 INTER-LIGAND FREE ENERGY PREDICTED BY IDOCK:   -3.98 KCAL/MOL
REMARK 924 INTRA-LIGAND FREE ENERGY PREDICTED BY IDOCK:   -1.48 KCAL/MOL
REMARK 927      BINDING AFFINITY PREDICTED BY RF-SCORE:    0.00 PKD
ROOT
HETATM    1  C   UNL     1      -6.219  13.106  68.045  1.00  0.00    -0.117 C  
HETATM    2  C   UNL     1      -6.767  11.913  67.254  1.00  0.00    -0.138 C  
ENDROOT
BRANCH   2   3
HETATM    3  C   UNL     1      -5.652  11.260  66.418  1.00  0.00    -0.146 C  
BRANCH   3   4
HETATM    4  N   UNL     1      -6.143  10.168  65.596  1.00  0.00    -0.086 NA 
HETATM    5  C   UNL     1      -6.403  10.210  64.260  1.00  0.00    -0.126 A  
HETATM    6  N   UNL     1      -6.407   8.974  66.153  1.00  0.00    -0.063 NA 
HETATM    7  C   UNL     1      -6.860   8.214  65.141  1.00  0.00    -0.058 A  
HETATM    8  C   UNL     1      -6.851   8.956  63.928  1.00  0.00    -0.087 A  
BRANCH   7   9
HETATM    9  C   UNL     1      -7.300   6.830  65.360  1.00  0.00    -0.080 A  
HETATM   10  C   UNL     1      -8.639   6.555  65.680  1.00  0.00    -0.132 A  
HETATM   11  C   UNL     1      -6.409   5.755  65.237  1.00  0.00    -0.041 A  
HETATM   12  N   UNL     1      -8.901   1.694  65.997  1.00  0.00    -0.120 NA 
HETATM   13  C   UNL     1      -6.849   4.439  65.417  1.00  0.00    -0.057 A  
HETATM   14 CL   UNL     1     -10.751   4.994  66.236  1.00  0.00    -0.337 Cl 
HETATM   15  C   UNL     1      -8.188   4.173  65.723  1.00  0.00    -0.109 A  
HETATM   16  C   UNL     1      -8.603   2.810  65.880  1.00  0.00    -0.116 C  
HETATM   17  C   UNL     1      -9.082   5.239  65.858  1.00  0.00    -0.155 A  
ENDBRANCH   7   9
ENDBRANCH   3   4
ENDBRANCH   2   3
BRANCH   2  18
HETATM   18  N   UNL     1      -7.450  10.982  68.146  1.00  0.00    -0.089 N  
HETATM   19  O   UNL     1      -9.549  11.873  67.917  1.00  0.00    -0.181 OA 
HETATM   20  H   UNL     1      -6.897  10.257  68.602  1.00  0.00     0.000 HD 
HETATM   21  C   UNL     1      -8.800  11.032  68.405  1.00  0.00    -0.151 C  
BRANCH  21  22
HETATM   22  C   UNL     1      -9.276  10.005  69.337  1.00  0.00    -0.216 A  
HETATM   23  N   UNL     1     -10.332  10.168  70.158  1.00  0.00    -0.384 NA 
HETATM   24  H   UNL     1     -10.941  10.981  70.246  1.00  0.00     0.000 HD 
HETATM   25  C   UNL     1      -8.690   8.729  69.502  1.00  0.00    -0.138 A  
HETATM   26  N   UNL     1     -10.392   9.004  70.835  1.00  0.00    -0.233 NA 
HETATM   27  C   UNL     1      -9.407   8.116  70.502  1.00  0.00    -0.155 A  
BRANCH  27  28
HETATM   28  C   UNL     1      -9.272   6.782  71.138  1.00  0.00    -0.159 C  
HETATM   29  C   UNL     1      -9.461   5.640  70.145  1.00  0.00    -0.200 C  
HETATM   30  O   UNL     1      -7.965   6.728  71.698  1.00  0.00    -0.101 OA 
HETATM   31  H   UNL     1      -7.879   5.874  72.105  1.00  0.00     0.000 HD 
ENDBRANCH  27  28
ENDBRANCH  21  22
ENDBRANCH   2  18
TORSDOF 6
ENDMDL
MODEL      243
REMARK 921   NORMALIZED FREE ENERGY PREDICTED BY IDOCK:   -2.83 KCAL/MOL
REMARK 922        TOTAL FREE ENERGY PREDICTED BY IDOCK:   -5.44 KCAL/MOL
REMARK 923 INTER-LIGAND FREE ENERGY PREDICTED BY IDOCK:   -5.46 KCAL/MOL
REMARK 924 INTRA-LIGAND FREE ENERGY PREDICTED BY IDOCK:    0.01 KCAL/MOL
REMARK 927      BINDING AFFINITY PREDICTED BY RF-SCORE:    0.00 PKD
ROOT
HETATM    1  C   UNL     1      -7.610   8.700  65.110  1.00  0.00    -0.093 C  
HETATM    2  C   UNL     1      -8.130   8.813  66.547  1.00  0.00    -0.103 C  
ENDROOT
BRANCH   2   3
HETATM    3  C   UNL     1      -6.963   8.992  67.533  1.00  0.00    -0.078 C  
BRANCH   3   4
HETATM    4  N   UNL     1      -6.440  10.347  67.534  1.00  0.00    -0.058 NA 
HETATM    5  C   UNL     1      -5.142  10.718  67.362  1.00  0.00    -0.037 A  
HETATM    6  N   UNL     1      -7.269  11.385  67.739  1.00  0.00    -0.085 NA 
HETATM    7  C   UNL     1      -6.476  12.470  67.705  1.00  0.00    -0.120 A  
HETATM    8  C   UNL     1      -5.130  12.088  67.448  1.00  0.00    -0.096 A  
BRANCH   7   9
HETATM    9  C   UNL     1      -7.013  13.818  67.934  1.00  0.00    -0.158 A  
HETATM   10  C   UNL     1      -7.815  14.435  66.962  1.00  0.00     0.017 A  
HETATM   11  C   UNL     1      -6.758  14.509  69.127  1.00  0.00    -0.115 A  
HETATM   12  N   UNL     1      -9.097  18.723  68.905  1.00  0.00    -0.265 NA 
HETATM   13  C   UNL     1      -7.302  15.780  69.345  1.00  0.00    -0.217 A  
HETATM   14 CL   UNL     1      -9.349  16.384  65.933  1.00  0.00    -0.318 Cl 
HETATM   15  C   UNL     1      -8.111  16.382  68.376  1.00  0.00    -0.188 A  
HETATM   16  C   UNL     1      -8.664  17.677  68.648  1.00  0.00    -0.266 C  
HETATM   17  C   UNL     1      -8.362  15.706  67.180  1.00  0.00    -0.208 A  
ENDBRANCH   7   9
ENDBRANCH   3   4
ENDBRANCH   2   3
BRANCH   2  18
HETATM   18  N   UNL     1      -9.140   9.862  66.641  1.00  0.00    -0.145 N  
HETATM   19  O   UNL     1      -9.646   9.955  64.407  1.00  0.00    -0.294 OA 
HETATM   20  H   UNL     1      -9.345  10.253  67.560  1.00  0.00     0.000 HD 
HETATM   21  C   UNL     1      -9.829  10.350  65.555  1.00  0.00    -0.269 C  
BRANCH  21  22
HETATM   22  C   UNL     1     -10.793  11.406  65.876  1.00  0.00    -0.234 A  
HETATM   23  N   UNL     1     -11.801  11.775  65.061  1.00  0.00    -0.157 NA 
HETATM   24  H   UNL     1     -12.047  11.390  64.149  1.00  0.00     0.000 HD 
HETATM   25  C   UNL     1     -10.786  12.175  67.063  1.00  0.00    -0.289 A  
HETATM   26  N   UNL     1     -12.408  12.773  65.735  1.00  0.00    -0.594 NA 
HETATM   27  C   UNL     1     -11.817  13.075  66.931  1.00  0.00    -0.380 A  
BRANCH  27  28
HETATM   28  C   UNL     1     -12.307  14.153  67.825  1.00  0.00    -0.015 C  
HETATM   29  C   UNL     1     -12.121  13.816  69.301  1.00  0.00    -0.374 C  
HETATM   30  O   UNL     1     -11.567  15.323  67.497  1.00  0.00    -0.316 OA 
HETATM   31  H   UNL     1     -11.881  16.013  68.069  1.00  0.00     0.000 HD 
ENDBRANCH  27  28
ENDBRANCH  21  22
ENDBRANCH   2  18
TORSDOF 6
ENDMDL
MODEL      244
REMARK 921   NORMALIZED FREE ENERGY PREDICTED BY IDOCK:   -2.82 KCAL/MOL
REMARK 922        TOTAL FREE ENERGY PREDICTED BY IDOCK:   -5.43 KCAL/MOL
REMARK 923 INTER-LIGAND FREE ENERGY PREDICTED BY IDOCK:   -5.73 KCAL/MOL
REMARK 924 INTRA-LIGAND FREE ENERGY PREDICTED BY IDOCK:    0.30 KCAL/MOL
REMARK 927      BINDING AFFINITY PREDICTED BY RF-SCORE:    0.00 PKD
ROOT
HETATM    1  C   UNL     1      -7.253   7.001  69.297  1.00  0.00    -0.086 C  
HETATM    2  C   UNL     1      -8.309   6.913  68.190  1.00  0.00    -0.118 C  
ENDROOT
BRANCH   2   3
HETATM    3  C   UNL     1      -9.424   5.929  68.583  1.00  0.00    -0.122 C  
BRANCH   3   4
HETATM    4  N   UNL     1     -10.233   6.418  69.686  1.00  0.00    -0.180 NA 
HETATM    5  C   UNL     1     -10.717   5.686  70.726  1.00  0.00    -0.250 A  
HETATM    6  N   UNL     1     -10.590   7.713  69.733  1.00  0.00    -0.242 NA 
HETATM    7  C   UNL     1     -11.340   7.823  70.844  1.00  0.00    -0.275 A  
HETATM    8  C   UNL     1     -11.423   6.567  71.506  1.00  0.00    -0.351 A  
BRANCH   7   9
HETATM    9  C   UNL     1     -11.961   9.098  71.225  1.00  0.00    -0.394 A  
HETATM   10  C   UNL     1     -11.612  10.283  70.558  1.00  0.00    -0.424 A  
HETATM   11  C   UNL     1     -12.926   9.162  72.240  1.00  0.00    -0.492 A  
HETATM   12  N   UNL     1     -14.407  13.742  72.564  1.00  0.00    -0.658 NA 
HETATM   13  C   UNL     1     -13.534  10.378  72.571  1.00  0.00     0.202 A  
HETATM   14 CL   UNL     1     -11.738  12.907  70.006  1.00  0.00    -0.331 Cl 
HETATM   15  C   UNL     1     -13.189  11.552  71.893  1.00  0.00    -0.479 A  
HETATM   16  C   UNL     1     -13.849  12.774  72.250  1.00  0.00    -0.302 C  
HETATM   17  C   UNL     1     -12.221  11.500  70.887  1.00  0.00    -0.322 A  
ENDBRANCH   7   9
ENDBRANCH   3   4
ENDBRANCH   2   3
BRANCH   2  18
HETATM   18  N   UNL     1      -8.799   8.244  67.849  1.00  0.00    -0.137 N  
HETATM   19  O   UNL     1      -6.822   9.356  68.179  1.00  0.00    -0.063 OA 
HETATM   20  H   UNL     1      -9.778   8.346  67.585  1.00  0.00     0.000 HD 
HETATM   21  C   UNL     1      -8.007   9.370  67.865  1.00  0.00    -0.092 C  
BRANCH  21  22
HETATM   22  C   UNL     1      -8.705  10.605  67.493  1.00  0.00    -0.125 A  
HETATM   23  N   UNL     1      -9.478  11.313  68.340  1.00  0.00    -0.186 NA 
HETATM   24  H   UNL     1      -9.678  11.121  69.322  1.00  0.00     0.000 HD 
HETATM   25  C   UNL     1      -8.669  11.201  66.212  1.00  0.00    -0.183 A  
HETATM   26  N   UNL     1      -9.926  12.336  67.583  1.00  0.00    -0.195 NA 
HETATM   27  C   UNL     1      -9.495  12.297  66.286  1.00  0.00    -0.231 A  
BRANCH  27  28
HETATM   28  C   UNL     1      -9.883  13.311  65.275  1.00  0.00    -0.075 C  
HETATM   29  C   UNL     1      -9.057  14.588  65.382  1.00  0.00     0.978 C  
HETATM   30  O   UNL     1      -9.688  12.711  64.000  1.00  0.00    -0.598 OA 
HETATM   31  H   UNL     1      -9.937  13.360  63.353  1.00  0.00     0.000 HD 
ENDBRANCH  27  28
ENDBRANCH  21  22
ENDBRANCH   2  18
TORSDOF 6
ENDMDL
MODEL      245
REMARK 921   NORMALIZED FREE ENERGY PREDICTED BY IDOCK:   -2.82 KCAL/MOL
REMARK 922        TOTAL FREE ENERGY PREDICTED BY IDOCK:   -5.43 KCAL/MOL
REMARK 923 INTER-LIGAND FREE ENERGY PREDICTED BY IDOCK:   -4.77 KCAL/MOL
REMARK 924 INTRA-LIGAND FREE ENERGY PREDICTED BY IDOCK:   -0.66 KCAL/MOL
REMARK 927      BINDING AFFINITY PREDICTED BY RF-SCORE:    0.00 PKD
ROOT
HETATM    1  C   UNL     1      -5.161  12.946  67.569  1.00  0.00    -0.046 C  
HETATM    2  C   UNL     1      -6.685  12.874  67.711  1.00  0.00    -0.141 C  
ENDROOT
BRANCH   2   3
HETATM    3  C   UNL     1      -7.077  11.990  68.907  1.00  0.00    -0.104 C  
BRANCH   3   4
HETATM    4  N   UNL     1      -8.107  11.024  68.568  1.00  0.00    -0.133 NA 
HETATM    5  C   UNL     1      -9.363  11.298  68.119  1.00  0.00    -0.181 A  
HETATM    6  N   UNL     1      -7.867   9.709  68.709  1.00  0.00    -0.080 NA 
HETATM    7  C   UNL     1      -9.012   9.108  68.343  1.00  0.00    -0.133 A  
HETATM    8  C   UNL     1      -9.971  10.080  67.944  1.00  0.00    -0.183 A  
BRANCH   7   9
HETATM    9  C   UNL     1      -9.164   7.649  68.401  1.00  0.00    -0.140 A  
HETATM   10  C   UNL     1      -9.010   6.874  67.240  1.00  0.00    -0.118 A  
HETATM   11  C   UNL     1      -9.442   6.994  69.608  1.00  0.00    -0.147 A  
HETATM   12  N   UNL     1      -9.574   2.256  68.707  1.00  0.00    -0.108 NA 
HETATM   13  C   UNL     1      -9.553   5.599  69.655  1.00  0.00    -0.197 A  
HETATM   14 CL   UNL     1      -8.902   4.605  65.809  1.00  0.00    -0.123 Cl 
HETATM   15  C   UNL     1      -9.386   4.835  68.496  1.00  0.00    -0.181 A  
HETATM   16  C   UNL     1      -9.488   3.407  68.590  1.00  0.00    -0.136 C  
HETATM   17  C   UNL     1      -9.118   5.479  67.285  1.00  0.00    -0.110 A  
ENDBRANCH   7   9
ENDBRANCH   3   4
ENDBRANCH   2   3
BRANCH   2  18
HETATM   18  N   UNL     1      -7.254  14.217  67.766  1.00  0.00    -0.159 N  
HETATM   19  O   UNL     1      -8.808  13.924  66.107  1.00  0.00     0.098 OA 
HETATM   20  H   UNL     1      -6.868  14.878  68.440  1.00  0.00     0.000 HD 
HETATM   21  C   UNL     1      -8.284  14.638  66.956  1.00  0.00    -0.157 C  
BRANCH  21  22
HETATM   22  C   UNL     1      -8.696  16.027  67.176  1.00  0.00    -0.190 A  
HETATM   23  N   UNL     1      -9.595  16.405  68.105  1.00  0.00    -0.224 NA 
HETATM   24  H   UNL     1     -10.094  15.819  68.775  1.00  0.00     0.000 HD 
HETATM   25  C   UNL     1      -8.219  17.138  66.443  1.00  0.00    -0.327 A  
HETATM   26  N   UNL     1      -9.682  17.741  67.941  1.00  0.00    -0.284 NA 
HETATM   27  C   UNL     1      -8.898  18.228  66.933  1.00  0.00    -0.275 A  
BRANCH  27  28
HETATM   28  C   UNL     1      -8.855  19.665  66.565  1.00  0.00    -0.364 C  
HETATM   29  C   UNL     1      -7.488  20.092  66.040  1.00  0.00    -0.300 C  
HETATM   30  O   UNL     1      -9.844  19.860  65.562  1.00  0.00    -0.326 OA 
HETATM   31  H   UNL     1      -9.816  20.780  65.327  1.00  0.00     0.000 HD 
ENDBRANCH  27  28
ENDBRANCH  21  22
ENDBRANCH   2  18
TORSDOF 6
ENDMDL
MODEL      246
REMARK 921   NORMALIZED FREE ENERGY PREDICTED BY IDOCK:   -2.60 KCAL/MOL
REMARK 922        TOTAL FREE ENERGY PREDICTED BY IDOCK:   -5.13 KCAL/MOL
REMARK 923 INTER-LIGAND FREE ENERGY PREDICTED BY IDOCK:   -4.31 KCAL/MOL
REMARK 924 INTRA-LIGAND FREE ENERGY PREDICTED BY IDOCK:   -0.81 KCAL/MOL
REMARK 927      BINDING AFFINITY PREDICTED BY RF-SCORE:    0.00 PKD
ROOT
HETATM    1  C   UNL     1      -9.308   2.272  72.103  1.00  0.00    -0.156 C  
HETATM    2  C   UNL     1      -9.629   3.634  71.477  1.00  0.00    -0.164 C  
ENDROOT
BRANCH   2   3
HETATM    3  C   UNL     1      -8.868   4.756  72.204  1.00  0.00    -0.124 C  
BRANCH   3   4
HETATM    4  N   UNL     1      -9.304   6.079  71.791  1.00  0.00    -0.148 NA 
HETATM    5  C   UNL     1      -9.874   7.030  72.582  1.00  0.00    -0.163 A  
HETATM    6  N   UNL     1      -9.177   6.458  70.508  1.00  0.00    -0.158 NA 
HETATM    7  C   UNL     1      -9.690   7.700  70.463  1.00  0.00    -0.182 A  
HETATM    8  C   UNL     1     -10.121   8.100  71.759  1.00  0.00    -0.267 A  
BRANCH   7   9
HETATM    9  C   UNL     1      -9.772   8.449  69.203  1.00  0.00    -0.171 A  
HETATM   10  C   UNL     1      -9.096   9.671  69.061  1.00  0.00    -0.148 A  
HETATM   11  C   UNL     1     -10.504   7.960  68.112  1.00  0.00    -0.227 A  
HETATM   12  N   UNL     1      -9.980  11.089  64.478  1.00  0.00    -0.282 NA 
HETATM   13  C   UNL     1     -10.547   8.669  66.906  1.00  0.00    -0.270 A  
HETATM   14 CL   UNL     1      -8.264  11.870  67.766  1.00  0.00    -0.139 Cl 
HETATM   15  C   UNL     1      -9.860   9.880  66.769  1.00  0.00    -0.256 A  
HETATM   16  C   UNL     1      -9.915  10.565  65.511  1.00  0.00    -0.279 C  
HETATM   17  C   UNL     1      -9.137  10.381  67.855  1.00  0.00    -0.132 A  
ENDBRANCH   7   9
ENDBRANCH   3   4
ENDBRANCH   2   3
BRANCH   2  18
HETATM   18  N   UNL     1      -9.387   3.601  70.038  1.00  0.00    -0.162 N  
HETATM   19  O   UNL     1      -7.275   2.717  70.135  1.00  0.00    -0.037 OA 
HETATM   20  H   UNL     1     -10.121   3.941  69.418  1.00  0.00     0.000 HD 
HETATM   21  C   UNL     1      -8.221   3.135  69.476  1.00  0.00    -0.051 C  
BRANCH  21  22
HETATM   22  C   UNL     1      -8.189   3.199  68.012  1.00  0.00    -0.078 A  
HETATM   23  N   UNL     1      -7.570   2.288  67.235  1.00  0.00    -0.060 NA 
HETATM   24  H   UNL     1      -7.067   1.449  67.525  1.00  0.00     0.000 HD 
HETATM   25  C   UNL     1      -8.785   4.217  67.233  1.00  0.00    -0.113 A  
HETATM   26  N   UNL     1      -7.774   2.745  65.982  1.00  0.00    -0.079 NA 
HETATM   27  C   UNL     1      -8.471   3.920  65.927  1.00  0.00    -0.110 A  
BRANCH  27  28
HETATM   28  C   UNL     1      -8.789   4.613  64.654  1.00  0.00    -0.153 C  
HETATM   29  C   UNL     1      -7.789   5.716  64.324  1.00  0.00    -0.112 C  
HETATM   30  O   UNL     1      -8.772   3.620  63.635  1.00  0.00    -0.093 OA 
HETATM   31  H   UNL     1      -8.975   4.064  62.820  1.00  0.00     0.000 HD 
ENDBRANCH  27  28
ENDBRANCH  21  22
ENDBRANCH   2  18
TORSDOF 6
ENDMDL
MODEL      247
REMARK 921   NORMALIZED FREE ENERGY PREDICTED BY IDOCK:   -2.59 KCAL/MOL
REMARK 922        TOTAL FREE ENERGY PREDICTED BY IDOCK:   -5.11 KCAL/MOL
REMARK 923 INTER-LIGAND FREE ENERGY PREDICTED BY IDOCK:   -3.41 KCAL/MOL
REMARK 924 INTRA-LIGAND FREE ENERGY PREDICTED BY IDOCK:   -1.70 KCAL/MOL
REMARK 927      BINDING AFFINITY PREDICTED BY RF-SCORE:    0.00 PKD
ROOT
HETATM    1  C   UNL     1      -7.016  14.831  70.870  1.00  0.00     0.751 C  
HETATM    2  C   UNL     1      -6.578  14.958  69.407  1.00  0.00    -0.142 C  
ENDROOT
BRANCH   2   3
HETATM    3  C   UNL     1      -5.435  13.977  69.096  1.00  0.00    -0.077 C  
BRANCH   3   4
HETATM    4  N   UNL     1      -5.912  12.625  68.866  1.00  0.00    -0.070 NA 
HETATM    5  C   UNL     1      -5.947  11.610  69.773  1.00  0.00    -0.123 A  
HETATM    6  N   UNL     1      -6.359  12.268  67.650  1.00  0.00    -0.105 NA 
HETATM    7  C   UNL     1      -6.692  10.972  67.772  1.00  0.00    -0.064 A  
HETATM    8  C   UNL     1      -6.464  10.529  69.104  1.00  0.00    -0.054 A  
BRANCH   7   9
HETATM    9  C   UNL     1      -7.191  10.199  66.627  1.00  0.00    -0.105 A  
HETATM   10  C   UNL     1      -7.792  10.852  65.539  1.00  0.00     0.031 A  
HETATM   11  C   UNL     1      -7.064   8.803  66.581  1.00  0.00    -0.081 A  
HETATM   12  N   UNL     1      -8.866   7.308  62.363  1.00  0.00     0.312 NA 
HETATM   13  C   UNL     1      -7.516   8.082  65.470  1.00  0.00    -0.081 A  
HETATM   14 CL   UNL     1      -8.957  11.020  63.127  1.00  0.00    -0.220 Cl 
HETATM   15  C   UNL     1      -8.101   8.742  64.385  1.00  0.00    -0.155 A  
HETATM   16  C   UNL     1      -8.533   7.968  63.258  1.00  0.00     0.135 C  
HETATM   17  C   UNL     1      -8.242  10.132  64.426  1.00  0.00    -0.165 A  
ENDBRANCH   7   9
ENDBRANCH   3   4
ENDBRANCH   2   3
BRANCH   2  18
HETATM   18  N   UNL     1      -7.727  14.816  68.519  1.00  0.00    -0.113 N  
HETATM   19  O   UNL     1      -6.990  16.246  66.886  1.00  0.00    -0.211 OA 
HETATM   20  H   UNL     1      -8.486  14.199  68.806  1.00  0.00     0.000 HD 
HETATM   21  C   UNL     1      -7.841  15.473  67.315  1.00  0.00    -0.204 C  
BRANCH  21  22
HETATM   22  C   UNL     1      -9.081  15.189  66.587  1.00  0.00    -0.280 A  
HETATM   23  N   UNL     1     -10.038  16.108  66.350  1.00  0.00    -0.291 NA 
HETATM   24  H   UNL     1     -10.045  17.094  66.612  1.00  0.00     0.000 HD 
HETATM   25  C   UNL     1      -9.437  13.929  66.054  1.00  0.00    -0.145 A  
HETATM   26  N   UNL     1     -10.986  15.417  65.684  1.00  0.00    -0.337 NA 
HETATM   27  C   UNL     1     -10.688  14.094  65.508  1.00  0.00    -0.324 A  
BRANCH  27  28
HETATM   28  C   UNL     1     -11.598  13.145  64.821  1.00  0.00    -0.333 C  
HETATM   29  C   UNL     1     -11.498  11.730  65.382  1.00  0.00    -0.239 C  
HETATM   30  O   UNL     1     -12.918  13.645  64.997  1.00  0.00    -0.724 OA 
HETATM   31  H   UNL     1     -13.500  13.038  64.557  1.00  0.00     0.000 HD 
ENDBRANCH  27  28
ENDBRANCH  21  22
ENDBRANCH   2  18
TORSDOF 6
ENDMDL
MODEL      248
REMARK 921   NORMALIZED FREE ENERGY PREDICTED BY IDOCK:   -2.58 KCAL/MOL
REMARK 922        TOTAL FREE ENERGY PREDICTED BY IDOCK:   -5.11 KCAL/MOL
REMARK 923 INTER-LIGAND FREE ENERGY PREDICTED BY IDOCK:   -4.89 KCAL/MOL
REMARK 924 INTRA-LIGAND FREE ENERGY PREDICTED BY IDOCK:   -0.22 KCAL/MOL
REMARK 927      BINDING AFFINITY PREDICTED BY RF-SCORE:    0.00 PKD
ROOT
HETATM    1  C   UNL     1     -12.075   8.057  72.416  1.00  0.00    -0.374 C  
HETATM    2  C   UNL     1     -10.612   7.639  72.595  1.00  0.00    -0.299 C  
ENDROOT
BRANCH   2   3
HETATM    3  C   UNL     1     -10.435   6.142  72.290  1.00  0.00    -0.198 C  
BRANCH   3   4
HETATM    4  N   UNL     1      -9.424   5.898  71.276  1.00  0.00    -0.160 NA 
HETATM    5  C   UNL     1      -8.120   5.572  71.490  1.00  0.00    -0.118 A  
HETATM    6  N   UNL     1      -9.740   6.009  69.974  1.00  0.00    -0.162 NA 
HETATM    7  C   UNL     1      -8.595   5.750  69.319  1.00  0.00    -0.111 A  
HETATM    8  C   UNL     1      -7.556   5.450  70.244  1.00  0.00    -0.076 A  
BRANCH   7   9
HETATM    9  C   UNL     1      -8.519   5.815  67.854  1.00  0.00    -0.103 A  
HETATM   10  C   UNL     1      -9.279   4.935  67.066  1.00  0.00    -0.127 A  
HETATM   11  C   UNL     1      -7.712   6.761  67.208  1.00  0.00    -0.109 A  
HETATM   12  N   UNL     1      -8.325   6.209  62.455  1.00  0.00    -0.085 NA 
HETATM   13  C   UNL     1      -7.674   6.833  65.811  1.00  0.00    -0.096 A  
HETATM   14 CL   UNL     1     -10.221   3.892  64.779  1.00  0.00    -0.211 Cl 
HETATM   15  C   UNL     1      -8.443   5.961  65.034  1.00  0.00    -0.111 A  
HETATM   16  C   UNL     1      -8.391   6.080  63.606  1.00  0.00     0.054 C  
HETATM   17  C   UNL     1      -9.244   5.007  65.668  1.00  0.00    -0.157 A  
ENDBRANCH   7   9
ENDBRANCH   3   4
ENDBRANCH   2   3
BRANCH   2  18
HETATM   18  N   UNL     1      -9.737   8.503  71.809  1.00  0.00    -0.239 N  
HETATM   19  O   UNL     1     -11.227   8.939  70.123  1.00  0.00    -0.238 OA 
HETATM   20  H   UNL     1      -8.793   8.676  72.153  1.00  0.00     0.000 HD 
HETATM   21  C   UNL     1     -10.120   9.095  70.627  1.00  0.00    -0.247 C  
BRANCH  21  22
HETATM   22  C   UNL     1      -9.081   9.918  70.000  1.00  0.00    -0.178 A  
HETATM   23  N   UNL     1      -7.851  10.096  70.519  1.00  0.00    -0.419 NA 
HETATM   24  H   UNL     1      -7.464   9.699  71.375  1.00  0.00     0.000 HD 
HETATM   25  C   UNL     1      -9.236  10.632  68.789  1.00  0.00    -0.182 A  
HETATM   26  N   UNL     1      -7.251  10.925  69.640  1.00  0.00    -0.128 NA 
HETATM   27  C   UNL     1      -8.052  11.303  68.598  1.00  0.00    -0.145 A  
BRANCH  27  28
HETATM   28  C   UNL     1      -7.602  12.227  67.527  1.00  0.00    -0.155 C  
HETATM   29  C   UNL     1      -6.083  12.275  67.397  1.00  0.00    -0.153 C  
HETATM   30  O   UNL     1      -8.179  11.758  66.315  1.00  0.00    -0.362 OA 
HETATM   31  H   UNL     1      -7.891  12.349  65.629  1.00  0.00     0.000 HD 
ENDBRANCH  27  28
ENDBRANCH  21  22
ENDBRANCH   2  18
TORSDOF 6
ENDMDL
MODEL      249
REMARK 921   NORMALIZED FREE ENERGY PREDICTED BY IDOCK:   -2.36 KCAL/MOL
REMARK 922        TOTAL FREE ENERGY PREDICTED BY IDOCK:   -4.81 KCAL/MOL
REMARK 923 INTER-LIGAND FREE ENERGY PREDICTED BY IDOCK:   -3.91 KCAL/MOL
REMARK 924 INTRA-LIGAND FREE ENERGY PREDICTED BY IDOCK:   -0.89 KCAL/MOL
REMARK 927      BINDING AFFINITY PREDICTED BY RF-SCORE:    0.00 PKD
ROOT
HETATM    1  C   UNL     1      -8.942   2.075  70.987  1.00  0.00    -0.137 C  
HETATM    2  C   UNL     1      -9.761   3.245  70.433  1.00  0.00    -0.055 C  
ENDROOT
BRANCH   2   3
HETATM    3  C   UNL     1      -9.917   4.348  71.495  1.00  0.00    -0.180 C  
BRANCH   3   4
HETATM    4  N   UNL     1     -10.179   5.650  70.907  1.00  0.00    -0.211 NA 
HETATM    5  C   UNL     1     -11.399   6.220  70.706  1.00  0.00    -0.332 A  
HETATM    6  N   UNL     1      -9.158   6.412  70.480  1.00  0.00    -0.154 NA 
HETATM    7  C   UNL     1      -9.738   7.516  69.978  1.00  0.00    -0.172 A  
HETATM    8  C   UNL     1     -11.151   7.437  70.123  1.00  0.00    -0.265 A  
BRANCH   7   9
HETATM    9  C   UNL     1      -8.943   8.588  69.365  1.00  0.00    -0.149 A  
HETATM   10  C   UNL     1      -8.859   8.697  67.968  1.00  0.00    -0.141 A  
HETATM   11  C   UNL     1      -8.270   9.534  70.151  1.00  0.00    -0.192 A  
HETATM   12  N   UNL     1      -6.128  12.659  67.164  1.00  0.00    -0.282 NA 
HETATM   13  C   UNL     1      -7.542  10.569  69.554  1.00  0.00    -0.148 A  
HETATM   14 CL   UNL     1      -8.095   9.799  65.642  1.00  0.00    -0.116 Cl 
HETATM   15  C   UNL     1      -7.474  10.678  68.161  1.00  0.00    -0.090 A  
HETATM   16  C   UNL     1      -6.734  11.765  67.589  1.00  0.00    -0.091 C  
HETATM   17  C   UNL     1      -8.133   9.734  67.369  1.00  0.00    -0.114 A  
ENDBRANCH   7   9
ENDBRANCH   3   4
ENDBRANCH   2   3
BRANCH   2  18
HETATM   18  N   UNL     1      -9.187   3.719  69.178  1.00  0.00    -0.146 N  
HETATM   19  O   UNL     1      -6.997   3.694  69.854  1.00  0.00    -0.040 OA 
HETATM   20  H   UNL     1      -9.819   3.925  68.405  1.00  0.00     0.000 HD 
HETATM   21  C   UNL     1      -7.837   3.902  68.984  1.00  0.00    -0.056 C  
BRANCH  21  22
HETATM   22  C   UNL     1      -7.479   4.390  67.649  1.00  0.00    -0.073 A  
HETATM   23  N   UNL     1      -6.298   4.141  67.050  1.00  0.00    -0.039 NA 
HETATM   24  H   UNL     1      -5.515   3.592  67.406  1.00  0.00     0.000 HD 
HETATM   25  C   UNL     1      -8.312   5.187  66.829  1.00  0.00    -0.107 A  
HETATM   26  N   UNL     1      -6.395   4.788  65.871  1.00  0.00    -0.038 NA 
HETATM   27  C   UNL     1      -7.574   5.460  65.702  1.00  0.00    -0.082 A  
BRANCH  27  28
HETATM   28  C   UNL     1      -7.883   6.256  64.488  1.00  0.00    -0.115 C  
HETATM   29  C   UNL     1      -6.653   6.496  63.619  1.00  0.00    -0.040 C  
HETATM   30  O   UNL     1      -8.860   5.524  63.758  1.00  0.00    -0.345 OA 
HETATM   31  H   UNL     1      -9.057   6.033  62.981  1.00  0.00     0.000 HD 
ENDBRANCH  27  28
ENDBRANCH  21  22
ENDBRANCH   2  18
TORSDOF 6
ENDMDL
MODEL      250
REMARK 921   NORMALIZED FREE ENERGY PREDICTED BY IDOCK:   -2.33 KCAL/MOL
REMARK 922        TOTAL FREE ENERGY PREDICTED BY IDOCK:   -4.77 KCAL/MOL
REMARK 923 INTER-LIGAND FREE ENERGY PREDICTED BY IDOCK:   -3.58 KCAL/MOL
REMARK 924 INTRA-LIGAND FREE ENERGY PREDICTED BY IDOCK:   -1.19 KCAL/MOL
REMARK 927      BINDING AFFINITY PREDICTED BY RF-SCORE:    0.00 PKD
ROOT
HETATM    1  C   UNL     1     -10.479   8.794  72.167  1.00  0.00    -0.384 C  
HETATM    2  C   UNL     1     -11.267   8.114  71.042  1.00  0.00    -0.258 C  
ENDROOT
BRANCH   2   3
HETATM    3  C   UNL     1     -11.931   9.165  70.135  1.00  0.00     0.256 C  
BRANCH   3   4
HETATM    4  N   UNL     1     -10.975   9.840  69.276  1.00  0.00    -0.219 NA 
HETATM    5  C   UNL     1     -10.727  11.178  69.229  1.00  0.00    -0.199 A  
HETATM    6  N   UNL     1     -10.241   9.131  68.401  1.00  0.00    -0.194 NA 
HETATM    7  C   UNL     1      -9.493  10.044  67.758  1.00  0.00    -0.140 A  
HETATM    8  C   UNL     1      -9.759  11.345  68.270  1.00  0.00    -0.202 A  
BRANCH   7   9
HETATM    9  C   UNL     1      -8.576   9.660  66.678  1.00  0.00    -0.137 A  
HETATM   10  C   UNL     1      -8.687   8.399  66.069  1.00  0.00    -0.183 A  
HETATM   11  C   UNL     1      -7.588  10.540  66.215  1.00  0.00    -0.133 A  
HETATM   12  N   UNL     1      -5.270   8.361  62.588  1.00  0.00    -0.068 NA 
HETATM   13  C   UNL     1      -6.741  10.173  65.163  1.00  0.00    -0.131 A  
HETATM   14 CL   UNL     1      -8.059   6.465  64.317  1.00  0.00    -0.100 Cl 
HETATM   15  C   UNL     1      -6.867   8.920  64.554  1.00  0.00    -0.081 A  
HETATM   16  C   UNL     1      -5.992   8.590  63.467  1.00  0.00    -0.073 C  
HETATM   17  C   UNL     1      -7.842   8.031  65.015  1.00  0.00    -0.123 A  
ENDBRANCH   7   9
ENDBRANCH   3   4
ENDBRANCH   2   3
BRANCH   2  18
HETATM   18  N   UNL     1     -10.414   7.176  70.320  1.00  0.00    -0.213 N  
HETATM   19  O   UNL     1     -10.970   5.312  71.534  1.00  0.00    -0.159 OA 
HETATM   20  H   UNL     1      -9.846   7.532  69.552  1.00  0.00     0.000 HD 
HETATM   21  C   UNL     1     -10.337   5.835  70.622  1.00  0.00    -0.245 C  
BRANCH  21  22
HETATM   22  C   UNL     1      -9.412   5.077  69.774  1.00  0.00    -0.150 A  
HETATM   23  N   UNL     1      -9.780   4.022  69.020  1.00  0.00    -0.145 NA 
HETATM   24  H   UNL     1     -10.709   3.615  68.916  1.00  0.00     0.000 HD 
HETATM   25  C   UNL     1      -8.029   5.343  69.645  1.00  0.00    -0.095 A  
HETATM   26  N   UNL     1      -8.628   3.631  68.437  1.00  0.00    -0.091 NA 
HETATM   27  C   UNL     1      -7.540   4.372  68.804  1.00  0.00    -0.063 A  
BRANCH  27  28
HETATM   28  C   UNL     1      -6.170   4.102  68.300  1.00  0.00    -0.032 C  
HETATM   29  C   UNL     1      -5.144   5.094  68.837  1.00  0.00     0.000 C  
HETATM   30  O   UNL     1      -5.835   2.783  68.714  1.00  0.00    -0.022 OA 
HETATM   31  H   UNL     1      -4.959   2.611  68.392  1.00  0.00     0.000 HD 
ENDBRANCH  27  28
ENDBRANCH  21  22
ENDBRANCH   2  18
TORSDOF 6
ENDMDL
MODEL      251
REMARK 921   NORMALIZED FREE ENERGY PREDICTED BY IDOCK:   -2.32 KCAL/MOL
REMARK 922        TOTAL FREE ENERGY PREDICTED BY IDOCK:   -4.76 KCAL/MOL
REMARK 923 INTER-LIGAND FREE ENERGY PREDICTED BY IDOCK:   -4.13 KCAL/MOL
REMARK 924 INTRA-LIGAND FREE ENERGY PREDICTED BY IDOCK:   -0.63 KCAL/MOL
REMARK 927      BINDING AFFINITY PREDICTED BY RF-SCORE:    0.00 PKD
ROOT
HETATM    1  C   UNL     1      -9.716   3.920  71.417  1.00  0.00    -0.246 C  
HETATM    2  C   UNL     1     -10.094   5.346  71.002  1.00  0.00    -0.216 C  
ENDROOT
BRANCH   2   3
HETATM    3  C   UNL     1      -9.534   6.369  72.005  1.00  0.00    -0.151 C  
BRANCH   3   4
HETATM    4  N   UNL     1      -9.117   7.604  71.363  1.00  0.00    -0.132 NA 
HETATM    5  C   UNL     1      -7.863   8.132  71.354  1.00  0.00    -0.101 A  
HETATM    6  N   UNL     1     -10.018   8.359  70.711  1.00  0.00    -0.185 NA 
HETATM    7  C   UNL     1      -9.322   9.420  70.267  1.00  0.00    -0.252 A  
HETATM    8  C   UNL     1      -7.954   9.299  70.638  1.00  0.00    -0.189 A  
BRANCH   7   9
HETATM    9  C   UNL     1      -9.975  10.510  69.532  1.00  0.00    -0.187 A  
HETATM   10  C   UNL     1     -11.047  11.210  70.107  1.00  0.00    -0.105 A  
HETATM   11  C   UNL     1      -9.535  10.893  68.257  1.00  0.00    -0.168 A  
HETATM   12  N   UNL     1     -12.235  14.631  66.838  1.00  0.00    -0.216 NA 
HETATM   13  C   UNL     1     -10.145  11.955  67.580  1.00  0.00    -0.202 A  
HETATM   14 CL   UNL     1     -12.963  13.087  70.222  1.00  0.00     0.209 Cl 
HETATM   15  C   UNL     1     -11.205  12.655  68.166  1.00  0.00    -0.311 A  
HETATM   16  C   UNL     1     -11.790  13.750  67.448  1.00  0.00    -0.396 C  
HETATM   17  C   UNL     1     -11.657  12.274  69.433  1.00  0.00    -0.314 A  
ENDBRANCH   7   9
ENDBRANCH   3   4
ENDBRANCH   2   3
BRANCH   2  18
HETATM   18  N   UNL     1      -9.688   5.597  69.623  1.00  0.00    -0.159 N  
HETATM   19  O   UNL     1      -7.703   4.454  69.709  1.00  0.00    -0.053 OA 
HETATM   20  H   UNL     1     -10.304   6.155  69.032  1.00  0.00     0.000 HD 
HETATM   21  C   UNL     1      -8.516   5.122  69.079  1.00  0.00    -0.090 C  
BRANCH  21  22
HETATM   22  C   UNL     1      -8.304   5.499  67.678  1.00  0.00    -0.100 A  
HETATM   23  N   UNL     1      -8.719   4.759  66.631  1.00  0.00    -0.111 NA 
HETATM   24  H   UNL     1      -9.230   3.876  66.647  1.00  0.00     0.000 HD 
HETATM   25  C   UNL     1      -7.635   6.668  67.247  1.00  0.00    -0.100 A  
HETATM   26  N   UNL     1      -8.300   5.460  65.558  1.00  0.00    -0.127 NA 
HETATM   27  C   UNL     1      -7.614   6.601  65.874  1.00  0.00    -0.087 A  
BRANCH  27  28
HETATM   28  C   UNL     1      -7.045   7.511  64.850  1.00  0.00    -0.060 C  
HETATM   29  C   UNL     1      -6.122   8.565  65.454  1.00  0.00    -0.049 C  
HETATM   30  O   UNL     1      -6.320   6.696  63.937  1.00  0.00    -0.033 OA 
HETATM   31  H   UNL     1      -5.955   7.279  63.282  1.00  0.00     0.000 HD 
ENDBRANCH  27  28
ENDBRANCH  21  22
ENDBRANCH   2  18
TORSDOF 6
ENDMDL
MODEL      252
REMARK 921   NORMALIZED FREE ENERGY PREDICTED BY IDOCK:   -2.21 KCAL/MOL
REMARK 922        TOTAL FREE ENERGY PREDICTED BY IDOCK:   -4.61 KCAL/MOL
REMARK 923 INTER-LIGAND FREE ENERGY PREDICTED BY IDOCK:   -4.11 KCAL/MOL
REMARK 924 INTRA-LIGAND FREE ENERGY PREDICTED BY IDOCK:   -0.50 KCAL/MOL
REMARK 927      BINDING AFFINITY PREDICTED BY RF-SCORE:    0.00 PKD
ROOT
HETATM    1  C   UNL     1     -11.556   6.842  70.715  1.00  0.00    -0.397 C  
HETATM    2  C   UNL     1     -10.089   6.398  70.746  1.00  0.00    -0.187 C  
ENDROOT
BRANCH   2   3
HETATM    3  C   UNL     1      -9.846   5.263  69.737  1.00  0.00    -0.211 C  
BRANCH   3   4
HETATM    4  N   UNL     1      -8.687   5.507  68.897  1.00  0.00    -0.102 NA 
HETATM    5  C   UNL     1      -7.476   4.891  68.984  1.00  0.00    -0.061 A  
HETATM    6  N   UNL     1      -8.744   6.436  67.927  1.00  0.00    -0.116 NA 
HETATM    7  C   UNL     1      -7.521   6.427  67.369  1.00  0.00    -0.088 A  
HETATM    8  C   UNL     1      -6.701   5.449  67.998  1.00  0.00    -0.055 A  
BRANCH   7   9
HETATM    9  C   UNL     1      -7.168   7.349  66.282  1.00  0.00    -0.078 A  
HETATM   10  C   UNL     1      -8.042   8.388  65.924  1.00  0.00    -0.110 A  
HETATM   11  C   UNL     1      -5.953   7.232  65.594  1.00  0.00    -0.037 A  
HETATM   12  N   UNL     1      -5.741  10.820  62.376  1.00  0.00    -0.151 NA 
HETATM   13  C   UNL     1      -5.616   8.138  64.582  1.00  0.00    -0.044 A  
HETATM   14 CL   UNL     1      -8.836  10.553  64.548  1.00  0.00    -0.206 Cl 
HETATM   15  C   UNL     1      -6.486   9.177  64.240  1.00  0.00    -0.083 A  
HETATM   16  C   UNL     1      -6.094  10.096  63.210  1.00  0.00    -0.142 C  
HETATM   17  C   UNL     1      -7.705   9.297  64.913  1.00  0.00    -0.110 A  
ENDBRANCH   7   9
ENDBRANCH   3   4
ENDBRANCH   2   3
BRANCH   2  18
HETATM   18  N   UNL     1      -9.207   7.545  70.558  1.00  0.00    -0.156 N  
HETATM   19  O   UNL     1     -10.697   8.850  69.404  1.00  0.00    -0.228 OA 
HETATM   20  H   UNL     1      -8.261   7.493  70.934  1.00  0.00     0.000 HD 
HETATM   21  C   UNL     1      -9.586   8.694  69.901  1.00  0.00    -0.172 C  
BRANCH  21  22
HETATM   22  C   UNL     1      -8.540   9.718  69.823  1.00  0.00    -0.201 A  
HETATM   23  N   UNL     1      -7.549   9.848  70.726  1.00  0.00    -0.382 NA 
HETATM   24  H   UNL     1      -7.372   9.279  71.554  1.00  0.00     0.000 HD 
HETATM   25  C   UNL     1      -8.441  10.697  68.808  1.00  0.00    -0.149 A  
HETATM   26  N   UNL     1      -6.847  10.910  70.279  1.00  0.00    -0.228 NA 
HETATM   27  C   UNL     1      -7.361  11.477  69.146  1.00  0.00    -0.057 A  
BRANCH  27  28
HETATM   28  C   UNL     1      -6.760  12.667  68.494  1.00  0.00    -0.089 C  
HETATM   29  C   UNL     1      -5.926  12.304  67.270  1.00  0.00    -0.150 C  
HETATM   30  O   UNL     1      -7.839  13.513  68.114  1.00  0.00    -0.122 OA 
HETATM   31  H   UNL     1      -7.454  14.274  67.697  1.00  0.00     0.000 HD 
ENDBRANCH  27  28
ENDBRANCH  21  22
ENDBRANCH   2  18
TORSDOF 6
ENDMDL
MODEL      253
REMARK 921   NORMALIZED FREE ENERGY PREDICTED BY IDOCK:   -1.87 KCAL/MOL
REMARK 922        TOTAL FREE ENERGY PREDICTED BY IDOCK:   -4.14 KCAL/MOL
REMARK 923 INTER-LIGAND FREE ENERGY PREDICTED BY IDOCK:   -3.37 KCAL/MOL
REMARK 924 INTRA-LIGAND FREE ENERGY PREDICTED BY IDOCK:   -0.78 KCAL/MOL
REMARK 927      BINDING AFFINITY PREDICTED BY RF-SCORE:    0.00 PKD
ROOT
HETATM    1  C   UNL     1     -12.674   7.319  70.589  1.00  0.00     0.007 C  
HETATM    2  C   UNL     1     -11.176   7.211  70.285  1.00  0.00    -0.276 C  
ENDROOT
BRANCH   2   3
HETATM    3  C   UNL     1     -10.592   8.591  69.941  1.00  0.00    -0.228 C  
BRANCH   3   4
HETATM    4  N   UNL     1     -10.238   8.709  68.537  1.00  0.00    -0.192 NA 
HETATM    5  C   UNL     1     -10.698   9.640  67.658  1.00  0.00    -0.262 A  
HETATM    6  N   UNL     1      -9.387   7.828  67.983  1.00  0.00    -0.141 NA 
HETATM    7  C   UNL     1      -9.298   8.198  66.694  1.00  0.00    -0.197 A  
HETATM    8  C   UNL     1     -10.097   9.351  66.458  1.00  0.00    -0.332 A  
BRANCH   7   9
HETATM    9  C   UNL     1      -8.482   7.442  65.735  1.00  0.00    -0.149 A  
HETATM   10  C   UNL     1      -7.488   8.091  64.986  1.00  0.00    -0.087 A  
HETATM   11  C   UNL     1      -8.659   6.063  65.558  1.00  0.00    -0.145 A  
HETATM   12  N   UNL     1      -5.397   4.573  62.331  1.00  0.00    -0.009 NA 
HETATM   13  C   UNL     1      -7.853   5.350  64.663  1.00  0.00    -0.105 A  
HETATM   14 CL   UNL     1      -5.471   8.257  63.222  1.00  0.00    -0.062 Cl 
HETATM   15  C   UNL     1      -6.856   6.002  63.931  1.00  0.00    -0.038 A  
HETATM   16  C   UNL     1      -6.039   5.231  63.039  1.00  0.00    -0.021 C  
HETATM   17  C   UNL     1      -6.679   7.378  64.092  1.00  0.00    -0.048 A  
ENDBRANCH   7   9
ENDBRANCH   3   4
ENDBRANCH   2   3
BRANCH   2  18
HETATM   18  N   UNL     1     -10.483   6.540  71.381  1.00  0.00    -0.210 N  
HETATM   19  O   UNL     1      -9.092   5.262  70.084  1.00  0.00    -0.127 OA 
HETATM   20  H   UNL     1     -10.756   6.769  72.336  1.00  0.00     0.000 HD 
HETATM   21  C   UNL     1      -9.483   5.615  71.192  1.00  0.00    -0.158 C  
BRANCH  21  22
HETATM   22  C   UNL     1      -8.929   5.061  72.431  1.00  0.00    -0.130 A  
HETATM   23  N   UNL     1      -9.290   5.473  73.663  1.00  0.00    -0.137 NA 
HETATM   24  H   UNL     1      -9.976   6.185  73.914  1.00  0.00     0.000 HD 
HETATM   25  C   UNL     1      -7.950   4.044  72.497  1.00  0.00    -0.082 A  
HETATM   26  N   UNL     1      -8.529   4.722  74.486  1.00  0.00    -0.103 NA 
HETATM   27  C   UNL     1      -7.682   3.869  73.834  1.00  0.00    -0.079 A  
BRANCH  27  28
HETATM   28  C   UNL     1      -6.741   2.966  74.543  1.00  0.00    -0.034 C  
HETATM   29  C   UNL     1      -7.123   1.497  74.399  1.00  0.00    -0.023 C  
HETATM   30  O   UNL     1      -5.455   3.193  73.978  1.00  0.00     0.000 OA 
HETATM   31  H   UNL     1      -4.854   2.615  74.431  1.00  0.00     0.000 HD 
ENDBRANCH  27  28
ENDBRANCH  21  22
ENDBRANCH   2  18
TORSDOF 6
ENDMDL
MODEL      254
REMARK 921   NORMALIZED FREE ENERGY PREDICTED BY IDOCK:   -1.55 KCAL/MOL
REMARK 922        TOTAL FREE ENERGY PREDICTED BY IDOCK:   -3.72 KCAL/MOL
REMARK 923 INTER-LIGAND FREE ENERGY PREDICTED BY IDOCK:   -1.95 KCAL/MOL
REMARK 924 INTRA-LIGAND FREE ENERGY PREDICTED BY IDOCK:   -1.77 KCAL/MOL
REMARK 927      BINDING AFFINITY PREDICTED BY RF-SCORE:    0.00 PKD
ROOT
HETATM    1  C   UNL     1     -10.119   2.575  70.485  1.00  0.00     0.519 C  
HETATM    2  C   UNL     1      -8.763   3.275  70.344  1.00  0.00    -0.068 C  
ENDROOT
BRANCH   2   3
HETATM    3  C   UNL     1      -7.994   2.727  69.131  1.00  0.00    -0.048 C  
BRANCH   3   4
HETATM    4  N   UNL     1      -7.084   3.706  68.562  1.00  0.00    -0.050 NA 
HETATM    5  C   UNL     1      -5.780   3.897  68.900  1.00  0.00    -0.022 A  
HETATM    6  N   UNL     1      -7.519   4.554  67.614  1.00  0.00    -0.073 NA 
HETATM    7  C   UNL     1      -6.457   5.328  67.331  1.00  0.00    -0.052 A  
HETATM    8  C   UNL     1      -5.335   4.928  68.110  1.00  0.00    -0.011 A  
BRANCH   7   9
HETATM    9  C   UNL     1      -6.545   6.423  66.356  1.00  0.00    -0.048 A  
HETATM   10  C   UNL     1      -7.281   6.259  65.172  1.00  0.00    -0.070 A  
HETATM   11  C   UNL     1      -5.919   7.655  66.588  1.00  0.00    -0.040 A  
HETATM   12  N   UNL     1      -6.968  10.551  62.874  1.00  0.00    -0.093 NA 
HETATM   13  C   UNL     1      -6.038   8.701  65.665  1.00  0.00    -0.052 A  
HETATM   14 CL   UNL     1      -8.340   7.018  62.825  1.00  0.00     0.021 Cl 
HETATM   15  C   UNL     1      -6.784   8.533  64.494  1.00  0.00    -0.066 A  
HETATM   16  C   UNL     1      -6.897   9.635  63.584  1.00  0.00    -0.111 C  
HETATM   17  C   UNL     1      -7.403   7.304  64.249  1.00  0.00    -0.086 A  
ENDBRANCH   7   9
ENDBRANCH   3   4
ENDBRANCH   2   3
BRANCH   2  18
HETATM   18  N   UNL     1      -8.940   4.724  70.318  1.00  0.00    -0.100 N  
HETATM   19  O   UNL     1      -7.721   5.183  72.204  1.00  0.00    -0.095 OA 
HETATM   20  H   UNL     1      -9.497   5.128  69.566  1.00  0.00     0.000 HD 
HETATM   21  C   UNL     1      -8.395   5.571  71.255  1.00  0.00    -0.126 C  
BRANCH  21  22
HETATM   22  C   UNL     1      -8.704   6.988  71.041  1.00  0.00    -0.139 A  
HETATM   23  N   UNL     1      -9.182   7.805  72.000  1.00  0.00    -0.137 NA 
HETATM   24  H   UNL     1      -9.379   7.583  72.976  1.00  0.00     0.000 HD 
HETATM   25  C   UNL     1      -8.555   7.672  69.813  1.00  0.00    -0.135 A  
HETATM   26  N   UNL     1      -9.337   8.985  71.367  1.00  0.00    -0.258 NA 
HETATM   27  C   UNL     1      -9.005   8.951  70.040  1.00  0.00    -0.165 A  
BRANCH  27  28
HETATM   28  C   UNL     1      -9.119  10.131  69.148  1.00  0.00    -0.183 C  
HETATM   29  C   UNL     1      -7.850  10.376  68.339  1.00  0.00    -0.104 C  
HETATM   30  O   UNL     1     -10.212   9.876  68.273  1.00  0.00    -0.162 OA 
HETATM   31  H   UNL     1     -10.284  10.631  67.702  1.00  0.00     0.000 HD 
ENDBRANCH  27  28
ENDBRANCH  21  22
ENDBRANCH   2  18
TORSDOF 6
ENDMDL
MODEL      255
REMARK 921   NORMALIZED FREE ENERGY PREDICTED BY IDOCK:   -1.01 KCAL/MOL
REMARK 922        TOTAL FREE ENERGY PREDICTED BY IDOCK:   -2.99 KCAL/MOL
REMARK 923 INTER-LIGAND FREE ENERGY PREDICTED BY IDOCK:   -2.76 KCAL/MOL
REMARK 924 INTRA-LIGAND FREE ENERGY PREDICTED BY IDOCK:   -0.22 KCAL/MOL
REMARK 927      BINDING AFFINITY PREDICTED BY RF-SCORE:    0.00 PKD
ROOT
HETATM    1  C   UNL     1      -9.943  18.931  69.602  1.00  0.00     0.288 C  
HETATM    2  C   UNL     1     -10.094  17.407  69.558  1.00  0.00     0.031 C  
ENDROOT
BRANCH   2   3
HETATM    3  C   UNL     1     -10.891  16.906  70.774  1.00  0.00     0.660 C  
BRANCH   3   4
HETATM    4  N   UNL     1     -11.632  15.690  70.489  1.00  0.00    -0.326 NA 
HETATM    5  C   UNL     1     -12.737  15.577  69.702  1.00  0.00     0.127 A  
HETATM    6  N   UNL     1     -11.250  14.525  71.042  1.00  0.00     0.008 NA 
HETATM    7  C   UNL     1     -12.146  13.625  70.602  1.00  0.00    -0.323 A  
HETATM    8  C   UNL     1     -13.087  14.250  69.738  1.00  0.00     0.609 A  
BRANCH   7   9
HETATM    9  C   UNL     1     -12.092  12.220  71.027  1.00  0.00    -0.037 A  
HETATM   10  C   UNL     1     -11.023  11.401  70.630  1.00  0.00     1.163 A  
HETATM   11  C   UNL     1     -13.085  11.671  71.849  1.00  0.00    -0.490 A  
HETATM   12  N   UNL     1     -11.863   7.093  72.760  1.00  0.00    -0.068 NA 
HETATM   13  C   UNL     1     -13.004  10.339  72.273  1.00  0.00    -0.276 A  
HETATM   14 CL   UNL     1      -9.582   9.139  70.528  1.00  0.00    -0.266 Cl 
HETATM   15  C   UNL     1     -11.929   9.534  71.883  1.00  0.00    -0.381 A  
HETATM   16  C   UNL     1     -11.874   8.181  72.355  1.00  0.00    -0.388 C  
HETATM   17  C   UNL     1     -10.940  10.070  71.055  1.00  0.00    -0.196 A  
ENDBRANCH   7   9
ENDBRANCH   3   4
ENDBRANCH   2   3
BRANCH   2  18
HETATM   18  N   UNL     1     -10.656  16.988  68.278  1.00  0.00    -0.357 N  
HETATM   19  O   UNL     1      -8.823  17.488  66.997  1.00  0.00    -0.228 OA 
HETATM   20  H   UNL     1     -11.610  16.627  68.265  1.00  0.00     0.000 HD 
HETATM   21  C   UNL     1      -9.968  17.057  67.088  1.00  0.00    -0.281 C  
BRANCH  21  22
HETATM   22  C   UNL     1     -10.726  16.591  65.924  1.00  0.00    -0.190 A  
HETATM   23  N   UNL     1     -10.903  17.318  64.803  1.00  0.00    -0.773 NA 
HETATM   24  H   UNL     1     -10.545  18.250  64.595  1.00  0.00     0.000 HD 
HETATM   25  C   UNL     1     -11.373  15.337  65.828  1.00  0.00    -0.180 A  
HETATM   26  N   UNL     1     -11.663  16.523  64.023  1.00  0.00    -1.064 NA 
HETATM   27  C   UNL     1     -12.001  15.333  64.606  1.00  0.00    -0.233 A  
BRANCH  27  28
HETATM   28  C   UNL     1     -12.850  14.317  63.935  1.00  0.00     0.655 C  
HETATM   29  C   UNL     1     -12.043  13.383  63.039  1.00  0.00     0.137 C  
HETATM   30  O   UNL     1     -13.486  13.572  64.966  1.00  0.00    -0.384 OA 
HETATM   31  H   UNL     1     -14.029  12.922  64.537  1.00  0.00     0.000 HD 
ENDBRANCH  27  28
ENDBRANCH  21  22
ENDBRANCH   2  18
TORSDOF 6
ENDMDL
MODEL      256
REMARK 921   NORMALIZED FREE ENERGY PREDICTED BY IDOCK:   -0.09 KCAL/MOL
REMARK 922        TOTAL FREE ENERGY PREDICTED BY IDOCK:   -1.74 KCAL/MOL
REMARK 923 INTER-LIGAND FREE ENERGY PREDICTED BY IDOCK:   -2.32 KCAL/MOL
REMARK 924 INTRA-LIGAND FREE ENERGY PREDICTED BY IDOCK:    0.58 KCAL/MOL
REMARK 927      BINDING AFFINITY PREDICTED BY RF-SCORE:    0.00 PKD
ROOT
HETATM    1  C   UNL     1      -8.528   9.234  69.402  1.00  0.00    -0.137 C  
HETATM    2  C   UNL     1      -9.909   9.629  68.869  1.00  0.00    -0.174 C  
ENDROOT
BRANCH   2   3
HETATM    3  C   UNL     1     -10.899   9.834  70.028  1.00  0.00    -0.278 C  
BRANCH   3   4
HETATM    4  N   UNL     1     -11.294  11.223  70.182  1.00  0.00    -0.228 NA 
HETATM    5  C   UNL     1     -12.421  11.685  70.789  1.00  0.00    -0.330 A  
HETATM    6  N   UNL     1     -10.519  12.200  69.679  1.00  0.00     0.460 NA 
HETATM    7  C   UNL     1     -11.173  13.339  69.966  1.00  0.00     0.214 A  
HETATM    8  C   UNL     1     -12.367  13.053  70.684  1.00  0.00    -0.391 A  
BRANCH   7   9
HETATM    9  C   UNL     1     -10.659  14.646  69.537  1.00  0.00    -0.166 A  
HETATM   10  C   UNL     1     -11.488  15.539  68.840  1.00  0.00    -0.362 A  
HETATM   11  C   UNL     1      -9.345  15.042  69.826  1.00  0.00     0.065 A  
HETATM   12  N   UNL     1      -8.756  19.516  68.122  1.00  0.00    -0.318 NA 
HETATM   13  C   UNL     1      -8.878  16.303  69.439  1.00  0.00    -0.056 A  
HETATM   14 CL   UNL     1     -12.118  17.842  67.612  1.00  0.00     2.263 Cl 
HETATM   15  C   UNL     1      -9.715  17.191  68.756  1.00  0.00    -0.277 A  
HETATM   16  C   UNL     1      -9.204  18.481  68.395  1.00  0.00    -0.324 C  
HETATM   17  C   UNL     1     -11.023  16.802  68.454  1.00  0.00    -0.325 A  
ENDBRANCH   7   9
ENDBRANCH   3   4
ENDBRANCH   2   3
BRANCH   2  18
HETATM   18  N   UNL     1      -9.800  10.784  67.983  1.00  0.00    -0.162 N  
HETATM   19  O   UNL     1     -11.905  10.640  67.086  1.00  0.00    -0.082 OA 
HETATM   20  H   UNL     1      -8.924  11.305  67.975  1.00  0.00     0.000 HD 
HETATM   21  C   UNL     1     -10.818  11.205  67.159  1.00  0.00    -0.273 C  
BRANCH  21  22
HETATM   22  C   UNL     1     -10.491  12.383  66.349  1.00  0.00    -0.243 A  
HETATM   23  N   UNL     1      -9.241  12.859  66.188  1.00  0.00    -0.453 NA 
HETATM   24  H   UNL     1      -8.371  12.488  66.571  1.00  0.00     0.000 HD 
HETATM   25  C   UNL     1     -11.434  13.170  65.648  1.00  0.00    -0.351 A  
HETATM   26  N   UNL     1      -9.410  13.941  65.401  1.00  0.00     0.277 NA 
HETATM   27  C   UNL     1     -10.714  14.191  65.074  1.00  0.00    -0.416 A  
BRANCH  27  28
HETATM   28  C   UNL     1     -11.131  15.343  64.236  1.00  0.00     0.048 C  
HETATM   29  C   UNL     1     -12.644  15.424  64.067  1.00  0.00     0.388 C  
HETATM   30  O   UNL     1     -10.649  16.514  64.883  1.00  0.00    -0.689 OA 
HETATM   31  H   UNL     1     -10.916  17.251  64.347  1.00  0.00     0.000 HD 
ENDBRANCH  27  28
ENDBRANCH  21  22
ENDBRANCH   2  18
TORSDOF 6
ENDMDL
MODEL      257
REMARK 921   NORMALIZED FREE ENERGY PREDICTED BY IDOCK:   -0.06 KCAL/MOL
REMARK 922        TOTAL FREE ENERGY PREDICTED BY IDOCK:   -1.70 KCAL/MOL
REMARK 923 INTER-LIGAND FREE ENERGY PREDICTED BY IDOCK:   -1.32 KCAL/MOL
REMARK 924 INTRA-LIGAND FREE ENERGY PREDICTED BY IDOCK:   -0.38 KCAL/MOL
REMARK 927      BINDING AFFINITY PREDICTED BY RF-SCORE:    0.00 PKD
ROOT
HETATM    1  C   UNL     1     -12.398   6.133  69.425  1.00  0.00     2.562 C  
HETATM    2  C   UNL     1     -11.021   6.092  68.753  1.00  0.00    -0.348 C  
ENDROOT
BRANCH   2   3
HETATM    3  C   UNL     1     -11.061   6.813  67.395  1.00  0.00    -0.295 C  
BRANCH   3   4
HETATM    4  N   UNL     1      -9.899   7.659  67.182  1.00  0.00    -0.183 NA 
HETATM    5  C   UNL     1      -8.707   7.283  66.644  1.00  0.00    -0.132 A  
HETATM    6  N   UNL     1      -9.934   8.952  67.551  1.00  0.00    -0.188 NA 
HETATM    7  C   UNL     1      -8.715   9.430  67.245  1.00  0.00    -0.128 A  
HETATM    8  C   UNL     1      -7.921   8.409  66.652  1.00  0.00    -0.097 A  
BRANCH   7   9
HETATM    9  C   UNL     1      -8.341  10.819  67.541  1.00  0.00    -0.115 A  
HETATM   10  C   UNL     1      -8.835  11.868  66.750  1.00  0.00    -0.193 A  
HETATM   11  C   UNL     1      -7.506  11.133  68.622  1.00  0.00    -0.119 A  
HETATM   12  N   UNL     1      -7.058  15.934  68.778  1.00  0.00    -0.130 NA 
HETATM   13  C   UNL     1      -7.183  12.463  68.911  1.00  0.00    -0.061 A  
HETATM   14 CL   UNL     1      -9.180  14.429  66.021  1.00  0.00    -0.162 Cl 
HETATM   15  C   UNL     1      -7.690  13.504  68.126  1.00  0.00    -0.139 A  
HETATM   16  C   UNL     1      -7.351  14.855  68.468  1.00  0.00    -0.119 C  
HETATM   17  C   UNL     1      -8.516  13.200  67.040  1.00  0.00    -0.132 A  
ENDBRANCH   7   9
ENDBRANCH   3   4
ENDBRANCH   2   3
BRANCH   2  18
HETATM   18  N   UNL     1      -9.999   6.606  69.658  1.00  0.00    -0.173 N  
HETATM   19  O   UNL     1     -11.415   7.215  71.354  1.00  0.00    -0.254 OA 
HETATM   20  H   UNL     1      -9.026   6.579  69.353  1.00  0.00     0.000 HD 
HETATM   21  C   UNL     1     -10.278   7.126  70.901  1.00  0.00    -0.197 C  
BRANCH  21  22
HETATM   22  C   UNL     1      -9.100   7.590  71.640  1.00  0.00    -0.134 A  
HETATM   23  N   UNL     1      -9.018   7.607  72.985  1.00  0.00    -0.156 NA 
HETATM   24  H   UNL     1      -9.717   7.303  73.663  1.00  0.00     0.000 HD 
HETATM   25  C   UNL     1      -7.916   8.086  71.047  1.00  0.00    -0.092 A  
HETATM   26  N   UNL     1      -7.793   8.120  73.223  1.00  0.00    -0.178 NA 
HETATM   27  C   UNL     1      -7.102   8.455  72.092  1.00  0.00    -0.090 A  
BRANCH  27  28
HETATM   28  C   UNL     1      -5.745   9.055  72.121  1.00  0.00    -0.072 C  
HETATM   29  C   UNL     1      -5.193   9.317  70.724  1.00  0.00    -0.029 C  
HETATM   30  O   UNL     1      -5.855  10.278  72.838  1.00  0.00     0.028 OA 
HETATM   31  H   UNL     1      -4.987  10.662  72.857  1.00  0.00     0.000 HD 
ENDBRANCH  27  28
ENDBRANCH  21  22
ENDBRANCH   2  18
TORSDOF 6
ENDMDL
MODEL      258
REMARK 921   NORMALIZED FREE ENERGY PREDICTED BY IDOCK:    0.44 KCAL/MOL
REMARK 922        TOTAL FREE ENERGY PREDICTED BY IDOCK:   -1.03 KCAL/MOL
REMARK 923 INTER-LIGAND FREE ENERGY PREDICTED BY IDOCK:   -3.06 KCAL/MOL
REMARK 924 INTRA-LIGAND FREE ENERGY PREDICTED BY IDOCK:    2.03 KCAL/MOL
REMARK 927      BINDING AFFINITY PREDICTED BY RF-SCORE:    0.00 PKD
ROOT
HETATM    1  C   UNL     1     -13.639   7.262  71.003  1.00  0.00    -0.107 C  
HETATM    2  C   UNL     1     -12.216   6.990  70.505  1.00  0.00    -0.172 C  
ENDROOT
BRANCH   2   3
HETATM    3  C   UNL     1     -11.575   8.280  69.965  1.00  0.00     0.197 C  
BRANCH   3   4
HETATM    4  N   UNL     1     -10.795   8.050  68.762  1.00  0.00    -0.028 NA 
HETATM    5  C   UNL     1     -10.626   8.915  67.724  1.00  0.00    -0.202 A  
HETATM    6  N   UNL     1     -10.166   6.875  68.583  1.00  0.00    -0.166 NA 
HETATM    7  C   UNL     1      -9.572   6.981  67.382  1.00  0.00    -0.135 A  
HETATM    8  C   UNL     1      -9.824   8.264  66.821  1.00  0.00    -0.333 A  
BRANCH   7   9
HETATM    9  C   UNL     1      -8.808   5.868  66.804  1.00  0.00    -0.118 A  
HETATM   10  C   UNL     1      -8.600   4.693  67.544  1.00  0.00    -0.103 A  
HETATM   11  C   UNL     1      -8.291   5.938  65.504  1.00  0.00    -0.145 A  
HETATM   12  N   UNL     1      -6.126   1.731  64.560  1.00  0.00    -0.017 NA 
HETATM   13  C   UNL     1      -7.593   4.857  64.954  1.00  0.00    -0.077 A  
HETATM   14 CL   UNL     1      -7.706   2.198  67.973  1.00  0.00    -0.055 Cl 
HETATM   15  C   UNL     1      -7.401   3.686  65.693  1.00  0.00    -0.076 A  
HETATM   16  C   UNL     1      -6.697   2.594  65.086  1.00  0.00    -0.039 C  
HETATM   17  C   UNL     1      -7.904   3.609  66.995  1.00  0.00    -0.080 A  
ENDBRANCH   7   9
ENDBRANCH   3   4
ENDBRANCH   2   3
BRANCH   2  18
HETATM   18  N   UNL     1     -11.429   6.338  71.547  1.00  0.00    -0.297 N  
HETATM   19  O   UNL     1      -9.595   5.870  70.254  1.00  0.00    -0.158 OA 
HETATM   20  H   UNL     1     -11.836   6.255  72.478  1.00  0.00     0.000 HD 
HETATM   21  C   UNL     1     -10.167   5.831  71.339  1.00  0.00    -0.216 C  
BRANCH  21  22
HETATM   22  C   UNL     1      -9.561   5.213  72.522  1.00  0.00    -0.149 A  
HETATM   23  N   UNL     1     -10.132   5.212  73.743  1.00  0.00    -0.181 NA 
HETATM   24  H   UNL     1     -11.032   5.606  74.018  1.00  0.00     0.000 HD 
HETATM   25  C   UNL     1      -8.309   4.556  72.541  1.00  0.00    -0.110 A  
HETATM   26  N   UNL     1      -9.234   4.567  74.515  1.00  0.00    -0.109 NA 
HETATM   27  C   UNL     1      -8.105   4.180  73.847  1.00  0.00    -0.092 A  
BRANCH  27  28
HETATM   28  C   UNL     1      -6.978   3.475  74.507  1.00  0.00    -0.050 C  
HETATM   29  C   UNL     1      -6.588   2.191  73.780  1.00  0.00    -0.021 C  
HETATM   30  O   UNL     1      -5.881   4.380  74.518  1.00  0.00    -0.019 OA 
HETATM   31  H   UNL     1      -5.160   3.928  74.940  1.00  0.00     0.000 HD 
ENDBRANCH  27  28
ENDBRANCH  21  22
ENDBRANCH   2  18
TORSDOF 6
ENDMDL
MODEL      259
REMARK 921   NORMALIZED FREE ENERGY PREDICTED BY IDOCK:    1.37 KCAL/MOL
REMARK 922        TOTAL FREE ENERGY PREDICTED BY IDOCK:    0.23 KCAL/MOL
REMARK 923 INTER-LIGAND FREE ENERGY PREDICTED BY IDOCK:    1.36 KCAL/MOL
REMARK 924 INTRA-LIGAND FREE ENERGY PREDICTED BY IDOCK:   -1.13 KCAL/MOL
REMARK 927      BINDING AFFINITY PREDICTED BY RF-SCORE:    0.00 PKD
ROOT
HETATM    1  C   UNL     1      -6.686  15.366  72.841  1.00  0.00     3.839 C  
HETATM    2  C   UNL     1      -6.393  15.386  71.337  1.00  0.00     1.007 C  
ENDROOT
BRANCH   2   3
HETATM    3  C   UNL     1      -5.127  14.570  71.022  1.00  0.00    -0.126 C  
BRANCH   3   4
HETATM    4  N   UNL     1      -5.407  13.156  70.848  1.00  0.00    -0.157 NA 
HETATM    5  C   UNL     1      -5.325  12.188  71.801  1.00  0.00     0.205 A  
HETATM    6  N   UNL     1      -5.772  12.687  69.642  1.00  0.00    -0.096 NA 
HETATM    7  C   UNL     1      -5.927  11.364  69.819  1.00  0.00    -0.112 A  
HETATM    8  C   UNL     1      -5.672  11.017  71.175  1.00  0.00     0.082 A  
BRANCH   7   9
HETATM    9  C   UNL     1      -6.287  10.479  68.704  1.00  0.00    -0.047 A  
HETATM   10  C   UNL     1      -7.562   9.894  68.648  1.00  0.00    -0.080 A  
HETATM   11  C   UNL     1      -5.384  10.214  67.665  1.00  0.00    -0.037 A  
HETATM   12  N   UNL     1      -7.614   7.354  64.483  1.00  0.00    -0.102 NA 
HETATM   13  C   UNL     1      -5.752   9.394  66.592  1.00  0.00    -0.054 A  
HETATM   14 CL   UNL     1      -9.526   8.407  67.582  1.00  0.00    -0.167 Cl 
HETATM   15  C   UNL     1      -7.028   8.825  66.538  1.00  0.00    -0.079 A  
HETATM   16  C   UNL     1      -7.372   8.007  65.412  1.00  0.00    -0.069 C  
HETATM   17  C   UNL     1      -7.932   9.075  67.574  1.00  0.00    -0.101 A  
ENDBRANCH   7   9
ENDBRANCH   3   4
ENDBRANCH   2   3
BRANCH   2  18
HETATM   18  N   UNL     1      -7.567  14.956  70.585  1.00  0.00     0.259 N  
HETATM   19  O   UNL     1      -6.967  15.895  68.582  1.00  0.00    -0.118 OA 
HETATM   20  H   UNL     1      -8.282  14.416  71.072  1.00  0.00     0.000 HD 
HETATM   21  C   UNL     1      -7.760  15.242  69.253  1.00  0.00    -0.214 C  
BRANCH  21  22
HETATM   22  C   UNL     1      -9.012  14.719  68.698  1.00  0.00    -0.185 A  
HETATM   23  N   UNL     1      -9.901  13.994  69.405  1.00  0.00    -0.332 NA 
HETATM   24  H   UNL     1      -9.853  13.722  70.387  1.00  0.00     0.000 HD 
HETATM   25  C   UNL     1      -9.441  14.894  67.362  1.00  0.00    -0.206 A  
HETATM   26  N   UNL     1     -10.869  13.713  68.509  1.00  0.00    -0.250 NA 
HETATM   27  C   UNL     1     -10.625  14.204  67.256  1.00  0.00    -0.277 A  
BRANCH  27  28
HETATM   28  C   UNL     1     -11.547  13.994  66.113  1.00  0.00    -0.367 C  
HETATM   29  C   UNL     1     -11.614  12.533  65.678  1.00  0.00    -0.435 C  
HETATM   30  O   UNL     1     -12.831  14.434  66.537  1.00  0.00    -0.420 OA 
HETATM   31  H   UNL     1     -13.420  14.300  65.805  1.00  0.00     0.000 HD 
ENDBRANCH  27  28
ENDBRANCH  21  22
ENDBRANCH   2  18
TORSDOF 6
ENDMDL
MODEL      260
REMARK 921   NORMALIZED FREE ENERGY PREDICTED BY IDOCK:    2.42 KCAL/MOL
REMARK 922        TOTAL FREE ENERGY PREDICTED BY IDOCK:    1.64 KCAL/MOL
REMARK 923 INTER-LIGAND FREE ENERGY PREDICTED BY IDOCK:    1.03 KCAL/MOL
REMARK 924 INTRA-LIGAND FREE ENERGY PREDICTED BY IDOCK:    0.61 KCAL/MOL
REMARK 927      BINDING AFFINITY PREDICTED BY RF-SCORE:    0.00 PKD
ROOT
HETATM    1  C   UNL     1     -14.079   7.172  70.884  1.00  0.00     0.259 C  
HETATM    2  C   UNL     1     -12.758   6.871  70.169  1.00  0.00     0.792 C  
ENDROOT
BRANCH   2   3
HETATM    3  C   UNL     1     -12.206   8.139  69.495  1.00  0.00     1.862 C  
BRANCH   3   4
HETATM    4  N   UNL     1     -11.453   7.842  68.289  1.00  0.00     0.891 NA 
HETATM    5  C   UNL     1     -11.534   6.709  67.538  1.00  0.00     0.257 A  
HETATM    6  N   UNL     1     -10.555   8.728  67.823  1.00  0.00    -0.224 NA 
HETATM    7  C   UNL     1     -10.030   8.144  66.732  1.00  0.00    -0.279 A  
HETATM    8  C   UNL     1     -10.639   6.878  66.511  1.00  0.00    -0.034 A  
BRANCH   7   9
HETATM    9  C   UNL     1      -8.964   8.791  65.956  1.00  0.00    -0.235 A  
HETATM   10  C   UNL     1      -8.304   8.087  64.937  1.00  0.00    -0.108 A  
HETATM   11  C   UNL     1      -8.596  10.122  66.194  1.00  0.00    -0.147 A  
HETATM   12  N   UNL     1      -5.156  11.281  63.017  1.00  0.00    -0.157 NA 
HETATM   13  C   UNL     1      -7.601  10.736  65.425  1.00  0.00     0.040 A  
HETATM   14 CL   UNL     1      -6.559   7.761  62.923  1.00  0.00    -0.074 Cl 
HETATM   15  C   UNL     1      -6.957  10.031  64.404  1.00  0.00    -0.129 A  
HETATM   16  C   UNL     1      -5.956  10.703  63.626  1.00  0.00     0.014 C  
HETATM   17  C   UNL     1      -7.310   8.700  64.165  1.00  0.00    -0.102 A  
ENDBRANCH   7   9
ENDBRANCH   3   4
ENDBRANCH   2   3
BRANCH   2  18
HETATM   18  N   UNL     1     -11.816   6.240  71.088  1.00  0.00    -0.252 N  
HETATM   19  O   UNL     1     -10.400   5.399  69.493  1.00  0.00    -0.244 OA 
HETATM   20  H   UNL     1     -11.995   6.313  72.089  1.00  0.00     0.000 HD 
HETATM   21  C   UNL     1     -10.698   5.553  70.674  1.00  0.00    -0.233 C  
BRANCH  21  22
HETATM   22  C   UNL     1      -9.893   4.994  71.764  1.00  0.00    -0.177 A  
HETATM   23  N   UNL     1      -9.434   5.718  72.804  1.00  0.00    -0.145 NA 
HETATM   24  H   UNL     1      -9.576   6.710  72.993  1.00  0.00     0.000 HD 
HETATM   25  C   UNL     1      -9.490   3.642  71.863  1.00  0.00    -0.203 A  
HETATM   26  N   UNL     1      -8.740   4.822  73.535  1.00  0.00    -0.104 NA 
HETATM   27  C   UNL     1      -8.716   3.565  72.996  1.00  0.00    -0.093 A  
BRANCH  27  28
HETATM   28  C   UNL     1      -7.995   2.430  73.623  1.00  0.00    -0.055 C  
HETATM   29  C   UNL     1      -6.750   2.878  74.382  1.00  0.00    -0.031 C  
HETATM   30  O   UNL     1      -8.911   1.808  74.516  1.00  0.00    -0.059 OA 
HETATM   31  H   UNL     1      -8.449   1.082  74.918  1.00  0.00     0.000 HD 
ENDBRANCH  27  28
ENDBRANCH  21  22
ENDBRANCH   2  18
TORSDOF 6
ENDMDL
MODEL      261
REMARK 921   NORMALIZED FREE ENERGY PREDICTED BY IDOCK:    2.52 KCAL/MOL
REMARK 922        TOTAL FREE ENERGY PREDICTED BY IDOCK:    1.79 KCAL/MOL
REMARK 923 INTER-LIGAND FREE ENERGY PREDICTED BY IDOCK:    1.22 KCAL/MOL
REMARK 924 INTRA-LIGAND FREE ENERGY PREDICTED BY IDOCK:    0.57 KCAL/MOL
REMARK 927      BINDING AFFINITY PREDICTED BY RF-SCORE:    0.00 PKD
ROOT
HETATM    1  C   UNL     1      -8.985   2.129  70.813  1.00  0.00    -0.147 C  
HETATM    2  C   UNL     1     -10.284   2.729  70.264  1.00  0.00     1.071 C  
ENDROOT
BRANCH   2   3
HETATM    3  C   UNL     1     -10.720   3.939  71.106  1.00  0.00     1.053 C  
BRANCH   3   4
HETATM    4  N   UNL     1     -10.497   5.201  70.422  1.00  0.00    -0.252 NA 
HETATM    5  C   UNL     1     -11.181   5.673  69.344  1.00  0.00     0.169 A  
HETATM    6  N   UNL     1      -9.517   6.023  70.833  1.00  0.00    -0.167 NA 
HETATM    7  C   UNL     1      -9.564   7.066  69.986  1.00  0.00    -0.164 A  
HETATM    8  C   UNL     1     -10.616   6.888  69.046  1.00  0.00    -0.240 A  
BRANCH   7   9
HETATM    9  C   UNL     1      -8.606   8.176  70.083  1.00  0.00    -0.129 A  
HETATM   10  C   UNL     1      -7.618   8.345  69.101  1.00  0.00    -0.087 A  
HETATM   11  C   UNL     1      -8.667   9.098  71.137  1.00  0.00    -0.210 A  
HETATM   12  N   UNL     1      -5.207  12.380  70.408  1.00  0.00    -0.103 NA 
HETATM   13  C   UNL     1      -7.768  10.169  71.200  1.00  0.00     1.484 A  
HETATM   14 CL   UNL     1      -5.543   9.556  67.902  1.00  0.00    -0.041 Cl 
HETATM   15  C   UNL     1      -6.794  10.338  70.211  1.00  0.00    -0.145 A  
HETATM   16  C   UNL     1      -5.905  11.460  70.302  1.00  0.00    -0.154 C  
HETATM   17  C   UNL     1      -6.720   9.418  69.162  1.00  0.00    -0.050 A  
ENDBRANCH   7   9
ENDBRANCH   3   4
ENDBRANCH   2   3
BRANCH   2  18
HETATM   18  N   UNL     1     -10.145   3.026  68.842  1.00  0.00     0.655 N  
HETATM   19  O   UNL     1      -7.854   3.090  68.799  1.00  0.00    -0.056 OA 
HETATM   20  H   UNL     1     -10.992   3.127  68.284  1.00  0.00     0.000 HD 
HETATM   21  C   UNL     1      -8.929   3.179  68.215  1.00  0.00    -0.140 C  
BRANCH  21  22
HETATM   22  C   UNL     1      -9.022   3.480  66.783  1.00  0.00    -0.150 A  
HETATM   23  N   UNL     1     -10.049   4.148  66.222  1.00  0.00    -0.399 NA 
HETATM   24  H   UNL     1     -10.872   4.540  66.681  1.00  0.00     0.000 HD 
HETATM   25  C   UNL     1      -8.063   3.105  65.814  1.00  0.00    -0.086 A  
HETATM   26  N   UNL     1      -9.733   4.177  64.911  1.00  0.00    -0.183 NA 
HETATM   27  C   UNL     1      -8.564   3.535  64.608  1.00  0.00    -0.101 A  
BRANCH  27  28
HETATM   28  C   UNL     1      -8.038   3.427  63.225  1.00  0.00    -0.080 C  
HETATM   29  C   UNL     1      -7.414   2.063  62.944  1.00  0.00    -0.045 C  
HETATM   30  O   UNL     1      -9.138   3.648  62.351  1.00  0.00    -0.088 OA 
HETATM   31  H   UNL     1      -8.801   3.578  61.466  1.00  0.00     0.000 HD 
ENDBRANCH  27  28
ENDBRANCH  21  22
ENDBRANCH   2  18
TORSDOF 6
ENDMDL
MODEL      262
REMARK 921   NORMALIZED FREE ENERGY PREDICTED BY IDOCK:    4.71 KCAL/MOL
REMARK 922        TOTAL FREE ENERGY PREDICTED BY IDOCK:    4.74 KCAL/MOL
REMARK 923 INTER-LIGAND FREE ENERGY PREDICTED BY IDOCK:    3.68 KCAL/MOL
REMARK 924 INTRA-LIGAND FREE ENERGY PREDICTED BY IDOCK:    1.06 KCAL/MOL
REMARK 927      BINDING AFFINITY PREDICTED BY RF-SCORE:    0.00 PKD
ROOT
HETATM    1  C   UNL     1      -8.999   2.127  70.811  1.00  0.00    -0.147 C  
HETATM    2  C   UNL     1     -10.326   2.693  70.294  1.00  0.00     1.481 C  
ENDROOT
BRANCH   2   3
HETATM    3  C   UNL     1     -10.781   3.882  71.158  1.00  0.00     1.053 C  
BRANCH   3   4
HETATM    4  N   UNL     1     -10.608   5.156  70.483  1.00  0.00    -0.207 NA 
HETATM    5  C   UNL     1     -11.450   6.224  70.534  1.00  0.00    -0.338 A  
HETATM    6  N   UNL     1      -9.536   5.359  69.697  1.00  0.00    -0.137 NA 
HETATM    7  C   UNL     1      -9.692   6.604  69.216  1.00  0.00    -0.146 A  
HETATM    8  C   UNL     1     -10.879   7.188  69.740  1.00  0.00    -0.261 A  
BRANCH   7   9
HETATM    9  C   UNL     1      -8.732   7.185  68.269  1.00  0.00    -0.128 A  
HETATM   10  C   UNL     1      -9.096   7.393  66.929  1.00  0.00    -0.164 A  
HETATM   11  C   UNL     1      -7.446   7.565  68.679  1.00  0.00    -0.101 A  
HETATM   12  N   UNL     1      -5.202   9.484  64.863  1.00  0.00    -0.044 NA 
HETATM   13  C   UNL     1      -6.552   8.147  67.773  1.00  0.00    -0.057 A  
HETATM   14 CL   UNL     1      -8.740   8.207  64.396  1.00  0.00     0.119 Cl 
HETATM   15  C   UNL     1      -6.927   8.362  66.443  1.00  0.00    -0.074 A  
HETATM   16  C   UNL     1      -5.987   8.979  65.553  1.00  0.00    -0.055 C  
HETATM   17  C   UNL     1      -8.203   7.978  66.023  1.00  0.00    -0.120 A  
ENDBRANCH   7   9
ENDBRANCH   3   4
ENDBRANCH   2   3
BRANCH   2  18
HETATM   18  N   UNL     1     -10.225   3.008  68.873  1.00  0.00     0.980 N  
HETATM   19  O   UNL     1      -7.938   3.143  68.785  1.00  0.00    -0.057 OA 
HETATM   20  H   UNL     1     -11.086   3.088  68.333  1.00  0.00     0.000 HD 
HETATM   21  C   UNL     1      -9.027   3.204  68.223  1.00  0.00    -0.140 C  
BRANCH  21  22
HETATM   22  C   UNL     1      -9.158   3.517  66.797  1.00  0.00    -0.164 A  
HETATM   23  N   UNL     1      -8.177   3.323  65.894  1.00  0.00    -0.093 NA 
HETATM   24  H   UNL     1      -7.246   2.937  66.049  1.00  0.00     0.000 HD 
HETATM   25  C   UNL     1     -10.312   4.066  66.191  1.00  0.00     0.206 A  
HETATM   26  N   UNL     1      -8.717   3.760  64.738  1.00  0.00    -0.112 NA 
HETATM   27  C   UNL     1      -9.988   4.247  64.868  1.00  0.00    -0.168 A  
BRANCH  27  28
HETATM   28  C   UNL     1     -10.762   4.799  63.728  1.00  0.00     0.965 C  
HETATM   29  C   UNL     1     -11.005   3.765  62.633  1.00  0.00    -0.047 C  
HETATM   30  O   UNL     1     -12.004   5.247  64.258  1.00  0.00     1.640 OA 
HETATM   31  H   UNL     1     -12.499   5.599  63.529  1.00  0.00     0.000 HD 
ENDBRANCH  27  28
ENDBRANCH  21  22
ENDBRANCH   2  18
TORSDOF 6
ENDMDL
MODEL      263
REMARK 921   NORMALIZED FREE ENERGY PREDICTED BY IDOCK:   11.45 KCAL/MOL
REMARK 922        TOTAL FREE ENERGY PREDICTED BY IDOCK:   13.85 KCAL/MOL
REMARK 923 INTER-LIGAND FREE ENERGY PREDICTED BY IDOCK:   13.97 KCAL/MOL
REMARK 924 INTRA-LIGAND FREE ENERGY PREDICTED BY IDOCK:   -0.12 KCAL/MOL
REMARK 927      BINDING AFFINITY PREDICTED BY RF-SCORE:    0.00 PKD
ROOT
HETATM    1  C   UNL     1     -11.106  12.050  64.621  1.00  0.00    -0.375 C  
HETATM    2  C   UNL     1     -12.030  12.323  65.812  1.00  0.00    -0.293 C  
ENDROOT
BRANCH   2   3
HETATM    3  C   UNL     1     -12.025  11.133  66.786  1.00  0.00     1.123 C  
BRANCH   3   4
HETATM    4  N   UNL     1     -10.772  11.016  67.511  1.00  0.00    -0.227 NA 
HETATM    5  C   UNL     1      -9.983   9.910  67.598  1.00  0.00    -0.171 A  
HETATM    6  N   UNL     1     -10.296  12.065  68.204  1.00  0.00    -0.192 NA 
HETATM    7  C   UNL     1      -9.159  11.621  68.766  1.00  0.00    -0.021 A  
HETATM    8  C   UNL     1      -8.920  10.270  68.388  1.00  0.00    -0.132 A  
BRANCH   7   9
HETATM    9  C   UNL     1      -8.356  12.476  69.649  1.00  0.00     1.750 A  
HETATM   10  C   UNL     1      -7.600  11.909  70.688  1.00  0.00     4.012 A  
HETATM   11  C   UNL     1      -8.306  13.865  69.469  1.00  0.00     0.774 A  
HETATM   12  N   UNL     1      -5.286  15.663  72.773  1.00  0.00     0.438 NA 
HETATM   13  C   UNL     1      -7.512  14.664  70.298  1.00  0.00     0.503 A  
HETATM   14 CL   UNL     1      -5.896  11.922  72.762  1.00  0.00     1.833 Cl 
HETATM   15  C   UNL     1      -6.752  14.090  71.322  1.00  0.00     1.174 A  
HETATM   16  C   UNL     1      -5.936  14.942  72.137  1.00  0.00     0.604 C  
HETATM   17  C   UNL     1      -6.803  12.707  71.517  1.00  0.00     4.548 A  
ENDBRANCH   7   9
ENDBRANCH   3   4
ENDBRANCH   2   3
BRANCH   2  18
HETATM   18  N   UNL     1     -11.687  13.594  66.440  1.00  0.00    -0.354 N  
HETATM   19  O   UNL     1     -10.931  14.641  64.546  1.00  0.00    -0.339 OA 
HETATM   20  H   UNL     1     -11.841  13.694  67.443  1.00  0.00     0.000 HD 
HETATM   21  C   UNL     1     -11.165  14.665  65.750  1.00  0.00    -0.336 C  
BRANCH  21  22
HETATM   22  C   UNL     1     -10.888  15.841  66.580  1.00  0.00    -0.230 A  
HETATM   23  N   UNL     1     -11.241  17.097  66.243  1.00  0.00     0.462 NA 
HETATM   24  H   UNL     1     -11.742  17.408  65.410  1.00  0.00     0.000 HD 
HETATM   25  C   UNL     1     -10.212  15.814  67.822  1.00  0.00    -0.251 A  
HETATM   26  N   UNL     1     -10.777  17.844  67.265  1.00  0.00    -0.321 NA 
HETATM   27  C   UNL     1     -10.121  17.125  68.226  1.00  0.00    -0.314 A  
BRANCH  27  28
HETATM   28  C   UNL     1      -9.512  17.748  69.427  1.00  0.00     0.277 C  
HETATM   29  C   UNL     1      -7.988  17.743  69.377  1.00  0.00     0.350 C  
HETATM   30  O   UNL     1      -9.993  19.086  69.480  1.00  0.00    -0.325 OA 
HETATM   31  H   UNL     1      -9.602  19.485  70.249  1.00  0.00     0.000 HD 
ENDBRANCH  27  28
ENDBRANCH  21  22
ENDBRANCH   2  18
TORSDOF 6
ENDMDL
MODEL      264
REMARK 921   NORMALIZED FREE ENERGY PREDICTED BY IDOCK:   13.05 KCAL/MOL
REMARK 922        TOTAL FREE ENERGY PREDICTED BY IDOCK:   16.01 KCAL/MOL
REMARK 923 INTER-LIGAND FREE ENERGY PREDICTED BY IDOCK:   16.17 KCAL/MOL
REMARK 924 INTRA-LIGAND FREE ENERGY PREDICTED BY IDOCK:   -0.16 KCAL/MOL
REMARK 927      BINDING AFFINITY PREDICTED BY RF-SCORE:    0.00 PKD
ROOT
HETATM    1  C   UNL     1     -12.958   5.372  68.839  1.00  0.00    13.003 C  
HETATM    2  C   UNL     1     -11.488   5.719  68.583  1.00  0.00     0.806 C  
ENDROOT
BRANCH   2   3
HETATM    3  C   UNL     1     -11.363   6.737  67.436  1.00  0.00    -0.001 C  
BRANCH   3   4
HETATM    4  N   UNL     1     -10.098   7.448  67.461  1.00  0.00    -0.174 NA 
HETATM    5  C   UNL     1      -9.035   7.246  66.634  1.00  0.00    -0.150 A  
HETATM    6  N   UNL     1      -9.882   8.403  68.383  1.00  0.00    -0.171 NA 
HETATM    7  C   UNL     1      -8.630   8.832  68.148  1.00  0.00    -0.134 A  
HETATM    8  C   UNL     1      -8.073   8.138  67.038  1.00  0.00    -0.108 A  
BRANCH   7   9
HETATM    9  C   UNL     1      -8.003   9.860  68.988  1.00  0.00    -0.101 A  
HETATM   10  C   UNL     1      -7.614  11.089  68.430  1.00  0.00    -0.108 A  
HETATM   11  C   UNL     1      -7.796   9.654  70.359  1.00  0.00    -0.181 A  
HETATM   12  N   UNL     1      -5.843  13.678  72.167  1.00  0.00    -0.358 NA 
HETATM   13  C   UNL     1      -7.227  10.655  71.153  1.00  0.00     2.063 A  
HETATM   14 CL   UNL     1      -6.609  13.578  68.456  1.00  0.00    -0.080 Cl 
HETATM   15  C   UNL     1      -6.854  11.881  70.592  1.00  0.00     1.733 A  
HETATM   16  C   UNL     1      -6.291  12.888  71.445  1.00  0.00     1.780 C  
HETATM   17  C   UNL     1      -7.046  12.092  69.224  1.00  0.00     0.041 A  
ENDBRANCH   7   9
ENDBRANCH   3   4
ENDBRANCH   2   3
BRANCH   2  18
HETATM   18  N   UNL     1     -10.845   6.151  69.820  1.00  0.00    -0.316 N  
HETATM   19  O   UNL     1     -12.758   6.356  71.066  1.00  0.00     0.012 OA 
HETATM   20  H   UNL     1      -9.830   6.250  69.827  1.00  0.00     0.000 HD 
HETATM   21  C   UNL     1     -11.537   6.432  70.976  1.00  0.00    -0.325 C  
BRANCH  21  22
HETATM   22  C   UNL     1     -10.693   6.855  72.097  1.00  0.00    -0.219 A  
HETATM   23  N   UNL     1     -10.905   7.976  72.815  1.00  0.00    -0.368 NA 
HETATM   24  H   UNL     1     -11.653   8.661  72.706  1.00  0.00     0.000 HD 
HETATM   25  C   UNL     1      -9.553   6.158  72.560  1.00  0.00    -0.149 A  
HETATM   26  N   UNL     1      -9.896   7.978  73.710  1.00  0.00     0.120 NA 
HETATM   27  C   UNL     1      -9.036   6.923  73.579  1.00  0.00    -0.141 A  
BRANCH  27  28
HETATM   28  C   UNL     1      -7.845   6.739  74.445  1.00  0.00    -0.112 C  
HETATM   29  C   UNL     1      -7.062   5.476  74.100  1.00  0.00    -0.082 C  
HETATM   30  O   UNL     1      -7.024   7.886  74.259  1.00  0.00    -0.112 OA 
HETATM   31  H   UNL     1      -6.262   7.767  74.813  1.00  0.00     0.000 HD 
ENDBRANCH  27  28
ENDBRANCH  21  22
ENDBRANCH   2  18
TORSDOF 6
ENDMDL
MODEL      265
REMARK 921   NORMALIZED FREE ENERGY PREDICTED BY IDOCK:   13.89 KCAL/MOL
REMARK 922        TOTAL FREE ENERGY PREDICTED BY IDOCK:   17.13 KCAL/MOL
REMARK 923 INTER-LIGAND FREE ENERGY PREDICTED BY IDOCK:   17.20 KCAL/MOL
REMARK 924 INTRA-LIGAND FREE ENERGY PREDICTED BY IDOCK:   -0.06 KCAL/MOL
REMARK 927      BINDING AFFINITY PREDICTED BY RF-SCORE:    0.00 PKD
ROOT
HETATM    1  C   UNL     1      -8.674  19.412  70.195  1.00  0.00     1.281 C  
HETATM    2  C   UNL     1      -9.246  17.998  70.043  1.00  0.00     1.819 C  
ENDROOT
BRANCH   2   3
HETATM    3  C   UNL     1     -10.092  17.622  71.272  1.00  0.00     4.150 C  
BRANCH   3   4
HETATM    4  N   UNL     1     -10.813  16.375  71.087  1.00  0.00     0.304 NA 
HETATM    5  C   UNL     1     -11.795  15.877  71.888  1.00  0.00    -0.506 A  
HETATM    6  N   UNL     1     -10.513  15.573  70.050  1.00  0.00    -0.304 NA 
HETATM    7  C   UNL     1     -11.329  14.514  70.187  1.00  0.00    -0.197 A  
HETATM    8  C   UNL     1     -12.166  14.682  71.325  1.00  0.00    -0.410 A  
BRANCH   7   9
HETATM    9  C   UNL     1     -11.274  13.380  69.255  1.00  0.00    -0.275 A  
HETATM   10  C   UNL     1     -11.949  13.441  68.026  1.00  0.00    -0.357 A  
HETATM   11  C   UNL     1     -10.537  12.226  69.556  1.00  0.00     0.322 A  
HETATM   12  N   UNL     1     -10.902   9.233  65.790  1.00  0.00     1.174 NA 
HETATM   13  C   UNL     1     -10.467  11.166  68.645  1.00  0.00    -0.220 A  
HETATM   14 CL   UNL     1     -12.730  12.549  65.617  1.00  0.00     0.043 Cl 
HETATM   15  C   UNL     1     -11.132  11.240  67.417  1.00  0.00    -0.358 A  
HETATM   16  C   UNL     1     -11.020  10.140  66.504  1.00  0.00     0.133 C  
HETATM   17  C   UNL     1     -11.878  12.382  67.112  1.00  0.00    -0.291 A  
ENDBRANCH   7   9
ENDBRANCH   3   4
ENDBRANCH   2   3
BRANCH   2  18
HETATM   18  N   UNL     1      -9.963  17.873  68.779  1.00  0.00    -0.376 N  
HETATM   19  O   UNL     1      -8.317  18.745  67.443  1.00  0.00    -0.261 OA 
HETATM   20  H   UNL     1     -10.905  17.484  68.795  1.00  0.00     0.000 HD 
HETATM   21  C   UNL     1      -9.435  18.255  67.567  1.00  0.00    -0.266 C  
BRANCH  21  22
HETATM   22  C   UNL     1     -10.331  18.047  66.425  1.00  0.00    -0.379 A  
HETATM   23  N   UNL     1     -10.470  18.924  65.412  1.00  0.00    -0.395 NA 
HETATM   24  H   UNL     1      -9.991  19.815  65.279  1.00  0.00     0.000 HD 
HETATM   25  C   UNL     1     -11.164  16.919  66.245  1.00  0.00     0.559 A  
HETATM   26  N   UNL     1     -11.393  18.347  64.615  1.00  0.00     0.718 NA 
HETATM   27  C   UNL     1     -11.866  17.154  65.087  1.00  0.00     2.190 A  
BRANCH  27  28
HETATM   28  C   UNL     1     -12.901  16.359  64.381  1.00  0.00     2.770 C  
HETATM   29  C   UNL     1     -12.611  16.217  62.890  1.00  0.00     6.401 C  
HETATM   30  O   UNL     1     -12.922  15.077  64.997  1.00  0.00    -0.070 OA 
HETATM   31  H   UNL     1     -13.584  14.568  64.545  1.00  0.00     0.000 HD 
ENDBRANCH  27  28
ENDBRANCH  21  22
ENDBRANCH   2  18
TORSDOF 6
ENDMDL
MODEL      266
REMARK 921   NORMALIZED FREE ENERGY PREDICTED BY IDOCK:   55.16 KCAL/MOL
REMARK 922        TOTAL FREE ENERGY PREDICTED BY IDOCK:   72.89 KCAL/MOL
REMARK 923 INTER-LIGAND FREE ENERGY PREDICTED BY IDOCK:   56.65 KCAL/MOL
REMARK 924 INTRA-LIGAND FREE ENERGY PREDICTED BY IDOCK:   16.24 KCAL/MOL
REMARK 927      BINDING AFFINITY PREDICTED BY RF-SCORE:    0.00 PKD
ROOT
HETATM    1  C   UNL     1      -7.955  19.862  70.582  1.00  0.00     1.459 C  
HETATM    2  C   UNL     1      -8.808  18.604  70.775  1.00  0.00     4.421 C  
ENDROOT
BRANCH   2   3
HETATM    3  C   UNL     1     -10.259  18.980  71.120  1.00  0.00     2.718 C  
BRANCH   3   4
HETATM    4  N   UNL     1     -11.222  18.052  70.554  1.00  0.00     2.475 NA 
HETATM    5  C   UNL     1     -12.573  18.080  70.720  1.00  0.00    12.980 A  
HETATM    6  N   UNL     1     -10.799  17.026  69.795  1.00  0.00    -0.082 NA 
HETATM    7  C   UNL     1     -11.919  16.361  69.461  1.00  0.00     0.299 A  
HETATM    8  C   UNL     1     -13.059  17.010  70.011  1.00  0.00     6.926 A  
BRANCH   7   9
HETATM    9  C   UNL     1     -11.869  15.133  68.656  1.00  0.00    -0.329 A  
HETATM   10  C   UNL     1     -12.629  15.025  67.481  1.00  0.00     1.009 A  
HETATM   11  C   UNL     1     -11.052  14.055  69.025  1.00  0.00    -0.296 A  
HETATM   12  N   UNL     1     -11.518  10.645  65.644  1.00  0.00     0.565 NA 
HETATM   13  C   UNL     1     -10.990  12.903  68.232  1.00  0.00    -0.282 A  
HETATM   14 CL   UNL     1     -13.527  13.835  65.249  1.00  0.00     0.230 Cl 
HETATM   15  C   UNL     1     -11.741  12.810  67.056  1.00  0.00    -0.440 A  
HETATM   16  C   UNL     1     -11.634  11.620  66.261  1.00  0.00    -0.043 C  
HETATM   17  C   UNL     1     -12.566  13.875  66.685  1.00  0.00    -0.133 A  
ENDBRANCH   7   9
ENDBRANCH   3   4
ENDBRANCH   2   3
BRANCH   2  18
HETATM   18  N   UNL     1      -8.692  17.728  69.613  1.00  0.00     0.769 N  
HETATM   19  O   UNL     1      -9.687  15.890  70.554  1.00  0.00     0.437 OA 
HETATM   20  H   UNL     1      -8.247  18.098  68.773  1.00  0.00     0.000 HD 
HETATM   21  C   UNL     1      -9.150  16.431  69.593  1.00  0.00     0.288 C  
BRANCH  21  22
HETATM   22  C   UNL     1      -8.924  15.731  68.325  1.00  0.00    -0.182 A  
HETATM   23  N   UNL     1      -8.964  14.391  68.191  1.00  0.00    -0.178 NA 
HETATM   24  H   UNL     1      -9.161  13.691  68.907  1.00  0.00     0.000 HD 
HETATM   25  C   UNL     1      -8.627  16.361  67.094  1.00  0.00    -0.204 A  
HETATM   26  N   UNL     1      -8.683  14.192  66.887  1.00  0.00    -0.200 NA 
HETATM   27  C   UNL     1      -8.440  15.343  66.189  1.00  0.00     0.177 A  
BRANCH  27  28
HETATM   28  C   UNL     1      -8.091  15.355  64.747  1.00  0.00     8.157 C  
HETATM   29  C   UNL     1      -9.189  15.973  63.886  1.00  0.00     9.437 C  
HETATM   30  O   UNL     1      -6.893  16.113  64.624  1.00  0.00     6.670 OA 
HETATM   31  H   UNL     1      -6.670  16.121  63.701  1.00  0.00     0.000 HD 
ENDBRANCH  27  28
ENDBRANCH  21  22
ENDBRANCH   2  18
TORSDOF 6
ENDMDL
